# generated using pymatgen
data_Pr3Y16ErBi12
_symmetry_space_group_name_H-M   'P 1'
_cell_length_a   8.45259560
_cell_length_b   9.65423600
_cell_length_c   12.26099500
_cell_angle_alpha   90.00000000
_cell_angle_beta   89.95507221
_cell_angle_gamma   90.00000000
_symmetry_Int_Tables_number   1
_chemical_formula_structural   Pr3Y16ErBi12
_chemical_formula_sum   'Pr3 Y16 Er1 Bi12'
_cell_volume   1000.53799210
_cell_formula_units_Z   1
loop_
 _symmetry_equiv_pos_site_id
 _symmetry_equiv_pos_as_xyz
  1  'x, y, z'
loop_
 _atom_site_type_symbol
 _atom_site_label
 _atom_site_symmetry_multiplicity
 _atom_site_fract_x
 _atom_site_fract_y
 _atom_site_fract_z
 _atom_site_occupancy
  Pr  Pr0  1  0.316671  0.250000  0.218820  1
  Pr  Pr1  1  0.816291  0.250000  0.280792  1
  Pr  Pr2  1  0.683547  0.750000  0.781464  1
  Y  Y3  1  0.352024  0.750000  0.215186  1
  Y  Y4  1  0.852474  0.750000  0.286001  1
  Y  Y5  1  0.645767  0.250000  0.783248  1
  Y  Y6  1  0.148272  0.250000  0.715604  1
  Y  Y7  1  0.691967  0.562486  0.060548  1
  Y  Y8  1  0.193520  0.938000  0.440328  1
  Y  Y9  1  0.307743  0.061934  0.938939  1
  Y  Y10  1  0.805816  0.438576  0.560223  1
  Y  Y11  1  0.307743  0.438066  0.938939  1
  Y  Y12  1  0.805816  0.061424  0.560223  1
  Y  Y13  1  0.691967  0.937514  0.060548  1
  Y  Y14  1  0.193520  0.562000  0.440328  1
  Y  Y15  1  0.474566  0.250000  0.488275  1
  Y  Y16  1  0.976482  0.250000  0.012097  1
  Y  Y17  1  0.524293  0.750000  0.513704  1
  Y  Y18  1  0.024442  0.750000  0.987146  1
  Er  Er19  1  0.186366  0.750000  0.715656  1
  Bi  Bi20  1  0.404936  0.750000  0.961494  1
  Bi  Bi21  1  0.912156  0.750000  0.541248  1
  Bi  Bi22  1  0.593218  0.250000  0.036326  1
  Bi  Bi23  1  0.091436  0.250000  0.463474  1
  Bi  Bi24  1  0.564356  0.990782  0.329414  1
  Bi  Bi25  1  0.063828  0.508835  0.171337  1
  Bi  Bi26  1  0.431105  0.494014  0.672826  1
  Bi  Bi27  1  0.940199  0.005582  0.826117  1
  Bi  Bi28  1  0.431105  0.005986  0.672826  1
  Bi  Bi29  1  0.940199  0.494418  0.826117  1
  Bi  Bi30  1  0.564356  0.509218  0.329414  1
  Bi  Bi31  1  0.063828  0.991165  0.171337  1
