# generated using pymatgen
data_Sm2CdAgRh
_symmetry_space_group_name_H-M   'P 1'
_cell_length_a   7.89459007
_cell_length_b   7.89459007
_cell_length_c   3.87499200
_cell_angle_alpha   90.00000000
_cell_angle_beta   90.00000000
_cell_angle_gamma   89.48068789
_symmetry_Int_Tables_number   1
_chemical_formula_structural   Sm2CdAgRh
_chemical_formula_sum   'Sm4 Cd2 Ag2 Rh2'
_cell_volume   241.49722181
_cell_formula_units_Z   2
loop_
 _symmetry_equiv_pos_site_id
 _symmetry_equiv_pos_as_xyz
  1  'x, y, z'
loop_
 _atom_site_type_symbol
 _atom_site_label
 _atom_site_symmetry_multiplicity
 _atom_site_fract_x
 _atom_site_fract_y
 _atom_site_fract_z
 _atom_site_occupancy
  Sm  Sm0  1  0.656413  0.156413  0.500000  1
  Sm  Sm1  1  0.343587  0.843587  0.500000  1
  Sm  Sm2  1  0.190571  0.309429  0.500000  1
  Sm  Sm3  1  0.809429  0.690571  0.500000  1
  Cd  Cd4  1  0.000000  0.000000  0.000000  1
  Cd  Cd5  1  0.500000  0.500000  0.000000  1
  Ag  Ag6  1  0.127124  0.627124  0.000000  1
  Ag  Ag7  1  0.872876  0.372876  0.000000  1
  Rh  Rh8  1  0.631012  0.868988  0.000000  1
  Rh  Rh9  1  0.368988  0.131012  0.000000  1
