# generated using pymatgen
data_Tb7Dy9(HoPb4)4
_symmetry_space_group_name_H-M   'P 1'
_cell_length_a   8.22396404
_cell_length_b   8.30521703
_cell_length_c   15.67462858
_cell_angle_alpha   89.99715391
_cell_angle_beta   90.03799414
_cell_angle_gamma   89.89080137
_symmetry_Int_Tables_number   1
_chemical_formula_structural   Tb7Dy9(HoPb4)4
_chemical_formula_sum   'Tb7 Dy9 Ho4 Pb16'
_cell_volume   1070.60326272
_cell_formula_units_Z   1
loop_
 _symmetry_equiv_pos_site_id
 _symmetry_equiv_pos_as_xyz
  1  'x, y, z'
loop_
 _atom_site_type_symbol
 _atom_site_label
 _atom_site_symmetry_multiplicity
 _atom_site_fract_x
 _atom_site_fract_y
 _atom_site_fract_z
 _atom_site_occupancy
  Tb  Tb0  1  0.034930  0.176634  0.599981  1
  Tb  Tb1  1  0.464641  0.676126  0.400261  1
  Tb  Tb2  1  0.964704  0.823660  0.099713  1
  Tb  Tb3  1  0.464522  0.675889  0.099765  1
  Tb  Tb4  1  0.965123  0.823423  0.400362  1
  Tb  Tb5  1  0.534918  0.323608  0.599875  1
  Tb  Tb6  1  0.035037  0.176644  0.900300  1
  Dy  Dy7  1  0.376381  0.841677  0.878613  1
  Dy  Dy8  1  0.875561  0.657870  0.621042  1
  Dy  Dy9  1  0.623642  0.158203  0.378626  1
  Dy  Dy10  1  0.123780  0.341865  0.120763  1
  Dy  Dy11  1  0.623233  0.158235  0.121156  1
  Dy  Dy12  1  0.124205  0.341971  0.379133  1
  Dy  Dy13  1  0.376331  0.841965  0.621640  1
  Dy  Dy14  1  0.876123  0.658153  0.879107  1
  Dy  Dy15  1  0.536734  0.324548  0.899598  1
  Ho  Ho16  1  0.208355  0.504249  0.750231  1
  Ho  Ho17  1  0.708508  0.995843  0.750198  1
  Ho  Ho18  1  0.791578  0.495608  0.249797  1
  Ho  Ho19  1  0.291184  0.004214  0.249938  1
  Pb  Pb20  1  0.282653  0.033853  0.042908  1
  Pb  Pb21  1  0.782299  0.465196  0.457071  1
  Pb  Pb22  1  0.717393  0.966000  0.543064  1
  Pb  Pb23  1  0.219001  0.533728  0.956766  1
  Pb  Pb24  1  0.716807  0.966602  0.956902  1
  Pb  Pb25  1  0.217409  0.534875  0.543071  1
  Pb  Pb26  1  0.282721  0.034150  0.457171  1
  Pb  Pb27  1  0.781783  0.464668  0.042363  1
  Pb  Pb28  1  0.571490  0.625701  0.750017  1
  Pb  Pb29  1  0.071004  0.873622  0.750020  1
  Pb  Pb30  1  0.428659  0.374038  0.249790  1
  Pb  Pb31  1  0.928871  0.126568  0.249963  1
  Pb  Pb32  1  0.347205  0.154086  0.750599  1
  Pb  Pb33  1  0.846536  0.346901  0.750223  1
  Pb  Pb34  1  0.653193  0.846471  0.250031  1
  Pb  Pb35  1  0.153486  0.653155  0.249942  1
