# generated using pymatgen
data_Hf18TiBe2Mo7
_symmetry_space_group_name_H-M   'P 1'
_cell_length_a   8.49394900
_cell_length_b   8.64590029
_cell_length_c   8.64587303
_cell_angle_alpha   119.99863813
_cell_angle_beta   90.00282892
_cell_angle_gamma   89.99890950
_symmetry_Int_Tables_number   1
_chemical_formula_structural   Hf18TiBe2Mo7
_chemical_formula_sum   'Hf18 Ti1 Be2 Mo7'
_cell_volume   549.87669800
_cell_formula_units_Z   1
loop_
 _symmetry_equiv_pos_site_id
 _symmetry_equiv_pos_as_xyz
  1  'x, y, z'
loop_
 _atom_site_type_symbol
 _atom_site_label
 _atom_site_symmetry_multiplicity
 _atom_site_fract_x
 _atom_site_fract_y
 _atom_site_fract_z
 _atom_site_occupancy
  Hf  Hf0  1  0.553578  0.799820  0.599614  1
  Hf  Hf1  1  0.553603  0.799785  0.200221  1
  Hf  Hf2  1  0.553586  0.400384  0.200184  1
  Hf  Hf3  1  0.446422  0.200180  0.400386  1
  Hf  Hf4  1  0.446397  0.200215  0.799779  1
  Hf  Hf5  1  0.446414  0.599616  0.799816  1
  Hf  Hf6  1  0.054510  0.200755  0.401451  1
  Hf  Hf7  1  0.054526  0.200738  0.799272  1
  Hf  Hf8  1  0.054504  0.598546  0.799250  1
  Hf  Hf9  1  0.945490  0.799245  0.598549  1
  Hf  Hf10  1  0.945474  0.799262  0.200728  1
  Hf  Hf11  1  0.945496  0.401454  0.200750  1
  Hf  Hf12  1  0.750890  0.459923  0.919855  1
  Hf  Hf13  1  0.750856  0.459903  0.540097  1
  Hf  Hf14  1  0.750896  0.080152  0.540082  1
  Hf  Hf15  1  0.249110  0.540077  0.080145  1
  Hf  Hf16  1  0.249144  0.540097  0.459903  1
  Hf  Hf17  1  0.249104  0.919848  0.459918  1
  Ti  Ti18  1  0.500000  0.000000  0.000000  1
  Be  Be19  1  0.749524  0.666626  0.333374  1
  Be  Be20  1  0.250476  0.333374  0.666626  1
  Mo  Mo21  1  0.750143  0.112556  0.225157  1
  Mo  Mo22  1  0.750130  0.112579  0.887428  1
  Mo  Mo23  1  0.750143  0.774841  0.887447  1
  Mo  Mo24  1  0.249857  0.887444  0.774843  1
  Mo  Mo25  1  0.249870  0.887421  0.112572  1
  Mo  Mo26  1  0.249857  0.225159  0.112553  1
  Mo  Mo27  1  0.000000  0.000000  0.000000  1
