# generated using pymatgen
data_Ta4Mn6SiAs
_symmetry_space_group_name_H-M   'P 1'
_cell_length_a   4.89429800
_cell_length_b   4.89429815
_cell_length_c   7.88581400
_cell_angle_alpha   90.00000000
_cell_angle_beta   90.00000000
_cell_angle_gamma   120.00001249
_symmetry_Int_Tables_number   1
_chemical_formula_structural   Ta4Mn6SiAs
_chemical_formula_sum   'Ta4 Mn6 Si1 As1'
_cell_volume   163.59044637
_cell_formula_units_Z   1
loop_
 _symmetry_equiv_pos_site_id
 _symmetry_equiv_pos_as_xyz
  1  'x, y, z'
loop_
 _atom_site_type_symbol
 _atom_site_label
 _atom_site_symmetry_multiplicity
 _atom_site_fract_x
 _atom_site_fract_y
 _atom_site_fract_z
 _atom_site_occupancy
  Ta  Ta0  1  0.333333  0.666667  0.433559  1
  Ta  Ta1  1  0.666667  0.333333  0.566441  1
  Ta  Ta2  1  0.666667  0.333333  0.937688  1
  Ta  Ta3  1  0.333333  0.666667  0.062312  1
  Mn  Mn4  1  0.827940  0.172060  0.247422  1
  Mn  Mn5  1  0.827940  0.655881  0.247422  1
  Mn  Mn6  1  0.344119  0.172060  0.247422  1
  Mn  Mn7  1  0.172060  0.827940  0.752578  1
  Mn  Mn8  1  0.172060  0.344119  0.752578  1
  Mn  Mn9  1  0.655881  0.827940  0.752578  1
  Si  Si10  1  0.000000  0.000000  0.000000  1
  As  As11  1  0.000000  0.000000  0.500000  1
