# generated using pymatgen
data_LiTa2(SiRu2)3
_symmetry_space_group_name_H-M   'P 1'
_cell_length_a   4.27945700
_cell_length_b   6.06320800
_cell_length_c   12.78517100
_cell_angle_alpha   90.00000000
_cell_angle_beta   90.00002683
_cell_angle_gamma   90.00000000
_symmetry_Int_Tables_number   1
_chemical_formula_structural   LiTa2(SiRu2)3
_chemical_formula_sum   'Li2 Ta4 Si6 Ru12'
_cell_volume   331.73987376
_cell_formula_units_Z   2
loop_
 _symmetry_equiv_pos_site_id
 _symmetry_equiv_pos_as_xyz
  1  'x, y, z'
loop_
 _atom_site_type_symbol
 _atom_site_label
 _atom_site_symmetry_multiplicity
 _atom_site_fract_x
 _atom_site_fract_y
 _atom_site_fract_z
 _atom_site_occupancy
  Li  Li0  1  0.000263  0.000000  0.666231  1
  Li  Li1  1  0.500262  0.500000  0.833682  1
  Ta  Ta2  1  0.999996  0.000000  0.988295  1
  Ta  Ta3  1  0.499840  0.500000  0.163838  1
  Ta  Ta4  1  0.999840  0.000000  0.336138  1
  Ta  Ta5  1  0.499998  0.500000  0.511694  1
  Si  Si6  1  0.000008  0.500000  0.979654  1
  Si  Si7  1  0.499846  0.000000  0.159429  1
  Si  Si8  1  0.999846  0.500000  0.340571  1
  Si  Si9  1  0.500008  0.000000  0.520428  1
  Si  Si10  1  0.000117  0.500000  0.672907  1
  Si  Si11  1  0.500117  0.000000  0.827025  1
  Ru  Ru12  1  0.499977  0.251583  0.999779  1
  Ru  Ru13  1  0.499977  0.748416  0.999779  1
  Ru  Ru14  1  0.999851  0.249365  0.166452  1
  Ru  Ru15  1  0.999851  0.750636  0.166452  1
  Ru  Ru16  1  0.499851  0.250636  0.333539  1
  Ru  Ru17  1  0.499851  0.749366  0.333539  1
  Ru  Ru18  1  0.999979  0.248417  0.500260  1
  Ru  Ru19  1  0.999979  0.751584  0.500260  1
  Ru  Ru20  1  0.500134  0.249968  0.671193  1
  Ru  Ru21  1  0.500134  0.750034  0.671193  1
  Ru  Ru22  1  0.000139  0.250236  0.828830  1
  Ru  Ru23  1  0.000139  0.749765  0.828830  1
