# generated using pymatgen
data_DyHo15(In3Cu)2
_symmetry_space_group_name_H-M   'P 1'
_cell_length_a   10.51522500
_cell_length_b   10.51760474
_cell_length_c   6.81904403
_cell_angle_alpha   90.01015102
_cell_angle_beta   90.00000000
_cell_angle_gamma   119.99251243
_symmetry_Int_Tables_number   1
_chemical_formula_structural   DyHo15(In3Cu)2
_chemical_formula_sum   'Dy1 Ho15 In6 Cu2'
_cell_volume   653.16408366
_cell_formula_units_Z   1
loop_
 _symmetry_equiv_pos_site_id
 _symmetry_equiv_pos_as_xyz
  1  'x, y, z'
loop_
 _atom_site_type_symbol
 _atom_site_label
 _atom_site_symmetry_multiplicity
 _atom_site_fract_x
 _atom_site_fract_y
 _atom_site_fract_z
 _atom_site_occupancy
  Dy  Dy0  1  0.525933  0.051868  0.508094  1
  Ho  Ho1  1  0.948069  0.473856  0.508618  1
  Ho  Ho2  1  0.525787  0.473856  0.508618  1
  Ho  Ho3  1  0.473993  0.947985  0.008228  1
  Ho  Ho4  1  0.051766  0.525959  0.008740  1
  Ho  Ho5  1  0.474192  0.525959  0.008740  1
  Ho  Ho6  1  0.174997  0.349992  0.722523  1
  Ho  Ho7  1  0.649682  0.824693  0.722303  1
  Ho  Ho8  1  0.175010  0.824693  0.722303  1
  Ho  Ho9  1  0.825036  0.650073  0.222586  1
  Ho  Ho10  1  0.350319  0.175190  0.221856  1
  Ho  Ho11  1  0.824870  0.175190  0.221856  1
  Ho  Ho12  1  0.666931  0.333862  0.880211  1
  Ho  Ho13  1  0.333093  0.666186  0.380261  1
  Ho  Ho14  1  0.000098  0.000196  0.490817  1
  Ho  Ho15  1  0.999975  0.999950  0.990921  1
  In  In16  1  0.836085  0.672171  0.743740  1
  In  In17  1  0.328178  0.164206  0.744173  1
  In  In18  1  0.836028  0.164206  0.744173  1
  In  In19  1  0.163870  0.327742  0.243719  1
  In  In20  1  0.672064  0.836075  0.243916  1
  In  In21  1  0.164010  0.836075  0.243916  1
  Cu  Cu22  1  0.667127  0.334254  0.283037  1
  Cu  Cu23  1  0.332882  0.665766  0.784697  1
