# generated using pymatgen
data_CsCaMoH9
_symmetry_space_group_name_H-M   'P 1'
_cell_length_a   9.23254300
_cell_length_b   9.23254257
_cell_length_c   5.68606100
_cell_angle_alpha   90.00000000
_cell_angle_beta   90.00000000
_cell_angle_gamma   120.00000511
_symmetry_Int_Tables_number   1
_chemical_formula_structural   CsCaMoH9
_chemical_formula_sum   'Cs3 Ca3 Mo3 H27'
_cell_volume   419.74427548
_cell_formula_units_Z   3
loop_
 _symmetry_equiv_pos_site_id
 _symmetry_equiv_pos_as_xyz
  1  'x, y, z'
loop_
 _atom_site_type_symbol
 _atom_site_label
 _atom_site_symmetry_multiplicity
 _atom_site_fract_x
 _atom_site_fract_y
 _atom_site_fract_z
 _atom_site_occupancy
  Cs  Cs0  1  0.000000  0.586776  0.000000  1
  Cs  Cs1  1  0.413224  0.413224  0.000000  1
  Cs  Cs2  1  0.586776  0.000000  0.000000  1
  Ca  Ca3  1  0.000000  0.278966  0.500000  1
  Ca  Ca4  1  0.721034  0.721034  0.500000  1
  Ca  Ca5  1  0.278966  0.000000  0.500000  1
  Mo  Mo6  1  0.666667  0.333333  0.500000  1
  Mo  Mo7  1  0.333333  0.666667  0.500000  1
  Mo  Mo8  1  0.000000  0.000000  0.000000  1
  H  H9  1  0.787402  0.303859  0.716489  1
  H  H10  1  0.696141  0.483543  0.716489  1
  H  H11  1  0.516457  0.212598  0.716489  1
  H  H12  1  0.212598  0.516457  0.283511  1
  H  H13  1  0.516457  0.212598  0.283511  1
  H  H14  1  0.787402  0.303859  0.283511  1
  H  H15  1  0.696141  0.483543  0.283511  1
  H  H16  1  0.303859  0.787402  0.716489  1
  H  H17  1  0.483543  0.696141  0.716489  1
  H  H18  1  0.188325  0.000000  0.000000  1
  H  H19  1  0.811675  0.811675  0.000000  1
  H  H20  1  0.000000  0.188325  0.000000  1
  H  H21  1  0.867935  0.000000  0.231352  1
  H  H22  1  0.132065  0.132065  0.768648  1
  H  H23  1  0.000000  0.867935  0.768648  1
  H  H24  1  0.000000  0.867935  0.231352  1
  H  H25  1  0.132065  0.132065  0.231352  1
  H  H26  1  0.867935  0.000000  0.768648  1
  H  H27  1  0.130249  0.629124  0.500000  1
  H  H28  1  0.498876  0.869751  0.500000  1
  H  H29  1  0.370876  0.501124  0.500000  1
  H  H30  1  0.501124  0.370876  0.500000  1
  H  H31  1  0.869751  0.498876  0.500000  1
  H  H32  1  0.629124  0.130249  0.500000  1
  H  H33  1  0.212598  0.516457  0.716489  1
  H  H34  1  0.303859  0.787402  0.283511  1
  H  H35  1  0.483543  0.696141  0.283511  1
