# generated using pymatgen
data_Tb2Al5Ga4Ir2Pt
_symmetry_space_group_name_H-M   'P 1'
_cell_length_a   7.58072350
_cell_length_b   7.57380622
_cell_length_c   9.54772147
_cell_angle_alpha   90.04467037
_cell_angle_beta   89.79884019
_cell_angle_gamma   119.77298525
_symmetry_Int_Tables_number   1
_chemical_formula_structural   Tb2Al5Ga4Ir2Pt
_chemical_formula_sum   'Tb4 Al10 Ga8 Ir4 Pt2'
_cell_volume   475.81837196
_cell_formula_units_Z   2
loop_
 _symmetry_equiv_pos_site_id
 _symmetry_equiv_pos_as_xyz
  1  'x, y, z'
loop_
 _atom_site_type_symbol
 _atom_site_label
 _atom_site_symmetry_multiplicity
 _atom_site_fract_x
 _atom_site_fract_y
 _atom_site_fract_z
 _atom_site_occupancy
  Tb  Tb0  1  0.996575  0.666738  0.246406  1
  Tb  Tb1  1  0.003425  0.333262  0.753594  1
  Tb  Tb2  1  0.671597  0.998447  0.249686  1
  Tb  Tb3  1  0.328403  0.001553  0.750314  1
  Al  Al4  1  0.998585  0.665470  0.570066  1
  Al  Al5  1  0.334675  0.999641  0.427183  1
  Al  Al6  1  0.001415  0.334530  0.429934  1
  Al  Al7  1  0.665325  0.000359  0.572817  1
  Al  Al8  1  0.667961  0.997496  0.923335  1
  Al  Al9  1  0.332039  0.002504  0.076665  1
  Al  Al10  1  0.332524  0.332410  0.555594  1
  Al  Al11  1  0.667476  0.667590  0.444406  1
  Al  Al12  1  0.669462  0.668341  0.059149  1
  Al  Al13  1  0.330538  0.331659  0.940851  1
  Ga  Ga14  1  0.128420  0.124141  0.251301  1
  Ga  Ga15  1  0.871580  0.875859  0.748699  1
  Ga  Ga16  1  0.999063  0.330528  0.083330  1
  Ga  Ga17  1  0.000937  0.669472  0.916670  1
  Ga  Ga18  1  0.343511  0.547967  0.254002  1
  Ga  Ga19  1  0.656489  0.452033  0.745998  1
  Ga  Ga20  1  0.545846  0.341825  0.252975  1
  Ga  Ga21  1  0.454154  0.658175  0.747025  1
  Ir  Ir22  1  0.327703  0.671169  0.500735  1
  Ir  Ir23  1  0.672297  0.328831  0.499265  1
  Ir  Ir24  1  0.000000  0.000000  0.000000  1
  Ir  Ir25  1  0.000000  0.000000  0.500000  1
  Pt  Pt26  1  0.664468  0.324799  0.998593  1
  Pt  Pt27  1  0.335532  0.675201  0.001407  1
