# generated using pymatgen
data_Er16MgCo4AgAu2
_symmetry_space_group_name_H-M   'P 1'
_cell_length_a   9.35752461
_cell_length_b   9.36425340
_cell_length_c   9.36425169
_cell_angle_alpha   59.90058766
_cell_angle_beta   59.77644542
_cell_angle_gamma   59.77644067
_symmetry_Int_Tables_number   1
_chemical_formula_structural   Er16MgCo4AgAu2
_chemical_formula_sum   'Er16 Mg1 Co4 Ag1 Au2'
_cell_volume   577.81828623
_cell_formula_units_Z   1
loop_
 _symmetry_equiv_pos_site_id
 _symmetry_equiv_pos_as_xyz
  1  'x, y, z'
loop_
 _atom_site_type_symbol
 _atom_site_label
 _atom_site_symmetry_multiplicity
 _atom_site_fract_x
 _atom_site_fract_y
 _atom_site_fract_z
 _atom_site_occupancy
  Er  Er0  1  0.597619  0.595419  0.595419  1
  Er  Er1  1  0.596435  0.594984  0.213247  1
  Er  Er2  1  0.596435  0.213247  0.594984  1
  Er  Er3  1  0.189684  0.602801  0.602801  1
  Er  Er4  1  0.056346  0.441864  0.441864  1
  Er  Er5  1  0.436089  0.063956  0.063956  1
  Er  Er6  1  0.437086  0.063429  0.436556  1
  Er  Er7  1  0.057372  0.440107  0.061370  1
  Er  Er8  1  0.437086  0.436556  0.063429  1
  Er  Er9  1  0.057372  0.061370  0.440107  1
  Er  Er10  1  0.188770  0.811321  0.811321  1
  Er  Er11  1  0.814219  0.185887  0.185887  1
  Er  Er12  1  0.814050  0.188962  0.813844  1
  Er  Er13  1  0.185464  0.811969  0.190585  1
  Er  Er14  1  0.814050  0.813844  0.188962  1
  Er  Er15  1  0.185464  0.190585  0.811969  1
  Mg  Mg16  1  0.555753  0.813767  0.813767  1
  Co  Co17  1  0.384013  0.394732  0.394732  1
  Co  Co18  1  0.383785  0.395486  0.826561  1
  Co  Co19  1  0.383785  0.826561  0.395486  1
  Co  Co20  1  0.825746  0.391699  0.391699  1
  Ag  Ag21  1  0.832990  0.835667  0.835667  1
  Au  Au22  1  0.835195  0.839747  0.486042  1
  Au  Au23  1  0.835195  0.486042  0.839747  1
