# generated using pymatgen
data_Lu3Cd3Ga2Ag
_symmetry_space_group_name_H-M   'P 1'
_cell_length_a   7.26124900
_cell_length_b   7.26125003
_cell_length_c   4.31457800
_cell_angle_alpha   90.00000000
_cell_angle_beta   90.00000000
_cell_angle_gamma   119.99999985
_symmetry_Int_Tables_number   1
_chemical_formula_structural   Lu3Cd3Ga2Ag
_chemical_formula_sum   'Lu3 Cd3 Ga2 Ag1'
_cell_volume   197.01154556
_cell_formula_units_Z   1
loop_
 _symmetry_equiv_pos_site_id
 _symmetry_equiv_pos_as_xyz
  1  'x, y, z'
loop_
 _atom_site_type_symbol
 _atom_site_label
 _atom_site_symmetry_multiplicity
 _atom_site_fract_x
 _atom_site_fract_y
 _atom_site_fract_z
 _atom_site_occupancy
  Lu  Lu0  1  0.421244  0.421244  0.500000  1
  Lu  Lu1  1  0.578756  0.000000  0.500000  1
  Lu  Lu2  1  0.000000  0.578756  0.500000  1
  Cd  Cd3  1  0.748346  0.748346  0.000000  1
  Cd  Cd4  1  0.251654  0.000000  0.000000  1
  Cd  Cd5  1  0.000000  0.251654  0.000000  1
  Ga  Ga6  1  0.666667  0.333333  0.000000  1
  Ga  Ga7  1  0.333333  0.666667  0.000000  1
  Ag  Ag8  1  0.000000  0.000000  0.500000  1
