# generated using pymatgen
data_Er7Lu(ReB6)4
_symmetry_space_group_name_H-M   'P 1'
_cell_length_a   3.65155700
_cell_length_b   9.11984401
_cell_length_c   11.49182101
_cell_angle_alpha   90.00412479
_cell_angle_beta   90.00000000
_cell_angle_gamma   90.00000000
_symmetry_Int_Tables_number   1
_chemical_formula_structural   Er7Lu(ReB6)4
_chemical_formula_sum   'Er7 Lu1 Re4 B24'
_cell_volume   382.69637274
_cell_formula_units_Z   1
loop_
 _symmetry_equiv_pos_site_id
 _symmetry_equiv_pos_as_xyz
  1  'x, y, z'
loop_
 _atom_site_type_symbol
 _atom_site_label
 _atom_site_symmetry_multiplicity
 _atom_site_fract_x
 _atom_site_fract_y
 _atom_site_fract_z
 _atom_site_occupancy
  Er  Er0  1  0.000000  0.323550  0.413943  1
  Er  Er1  1  0.000000  0.676464  0.586448  1
  Er  Er2  1  0.000000  0.823173  0.085997  1
  Er  Er3  1  0.000000  0.176678  0.913740  1
  Er  Er4  1  0.000000  0.943364  0.370319  1
  Er  Er5  1  0.000000  0.056763  0.630025  1
  Er  Er6  1  0.000000  0.443528  0.129071  1
  Lu  Lu7  1  0.000000  0.556840  0.870006  1
  Re  Re8  1  0.000000  0.638620  0.320388  1
  Re  Re9  1  0.000000  0.361915  0.680200  1
  Re  Re10  1  0.000000  0.138855  0.179044  1
  Re  Re11  1  0.000000  0.860190  0.820573  1
  B  B12  1  0.500000  0.553086  0.433239  1
  B  B13  1  0.500000  0.447134  0.567252  1
  B  B14  1  0.500000  0.052982  0.066623  1
  B  B15  1  0.500000  0.946127  0.933141  1
  B  B16  1  0.500000  0.749541  0.418975  1
  B  B17  1  0.500000  0.250750  0.581370  1
  B  B18  1  0.500000  0.249823  0.080732  1
  B  B19  1  0.500000  0.749114  0.918933  1
  B  B20  1  0.500000  0.792635  0.265045  1
  B  B21  1  0.500000  0.207771  0.735189  1
  B  B22  1  0.500000  0.292838  0.234638  1
  B  B23  1  0.500000  0.706398  0.765496  1
  B  B24  1  0.500000  0.630790  0.184761  1
  B  B25  1  0.500000  0.370143  0.815472  1
  B  B26  1  0.500000  0.131029  0.314867  1
  B  B27  1  0.500000  0.868697  0.685298  1
  B  B28  1  0.500000  0.981823  0.211906  1
  B  B29  1  0.500000  0.017842  0.788262  1
  B  B30  1  0.500000  0.481668  0.287867  1
  B  B31  1  0.500000  0.518796  0.712664  1
  B  B32  1  0.500000  0.599315  0.026697  1
  B  B33  1  0.500000  0.401647  0.971516  1
  B  B34  1  0.500000  0.100208  0.472285  1
  B  B35  1  0.500000  0.899900  0.528018  1
