# generated using pymatgen
data_La7NdZn8(IrPd)4
_symmetry_space_group_name_H-M   'P 1'
_cell_length_a   4.09046700
_cell_length_b   7.50080474
_cell_length_c   16.86025876
_cell_angle_alpha   89.88821738
_cell_angle_beta   90.00000000
_cell_angle_gamma   90.00000000
_symmetry_Int_Tables_number   1
_chemical_formula_structural   La7NdZn8(IrPd)4
_chemical_formula_sum   'La7 Nd1 Zn8 Ir4 Pd4'
_cell_volume   517.30200588
_cell_formula_units_Z   1
loop_
 _symmetry_equiv_pos_site_id
 _symmetry_equiv_pos_as_xyz
  1  'x, y, z'
loop_
 _atom_site_type_symbol
 _atom_site_label
 _atom_site_symmetry_multiplicity
 _atom_site_fract_x
 _atom_site_fract_y
 _atom_site_fract_z
 _atom_site_occupancy
  La  La0  1  0.250000  0.040082  0.715684  1
  La  La1  1  0.250000  0.556334  0.779415  1
  La  La2  1  0.250000  0.677008  0.557023  1
  La  La3  1  0.750000  0.828329  0.064478  1
  La  La4  1  0.250000  0.174536  0.947158  1
  La  La5  1  0.750000  0.453986  0.212945  1
  La  La6  1  0.750000  0.940474  0.284314  1
  Nd  Nd7  1  0.750000  0.333419  0.439894  1
  Zn  Zn8  1  0.250000  0.121700  0.149768  1
  Zn  Zn9  1  0.250000  0.999957  0.438624  1
  Zn  Zn10  1  0.750000  0.874989  0.848939  1
  Zn  Zn11  1  0.750000  0.000620  0.558111  1
  Zn  Zn12  1  0.250000  0.498239  0.061737  1
  Zn  Zn13  1  0.750000  0.379886  0.649467  1
  Zn  Zn14  1  0.750000  0.500933  0.940747  1
  Zn  Zn15  1  0.250000  0.622180  0.351687  1
  Ir  Ir16  1  0.250000  0.748654  0.184341  1
  Ir  Ir17  1  0.750000  0.757451  0.434509  1
  Ir  Ir18  1  0.750000  0.260590  0.065758  1
  Ir  Ir19  1  0.750000  0.750613  0.686025  1
  Pd  Pd20  1  0.750000  0.252346  0.814155  1
  Pd  Pd21  1  0.250000  0.247151  0.315129  1
  Pd  Pd22  1  0.250000  0.739990  0.933917  1
  Pd  Pd23  1  0.250000  0.240532  0.566176  1
