# generated using pymatgen
data_HoTmZn2IrRh
_symmetry_space_group_name_H-M   'P 1'
_cell_length_a   4.04195200
_cell_length_b   6.94700485
_cell_length_c   8.07047556
_cell_angle_alpha   89.76523166
_cell_angle_beta   90.00000000
_cell_angle_gamma   90.00000000
_symmetry_Int_Tables_number   1
_chemical_formula_structural   HoTmZn2IrRh
_chemical_formula_sum   'Ho2 Tm2 Zn4 Ir2 Rh2'
_cell_volume   226.61269448
_cell_formula_units_Z   2
loop_
 _symmetry_equiv_pos_site_id
 _symmetry_equiv_pos_as_xyz
  1  'x, y, z'
loop_
 _atom_site_type_symbol
 _atom_site_label
 _atom_site_symmetry_multiplicity
 _atom_site_fract_x
 _atom_site_fract_y
 _atom_site_fract_z
 _atom_site_occupancy
  Ho  Ho0  1  0.250000  0.534863  0.182841  1
  Ho  Ho1  1  0.750000  0.465137  0.817159  1
  Tm  Tm2  1  0.750000  0.962579  0.683903  1
  Tm  Tm3  1  0.250000  0.037421  0.316097  1
  Zn  Zn4  1  0.250000  0.638404  0.565105  1
  Zn  Zn5  1  0.750000  0.361596  0.434895  1
  Zn  Zn6  1  0.750000  0.861655  0.065704  1
  Zn  Zn7  1  0.250000  0.138345  0.934296  1
  Ir  Ir8  1  0.250000  0.757947  0.876093  1
  Ir  Ir9  1  0.750000  0.242053  0.123907  1
  Rh  Rh10  1  0.750000  0.745683  0.379427  1
  Rh  Rh11  1  0.250000  0.254317  0.620573  1
