# generated using pymatgen
data_TlSi2Au5
_symmetry_space_group_name_H-M   'P 1'
_cell_length_a   7.18965500
_cell_length_b   8.94695600
_cell_length_c   10.17640300
_cell_angle_alpha   90.00000000
_cell_angle_beta   90.00000000
_cell_angle_gamma   90.00000000
_symmetry_Int_Tables_number   1
_chemical_formula_structural   TlSi2Au5
_chemical_formula_sum   'Tl4 Si8 Au20'
_cell_volume   654.60248533
_cell_formula_units_Z   4
loop_
 _symmetry_equiv_pos_site_id
 _symmetry_equiv_pos_as_xyz
  1  'x, y, z'
loop_
 _atom_site_type_symbol
 _atom_site_label
 _atom_site_symmetry_multiplicity
 _atom_site_fract_x
 _atom_site_fract_y
 _atom_site_fract_z
 _atom_site_occupancy
  Tl  Tl0  1  0.250000  0.243100  0.113859  1
  Tl  Tl1  1  0.250000  0.743100  0.386141  1
  Tl  Tl2  1  0.750000  0.756900  0.886141  1
  Tl  Tl3  1  0.750000  0.256900  0.613859  1
  Si  Si4  1  0.250000  0.051702  0.644007  1
  Si  Si5  1  0.250000  0.551702  0.855993  1
  Si  Si6  1  0.750000  0.948298  0.355993  1
  Si  Si7  1  0.750000  0.448298  0.144007  1
  Si  Si8  1  0.250000  0.302991  0.454464  1
  Si  Si9  1  0.250000  0.802991  0.045536  1
  Si  Si10  1  0.750000  0.697009  0.545536  1
  Si  Si11  1  0.750000  0.197009  0.954464  1
  Au  Au12  1  0.049061  0.081590  0.383363  1
  Au  Au13  1  0.450939  0.581590  0.116637  1
  Au  Au14  1  0.549061  0.918410  0.616637  1
  Au  Au15  1  0.950939  0.418410  0.883363  1
  Au  Au16  1  0.950939  0.918410  0.616637  1
  Au  Au17  1  0.549061  0.418410  0.883363  1
  Au  Au18  1  0.450939  0.081590  0.383363  1
  Au  Au19  1  0.049061  0.581590  0.116637  1
  Au  Au20  1  0.032606  0.081002  0.871915  1
  Au  Au21  1  0.467394  0.581002  0.628085  1
  Au  Au22  1  0.532606  0.918998  0.128085  1
  Au  Au23  1  0.967394  0.418998  0.371915  1
  Au  Au24  1  0.967394  0.918998  0.128085  1
  Au  Au25  1  0.532606  0.418998  0.371915  1
  Au  Au26  1  0.467394  0.081002  0.871915  1
  Au  Au27  1  0.032606  0.581002  0.628085  1
  Au  Au28  1  0.250000  0.318554  0.694428  1
  Au  Au29  1  0.250000  0.818554  0.805572  1
  Au  Au30  1  0.750000  0.681446  0.305572  1
  Au  Au31  1  0.750000  0.181446  0.194428  1
