# generated using pymatgen
data_K2U(PO4)2
_symmetry_space_group_name_H-M   'P 1'
_cell_length_a   5.35142001
_cell_length_b   5.35141941
_cell_length_c   9.36543400
_cell_angle_alpha   90.00000000
_cell_angle_beta   90.00000000
_cell_angle_gamma   119.99999247
_symmetry_Int_Tables_number   1
_chemical_formula_structural   K2U(PO4)2
_chemical_formula_sum   'K2 U1 P2 O8'
_cell_volume   232.27186096
_cell_formula_units_Z   1
loop_
 _symmetry_equiv_pos_site_id
 _symmetry_equiv_pos_as_xyz
  1  'x, y, z'
loop_
 _atom_site_type_symbol
 _atom_site_label
 _atom_site_symmetry_multiplicity
 _atom_site_fract_x
 _atom_site_fract_y
 _atom_site_fract_z
 _atom_site_occupancy
  K  K0  1  0.333333  0.666667  0.649252  1
  K  K1  1  0.666667  0.333333  0.350748  1
  U  U2  1  0.000000  0.000000  0.000000  1
  P  P3  1  0.333333  0.666667  0.205464  1
  P  P4  1  0.666667  0.333333  0.794536  1
  O  O5  1  0.333333  0.666667  0.368020  1
  O  O6  1  0.666667  0.333333  0.631980  1
  O  O7  1  0.285109  0.913254  0.146147  1
  O  O8  1  0.086746  0.371855  0.146147  1
  O  O9  1  0.628145  0.714891  0.146147  1
  O  O10  1  0.714891  0.086746  0.853853  1
  O  O11  1  0.913254  0.628145  0.853853  1
  O  O12  1  0.371855  0.285109  0.853853  1
