# generated using pymatgen
data_Tb3Dy5(TmPt4)2
_symmetry_space_group_name_H-M   'P 1'
_cell_length_a   7.48072400
_cell_length_b   7.58410207
_cell_length_c   14.78105500
_cell_angle_alpha   90.00797023
_cell_angle_beta   90.00000000
_cell_angle_gamma   90.00000000
_symmetry_Int_Tables_number   1
_chemical_formula_structural   Tb3Dy5(TmPt4)2
_chemical_formula_sum   'Tb6 Dy10 Tm4 Pt16'
_cell_volume   838.59685648
_cell_formula_units_Z   2
loop_
 _symmetry_equiv_pos_site_id
 _symmetry_equiv_pos_as_xyz
  1  'x, y, z'
loop_
 _atom_site_type_symbol
 _atom_site_label
 _atom_site_symmetry_multiplicity
 _atom_site_fract_x
 _atom_site_fract_y
 _atom_site_fract_z
 _atom_site_occupancy
  Tb  Tb0  1  0.498142  0.320338  0.093433  1
  Tb  Tb1  1  0.998142  0.179662  0.406567  1
  Tb  Tb2  1  0.498174  0.320514  0.406651  1
  Tb  Tb3  1  0.998174  0.179486  0.093349  1
  Tb  Tb4  1  0.501845  0.679785  0.906551  1
  Tb  Tb5  1  0.001845  0.820215  0.593449  1
  Dy  Dy6  1  0.656659  0.168196  0.622724  1
  Dy  Dy7  1  0.156659  0.331804  0.877276  1
  Dy  Dy8  1  0.343227  0.831869  0.122630  1
  Dy  Dy9  1  0.843227  0.668131  0.377370  1
  Dy  Dy10  1  0.343479  0.831666  0.377439  1
  Dy  Dy11  1  0.843479  0.668334  0.122561  1
  Dy  Dy12  1  0.656854  0.168091  0.877311  1
  Dy  Dy13  1  0.156854  0.331909  0.622689  1
  Dy  Dy14  1  0.502125  0.679823  0.593572  1
  Dy  Dy15  1  0.002125  0.820177  0.906428  1
  Tm  Tm16  1  0.818849  0.512622  0.749977  1
  Tm  Tm17  1  0.318849  0.987378  0.750023  1
  Tm  Tm18  1  0.181063  0.487508  0.249987  1
  Tm  Tm19  1  0.681063  0.012492  0.250013  1
  Pt  Pt20  1  0.683028  0.967788  0.457795  1
  Pt  Pt21  1  0.183028  0.532212  0.042205  1
  Pt  Pt22  1  0.316359  0.031645  0.957670  1
  Pt  Pt23  1  0.816359  0.468355  0.542330  1
  Pt  Pt24  1  0.317051  0.031609  0.542375  1
  Pt  Pt25  1  0.817051  0.468391  0.957625  1
  Pt  Pt26  1  0.683226  0.967826  0.042145  1
  Pt  Pt27  1  0.183226  0.532174  0.457855  1
  Pt  Pt28  1  0.454297  0.387905  0.749890  1
  Pt  Pt29  1  0.954297  0.112095  0.750110  1
  Pt  Pt30  1  0.545720  0.612352  0.249992  1
  Pt  Pt31  1  0.045720  0.887648  0.250008  1
  Pt  Pt32  1  0.681829  0.855935  0.749862  1
  Pt  Pt33  1  0.181829  0.644065  0.750138  1
  Pt  Pt34  1  0.318076  0.143855  0.250000  1
  Pt  Pt35  1  0.818076  0.356145  0.250000  1
