# generated using pymatgen
data_Ce3ScZn2Pt3
_symmetry_space_group_name_H-M   'P 1'
_cell_length_a   7.29300500
_cell_length_b   7.45594725
_cell_length_c   4.07876600
_cell_angle_alpha   90.00000000
_cell_angle_beta   90.00000000
_cell_angle_gamma   119.27966644
_symmetry_Int_Tables_number   1
_chemical_formula_structural   Ce3ScZn2Pt3
_chemical_formula_sum   'Ce3 Sc1 Zn2 Pt3'
_cell_volume   193.45304413
_cell_formula_units_Z   1
loop_
 _symmetry_equiv_pos_site_id
 _symmetry_equiv_pos_as_xyz
  1  'x, y, z'
loop_
 _atom_site_type_symbol
 _atom_site_label
 _atom_site_symmetry_multiplicity
 _atom_site_fract_x
 _atom_site_fract_y
 _atom_site_fract_z
 _atom_site_occupancy
  Ce  Ce0  1  0.421142  0.430702  0.000000  1
  Ce  Ce1  1  0.606553  0.000000  0.000000  1
  Ce  Ce2  1  0.990440  0.569298  0.000000  1
  Sc  Sc3  1  0.229941  0.000000  0.500000  1
  Zn  Zn4  1  0.005197  0.248896  0.500000  1
  Zn  Zn5  1  0.756300  0.751104  0.500000  1
  Pt  Pt6  1  0.331328  0.674381  0.500000  1
  Pt  Pt7  1  0.002153  0.000000  0.000000  1
  Pt  Pt8  1  0.656947  0.325619  0.500000  1
