# generated using pymatgen
data_Ti2SiAsRh2
_symmetry_space_group_name_H-M   'P 1'
_cell_length_a   3.84234300
_cell_length_b   6.32457534
_cell_length_c   7.39482446
_cell_angle_alpha   89.17484620
_cell_angle_beta   90.00000000
_cell_angle_gamma   90.00000000
_symmetry_Int_Tables_number   1
_chemical_formula_structural   Ti2SiAsRh2
_chemical_formula_sum   'Ti4 Si2 As2 Rh4'
_cell_volume   179.68438216
_cell_formula_units_Z   2
loop_
 _symmetry_equiv_pos_site_id
 _symmetry_equiv_pos_as_xyz
  1  'x, y, z'
loop_
 _atom_site_type_symbol
 _atom_site_label
 _atom_site_symmetry_multiplicity
 _atom_site_fract_x
 _atom_site_fract_y
 _atom_site_fract_z
 _atom_site_occupancy
  Ti  Ti0  1  0.750000  0.031365  0.684844  1
  Ti  Ti1  1  0.250000  0.968635  0.315156  1
  Ti  Ti2  1  0.250000  0.470858  0.180252  1
  Ti  Ti3  1  0.750000  0.529142  0.819748  1
  Si  Si4  1  0.250000  0.236952  0.881044  1
  Si  Si5  1  0.750000  0.763048  0.118956  1
  As  As6  1  0.250000  0.747650  0.624639  1
  As  As7  1  0.750000  0.252350  0.375361  1
  Rh  Rh8  1  0.750000  0.150126  0.054140  1
  Rh  Rh9  1  0.250000  0.849874  0.945860  1
  Rh  Rh10  1  0.250000  0.351339  0.573002  1
  Rh  Rh11  1  0.750000  0.648661  0.426998  1
