# generated using pymatgen
data_Lu4ZnIn2Au3
_symmetry_space_group_name_H-M   'P 1'
_cell_length_a   7.88281500
_cell_length_b   7.88281504
_cell_length_c   3.67327100
_cell_angle_alpha   90.00000000
_cell_angle_beta   90.00000000
_cell_angle_gamma   89.43442612
_symmetry_Int_Tables_number   1
_chemical_formula_structural   Lu4ZnIn2Au3
_chemical_formula_sum   'Lu4 Zn1 In2 Au3'
_cell_volume   228.24143136
_cell_formula_units_Z   1
loop_
 _symmetry_equiv_pos_site_id
 _symmetry_equiv_pos_as_xyz
  1  'x, y, z'
loop_
 _atom_site_type_symbol
 _atom_site_label
 _atom_site_symmetry_multiplicity
 _atom_site_fract_x
 _atom_site_fract_y
 _atom_site_fract_z
 _atom_site_occupancy
  Lu  Lu0  1  0.167088  0.332912  0.000000  1
  Lu  Lu1  1  0.828906  0.671094  0.000000  1
  Lu  Lu2  1  0.672827  0.167599  0.000000  1
  Lu  Lu3  1  0.332401  0.827173  0.000000  1
  Zn  Zn4  1  0.374228  0.125772  0.500000  1
  In  In5  1  0.003446  0.000703  0.500000  1
  In  In6  1  0.499297  0.496554  0.500000  1
  Au  Au7  1  0.621754  0.878246  0.500000  1
  Au  Au8  1  0.870468  0.370414  0.500000  1
  Au  Au9  1  0.129586  0.629532  0.500000  1
