# generated using pymatgen
data_Y7ThSnPd24
_symmetry_space_group_name_H-M   'P 1'
_cell_length_a   8.43741109
_cell_length_b   8.43741109
_cell_length_c   8.43741109
_cell_angle_alpha   90.01199172
_cell_angle_beta   90.01199172
_cell_angle_gamma   90.01199172
_symmetry_Int_Tables_number   1
_chemical_formula_structural   Y7ThSnPd24
_chemical_formula_sum   'Y7 Th1 Sn1 Pd24'
_cell_volume   600.65846259
_cell_formula_units_Z   1
loop_
 _symmetry_equiv_pos_site_id
 _symmetry_equiv_pos_as_xyz
  1  'x, y, z'
loop_
 _atom_site_type_symbol
 _atom_site_label
 _atom_site_symmetry_multiplicity
 _atom_site_fract_x
 _atom_site_fract_y
 _atom_site_fract_z
 _atom_site_occupancy
  Y  Y0  1  0.747327  0.747327  0.747327  1
  Y  Y1  1  0.747208  0.747208  0.252657  1
  Y  Y2  1  0.747208  0.252657  0.747208  1
  Y  Y3  1  0.252551  0.252551  0.747680  1
  Y  Y4  1  0.252551  0.747680  0.252551  1
  Y  Y5  1  0.252657  0.747208  0.747208  1
  Y  Y6  1  0.747680  0.252551  0.252551  1
  Th  Th7  1  0.253526  0.253526  0.253526  1
  Sn  Sn8  1  0.999210  0.999210  0.999210  1
  Pd  Pd9  1  0.264961  0.500059  0.999887  1
  Pd  Pd10  1  0.735093  0.500083  0.999974  1
  Pd  Pd11  1  0.999887  0.264961  0.500059  1
  Pd  Pd12  1  0.500059  0.264961  0.999887  1
  Pd  Pd13  1  0.999974  0.735093  0.500083  1
  Pd  Pd14  1  0.500083  0.735093  0.999974  1
  Pd  Pd15  1  0.500059  0.999887  0.264961  1
  Pd  Pd16  1  0.264961  0.999887  0.500059  1
  Pd  Pd17  1  0.500083  0.999974  0.735093  1
  Pd  Pd18  1  0.735093  0.999974  0.500083  1
  Pd  Pd19  1  0.999887  0.500059  0.264961  1
  Pd  Pd20  1  0.999974  0.500083  0.735093  1
  Pd  Pd21  1  0.254554  0.500216  0.500216  1
  Pd  Pd22  1  0.745574  0.500041  0.500041  1
  Pd  Pd23  1  0.500216  0.254554  0.500216  1
  Pd  Pd24  1  0.500041  0.745574  0.500041  1
  Pd  Pd25  1  0.500216  0.500216  0.254554  1
  Pd  Pd26  1  0.500041  0.500041  0.745574  1
  Pd  Pd27  1  0.308241  0.999471  0.999471  1
  Pd  Pd28  1  0.692154  0.999994  0.999994  1
  Pd  Pd29  1  0.999471  0.308241  0.999471  1
  Pd  Pd30  1  0.999994  0.692154  0.999994  1
  Pd  Pd31  1  0.999471  0.999471  0.308241  1
  Pd  Pd32  1  0.999994  0.999994  0.692154  1
