# generated using pymatgen
data_Nb12Al14Cu6IrPtAu2
_symmetry_space_group_name_H-M   'P 1'
_cell_length_a   8.80720936
_cell_length_b   8.87738777
_cell_length_c   8.20409100
_cell_angle_alpha   89.97331219
_cell_angle_beta   89.98367106
_cell_angle_gamma   121.03710501
_symmetry_Int_Tables_number   1
_chemical_formula_structural   Nb12Al14Cu6IrPtAu2
_chemical_formula_sum   'Nb12 Al14 Cu6 Ir1 Pt1 Au2'
_cell_volume   549.60456274
_cell_formula_units_Z   1
loop_
 _symmetry_equiv_pos_site_id
 _symmetry_equiv_pos_as_xyz
  1  'x, y, z'
loop_
 _atom_site_type_symbol
 _atom_site_label
 _atom_site_symmetry_multiplicity
 _atom_site_fract_x
 _atom_site_fract_y
 _atom_site_fract_z
 _atom_site_occupancy
  Nb  Nb0  1  0.331215  0.997016  0.071268  1
  Nb  Nb1  1  0.674695  0.010154  0.934091  1
  Nb  Nb2  1  0.997854  0.331714  0.069918  1
  Nb  Nb3  1  0.672094  0.010273  0.566056  1
  Nb  Nb4  1  0.997519  0.333613  0.430599  1
  Nb  Nb5  1  0.003287  0.669238  0.936524  1
  Nb  Nb6  1  0.333415  0.996769  0.429263  1
  Nb  Nb7  1  0.003708  0.665599  0.562728  1
  Nb  Nb8  1  0.665049  0.666501  0.070295  1
  Nb  Nb9  1  0.330210  0.335603  0.934746  1
  Nb  Nb10  1  0.332891  0.338262  0.565718  1
  Nb  Nb11  1  0.662344  0.663522  0.429821  1
  Al  Al12  1  0.657737  0.152418  0.249737  1
  Al  Al13  1  0.344222  0.493392  0.249810  1
  Al  Al14  1  0.845108  0.341028  0.750130  1
  Al  Al15  1  0.155699  0.659451  0.249616  1
  Al  Al16  1  0.339305  0.665839  0.507245  1
  Al  Al17  1  0.659569  0.334623  0.494989  1
  Al  Al18  1  0.659182  0.334605  0.004943  1
  Al  Al19  1  0.339491  0.665767  0.992598  1
  Al  Al20  1  0.181603  0.011878  0.750491  1
  Al  Al21  1  0.822058  0.992293  0.248926  1
  Al  Al22  1  0.007980  0.177599  0.751569  1
  Al  Al23  1  0.990274  0.818628  0.249789  1
  Al  Al24  1  0.822689  0.832624  0.750260  1
  Al  Al25  1  0.174330  0.166494  0.248582  1
  Cu  Cu26  1  0.163063  0.491113  0.750005  1
  Cu  Cu27  1  0.832008  0.499546  0.250106  1
  Cu  Cu28  1  0.506039  0.673756  0.749923  1
  Cu  Cu29  1  0.502869  0.169762  0.750000  1
  Cu  Cu30  1  0.494052  0.327129  0.249872  1
  Cu  Cu31  1  0.497064  0.828335  0.249913  1
  Ir  Ir32  1  0.999689  0.996888  0.998818  1
  Pt  Pt33  1  0.000101  0.998879  0.500903  1
  Au  Au34  1  0.332625  0.841299  0.750447  1
  Au  Au35  1  0.668962  0.508388  0.750300  1
