# generated using pymatgen
data_Y6TmP12Rh17
_symmetry_space_group_name_H-M   'P 1'
_cell_length_a   3.95324300
_cell_length_b   11.25801600
_cell_length_c   12.88937200
_cell_angle_alpha   90.00000000
_cell_angle_beta   90.00000000
_cell_angle_gamma   90.00000000
_symmetry_Int_Tables_number   1
_chemical_formula_structural   Y6TmP12Rh17
_chemical_formula_sum   'Y6 Tm1 P12 Rh17'
_cell_volume   573.65017471
_cell_formula_units_Z   1
loop_
 _symmetry_equiv_pos_site_id
 _symmetry_equiv_pos_as_xyz
  1  'x, y, z'
loop_
 _atom_site_type_symbol
 _atom_site_label
 _atom_site_symmetry_multiplicity
 _atom_site_fract_x
 _atom_site_fract_y
 _atom_site_fract_z
 _atom_site_occupancy
  Y  Y0  1  0.000000  0.500000  0.522531  1
  Y  Y1  1  0.500000  0.000000  0.478168  1
  Y  Y2  1  0.500000  0.818095  0.206411  1
  Y  Y3  1  0.500000  0.181905  0.206411  1
  Y  Y4  1  0.000000  0.682920  0.796512  1
  Y  Y5  1  0.000000  0.317080  0.796512  1
  Tm  Tm6  1  0.500000  0.500000  0.156160  1
  P  P7  1  0.500000  0.500000  0.877620  1
  P  P8  1  0.000000  0.000000  0.121304  1
  P  P9  1  0.500000  0.500000  0.364166  1
  P  P10  1  0.000000  0.000000  0.648345  1
  P  P11  1  0.500000  0.314183  0.619479  1
  P  P12  1  0.500000  0.685817  0.619479  1
  P  P13  1  0.000000  0.185757  0.384255  1
  P  P14  1  0.000000  0.814243  0.384255  1
  P  P15  1  0.500000  0.851170  0.888522  1
  P  P16  1  0.500000  0.148830  0.888522  1
  P  P17  1  0.000000  0.663919  0.105038  1
  P  P18  1  0.000000  0.336081  0.105038  1
  Rh  Rh19  1  0.000000  0.000000  0.828821  1
  Rh  Rh20  1  0.500000  0.500000  0.700841  1
  Rh  Rh21  1  0.000000  0.000000  0.299011  1
  Rh  Rh22  1  0.000000  0.500000  0.981257  1
  Rh  Rh23  1  0.500000  0.000000  0.021160  1
  Rh  Rh24  1  0.500000  0.327923  0.986590  1
  Rh  Rh25  1  0.500000  0.672077  0.986590  1
  Rh  Rh26  1  0.000000  0.162540  0.004481  1
  Rh  Rh27  1  0.000000  0.837460  0.004481  1
  Rh  Rh28  1  0.500000  0.288807  0.435153  1
  Rh  Rh29  1  0.500000  0.711193  0.435153  1
  Rh  Rh30  1  0.000000  0.203341  0.571657  1
  Rh  Rh31  1  0.000000  0.796659  0.571657  1
  Rh  Rh32  1  0.500000  0.874956  0.709296  1
  Rh  Rh33  1  0.500000  0.125044  0.709296  1
  Rh  Rh34  1  0.000000  0.628427  0.292915  1
  Rh  Rh35  1  0.000000  0.371573  0.292915  1
