# generated using pymatgen
data_Ba4In5Ag19
_symmetry_space_group_name_H-M   'P 1'
_cell_length_a   5.80482200
_cell_length_b   9.54368412
_cell_length_c   11.78193507
_cell_angle_alpha   89.67382951
_cell_angle_beta   90.00000000
_cell_angle_gamma   90.00000000
_symmetry_Int_Tables_number   1
_chemical_formula_structural   Ba4In5Ag19
_chemical_formula_sum   'Ba4 In5 Ag19'
_cell_volume   652.70141108
_cell_formula_units_Z   1
loop_
 _symmetry_equiv_pos_site_id
 _symmetry_equiv_pos_as_xyz
  1  'x, y, z'
loop_
 _atom_site_type_symbol
 _atom_site_label
 _atom_site_symmetry_multiplicity
 _atom_site_fract_x
 _atom_site_fract_y
 _atom_site_fract_z
 _atom_site_occupancy
  Ba  Ba0  1  0.000000  0.758023  0.937480  1
  Ba  Ba1  1  0.000000  0.259197  0.563357  1
  Ba  Ba2  1  0.500000  0.239249  0.058636  1
  Ba  Ba3  1  0.500000  0.743197  0.439013  1
  In  In4  1  0.000000  0.649956  0.640620  1
  In  In5  1  0.000000  0.148585  0.858311  1
  In  In6  1  0.500000  0.355323  0.363194  1
  In  In7  1  0.500000  0.851373  0.142617  1
  In  In8  1  0.000000  0.319862  0.249223  1
  Ag  Ag9  1  0.000000  0.059847  0.091120  1
  Ag  Ag10  1  0.000000  0.569062  0.407644  1
  Ag  Ag11  1  0.500000  0.932772  0.908104  1
  Ag  Ag12  1  0.500000  0.436526  0.594867  1
  Ag  Ag13  1  0.246807  0.932345  0.692605  1
  Ag  Ag14  1  0.752846  0.431751  0.807827  1
  Ag  Ag15  1  0.744418  0.065280  0.306411  1
  Ag  Ag16  1  0.255451  0.572000  0.193680  1
  Ag  Ag17  1  0.255582  0.065280  0.306411  1
  Ag  Ag18  1  0.744549  0.572000  0.193680  1
  Ag  Ag19  1  0.753193  0.932345  0.692605  1
  Ag  Ag20  1  0.247154  0.431751  0.807827  1
  Ag  Ag21  1  0.000000  0.410745  0.016369  1
  Ag  Ag22  1  0.000000  0.910114  0.482332  1
  Ag  Ag23  1  0.500000  0.587152  0.982272  1
  Ag  Ag24  1  0.500000  0.089022  0.517231  1
  Ag  Ag25  1  0.000000  0.820052  0.247243  1
  Ag  Ag26  1  0.500000  0.678917  0.744474  1
  Ag  Ag27  1  0.500000  0.178277  0.754845  1
