# generated using pymatgen
data_PrY2Th(ReB6)2
_symmetry_space_group_name_H-M   'P 1'
_cell_length_a   3.75982900
_cell_length_b   9.28705874
_cell_length_c   11.72847551
_cell_angle_alpha   89.83325597
_cell_angle_beta   90.00000000
_cell_angle_gamma   90.00000000
_symmetry_Int_Tables_number   1
_chemical_formula_structural   PrY2Th(ReB6)2
_chemical_formula_sum   'Pr2 Y4 Th2 Re4 B24'
_cell_volume   409.53027399
_cell_formula_units_Z   2
loop_
 _symmetry_equiv_pos_site_id
 _symmetry_equiv_pos_as_xyz
  1  'x, y, z'
loop_
 _atom_site_type_symbol
 _atom_site_label
 _atom_site_symmetry_multiplicity
 _atom_site_fract_x
 _atom_site_fract_y
 _atom_site_fract_z
 _atom_site_occupancy
  Pr  Pr0  1  0.000000  0.323536  0.414343  1
  Pr  Pr1  1  0.000000  0.676464  0.585657  1
  Y  Y2  1  0.000000  0.443224  0.129656  1
  Y  Y3  1  0.000000  0.556776  0.870344  1
  Y  Y4  1  0.000000  0.942778  0.371092  1
  Y  Y5  1  0.000000  0.057222  0.628908  1
  Th  Th6  1  0.000000  0.821893  0.086038  1
  Th  Th7  1  0.000000  0.178107  0.913962  1
  Re  Re8  1  0.000000  0.137176  0.178773  1
  Re  Re9  1  0.000000  0.862824  0.821227  1
  Re  Re10  1  0.000000  0.640410  0.318512  1
  Re  Re11  1  0.000000  0.359590  0.681488  1
  B  B12  1  0.500000  0.055350  0.070282  1
  B  B13  1  0.500000  0.944650  0.929719  1
  B  B14  1  0.500000  0.555353  0.430462  1
  B  B15  1  0.500000  0.444647  0.569537  1
  B  B16  1  0.500000  0.248883  0.084319  1
  B  B17  1  0.500000  0.751117  0.915681  1
  B  B18  1  0.500000  0.748758  0.416286  1
  B  B19  1  0.500000  0.251242  0.583714  1
  B  B20  1  0.500000  0.289977  0.233511  1
  B  B21  1  0.500000  0.710023  0.766489  1
  B  B22  1  0.500000  0.790236  0.266560  1
  B  B23  1  0.500000  0.209764  0.733440  1
  B  B24  1  0.500000  0.129622  0.313474  1
  B  B25  1  0.500000  0.870378  0.686526  1
  B  B26  1  0.500000  0.630412  0.186965  1
  B  B27  1  0.500000  0.369588  0.813035  1
  B  B28  1  0.500000  0.485056  0.287125  1
  B  B29  1  0.500000  0.514944  0.712875  1
  B  B30  1  0.500000  0.984624  0.213690  1
  B  B31  1  0.500000  0.015376  0.786310  1
  B  B32  1  0.500000  0.098053  0.472648  1
  B  B33  1  0.500000  0.901947  0.527352  1
  B  B34  1  0.500000  0.601193  0.027994  1
  B  B35  1  0.500000  0.398807  0.972006  1
