# generated using pymatgen
data_Dy8Er10Sc2Si15Rh
_symmetry_space_group_name_H-M   'P 1'
_cell_length_a   7.23811199
_cell_length_b   7.70245462
_cell_length_c   14.41365800
_cell_angle_alpha   90.00000000
_cell_angle_beta   90.00000000
_cell_angle_gamma   90.04814264
_symmetry_Int_Tables_number   1
_chemical_formula_structural   Dy8Er10Sc2Si15Rh
_chemical_formula_sum   'Dy8 Er10 Sc2 Si15 Rh1'
_cell_volume   803.57886598
_cell_formula_units_Z   1
loop_
 _symmetry_equiv_pos_site_id
 _symmetry_equiv_pos_as_xyz
  1  'x, y, z'
loop_
 _atom_site_type_symbol
 _atom_site_label
 _atom_site_symmetry_multiplicity
 _atom_site_fract_x
 _atom_site_fract_y
 _atom_site_fract_z
 _atom_site_occupancy
  Dy  Dy0  1  0.017778  0.184010  0.098120  1
  Dy  Dy1  1  0.984536  0.821134  0.908679  1
  Dy  Dy2  1  0.482854  0.681772  0.907128  1
  Dy  Dy3  1  0.984536  0.821134  0.591321  1
  Dy  Dy4  1  0.517425  0.317915  0.098008  1
  Dy  Dy5  1  0.017778  0.184010  0.401880  1
  Dy  Dy6  1  0.517425  0.317915  0.401992  1
  Dy  Dy7  1  0.482854  0.681772  0.592872  1
  Er  Er8  1  0.153745  0.517114  0.750000  1
  Er  Er9  1  0.666626  0.988674  0.750000  1
  Er  Er10  1  0.313061  0.172808  0.625722  1
  Er  Er11  1  0.677947  0.824946  0.372407  1
  Er  Er12  1  0.176596  0.678972  0.372252  1
  Er  Er13  1  0.677947  0.824946  0.127593  1
  Er  Er14  1  0.829822  0.319342  0.624563  1
  Er  Er15  1  0.313061  0.172808  0.874278  1
  Er  Er16  1  0.829822  0.319342  0.875437  1
  Er  Er17  1  0.176596  0.678972  0.127748  1
  Sc  Sc18  1  0.841586  0.484587  0.250000  1
  Sc  Sc19  1  0.342954  0.017127  0.250000  1
  Si  Si20  1  0.980370  0.906790  0.250000  1
  Si  Si21  1  0.480865  0.596818  0.250000  1
  Si  Si22  1  0.525587  0.394882  0.750000  1
  Si  Si23  1  0.278617  0.865635  0.750000  1
  Si  Si24  1  0.718076  0.136659  0.250000  1
  Si  Si25  1  0.219728  0.365361  0.250000  1
  Si  Si26  1  0.767634  0.624056  0.750000  1
  Si  Si27  1  0.156616  0.471641  0.535711  1
  Si  Si28  1  0.845990  0.531019  0.458930  1
  Si  Si29  1  0.346012  0.970343  0.458330  1
  Si  Si30  1  0.845990  0.531019  0.041070  1
  Si  Si31  1  0.652257  0.031393  0.536721  1
  Si  Si32  1  0.156616  0.471641  0.964289  1
  Si  Si33  1  0.652257  0.031393  0.963279  1
  Si  Si34  1  0.346012  0.970343  0.041670  1
  Rh  Rh35  1  0.022420  0.091708  0.750000  1
