# generated using pymatgen
data_Ba6Ta3NbS16
_symmetry_space_group_name_H-M   'P 1'
_cell_length_a   11.31923534
_cell_length_b   11.31923433
_cell_length_c   11.31923500
_cell_angle_alpha   51.63092690
_cell_angle_beta   51.63093094
_cell_angle_gamma   51.63093202
_symmetry_Int_Tables_number   1
_chemical_formula_structural   Ba6Ta3NbS16
_chemical_formula_sum   'Ba6 Ta3 Nb1 S16'
_cell_volume   823.51272488
_cell_formula_units_Z   1
loop_
 _symmetry_equiv_pos_site_id
 _symmetry_equiv_pos_as_xyz
  1  'x, y, z'
loop_
 _atom_site_type_symbol
 _atom_site_label
 _atom_site_symmetry_multiplicity
 _atom_site_fract_x
 _atom_site_fract_y
 _atom_site_fract_z
 _atom_site_occupancy
  Ba  Ba0  1  0.749505  0.430793  0.069805  1
  Ba  Ba1  1  0.571353  0.929877  0.248900  1
  Ba  Ba2  1  0.069805  0.749505  0.430794  1
  Ba  Ba3  1  0.929878  0.248900  0.571353  1
  Ba  Ba4  1  0.430794  0.069806  0.749504  1
  Ba  Ba5  1  0.248900  0.571353  0.929878  1
  Ta  Ta6  1  0.160567  0.160567  0.160567  1
  Ta  Ta7  1  0.339430  0.339430  0.339430  1
  Ta  Ta8  1  0.660512  0.660512  0.660512  1
  Nb  Nb9  1  0.839382  0.839382  0.839382  1
  S  S10  1  0.608732  0.787576  0.042319  1
  S  S11  1  0.082381  0.082381  0.082381  1
  S  S12  1  0.542870  0.285892  0.110458  1
  S  S13  1  0.956734  0.388980  0.215124  1
  S  S14  1  0.110458  0.542869  0.285892  1
  S  S15  1  0.215123  0.956735  0.388980  1
  S  S16  1  0.417615  0.417615  0.417615  1
  S  S17  1  0.713847  0.889619  0.457603  1
  S  S18  1  0.285892  0.110458  0.542870  1
  S  S19  1  0.582296  0.582296  0.582296  1
  S  S20  1  0.787576  0.042319  0.608732  1
  S  S21  1  0.889619  0.457604  0.713847  1
  S  S22  1  0.042319  0.608732  0.787576  1
  S  S23  1  0.457604  0.713847  0.889619  1
  S  S24  1  0.917822  0.917822  0.917822  1
  S  S25  1  0.388981  0.215123  0.956734  1
