# generated using pymatgen
data_NdSm5(SiPd5)2
_symmetry_space_group_name_H-M   'P 1'
_cell_length_a   8.36487946
_cell_length_b   8.36488081
_cell_length_c   8.36488141
_cell_angle_alpha   127.40779035
_cell_angle_beta   125.99295180
_cell_angle_gamma   78.74537531
_symmetry_Int_Tables_number   1
_chemical_formula_structural   NdSm5(SiPd5)2
_chemical_formula_sum   'Nd1 Sm5 Si2 Pd10'
_cell_volume   364.04236702
_cell_formula_units_Z   1
loop_
 _symmetry_equiv_pos_site_id
 _symmetry_equiv_pos_as_xyz
  1  'x, y, z'
loop_
 _atom_site_type_symbol
 _atom_site_label
 _atom_site_symmetry_multiplicity
 _atom_site_fract_x
 _atom_site_fract_y
 _atom_site_fract_z
 _atom_site_occupancy
  Nd  Nd0  1  0.613656  0.750000  0.863656  1
  Sm  Sm1  1  0.823868  0.050093  0.773776  1
  Sm  Sm2  1  0.223683  0.449907  0.773776  1
  Sm  Sm3  1  0.176270  0.950155  0.226115  1
  Sm  Sm4  1  0.388663  0.250000  0.138663  1
  Sm  Sm5  1  0.775961  0.549845  0.226115  1
  Si  Si6  1  0.213724  0.750000  0.463724  1
  Si  Si7  1  0.782585  0.250000  0.532585  1
  Pd  Pd8  1  0.833376  0.596311  0.640015  1
  Pd  Pd9  1  0.543704  0.306639  0.640015  1
  Pd  Pd10  1  0.453723  0.095883  0.763575  1
  Pd  Pd11  1  0.833376  0.193361  0.237066  1
  Pd  Pd12  1  0.167693  0.404117  0.357841  1
  Pd  Pd13  1  0.453723  0.690149  0.357841  1
  Pd  Pd14  1  0.543704  0.903689  0.237066  1
  Pd  Pd15  1  0.167693  0.809851  0.763575  1
  Pd  Pd16  1  0.002297  0.004892  0.507189  1
  Pd  Pd17  1  0.002297  0.495108  0.997405  1
