# generated using pymatgen
data_SrCa3(FeN)6
_symmetry_space_group_name_H-M   'P 1'
_cell_length_a   6.32597034
_cell_length_b   6.40889650
_cell_length_c   6.16323744
_cell_angle_alpha   88.10779810
_cell_angle_beta   87.58514842
_cell_angle_gamma   118.20457524
_symmetry_Int_Tables_number   1
_chemical_formula_structural   SrCa3(FeN)6
_chemical_formula_sum   'Sr1 Ca3 Fe6 N6'
_cell_volume   219.61100746
_cell_formula_units_Z   1
loop_
 _symmetry_equiv_pos_site_id
 _symmetry_equiv_pos_as_xyz
  1  'x, y, z'
loop_
 _atom_site_type_symbol
 _atom_site_label
 _atom_site_symmetry_multiplicity
 _atom_site_fract_x
 _atom_site_fract_y
 _atom_site_fract_z
 _atom_site_occupancy
  Sr  Sr0  1  0.672122  0.827790  0.396115  1
  Ca  Ca1  1  0.823663  0.673399  0.895409  1
  Ca  Ca2  1  0.320498  0.174295  0.608567  1
  Ca  Ca3  1  0.174350  0.318627  0.105082  1
  Fe  Fe4  1  0.809955  0.194842  0.747260  1
  Fe  Fe5  1  0.185618  0.809300  0.246489  1
  Fe  Fe6  1  0.567604  0.169141  0.100609  1
  Fe  Fe7  1  0.437580  0.832722  0.895417  1
  Fe  Fe8  1  0.839294  0.442531  0.389374  1
  Fe  Fe9  1  0.164493  0.563231  0.613550  1
  N  N10  1  0.410637  0.574395  0.765388  1
  N  N11  1  0.579676  0.410242  0.253186  1
  N  N12  1  0.015957  0.740817  0.513583  1
  N  N13  1  0.743323  0.011381  0.999176  1
  N  N14  1  0.993151  0.270269  0.485543  1
  N  N15  1  0.262079  0.987018  0.985252  1
