# generated using pymatgen
data_DyU3(PS)4
_symmetry_space_group_name_H-M   'P 1'
_cell_length_a   5.35237500
_cell_length_b   5.36290000
_cell_length_c   16.12009400
_cell_angle_alpha   90.00000000
_cell_angle_beta   90.00000000
_cell_angle_gamma   90.00000000
_symmetry_Int_Tables_number   1
_chemical_formula_structural   DyU3(PS)4
_chemical_formula_sum   'Dy2 U6 P8 S8'
_cell_volume   462.71523863
_cell_formula_units_Z   2
loop_
 _symmetry_equiv_pos_site_id
 _symmetry_equiv_pos_as_xyz
  1  'x, y, z'
loop_
 _atom_site_type_symbol
 _atom_site_label
 _atom_site_symmetry_multiplicity
 _atom_site_fract_x
 _atom_site_fract_y
 _atom_site_fract_z
 _atom_site_occupancy
  Dy  Dy0  1  0.750000  0.001416  0.369071  1
  Dy  Dy1  1  0.750000  0.501416  0.130929  1
  U  U2  1  0.250000  0.501501  0.355755  1
  U  U3  1  0.250000  0.001501  0.144245  1
  U  U4  1  0.750000  0.498405  0.641553  1
  U  U5  1  0.750000  0.998405  0.858447  1
  U  U6  1  0.250000  0.998643  0.639929  1
  U  U7  1  0.250000  0.498643  0.860071  1
  P  P8  1  0.026007  0.220838  0.997633  1
  P  P9  1  0.473993  0.720838  0.502367  1
  P  P10  1  0.473197  0.779133  0.997633  1
  P  P11  1  0.026803  0.279133  0.502367  1
  P  P12  1  0.026803  0.779133  0.997633  1
  P  P13  1  0.473197  0.279133  0.502367  1
  P  P14  1  0.473993  0.220838  0.997633  1
  P  P15  1  0.026007  0.720838  0.502367  1
  S  S16  1  0.250000  0.501642  0.179307  1
  S  S17  1  0.250000  0.001642  0.320693  1
  S  S18  1  0.750000  0.498157  0.820050  1
  S  S19  1  0.750000  0.998157  0.679950  1
  S  S20  1  0.250000  0.998254  0.814540  1
  S  S21  1  0.250000  0.498254  0.685460  1
  S  S22  1  0.750000  0.002040  0.186113  1
  S  S23  1  0.750000  0.502040  0.313887  1
