# generated using pymatgen
data_Er2Tm8Zn3Ru
_symmetry_space_group_name_H-M   'P 1'
_cell_length_a   9.29164204
_cell_length_b   9.29015304
_cell_length_c   9.51811500
_cell_angle_alpha   90.00000000
_cell_angle_beta   90.00000000
_cell_angle_gamma   119.99429033
_symmetry_Int_Tables_number   1
_chemical_formula_structural   Er2Tm8Zn3Ru
_chemical_formula_sum   'Er4 Tm16 Zn6 Ru2'
_cell_volume   711.57699987
_cell_formula_units_Z   2
loop_
 _symmetry_equiv_pos_site_id
 _symmetry_equiv_pos_as_xyz
  1  'x, y, z'
loop_
 _atom_site_type_symbol
 _atom_site_label
 _atom_site_symmetry_multiplicity
 _atom_site_fract_x
 _atom_site_fract_y
 _atom_site_fract_z
 _atom_site_occupancy
  Er  Er0  1  0.917769  0.458885  0.250000  1
  Er  Er1  1  0.458920  0.541049  0.750000  1
  Er  Er2  1  0.458914  0.917867  0.750000  1
  Er  Er3  1  0.082064  0.541028  0.750000  1
  Tm  Tm4  1  0.999996  0.999998  0.499992  1
  Tm  Tm5  1  0.999996  0.999998  0.000008  1
  Tm  Tm6  1  0.207914  0.792283  0.442100  1
  Tm  Tm7  1  0.207913  0.415631  0.442099  1
  Tm  Tm8  1  0.584340  0.792171  0.442052  1
  Tm  Tm9  1  0.792105  0.207772  0.557772  1
  Tm  Tm10  1  0.792105  0.584334  0.557773  1
  Tm  Tm11  1  0.415685  0.207843  0.557729  1
  Tm  Tm12  1  0.792105  0.207772  0.942228  1
  Tm  Tm13  1  0.792105  0.584334  0.942227  1
  Tm  Tm14  1  0.415685  0.207843  0.942271  1
  Tm  Tm15  1  0.207914  0.792283  0.057900  1
  Tm  Tm16  1  0.207913  0.415631  0.057901  1
  Tm  Tm17  1  0.584340  0.792171  0.057948  1
  Tm  Tm18  1  0.541013  0.458813  0.250000  1
  Tm  Tm19  1  0.541011  0.082200  0.250000  1
  Zn  Zn20  1  0.885772  0.114111  0.250000  1
  Zn  Zn21  1  0.885772  0.771663  0.250000  1
  Zn  Zn22  1  0.228464  0.114236  0.250000  1
  Zn  Zn23  1  0.114175  0.885899  0.750000  1
  Zn  Zn24  1  0.114173  0.228270  0.750000  1
  Zn  Zn25  1  0.771732  0.885864  0.750000  1
  Ru  Ru26  1  0.333385  0.666692  0.250000  1
  Ru  Ru27  1  0.666718  0.333361  0.750000  1
