# generated using pymatgen
data_TbEuY5NiI12
_symmetry_space_group_name_H-M   'P 1'
_cell_length_a   9.78420925
_cell_length_b   9.78384009
_cell_length_c   9.78595550
_cell_angle_alpha   106.56223149
_cell_angle_beta   106.55012354
_cell_angle_gamma   106.55267299
_symmetry_Int_Tables_number   1
_chemical_formula_structural   TbEuY5NiI12
_chemical_formula_sum   'Tb1 Eu1 Y5 Ni1 I12'
_cell_volume   789.43943791
_cell_formula_units_Z   1
loop_
 _symmetry_equiv_pos_site_id
 _symmetry_equiv_pos_as_xyz
  1  'x, y, z'
loop_
 _atom_site_type_symbol
 _atom_site_label
 _atom_site_symmetry_multiplicity
 _atom_site_fract_x
 _atom_site_fract_y
 _atom_site_fract_z
 _atom_site_occupancy
  Tb  Tb0  1  0.023408  0.292784  0.094208  1
  Eu  Eu1  1  0.500008  0.499999  0.500008  1
  Y  Y2  1  0.905757  0.976416  0.707024  1
  Y  Y3  1  0.707051  0.905659  0.976479  1
  Y  Y4  1  0.976531  0.707094  0.905824  1
  Y  Y5  1  0.094239  0.023355  0.292916  1
  Y  Y6  1  0.292931  0.094168  0.023471  1
  Ni  Ni7  1  0.000008  0.000311  0.000073  1
  I  I8  1  0.926031  0.321591  0.776423  1
  I  I9  1  0.776653  0.926098  0.321588  1
  I  I10  1  0.321601  0.776646  0.926094  1
  I  I11  1  0.073917  0.678611  0.223355  1
  I  I12  1  0.223340  0.073897  0.678412  1
  I  I13  1  0.678266  0.223306  0.073884  1
  I  I14  1  0.546798  0.859200  0.625856  1
  I  I15  1  0.625847  0.546778  0.859189  1
  I  I16  1  0.859202  0.625843  0.546793  1
  I  I17  1  0.453213  0.140794  0.374143  1
  I  I18  1  0.374298  0.453264  0.140830  1
  I  I19  1  0.140900  0.374186  0.453428  1
