# generated using pymatgen
data_La2Pr5PI12
_symmetry_space_group_name_H-M   'P 1'
_cell_length_a   10.08170086
_cell_length_b   10.06125164
_cell_length_c   10.04979438
_cell_angle_alpha   107.44194468
_cell_angle_beta   107.56277970
_cell_angle_gamma   107.65860917
_symmetry_Int_Tables_number   1
_chemical_formula_structural   La2Pr5PI12
_chemical_formula_sum   'La2 Pr5 P1 I12'
_cell_volume   835.78793727
_cell_formula_units_Z   1
loop_
 _symmetry_equiv_pos_site_id
 _symmetry_equiv_pos_as_xyz
  1  'x, y, z'
loop_
 _atom_site_type_symbol
 _atom_site_label
 _atom_site_symmetry_multiplicity
 _atom_site_fract_x
 _atom_site_fract_y
 _atom_site_fract_z
 _atom_site_occupancy
  La  La0  1  0.807846  0.528332  0.600374  1
  La  La1  1  0.000366  0.000807  0.000688  1
  Pr  Pr2  1  0.528585  0.599477  0.803360  1
  Pr  Pr3  1  0.196277  0.470798  0.399825  1
  Pr  Pr4  1  0.469841  0.400277  0.195954  1
  Pr  Pr5  1  0.598757  0.803209  0.528555  1
  Pr  Pr6  1  0.399095  0.196318  0.470797  1
  P  P7  1  0.500670  0.499890  0.500163  1
  I  I8  1  0.726594  0.183380  0.575128  1
  I  I9  1  0.966129  0.887963  0.651929  1
  I  I10  1  0.575439  0.727694  0.186019  1
  I  I11  1  0.114517  0.348701  0.034243  1
  I  I12  1  0.651450  0.965478  0.885270  1
  I  I13  1  0.885398  0.652694  0.968401  1
  I  I14  1  0.034078  0.114766  0.348614  1
  I  I15  1  0.813445  0.423629  0.269139  1
  I  I16  1  0.348527  0.034620  0.114905  1
  I  I17  1  0.271993  0.813906  0.424438  1
  I  I18  1  0.186566  0.575687  0.728219  1
  I  I19  1  0.424430  0.272373  0.813977  1
