# generated using pymatgen
data_ErCu3HgRh
_symmetry_space_group_name_H-M   'P 1'
_cell_length_a   5.07053815
_cell_length_b   5.07053939
_cell_length_c   5.22388465
_cell_angle_alpha   60.96640465
_cell_angle_beta   60.96639348
_cell_angle_gamma   60.00001011
_symmetry_Int_Tables_number   1
_chemical_formula_structural   ErCu3HgRh
_chemical_formula_sum   'Er1 Cu3 Hg1 Rh1'
_cell_volume   96.33376357
_cell_formula_units_Z   1
loop_
 _symmetry_equiv_pos_site_id
 _symmetry_equiv_pos_as_xyz
  1  'x, y, z'
loop_
 _atom_site_type_symbol
 _atom_site_label
 _atom_site_symmetry_multiplicity
 _atom_site_fract_x
 _atom_site_fract_y
 _atom_site_fract_z
 _atom_site_occupancy
  Er  Er0  1  0.997405  0.997405  0.007786  1
  Cu  Cu1  1  0.625948  0.128137  0.619967  1
  Cu  Cu2  1  0.128137  0.625948  0.619967  1
  Cu  Cu3  1  0.625948  0.625948  0.619967  1
  Hg  Hg4  1  0.245586  0.245586  0.263243  1
  Rh  Rh5  1  0.626976  0.626976  0.119072  1
