# generated using pymatgen
data_Er10Tl2In6Pd3Ru
_symmetry_space_group_name_H-M   'P 1'
_cell_length_a   3.61079600
_cell_length_b   8.08997766
_cell_length_c   18.21051556
_cell_angle_alpha   89.91106609
_cell_angle_beta   90.00000000
_cell_angle_gamma   90.00000000
_symmetry_Int_Tables_number   1
_chemical_formula_structural   Er10Tl2In6Pd3Ru
_chemical_formula_sum   'Er10 Tl2 In6 Pd3 Ru1'
_cell_volume   531.95144543
_cell_formula_units_Z   1
loop_
 _symmetry_equiv_pos_site_id
 _symmetry_equiv_pos_as_xyz
  1  'x, y, z'
loop_
 _atom_site_type_symbol
 _atom_site_label
 _atom_site_symmetry_multiplicity
 _atom_site_fract_x
 _atom_site_fract_y
 _atom_site_fract_z
 _atom_site_occupancy
  Er  Er0  1  0.000000  0.499913  0.499530  1
  Er  Er1  1  0.000000  0.999279  0.000690  1
  Er  Er2  1  0.000000  0.727083  0.277640  1
  Er  Er3  1  0.000000  0.259709  0.719984  1
  Er  Er4  1  0.000000  0.759180  0.779205  1
  Er  Er5  1  0.000000  0.253900  0.220563  1
  Er  Er6  1  0.000000  0.614007  0.088288  1
  Er  Er7  1  0.000000  0.384725  0.915086  1
  Er  Er8  1  0.000000  0.883939  0.583973  1
  Er  Er9  1  0.000000  0.118115  0.414600  1
  Tl  Tl10  1  0.500000  0.710486  0.932703  1
  Tl  Tl11  1  0.500000  0.290540  0.067641  1
  In  In12  1  0.500000  0.790320  0.432564  1
  In  In13  1  0.500000  0.209842  0.567520  1
  In  In14  1  0.500000  0.580308  0.648692  1
  In  In15  1  0.500000  0.424653  0.350483  1
  In  In16  1  0.500000  0.919525  0.150200  1
  In  In17  1  0.500000  0.080700  0.850933  1
  Pd  Pd18  1  0.500000  0.475323  0.803494  1
  Pd  Pd19  1  0.500000  0.976837  0.695421  1
  Pd  Pd20  1  0.500000  0.020051  0.304133  1
  Ru  Ru21  1  0.500000  0.521565  0.196653  1
