# generated using pymatgen
data_Th8Si12Pd3Rh
_symmetry_space_group_name_H-M   'P 1'
_cell_length_a   8.24662401
_cell_length_b   8.24658646
_cell_length_c   8.50746101
_cell_angle_alpha   89.99475982
_cell_angle_beta   90.00514359
_cell_angle_gamma   120.00088046
_symmetry_Int_Tables_number   1
_chemical_formula_structural   Th8Si12Pd3Rh
_chemical_formula_sum   'Th8 Si12 Pd3 Rh1'
_cell_volume   501.04548626
_cell_formula_units_Z   1
loop_
 _symmetry_equiv_pos_site_id
 _symmetry_equiv_pos_as_xyz
  1  'x, y, z'
loop_
 _atom_site_type_symbol
 _atom_site_label
 _atom_site_symmetry_multiplicity
 _atom_site_fract_x
 _atom_site_fract_y
 _atom_site_fract_z
 _atom_site_occupancy
  Th  Th0  1  0.501474  0.498527  0.751756  1
  Th  Th1  1  0.501365  0.498632  0.248367  1
  Th  Th2  1  0.997050  0.498527  0.751750  1
  Th  Th3  1  0.997276  0.498633  0.248371  1
  Th  Th4  1  0.501473  0.002955  0.751758  1
  Th  Th5  1  0.501364  0.002725  0.248365  1
  Th  Th6  1  0.000000  0.000002  0.749963  1
  Th  Th7  1  0.000001  0.999999  0.249902  1
  Si  Si8  1  0.832860  0.167137  0.000180  1
  Si  Si9  1  0.165011  0.834994  0.999972  1
  Si  Si10  1  0.334281  0.167140  0.000192  1
  Si  Si11  1  0.166109  0.833894  0.499667  1
  Si  Si12  1  0.669982  0.834993  0.999967  1
  Si  Si13  1  0.834423  0.165573  0.500045  1
  Si  Si14  1  0.832861  0.665721  0.000191  1
  Si  Si15  1  0.667784  0.833894  0.499662  1
  Si  Si16  1  0.165008  0.330017  0.999967  1
  Si  Si17  1  0.331146  0.165569  0.500044  1
  Si  Si18  1  0.166108  0.332217  0.499662  1
  Si  Si19  1  0.834428  0.668852  0.500045  1
  Pd  Pd20  1  0.333329  0.666665  0.000706  1
  Pd  Pd21  1  0.333332  0.666665  0.501679  1
  Pd  Pd22  1  0.666664  0.333335  0.499050  1
  Rh  Rh23  1  0.666672  0.333336  0.998738  1
