# generated using pymatgen
data_La3Dy12Y(CdNi)4
_symmetry_space_group_name_H-M   'P 1'
_cell_length_a   9.65414453
_cell_length_b   9.65580709
_cell_length_c   9.65602511
_cell_angle_alpha   59.77915960
_cell_angle_beta   60.00213786
_cell_angle_gamma   60.01142994
_symmetry_Int_Tables_number   1
_chemical_formula_structural   La3Dy12Y(CdNi)4
_chemical_formula_sum   'La3 Dy12 Y1 Cd4 Ni4'
_cell_volume   635.47731527
_cell_formula_units_Z   1
loop_
 _symmetry_equiv_pos_site_id
 _symmetry_equiv_pos_as_xyz
  1  'x, y, z'
loop_
 _atom_site_type_symbol
 _atom_site_label
 _atom_site_symmetry_multiplicity
 _atom_site_fract_x
 _atom_site_fract_y
 _atom_site_fract_z
 _atom_site_occupancy
  La  La0  1  0.595626  0.599113  0.599225  1
  La  La1  1  0.595469  0.600590  0.202188  1
  La  La2  1  0.596212  0.202143  0.600083  1
  Dy  Dy3  1  0.195541  0.602892  0.602521  1
  Dy  Dy4  1  0.064217  0.437895  0.437394  1
  Dy  Dy5  1  0.437204  0.064356  0.064556  1
  Dy  Dy6  1  0.437964  0.064354  0.436277  1
  Dy  Dy7  1  0.064831  0.436480  0.062357  1
  Dy  Dy8  1  0.437867  0.436480  0.064411  1
  Dy  Dy9  1  0.064895  0.062273  0.436194  1
  Dy  Dy10  1  0.187819  0.815413  0.815702  1
  Dy  Dy11  1  0.814362  0.184784  0.184968  1
  Dy  Dy12  1  0.815591  0.185404  0.815838  1
  Dy  Dy13  1  0.185659  0.813531  0.184594  1
  Dy  Dy14  1  0.816222  0.815933  0.185154  1
  Y  Y15  1  0.185477  0.184274  0.814081  1
  Cd  Cd16  1  0.836380  0.828730  0.828900  1
  Cd  Cd17  1  0.836309  0.829519  0.502997  1
  Cd  Cd18  1  0.836256  0.503184  0.829500  1
  Cd  Cd19  1  0.503910  0.831660  0.831792  1
  Ni  Ni20  1  0.389265  0.392228  0.392479  1
  Ni  Ni21  1  0.387316  0.391751  0.827031  1
  Ni  Ni22  1  0.387184  0.827093  0.391792  1
  Ni  Ni23  1  0.828425  0.389919  0.389964  1
