# generated using pymatgen
data_Y8ReRuBr8
_symmetry_space_group_name_H-M   'P 1'
_cell_length_a   9.01059587
_cell_length_b   9.01059484
_cell_length_c   6.60301501
_cell_angle_alpha   89.50830546
_cell_angle_beta   89.50830328
_cell_angle_gamma   89.36134286
_symmetry_Int_Tables_number   1
_chemical_formula_structural   Y8ReRuBr8
_chemical_formula_sum   'Y8 Re1 Ru1 Br8'
_cell_volume   536.03191122
_cell_formula_units_Z   1
loop_
 _symmetry_equiv_pos_site_id
 _symmetry_equiv_pos_as_xyz
  1  'x, y, z'
loop_
 _atom_site_type_symbol
 _atom_site_label
 _atom_site_symmetry_multiplicity
 _atom_site_fract_x
 _atom_site_fract_y
 _atom_site_fract_z
 _atom_site_occupancy
  Y  Y0  1  0.750051  0.099638  0.989894  1
  Y  Y1  1  0.099164  0.751020  0.488207  1
  Y  Y2  1  0.097478  0.248159  0.992521  1
  Y  Y3  1  0.248055  0.097415  0.490721  1
  Y  Y4  1  0.902585  0.751945  0.009279  1
  Y  Y5  1  0.900362  0.249949  0.510106  1
  Y  Y6  1  0.248980  0.900836  0.011793  1
  Y  Y7  1  0.751841  0.902522  0.507479  1
  Re  Re8  1  0.994933  0.005067  0.250000  1
  Ru  Ru9  1  0.005312  0.994688  0.750000  1
  Br  Br10  1  0.580883  0.182853  0.591565  1
  Br  Br11  1  0.810458  0.584999  0.406662  1
  Br  Br12  1  0.415001  0.189542  0.093338  1
  Br  Br13  1  0.189489  0.414334  0.593584  1
  Br  Br14  1  0.585666  0.810511  0.906416  1
  Br  Br15  1  0.419627  0.817032  0.409118  1
  Br  Br16  1  0.182968  0.580373  0.090882  1
  Br  Br17  1  0.817147  0.419117  0.908435  1
