# generated using pymatgen
data_PmNd(SiPt)2
_symmetry_space_group_name_H-M   'P 1'
_cell_length_a   5.96184333
_cell_length_b   5.96184336
_cell_length_c   5.96184435
_cell_angle_alpha   138.59468500
_cell_angle_beta   105.52525600
_cell_angle_gamma   88.98507665
_symmetry_Int_Tables_number   1
_chemical_formula_structural   PmNd(SiPt)2
_chemical_formula_sum   'Pm1 Nd1 Si2 Pt2'
_cell_volume   129.34559474
_cell_formula_units_Z   1
loop_
 _symmetry_equiv_pos_site_id
 _symmetry_equiv_pos_as_xyz
  1  'x, y, z'
loop_
 _atom_site_type_symbol
 _atom_site_label
 _atom_site_symmetry_multiplicity
 _atom_site_fract_x
 _atom_site_fract_y
 _atom_site_fract_z
 _atom_site_occupancy
  Pm  Pm0  1  0.997930  0.000000  0.997930  1
  Nd  Nd1  1  0.497851  0.500000  0.997851  1
  Si  Si2  1  0.920575  0.250872  0.669703  1
  Si  Si3  1  0.418830  0.749127  0.669702  1
  Pt  Pt4  1  0.583120  0.250715  0.332406  1
  Pt  Pt5  1  0.081691  0.749284  0.332406  1
