# generated using pymatgen
data_Yb2HgB2Pt7
_symmetry_space_group_name_H-M   'P 1'
_cell_length_a   8.23643424
_cell_length_b   8.23643401
_cell_length_c   8.23643335
_cell_angle_alpha   38.91439376
_cell_angle_beta   38.91439353
_cell_angle_gamma   38.91439064
_symmetry_Int_Tables_number   1
_chemical_formula_structural   Yb2HgB2Pt7
_chemical_formula_sum   'Yb2 Hg1 B2 Pt7'
_cell_volume   198.24328841
_cell_formula_units_Z   1
loop_
 _symmetry_equiv_pos_site_id
 _symmetry_equiv_pos_as_xyz
  1  'x, y, z'
loop_
 _atom_site_type_symbol
 _atom_site_label
 _atom_site_symmetry_multiplicity
 _atom_site_fract_x
 _atom_site_fract_y
 _atom_site_fract_z
 _atom_site_occupancy
  Yb  Yb0  1  0.494641  0.494641  0.494641  1
  Yb  Yb1  1  0.647459  0.647459  0.647459  1
  Hg  Hg2  1  0.351524  0.351524  0.351524  1
  B  B3  1  0.168278  0.168278  0.168278  1
  B  B4  1  0.834166  0.834166  0.834166  1
  Pt  Pt5  1  0.000807  0.000807  0.000807  1
  Pt  Pt6  1  0.568806  0.065495  0.065495  1
  Pt  Pt7  1  0.065495  0.568806  0.065495  1
  Pt  Pt8  1  0.935162  0.935162  0.433006  1
  Pt  Pt9  1  0.065495  0.065495  0.568806  1
  Pt  Pt10  1  0.935162  0.433006  0.935162  1
  Pt  Pt11  1  0.433006  0.935162  0.935162  1
