# generated using pymatgen
data_Ba3Na(CrN2)4
_symmetry_space_group_name_H-M   'P 1'
_cell_length_a   6.42971941
_cell_length_b   6.42971928
_cell_length_c   7.75181698
_cell_angle_alpha   88.18258551
_cell_angle_beta   91.81741548
_cell_angle_gamma   126.28237129
_symmetry_Int_Tables_number   1
_chemical_formula_structural   Ba3Na(CrN2)4
_chemical_formula_sum   'Ba3 Na1 Cr4 N8'
_cell_volume   258.17100565
_cell_formula_units_Z   1
loop_
 _symmetry_equiv_pos_site_id
 _symmetry_equiv_pos_as_xyz
  1  'x, y, z'
loop_
 _atom_site_type_symbol
 _atom_site_label
 _atom_site_symmetry_multiplicity
 _atom_site_fract_x
 _atom_site_fract_y
 _atom_site_fract_z
 _atom_site_occupancy
  Ba  Ba0  1  0.165215  0.834785  0.449044  1
  Ba  Ba1  1  0.663945  0.336055  0.069947  1
  Ba  Ba2  1  0.337629  0.662371  0.923560  1
  Na  Na3  1  0.846217  0.153783  0.568110  1
  Cr  Cr4  1  0.552546  0.447454  0.636589  1
  Cr  Cr5  1  0.447967  0.552033  0.359889  1
  Cr  Cr6  1  0.948093  0.051907  0.135094  1
  Cr  Cr7  1  0.047249  0.952751  0.865900  1
  N  N8  1  0.891693  0.108307  0.904483  1
  N  N9  1  0.105955  0.894045  0.092509  1
  N  N10  1  0.606500  0.393500  0.414700  1
  N  N11  1  0.395446  0.604554  0.583689  1
  N  N12  1  0.344588  0.154828  0.756182  1
  N  N13  1  0.152811  0.351025  0.242061  1
  N  N14  1  0.648975  0.847189  0.242061  1
  N  N15  1  0.845172  0.655412  0.756182  1
