# generated using pymatgen
data_YbHo3(ReB4)4
_symmetry_space_group_name_H-M   'P 1'
_cell_length_a   3.60239500
_cell_length_b   5.96336902
_cell_length_c   11.54385304
_cell_angle_alpha   90.00036885
_cell_angle_beta   90.00000000
_cell_angle_gamma   90.00000000
_symmetry_Int_Tables_number   1
_chemical_formula_structural   YbHo3(ReB4)4
_chemical_formula_sum   'Yb1 Ho3 Re4 B16'
_cell_volume   247.98979232
_cell_formula_units_Z   1
loop_
 _symmetry_equiv_pos_site_id
 _symmetry_equiv_pos_as_xyz
  1  'x, y, z'
loop_
 _atom_site_type_symbol
 _atom_site_label
 _atom_site_symmetry_multiplicity
 _atom_site_fract_x
 _atom_site_fract_y
 _atom_site_fract_z
 _atom_site_occupancy
  Yb  Yb0  1  0.500000  0.872946  0.350047  1
  Ho  Ho1  1  0.500000  0.372713  0.150600  1
  Ho  Ho2  1  0.500000  0.626814  0.850176  1
  Ho  Ho3  1  0.500000  0.125759  0.649690  1
  Re  Re4  1  0.500000  0.368115  0.414645  1
  Re  Re5  1  0.500000  0.630329  0.586368  1
  Re  Re6  1  0.500000  0.133174  0.911868  1
  Re  Re7  1  0.500000  0.866265  0.087382  1
  B  B8  1  0.000000  0.114104  0.047571  1
  B  B9  1  0.000000  0.885961  0.952664  1
  B  B10  1  0.000000  0.386013  0.546962  1
  B  B11  1  0.000000  0.615603  0.452191  1
  B  B12  1  0.000000  0.135792  0.467957  1
  B  B13  1  0.000000  0.863833  0.531621  1
  B  B14  1  0.000000  0.363742  0.968681  1
  B  B15  1  0.000000  0.636328  0.031318  1
  B  B16  1  0.000000  0.025102  0.192578  1
  B  B17  1  0.000000  0.975048  0.807518  1
  B  B18  1  0.000000  0.476145  0.692280  1
  B  B19  1  0.000000  0.524230  0.308000  1
  B  B20  1  0.000000  0.214560  0.315303  1
  B  B21  1  0.000000  0.786073  0.684436  1
  B  B22  1  0.000000  0.285898  0.814593  1
  B  B23  1  0.000000  0.715456  0.185552  1
