# generated using pymatgen
data_TbCr4ReTc7
_symmetry_space_group_name_H-M   'P 1'
_cell_length_a   4.81040361
_cell_length_b   6.77818229
_cell_length_c   6.77818252
_cell_angle_alpha   82.87613375
_cell_angle_beta   69.21606999
_cell_angle_gamma   69.21607133
_symmetry_Int_Tables_number   1
_chemical_formula_structural   TbCr4ReTc7
_chemical_formula_sum   'Tb1 Cr4 Re1 Tc7'
_cell_volume   193.17937878
_cell_formula_units_Z   1
loop_
 _symmetry_equiv_pos_site_id
 _symmetry_equiv_pos_as_xyz
  1  'x, y, z'
loop_
 _atom_site_type_symbol
 _atom_site_label
 _atom_site_symmetry_multiplicity
 _atom_site_fract_x
 _atom_site_fract_y
 _atom_site_fract_z
 _atom_site_occupancy
  Tb  Tb0  1  0.000000  0.999961  0.000039  1
  Cr  Cr1  1  0.000440  0.999654  0.500004  1
  Cr  Cr2  1  0.499902  0.999654  0.500004  1
  Cr  Cr3  1  0.500098  0.499996  0.000346  1
  Cr  Cr4  1  0.999560  0.499996  0.000346  1
  Re  Re5  1  0.000000  0.357713  0.642287  1
  Tc  Tc6  1  0.000000  0.643391  0.356609  1
  Tc  Tc7  1  0.642772  0.357133  0.357323  1
  Tc  Tc8  1  0.357228  0.642677  0.642867  1
  Tc  Tc9  1  0.500000  0.779612  0.220388  1
  Tc  Tc10  1  0.500000  0.219946  0.780054  1
  Tc  Tc11  1  0.720893  0.779240  0.778974  1
  Tc  Tc12  1  0.279107  0.221026  0.220760  1
