# generated using pymatgen
data_Sr2MnCrNi4(PO4)6
_symmetry_space_group_name_H-M   'P 1'
_cell_length_a   9.05399020
_cell_length_b   9.05399150
_cell_length_c   9.05399100
_cell_angle_alpha   137.35427645
_cell_angle_beta   109.29957040
_cell_angle_gamma   86.21205161
_symmetry_Int_Tables_number   1
_chemical_formula_structural   Sr2MnCrNi4(PO4)6
_chemical_formula_sum   'Sr2 Mn1 Cr1 Ni4 P6 O24'
_cell_volume   456.00122954
_cell_formula_units_Z   1
loop_
 _symmetry_equiv_pos_site_id
 _symmetry_equiv_pos_as_xyz
  1  'x, y, z'
loop_
 _atom_site_type_symbol
 _atom_site_label
 _atom_site_symmetry_multiplicity
 _atom_site_fract_x
 _atom_site_fract_y
 _atom_site_fract_z
 _atom_site_occupancy
  Sr  Sr0  1  0.247726  0.339262  0.091427  1
  Sr  Sr1  1  0.752274  0.660738  0.908573  1
  Mn  Mn2  1  0.500000  0.000000  0.500000  1
  Cr  Cr3  1  0.000000  0.500000  0.500000  1
  Ni  Ni4  1  0.118119  0.116358  0.502179  1
  Ni  Ni5  1  0.386468  0.884922  0.002826  1
  Ni  Ni6  1  0.613532  0.115078  0.997174  1
  Ni  Ni7  1  0.881881  0.883642  0.497821  1
  P  P8  1  0.246382  0.830879  0.584382  1
  P  P9  1  0.753618  0.169121  0.415618  1
  P  P10  1  0.323806  0.322404  0.501470  1
  P  P11  1  0.179178  0.677712  0.001420  1
  P  P12  1  0.820822  0.322288  0.998580  1
  P  P13  1  0.676194  0.677596  0.498530  1
  O  O14  1  0.336983  0.777922  0.440844  1
  O  O15  1  0.663017  0.222078  0.559156  1
  O  O16  1  0.849721  0.397983  0.548232  1
  O  O17  1  0.150279  0.602017  0.451768  1
  O  O18  1  0.130259  0.979158  0.613245  1
  O  O19  1  0.634235  0.020776  0.151284  1
  O  O20  1  0.869741  0.020842  0.386755  1
  O  O21  1  0.365765  0.979224  0.848716  1
  O  O22  1  0.348045  0.203152  0.278527  1
  O  O23  1  0.075477  0.796679  0.144902  1
  O  O24  1  0.843596  0.569454  0.141713  1
  O  O25  1  0.572208  0.430514  0.274294  1
  O  O26  1  0.651955  0.796848  0.721473  1
  O  O27  1  0.924523  0.203321  0.855098  1
  O  O28  1  0.156404  0.430546  0.858287  1
  O  O29  1  0.427792  0.569486  0.725706  1
  O  O30  1  0.134079  0.287884  0.435175  1
  O  O31  1  0.147429  0.712101  0.846115  1
  O  O32  1  0.629681  0.197469  0.840016  1
  O  O33  1  0.642498  0.802391  0.432223  1
  O  O34  1  0.865921  0.712116  0.564825  1
  O  O35  1  0.852571  0.287899  0.153885  1
  O  O36  1  0.370319  0.802531  0.159984  1
  O  O37  1  0.357502  0.197609  0.567777  1
