# generated using pymatgen
data_Pa4TaAl18Ir5
_symmetry_space_group_name_H-M   'P 1'
_cell_length_a   7.62950244
_cell_length_b   7.62950310
_cell_length_c   9.35533660
_cell_angle_alpha   89.47305636
_cell_angle_beta   89.47305726
_cell_angle_gamma   118.13495784
_symmetry_Int_Tables_number   1
_chemical_formula_structural   Pa4TaAl18Ir5
_chemical_formula_sum   'Pa4 Ta1 Al18 Ir5'
_cell_volume   480.14435550
_cell_formula_units_Z   1
loop_
 _symmetry_equiv_pos_site_id
 _symmetry_equiv_pos_as_xyz
  1  'x, y, z'
loop_
 _atom_site_type_symbol
 _atom_site_label
 _atom_site_symmetry_multiplicity
 _atom_site_fract_x
 _atom_site_fract_y
 _atom_site_fract_z
 _atom_site_occupancy
  Pa  Pa0  1  0.996530  0.696161  0.245241  1
  Pa  Pa1  1  0.003470  0.303839  0.754759  1
  Pa  Pa2  1  0.696161  0.996530  0.245241  1
  Pa  Pa3  1  0.303839  0.003470  0.754759  1
  Ta  Ta4  1  0.000000  0.000000  0.000000  1
  Al  Al5  1  0.150342  0.150342  0.254155  1
  Al  Al6  1  0.849658  0.849658  0.745845  1
  Al  Al7  1  0.011114  0.351146  0.084155  1
  Al  Al8  1  0.988886  0.648854  0.915845  1
  Al  Al9  1  0.996617  0.653785  0.578367  1
  Al  Al10  1  0.346215  0.003383  0.421633  1
  Al  Al11  1  0.003383  0.346215  0.421633  1
  Al  Al12  1  0.653785  0.996617  0.578367  1
  Al  Al13  1  0.648854  0.988886  0.915845  1
  Al  Al14  1  0.351146  0.011114  0.084155  1
  Al  Al15  1  0.334759  0.334759  0.543624  1
  Al  Al16  1  0.665241  0.665241  0.456376  1
  Al  Al17  1  0.659263  0.659263  0.045883  1
  Al  Al18  1  0.340737  0.340737  0.954117  1
  Al  Al19  1  0.348886  0.562540  0.251509  1
  Al  Al20  1  0.651114  0.437460  0.748491  1
  Al  Al21  1  0.562540  0.348886  0.251509  1
  Al  Al22  1  0.437460  0.651114  0.748491  1
  Ir  Ir23  1  0.675378  0.324622  0.000000  1
  Ir  Ir24  1  0.324622  0.675378  0.000000  1
  Ir  Ir25  1  0.327163  0.672837  0.500000  1
  Ir  Ir26  1  0.672837  0.327163  0.500000  1
  Ir  Ir27  1  0.000000  0.000000  0.500000  1
