# generated using pymatgen
data_Tm4Lu4ReOs3C8
_symmetry_space_group_name_H-M   'P 1'
_cell_length_a   5.00932400
_cell_length_b   6.43040583
_cell_length_c   9.62363702
_cell_angle_alpha   89.90711870
_cell_angle_beta   90.00000000
_cell_angle_gamma   90.00000000
_symmetry_Int_Tables_number   1
_chemical_formula_structural   Tm4Lu4ReOs3C8
_chemical_formula_sum   'Tm4 Lu4 Re1 Os3 C8'
_cell_volume   309.99605579
_cell_formula_units_Z   1
loop_
 _symmetry_equiv_pos_site_id
 _symmetry_equiv_pos_as_xyz
  1  'x, y, z'
loop_
 _atom_site_type_symbol
 _atom_site_label
 _atom_site_symmetry_multiplicity
 _atom_site_fract_x
 _atom_site_fract_y
 _atom_site_fract_z
 _atom_site_occupancy
  Tm  Tm0  1  0.250000  0.469756  0.216737  1
  Tm  Tm1  1  0.250000  0.968211  0.281741  1
  Tm  Tm2  1  0.750000  0.530853  0.785585  1
  Tm  Tm3  1  0.750000  0.030487  0.715142  1
  Lu  Lu4  1  0.250000  0.825591  0.945232  1
  Lu  Lu5  1  0.250000  0.325794  0.554886  1
  Lu  Lu6  1  0.750000  0.175481  0.055193  1
  Lu  Lu7  1  0.750000  0.677640  0.444311  1
  Re  Re8  1  0.750000  0.219355  0.369153  1
  Os  Os9  1  0.250000  0.281020  0.867292  1
  Os  Os10  1  0.250000  0.781387  0.632468  1
  Os  Os11  1  0.750000  0.719864  0.130438  1
  C  C12  1  0.250000  0.046716  0.741052  1
  C  C13  1  0.250000  0.546666  0.758612  1
  C  C14  1  0.750000  0.952099  0.260593  1
  C  C15  1  0.750000  0.453104  0.240912  1
  C  C16  1  0.250000  0.669129  0.443757  1
  C  C17  1  0.250000  0.168369  0.056401  1
  C  C18  1  0.750000  0.328612  0.557778  1
  C  C19  1  0.750000  0.829864  0.942715  1
