# generated using pymatgen
data_Zr2HN
_symmetry_space_group_name_H-M   'P 1'
_cell_length_a   3.29765600
_cell_length_b   3.29765575
_cell_length_c   5.40609300
_cell_angle_alpha   90.00000000
_cell_angle_beta   90.00000000
_cell_angle_gamma   120.00002260
_symmetry_Int_Tables_number   1
_chemical_formula_structural   Zr2HN
_chemical_formula_sum   'Zr2 H1 N1'
_cell_volume   50.91253378
_cell_formula_units_Z   1
loop_
 _symmetry_equiv_pos_site_id
 _symmetry_equiv_pos_as_xyz
  1  'x, y, z'
loop_
 _atom_site_type_symbol
 _atom_site_label
 _atom_site_symmetry_multiplicity
 _atom_site_fract_x
 _atom_site_fract_y
 _atom_site_fract_z
 _atom_site_occupancy
  Zr  Zr0  1  0.000000  0.000000  0.761059  1
  Zr  Zr1  1  0.333333  0.666667  0.235179  1
  H  H2  1  0.000000  0.000000  0.387553  1
  N  N3  1  0.666667  0.333333  0.000208  1
