# generated using pymatgen
data_MgNp6TiSb10
_symmetry_space_group_name_H-M   'P 1'
_cell_length_a   9.19575461
_cell_length_b   9.19996984
_cell_length_c   6.17619713
_cell_angle_alpha   89.98342755
_cell_angle_beta   89.99339873
_cell_angle_gamma   120.05230439
_symmetry_Int_Tables_number   1
_chemical_formula_structural   MgNp6TiSb10
_chemical_formula_sum   'Mg1 Np6 Ti1 Sb10'
_cell_volume   452.26854339
_cell_formula_units_Z   1
loop_
 _symmetry_equiv_pos_site_id
 _symmetry_equiv_pos_as_xyz
  1  'x, y, z'
loop_
 _atom_site_type_symbol
 _atom_site_label
 _atom_site_symmetry_multiplicity
 _atom_site_fract_x
 _atom_site_fract_y
 _atom_site_fract_z
 _atom_site_occupancy
  Mg  Mg0  1  0.000000  0.000000  0.000000  1
  Np  Np1  1  0.385653  0.000065  0.749740  1
  Np  Np2  1  0.385684  0.385697  0.250127  1
  Np  Np3  1  0.999990  0.614303  0.250192  1
  Np  Np4  1  0.000010  0.385697  0.749808  1
  Np  Np5  1  0.614316  0.614303  0.749873  1
  Np  Np6  1  0.614347  0.999935  0.250260  1
  Ti  Ti7  1  0.000000  0.000000  0.500000  1
  Sb  Sb8  1  0.666690  0.333339  0.499961  1
  Sb  Sb9  1  0.333301  0.666681  0.000013  1
  Sb  Sb10  1  0.735681  0.999969  0.744785  1
  Sb  Sb11  1  0.735750  0.735719  0.255249  1
  Sb  Sb12  1  0.333310  0.666661  0.500039  1
  Sb  Sb13  1  0.666699  0.333319  0.999987  1
  Sb  Sb14  1  0.264319  0.000031  0.255215  1
  Sb  Sb15  1  0.264250  0.264281  0.744751  1
  Sb  Sb16  1  0.999991  0.735692  0.744769  1
  Sb  Sb17  1  0.000009  0.264308  0.255231  1
