# generated using pymatgen
data_Dy5Y3Co3Si12Rh
_symmetry_space_group_name_H-M   'P 1'
_cell_length_a   8.04101230
_cell_length_b   8.03764041
_cell_length_c   7.94181642
_cell_angle_alpha   89.99993592
_cell_angle_beta   89.97633604
_cell_angle_gamma   119.98665784
_symmetry_Int_Tables_number   1
_chemical_formula_structural   Dy5Y3Co3Si12Rh
_chemical_formula_sum   'Dy5 Y3 Co3 Si12 Rh1'
_cell_volume   444.57813279
_cell_formula_units_Z   1
loop_
 _symmetry_equiv_pos_site_id
 _symmetry_equiv_pos_as_xyz
  1  'x, y, z'
loop_
 _atom_site_type_symbol
 _atom_site_label
 _atom_site_symmetry_multiplicity
 _atom_site_fract_x
 _atom_site_fract_y
 _atom_site_fract_z
 _atom_site_occupancy
  Dy  Dy0  1  0.492192  0.507674  0.248364  1
  Dy  Dy1  1  0.505277  0.010457  0.750035  1
  Dy  Dy2  1  0.492192  0.984520  0.248364  1
  Dy  Dy3  1  0.505277  0.494818  0.750035  1
  Dy  Dy4  1  0.989536  0.494767  0.750046  1
  Y  Y5  1  0.000013  0.000007  0.249022  1
  Y  Y6  1  0.999773  0.999886  0.751328  1
  Y  Y7  1  0.016418  0.508210  0.248356  1
  Co  Co8  1  0.333554  0.666776  0.966522  1
  Co  Co9  1  0.333576  0.666787  0.533922  1
  Co  Co10  1  0.666307  0.333155  0.033896  1
  Si  Si11  1  0.171370  0.342643  0.998206  1
  Si  Si12  1  0.657371  0.828686  0.998593  1
  Si  Si13  1  0.172170  0.344311  0.501306  1
  Si  Si14  1  0.344059  0.172029  0.000837  1
  Si  Si15  1  0.171371  0.828727  0.998207  1
  Si  Si16  1  0.655773  0.827887  0.500836  1
  Si  Si17  1  0.827850  0.655804  0.000630  1
  Si  Si18  1  0.332737  0.166367  0.500914  1
  Si  Si19  1  0.172170  0.827859  0.501307  1
  Si  Si20  1  0.833465  0.666980  0.501036  1
  Si  Si21  1  0.827848  0.172046  0.000634  1
  Si  Si22  1  0.833464  0.166484  0.501036  1
  Rh  Rh23  1  0.666235  0.333118  0.466566  1
