# generated using pymatgen
data_Nd8Si15Ir
_symmetry_space_group_name_H-M   'P 1'
_cell_length_a   8.22432000
_cell_length_b   8.22432082
_cell_length_c   8.45878800
_cell_angle_alpha   90.00000000
_cell_angle_beta   90.00000000
_cell_angle_gamma   119.99999669
_symmetry_Int_Tables_number   1
_chemical_formula_structural   Nd8Si15Ir
_chemical_formula_sum   'Nd8 Si15 Ir1'
_cell_volume   495.49449077
_cell_formula_units_Z   1
loop_
 _symmetry_equiv_pos_site_id
 _symmetry_equiv_pos_as_xyz
  1  'x, y, z'
loop_
 _atom_site_type_symbol
 _atom_site_label
 _atom_site_symmetry_multiplicity
 _atom_site_fract_x
 _atom_site_fract_y
 _atom_site_fract_z
 _atom_site_occupancy
  Nd  Nd0  1  0.500278  0.499722  0.745759  1
  Nd  Nd1  1  0.500210  0.499790  0.254247  1
  Nd  Nd2  1  0.999445  0.499722  0.745759  1
  Nd  Nd3  1  0.999580  0.499790  0.254247  1
  Nd  Nd4  1  0.500278  0.000555  0.745759  1
  Nd  Nd5  1  0.500210  0.000420  0.254247  1
  Nd  Nd6  1  0.000000  0.000000  0.748817  1
  Nd  Nd7  1  0.000000  0.000000  0.251096  1
  Si  Si8  1  0.830010  0.169990  0.000091  1
  Si  Si9  1  0.163634  0.836366  0.999896  1
  Si  Si10  1  0.339982  0.169990  0.000091  1
  Si  Si11  1  0.167921  0.832079  0.500121  1
  Si  Si12  1  0.672734  0.836366  0.999896  1
  Si  Si13  1  0.833662  0.166338  0.499798  1
  Si  Si14  1  0.830010  0.660018  0.000091  1
  Si  Si15  1  0.664158  0.832079  0.500121  1
  Si  Si16  1  0.163634  0.327266  0.999896  1
  Si  Si17  1  0.332676  0.166338  0.499798  1
  Si  Si18  1  0.167921  0.335842  0.500121  1
  Si  Si19  1  0.833662  0.667324  0.499798  1
  Si  Si20  1  0.333333  0.666667  0.000390  1
  Si  Si21  1  0.333333  0.666667  0.500349  1
  Si  Si22  1  0.666667  0.333333  0.499846  1
  Ir  Ir23  1  0.666667  0.333333  0.999765  1
