# generated using pymatgen
data_Si2Mo9Pt
_symmetry_space_group_name_H-M   'P 1'
_cell_length_a   4.94586800
_cell_length_b   4.94345400
_cell_length_c   14.75923100
_cell_angle_alpha   90.00000000
_cell_angle_beta   90.00000000
_cell_angle_gamma   90.00000000
_symmetry_Int_Tables_number   1
_chemical_formula_structural   Si2Mo9Pt
_chemical_formula_sum   'Si4 Mo18 Pt2'
_cell_volume   360.85834140
_cell_formula_units_Z   2
loop_
 _symmetry_equiv_pos_site_id
 _symmetry_equiv_pos_as_xyz
  1  'x, y, z'
loop_
 _atom_site_type_symbol
 _atom_site_label
 _atom_site_symmetry_multiplicity
 _atom_site_fract_x
 _atom_site_fract_y
 _atom_site_fract_z
 _atom_site_occupancy
  Si  Si0  1  0.500000  0.500000  0.166612  1
  Si  Si1  1  0.000000  0.000000  0.000273  1
  Si  Si2  1  0.000000  0.000000  0.666672  1
  Si  Si3  1  0.000000  0.000000  0.333076  1
  Mo  Mo4  1  0.500000  0.000000  0.748044  1
  Mo  Mo5  1  0.500000  0.000000  0.413576  1
  Mo  Mo6  1  0.500000  0.000000  0.084329  1
  Mo  Mo7  1  0.246919  0.500000  0.003098  1
  Mo  Mo8  1  0.244618  0.500000  0.666664  1
  Mo  Mo9  1  0.246933  0.500000  0.330214  1
  Mo  Mo10  1  0.000000  0.755889  0.834091  1
  Mo  Mo11  1  0.000000  0.755902  0.499269  1
  Mo  Mo12  1  0.000000  0.751046  0.166647  1
  Mo  Mo13  1  0.500000  0.000000  0.919782  1
  Mo  Mo14  1  0.500000  0.000000  0.585320  1
  Mo  Mo15  1  0.500000  0.000000  0.249022  1
  Mo  Mo16  1  0.753081  0.500000  0.003098  1
  Mo  Mo17  1  0.755382  0.500000  0.666664  1
  Mo  Mo18  1  0.753067  0.500000  0.330214  1
  Mo  Mo19  1  0.000000  0.244111  0.834091  1
  Mo  Mo20  1  0.000000  0.244098  0.499269  1
  Mo  Mo21  1  0.000000  0.248954  0.166647  1
  Pt  Pt22  1  0.500000  0.500000  0.833989  1
  Pt  Pt23  1  0.500000  0.500000  0.499335  1
