# generated using pymatgen
data_Y3Tm(RuO4)4
_symmetry_space_group_name_H-M   'P 1'
_cell_length_a   5.31832212
_cell_length_b   7.38551927
_cell_length_c   7.61142100
_cell_angle_alpha   80.30804782
_cell_angle_beta   90.57532443
_cell_angle_gamma   90.05850964
_symmetry_Int_Tables_number   1
_chemical_formula_structural   Y3Tm(RuO4)4
_chemical_formula_sum   'Y3 Tm1 Ru4 O16'
_cell_volume   294.68371086
_cell_formula_units_Z   1
loop_
 _symmetry_equiv_pos_site_id
 _symmetry_equiv_pos_as_xyz
  1  'x, y, z'
loop_
 _atom_site_type_symbol
 _atom_site_label
 _atom_site_symmetry_multiplicity
 _atom_site_fract_x
 _atom_site_fract_y
 _atom_site_fract_z
 _atom_site_occupancy
  Y  Y0  1  0.288869  0.393539  0.345222  1
  Y  Y1  1  0.219081  0.891920  0.353447  1
  Y  Y2  1  0.778798  0.108542  0.646250  1
  Tm  Tm3  1  0.708601  0.608451  0.655102  1
  Ru  Ru4  1  0.772483  0.199198  0.160097  1
  Ru  Ru5  1  0.731711  0.700118  0.160254  1
  Ru  Ru6  1  0.266411  0.300896  0.838732  1
  Ru  Ru7  1  0.226370  0.799689  0.839219  1
  O  O8  1  0.098378  0.303696  0.062367  1
  O  O9  1  0.403974  0.804846  0.060865  1
  O  O10  1  0.634086  0.444931  0.167101  1
  O  O11  1  0.872346  0.945398  0.167040  1
  O  O12  1  0.499246  0.120391  0.319422  1
  O  O13  1  0.987019  0.174209  0.389440  1
  O  O14  1  0.015867  0.622511  0.309133  1
  O  O15  1  0.528254  0.674540  0.390499  1
  O  O16  1  0.476225  0.328691  0.612587  1
  O  O17  1  0.981384  0.382067  0.690484  1
  O  O18  1  0.012769  0.819677  0.611546  1
  O  O19  1  0.504951  0.876364  0.683450  1
  O  O20  1  0.128612  0.055319  0.828335  1
  O  O21  1  0.370924  0.555177  0.832828  1
  O  O22  1  0.593214  0.194642  0.939798  1
  O  O23  1  0.900425  0.695190  0.936779  1
