# generated using pymatgen
data_Ta12Al5Zn7N2
_symmetry_space_group_name_H-M   'P 1'
_cell_length_a   8.20393241
_cell_length_b   8.19898995
_cell_length_c   8.20878138
_cell_angle_alpha   60.02414882
_cell_angle_beta   60.01954179
_cell_angle_gamma   59.98006265
_symmetry_Int_Tables_number   1
_chemical_formula_structural   Ta12Al5Zn7N2
_chemical_formula_sum   'Ta12 Al5 Zn7 N2'
_cell_volume   390.50258732
_cell_formula_units_Z   1
loop_
 _symmetry_equiv_pos_site_id
 _symmetry_equiv_pos_as_xyz
  1  'x, y, z'
loop_
 _atom_site_type_symbol
 _atom_site_label
 _atom_site_symmetry_multiplicity
 _atom_site_fract_x
 _atom_site_fract_y
 _atom_site_fract_z
 _atom_site_occupancy
  Ta  Ta0  1  0.189376  0.811400  0.187903  1
  Ta  Ta1  1  0.439137  0.060156  0.438827  1
  Ta  Ta2  1  0.438294  0.060913  0.062500  1
  Ta  Ta3  1  0.438518  0.438639  0.061413  1
  Ta  Ta4  1  0.188976  0.810793  0.811255  1
  Ta  Ta5  1  0.061429  0.438639  0.061413  1
  Ta  Ta6  1  0.811321  0.811400  0.187903  1
  Ta  Ta7  1  0.060513  0.439510  0.439464  1
  Ta  Ta8  1  0.190292  0.188699  0.810621  1
  Ta  Ta9  1  0.810922  0.189023  0.189134  1
  Ta  Ta10  1  0.810388  0.188699  0.810621  1
  Ta  Ta11  1  0.061880  0.060156  0.438827  1
  Al  Al12  1  0.834371  0.495228  0.836031  1
  Al  Al13  1  0.414530  0.415375  0.755564  1
  Al  Al14  1  0.755607  0.415585  0.414049  1
  Al  Al15  1  0.414757  0.415585  0.414049  1
  Al  Al16  1  0.834593  0.835534  0.495281  1
  Zn  Zn17  1  0.415980  0.752507  0.415530  1
  Zn  Zn18  1  0.834170  0.834026  0.834453  1
  Zn  Zn19  1  0.497353  0.834026  0.834453  1
  Zn  Zn20  1  0.624673  0.123755  0.626898  1
  Zn  Zn21  1  0.623890  0.628185  0.124035  1
  Zn  Zn22  1  0.124811  0.626940  0.625064  1
  Zn  Zn23  1  0.623185  0.626940  0.625064  1
  N  N24  1  0.000940  0.999473  0.998648  1
  N  N25  1  0.250094  0.248812  0.251000  1
