# generated using pymatgen
data_RbCaGaF6
_symmetry_space_group_name_H-M   'P 1'
_cell_length_a   7.76581600
_cell_length_b   7.53421000
_cell_length_c   10.23472000
_cell_angle_alpha   90.00000000
_cell_angle_beta   90.00000000
_cell_angle_gamma   90.00000000
_symmetry_Int_Tables_number   1
_chemical_formula_structural   RbCaGaF6
_chemical_formula_sum   'Rb4 Ca4 Ga4 F24'
_cell_volume   598.82618587
_cell_formula_units_Z   4
loop_
 _symmetry_equiv_pos_site_id
 _symmetry_equiv_pos_as_xyz
  1  'x, y, z'
loop_
 _atom_site_type_symbol
 _atom_site_label
 _atom_site_symmetry_multiplicity
 _atom_site_fract_x
 _atom_site_fract_y
 _atom_site_fract_z
 _atom_site_occupancy
  Rb  Rb0  1  0.024068  0.250000  0.626289  1
  Rb  Rb1  1  0.975932  0.750000  0.373711  1
  Rb  Rb2  1  0.475932  0.750000  0.126289  1
  Rb  Rb3  1  0.524068  0.250000  0.873711  1
  Ca  Ca4  1  0.202527  0.250000  0.248266  1
  Ca  Ca5  1  0.797473  0.750000  0.751734  1
  Ca  Ca6  1  0.297473  0.750000  0.748266  1
  Ca  Ca7  1  0.702527  0.250000  0.251734  1
  Ga  Ga8  1  0.000000  0.000000  0.000000  1
  Ga  Ga9  1  0.500000  0.000000  0.500000  1
  Ga  Ga10  1  0.000000  0.500000  0.000000  1
  Ga  Ga11  1  0.500000  0.500000  0.500000  1
  F  F12  1  0.296184  0.050455  0.405630  1
  F  F13  1  0.703816  0.949545  0.594370  1
  F  F14  1  0.203816  0.949545  0.905630  1
  F  F15  1  0.703816  0.550455  0.594370  1
  F  F16  1  0.796184  0.050455  0.094370  1
  F  F17  1  0.296184  0.449545  0.405630  1
  F  F18  1  0.796184  0.449545  0.094370  1
  F  F19  1  0.203816  0.550455  0.905630  1
  F  F20  1  0.577245  0.250000  0.483681  1
  F  F21  1  0.422755  0.750000  0.516319  1
  F  F22  1  0.922755  0.750000  0.983681  1
  F  F23  1  0.077245  0.250000  0.016319  1
  F  F24  1  0.121653  0.534452  0.159989  1
  F  F25  1  0.878347  0.465548  0.840011  1
  F  F26  1  0.378347  0.465548  0.659989  1
  F  F27  1  0.878347  0.034452  0.840011  1
  F  F28  1  0.621653  0.534452  0.340011  1
  F  F29  1  0.121653  0.965548  0.159989  1
  F  F30  1  0.621653  0.965548  0.340011  1
  F  F31  1  0.378347  0.034452  0.659989  1
  F  F32  1  0.452517  0.250000  0.146334  1
  F  F33  1  0.547483  0.750000  0.853666  1
  F  F34  1  0.047483  0.750000  0.646334  1
  F  F35  1  0.952517  0.250000  0.353666  1
