# generated using pymatgen
data_Zr5InBi2As
_symmetry_space_group_name_H-M   'P 1'
_cell_length_a   8.80510429
_cell_length_b   8.80510438
_cell_length_c   5.98923000
_cell_angle_alpha   90.00000000
_cell_angle_beta   90.00000000
_cell_angle_gamma   119.77741553
_symmetry_Int_Tables_number   1
_chemical_formula_structural   Zr5InBi2As
_chemical_formula_sum   'Zr10 In2 Bi4 As2'
_cell_volume   403.03276662
_cell_formula_units_Z   2
loop_
 _symmetry_equiv_pos_site_id
 _symmetry_equiv_pos_as_xyz
  1  'x, y, z'
loop_
 _atom_site_type_symbol
 _atom_site_label
 _atom_site_symmetry_multiplicity
 _atom_site_fract_x
 _atom_site_fract_y
 _atom_site_fract_z
 _atom_site_occupancy
  Zr  Zr0  1  0.738912  0.005933  0.250000  1
  Zr  Zr1  1  0.005933  0.738912  0.250000  1
  Zr  Zr2  1  0.261668  0.261668  0.250000  1
  Zr  Zr3  1  0.255747  0.998948  0.750000  1
  Zr  Zr4  1  0.998948  0.255747  0.750000  1
  Zr  Zr5  1  0.741810  0.741810  0.750000  1
  Zr  Zr6  1  0.332434  0.667294  0.495991  1
  Zr  Zr7  1  0.667294  0.332434  0.495991  1
  Zr  Zr8  1  0.667294  0.332434  0.004009  1
  Zr  Zr9  1  0.332434  0.667294  0.004009  1
  In  In10  1  0.392503  0.001233  0.250000  1
  In  In11  1  0.001233  0.392503  0.250000  1
  Bi  Bi12  1  0.609017  0.609017  0.250000  1
  Bi  Bi13  1  0.599851  0.000519  0.750000  1
  Bi  Bi14  1  0.000519  0.599851  0.750000  1
  Bi  Bi15  1  0.394920  0.394920  0.750000  1
  As  As16  1  0.999740  0.999740  0.496216  1
  As  As17  1  0.999740  0.999740  0.003784  1
