# generated using pymatgen
data_Zn(PdCl4)3
_symmetry_space_group_name_H-M   'P 1'
_cell_length_a   12.00400879
_cell_length_b   11.44671702
_cell_length_c   6.32099983
_cell_angle_alpha   79.29256705
_cell_angle_beta   69.54902537
_cell_angle_gamma   31.78745632
_symmetry_Int_Tables_number   1
_chemical_formula_structural   Zn(PdCl4)3
_chemical_formula_sum   'Zn1 Pd3 Cl12'
_cell_volume   417.66457296
_cell_formula_units_Z   1
loop_
 _symmetry_equiv_pos_site_id
 _symmetry_equiv_pos_as_xyz
  1  'x, y, z'
loop_
 _atom_site_type_symbol
 _atom_site_label
 _atom_site_symmetry_multiplicity
 _atom_site_fract_x
 _atom_site_fract_y
 _atom_site_fract_z
 _atom_site_occupancy
  Zn  Zn0  1  0.584262  0.584262  0.415738  1
  Pd  Pd1  1  0.418416  0.418416  0.581584  1
  Pd  Pd2  1  0.834110  0.834110  0.665890  1
  Pd  Pd3  1  0.664513  0.664513  0.835487  1
  Cl  Cl4  1  0.718095  0.276330  0.289459  1
  Cl  Cl5  1  0.881647  0.440822  0.071809  1
  Cl  Cl6  1  0.368334  0.813296  0.152292  1
  Cl  Cl7  1  0.440822  0.881647  0.605722  1
  Cl  Cl8  1  0.178368  0.646363  0.363773  1
  Cl  Cl9  1  0.276330  0.718095  0.716116  1
  Cl  Cl10  1  0.533081  0.957887  0.972768  1
  Cl  Cl11  1  0.957887  0.533081  0.536264  1
  Cl  Cl12  1  0.104572  0.579906  0.876886  1
  Cl  Cl13  1  0.813296  0.368334  0.666078  1
  Cl  Cl14  1  0.646363  0.178368  0.811499  1
  Cl  Cl15  1  0.579906  0.104572  0.438636  1
