# generated using pymatgen
data_La4TmOs2
_symmetry_space_group_name_H-M   'P 1'
_cell_length_a   6.71969416
_cell_length_b   7.33625543
_cell_length_c   8.94403555
_cell_angle_alpha   94.88718347
_cell_angle_beta   112.06463551
_cell_angle_gamma   90.00000694
_symmetry_Int_Tables_number   1
_chemical_formula_structural   La4TmOs2
_chemical_formula_sum   'La8 Tm2 Os4'
_cell_volume   406.89490924
_cell_formula_units_Z   2
loop_
 _symmetry_equiv_pos_site_id
 _symmetry_equiv_pos_as_xyz
  1  'x, y, z'
loop_
 _atom_site_type_symbol
 _atom_site_label
 _atom_site_symmetry_multiplicity
 _atom_site_fract_x
 _atom_site_fract_y
 _atom_site_fract_z
 _atom_site_occupancy
  La  La0  1  0.795768  0.089154  0.819944  1
  La  La1  1  0.975825  0.410846  0.180056  1
  La  La2  1  0.204232  0.910846  0.180056  1
  La  La3  1  0.024175  0.589154  0.819944  1
  La  La4  1  0.210192  0.181870  0.574055  1
  La  La5  1  0.636138  0.318130  0.425945  1
  La  La6  1  0.789808  0.818130  0.425945  1
  La  La7  1  0.363862  0.681870  0.574055  1
  Tm  Tm8  1  0.435118  0.250000  0.000000  1
  Tm  Tm9  1  0.564882  0.750000  0.000000  1
  Os  Os10  1  0.603432  0.427414  0.788245  1
  Os  Os11  1  0.815186  0.072586  0.211755  1
  Os  Os12  1  0.396568  0.572586  0.211755  1
  Os  Os13  1  0.184814  0.927414  0.788245  1
