# generated using pymatgen
data_K4CoO4
_symmetry_space_group_name_H-M   'P 1'
_cell_length_a   6.45444203
_cell_length_b   6.53292385
_cell_length_c   9.39731033
_cell_angle_alpha   72.47703393
_cell_angle_beta   80.67239026
_cell_angle_gamma   66.22153373
_symmetry_Int_Tables_number   1
_chemical_formula_structural   K4CoO4
_chemical_formula_sum   'K8 Co2 O8'
_cell_volume   345.41082355
_cell_formula_units_Z   2
loop_
 _symmetry_equiv_pos_site_id
 _symmetry_equiv_pos_as_xyz
  1  'x, y, z'
loop_
 _atom_site_type_symbol
 _atom_site_label
 _atom_site_symmetry_multiplicity
 _atom_site_fract_x
 _atom_site_fract_y
 _atom_site_fract_z
 _atom_site_occupancy
  K  K0  1  0.734361  0.911761  0.347894  1
  K  K1  1  0.265639  0.088239  0.652106  1
  K  K2  1  0.272973  0.545313  0.877767  1
  K  K3  1  0.727027  0.454687  0.122233  1
  K  K4  1  0.777251  0.004482  0.933601  1
  K  K5  1  0.222749  0.995518  0.066399  1
  K  K6  1  0.240959  0.728409  0.465966  1
  K  K7  1  0.759041  0.271591  0.534034  1
  Co  Co8  1  0.239273  0.347490  0.250405  1
  Co  Co9  1  0.760727  0.652510  0.749595  1
  O  O10  1  0.397944  0.333111  0.398780  1
  O  O11  1  0.602056  0.666889  0.601220  1
  O  O12  1  0.934559  0.827938  0.685262  1
  O  O13  1  0.065441  0.172062  0.314738  1
  O  O14  1  0.542882  0.787284  0.880140  1
  O  O15  1  0.457118  0.212716  0.119860  1
  O  O16  1  0.940223  0.356014  0.841393  1
  O  O17  1  0.059777  0.643986  0.158607  1
