# generated using pymatgen
data_Lu2GeB2IrRh4
_symmetry_space_group_name_H-M   'P 1'
_cell_length_a   9.33551700
_cell_length_b   9.33551700
_cell_length_c   3.24762200
_cell_angle_alpha   90.00000000
_cell_angle_beta   90.00000000
_cell_angle_gamma   90.00000000
_symmetry_Int_Tables_number   1
_chemical_formula_structural   Lu2GeB2IrRh4
_chemical_formula_sum   'Lu4 Ge2 B4 Ir2 Rh8'
_cell_volume   283.03635522
_cell_formula_units_Z   2
loop_
 _symmetry_equiv_pos_site_id
 _symmetry_equiv_pos_as_xyz
  1  'x, y, z'
loop_
 _atom_site_type_symbol
 _atom_site_label
 _atom_site_symmetry_multiplicity
 _atom_site_fract_x
 _atom_site_fract_y
 _atom_site_fract_z
 _atom_site_occupancy
  Lu  Lu0  1  0.823536  0.323536  0.000000  1
  Lu  Lu1  1  0.323536  0.176464  0.000000  1
  Lu  Lu2  1  0.676464  0.823536  0.000000  1
  Lu  Lu3  1  0.176464  0.676464  0.000000  1
  Ge  Ge4  1  0.000000  0.000000  0.000000  1
  Ge  Ge5  1  0.500000  0.500000  0.000000  1
  B  B6  1  0.620331  0.120331  0.000000  1
  B  B7  1  0.120331  0.379669  0.000000  1
  B  B8  1  0.879669  0.620331  0.000000  1
  B  B9  1  0.379669  0.879669  0.000000  1
  Ir  Ir10  1  0.500000  0.000000  0.500000  1
  Ir  Ir11  1  0.000000  0.500000  0.500000  1
  Rh  Rh12  1  0.070682  0.216245  0.500000  1
  Rh  Rh13  1  0.216245  0.929318  0.500000  1
  Rh  Rh14  1  0.783755  0.070682  0.500000  1
  Rh  Rh15  1  0.929318  0.783755  0.500000  1
  Rh  Rh16  1  0.429318  0.716245  0.500000  1
  Rh  Rh17  1  0.570682  0.283755  0.500000  1
  Rh  Rh18  1  0.716245  0.570682  0.500000  1
  Rh  Rh19  1  0.283755  0.429318  0.500000  1
