# generated using pymatgen
data_Ta12Al7PdN4
_symmetry_space_group_name_H-M   'P 1'
_cell_length_a   7.04457026
_cell_length_b   7.04456992
_cell_length_c   7.04457033
_cell_angle_alpha   89.82397818
_cell_angle_beta   90.17601629
_cell_angle_gamma   90.17601421
_symmetry_Int_Tables_number   1
_chemical_formula_structural   Ta12Al7PdN4
_chemical_formula_sum   'Ta12 Al7 Pd1 N4'
_cell_volume   349.58868092
_cell_formula_units_Z   1
loop_
 _symmetry_equiv_pos_site_id
 _symmetry_equiv_pos_as_xyz
  1  'x, y, z'
loop_
 _atom_site_type_symbol
 _atom_site_label
 _atom_site_symmetry_multiplicity
 _atom_site_fract_x
 _atom_site_fract_y
 _atom_site_fract_z
 _atom_site_occupancy
  Ta  Ta0  1  0.791208  0.956725  0.374603  1
  Ta  Ta1  1  0.708224  0.044731  0.877241  1
  Ta  Ta2  1  0.205528  0.453126  0.120050  1
  Ta  Ta3  1  0.295839  0.542677  0.631372  1
  Ta  Ta4  1  0.955269  0.377241  0.791776  1
  Ta  Ta5  1  0.043275  0.874603  0.708792  1
  Ta  Ta6  1  0.457323  0.131372  0.204161  1
  Ta  Ta7  1  0.546874  0.620050  0.294472  1
  Ta  Ta8  1  0.379950  0.794472  0.953126  1
  Ta  Ta9  1  0.868628  0.704161  0.042677  1
  Ta  Ta10  1  0.125397  0.208792  0.456725  1
  Ta  Ta11  1  0.622759  0.291776  0.544731  1
  Al  Al12  1  0.321257  0.175150  0.821381  1
  Al  Al13  1  0.824850  0.321381  0.178743  1
  Al  Al14  1  0.678619  0.678743  0.675150  1
  Al  Al15  1  0.571036  0.428964  0.928964  1
  Al  Al16  1  0.420346  0.925453  0.562848  1
  Al  Al17  1  0.937152  0.579654  0.425453  1
  Al  Al18  1  0.074547  0.062848  0.079654  1
  Pd  Pd19  1  0.182419  0.817581  0.317581  1
  N  N20  1  0.875197  0.124803  0.624803  1
  N  N21  1  0.620892  0.876797  0.129791  1
  N  N22  1  0.123203  0.629791  0.879108  1
  N  N23  1  0.370209  0.379108  0.376797  1
