# generated using pymatgen
data_Sc8Ta5Nb7Si15B
_symmetry_space_group_name_H-M   'P 1'
_cell_length_a   6.67326937
_cell_length_b   6.86099122
_cell_length_c   13.12931556
_cell_angle_alpha   90.02284480
_cell_angle_beta   89.97557056
_cell_angle_gamma   89.57827342
_symmetry_Int_Tables_number   1
_chemical_formula_structural   Sc8Ta5Nb7Si15B
_chemical_formula_sum   'Sc8 Ta5 Nb7 Si15 B1'
_cell_volume   601.11251095
_cell_formula_units_Z   1
loop_
 _symmetry_equiv_pos_site_id
 _symmetry_equiv_pos_as_xyz
  1  'x, y, z'
loop_
 _atom_site_type_symbol
 _atom_site_label
 _atom_site_symmetry_multiplicity
 _atom_site_fract_x
 _atom_site_fract_y
 _atom_site_fract_z
 _atom_site_occupancy
  Sc  Sc0  1  0.501512  0.668575  0.597361  1
  Sc  Sc1  1  0.003702  0.824057  0.901656  1
  Sc  Sc2  1  0.499246  0.326323  0.095039  1
  Sc  Sc3  1  0.999190  0.175063  0.405631  1
  Sc  Sc4  1  0.499055  0.326712  0.404916  1
  Sc  Sc5  1  0.999095  0.174658  0.094376  1
  Sc  Sc6  1  0.501548  0.669220  0.902768  1
  Sc  Sc7  1  0.003735  0.823795  0.598190  1
  Ta  Ta8  1  0.649723  0.188167  0.629559  1
  Ta  Ta9  1  0.172104  0.326703  0.872018  1
  Ta  Ta10  1  0.828769  0.492723  0.750163  1
  Ta  Ta11  1  0.336684  0.007561  0.750003  1
  Ta  Ta12  1  0.162959  0.506828  0.249868  1
  Nb  Nb13  1  0.338485  0.825084  0.124000  1
  Nb  Nb14  1  0.837820  0.675740  0.376097  1
  Nb  Nb15  1  0.338405  0.825191  0.375976  1
  Nb  Nb16  1  0.837972  0.675625  0.124002  1
  Nb  Nb17  1  0.650818  0.187448  0.871070  1
  Nb  Nb18  1  0.171557  0.326179  0.627303  1
  Nb  Nb19  1  0.662849  0.995224  0.250121  1
  Si  Si20  1  0.668812  0.969489  0.464416  1
  Si  Si21  1  0.169945  0.532527  0.037659  1
  Si  Si22  1  0.330280  0.030722  0.960366  1
  Si  Si23  1  0.832797  0.467525  0.540434  1
  Si  Si24  1  0.331158  0.030504  0.539690  1
  Si  Si25  1  0.833581  0.467520  0.959673  1
  Si  Si26  1  0.668853  0.969347  0.035975  1
  Si  Si27  1  0.169850  0.532512  0.461978  1
  Si  Si28  1  0.957022  0.116119  0.749661  1
  Si  Si29  1  0.541867  0.614574  0.250005  1
  Si  Si30  1  0.041216  0.886507  0.250014  1
  Si  Si31  1  0.704306  0.864199  0.749881  1
  Si  Si32  1  0.218498  0.625350  0.749999  1
  Si  Si33  1  0.293665  0.138279  0.250087  1
  Si  Si34  1  0.796015  0.362280  0.249929  1
  B  B35  1  0.446906  0.371672  0.750116  1
