# generated using pymatgen
data_Tb5Sm2Er3(Tl2Pd)4
_symmetry_space_group_name_H-M   'P 1'
_cell_length_a   3.66998600
_cell_length_b   8.28850052
_cell_length_c   18.45896280
_cell_angle_alpha   89.76670064
_cell_angle_beta   90.00000000
_cell_angle_gamma   90.00000000
_symmetry_Int_Tables_number   1
_chemical_formula_structural   Tb5Sm2Er3(Tl2Pd)4
_chemical_formula_sum   'Tb5 Sm2 Er3 Tl8 Pd4'
_cell_volume   561.49264406
_cell_formula_units_Z   1
loop_
 _symmetry_equiv_pos_site_id
 _symmetry_equiv_pos_as_xyz
  1  'x, y, z'
loop_
 _atom_site_type_symbol
 _atom_site_label
 _atom_site_symmetry_multiplicity
 _atom_site_fract_x
 _atom_site_fract_y
 _atom_site_fract_z
 _atom_site_occupancy
  Tb  Tb0  1  0.000000  0.739829  0.284324  1
  Tb  Tb1  1  0.000000  0.260318  0.715615  1
  Tb  Tb2  1  0.000000  0.760546  0.783607  1
  Tb  Tb3  1  0.000000  0.240222  0.216799  1
  Tb  Tb4  1  0.000000  0.619045  0.085872  1
  Sm  Sm5  1  0.000000  0.500169  0.500330  1
  Sm  Sm6  1  0.000000  0.999394  0.999569  1
  Er  Er7  1  0.000000  0.381051  0.912585  1
  Er  Er8  1  0.000000  0.881545  0.587088  1
  Er  Er9  1  0.000000  0.118584  0.413412  1
  Tl  Tl10  1  0.500000  0.698687  0.934547  1
  Tl  Tl11  1  0.500000  0.298989  0.064100  1
  Tl  Tl12  1  0.500000  0.802042  0.436415  1
  Tl  Tl13  1  0.500000  0.198142  0.563792  1
  Tl  Tl14  1  0.500000  0.586994  0.651590  1
  Tl  Tl15  1  0.500000  0.413107  0.349274  1
  Tl  Tl16  1  0.500000  0.915394  0.152062  1
  Tl  Tl17  1  0.500000  0.086654  0.848081  1
  Pd  Pd18  1  0.500000  0.526459  0.197123  1
  Pd  Pd19  1  0.500000  0.472480  0.803629  1
  Pd  Pd20  1  0.500000  0.973045  0.695778  1
  Pd  Pd21  1  0.500000  0.027307  0.304405  1
