# generated using pymatgen
data_Nd3(AlI)2
_symmetry_space_group_name_H-M   'P 1'
_cell_length_a   9.96307606
_cell_length_b   9.96307571
_cell_length_c   12.12857935
_cell_angle_alpha   59.64939057
_cell_angle_beta   59.64939165
_cell_angle_gamma   25.14758673
_symmetry_Int_Tables_number   1
_chemical_formula_structural   Nd3(AlI)2
_chemical_formula_sum   'Nd6 Al4 I4'
_cell_volume   437.70919188
_cell_formula_units_Z   2
loop_
 _symmetry_equiv_pos_site_id
 _symmetry_equiv_pos_as_xyz
  1  'x, y, z'
loop_
 _atom_site_type_symbol
 _atom_site_label
 _atom_site_symmetry_multiplicity
 _atom_site_fract_x
 _atom_site_fract_y
 _atom_site_fract_z
 _atom_site_occupancy
  Nd  Nd0  1  0.831194  0.831194  0.389082  1
  Nd  Nd1  1  0.168806  0.168806  0.610918  1
  Nd  Nd2  1  0.755839  0.755839  0.799301  1
  Nd  Nd3  1  0.244161  0.244161  0.200699  1
  Nd  Nd4  1  0.534229  0.534229  0.312757  1
  Nd  Nd5  1  0.465771  0.465771  0.687243  1
  Al  Al6  1  0.926249  0.926249  0.533612  1
  Al  Al7  1  0.073751  0.073751  0.466388  1
  Al  Al8  1  0.338414  0.338414  0.585595  1
  Al  Al9  1  0.661586  0.661586  0.414405  1
  I  I10  1  0.422801  0.422801  0.171507  1
  I  I11  1  0.577199  0.577199  0.828493  1
  I  I12  1  0.858865  0.858865  0.940015  1
  I  I13  1  0.141135  0.141135  0.059985  1
