# generated using pymatgen
data_Ce2Zr3Si4
_symmetry_space_group_name_H-M   'P 1'
_cell_length_a   7.38439000
_cell_length_b   7.19117305
_cell_length_c   7.37600782
_cell_angle_alpha   71.58182557
_cell_angle_beta   90.00000000
_cell_angle_gamma   90.00000000
_symmetry_Int_Tables_number   1
_chemical_formula_structural   Ce2Zr3Si4
_chemical_formula_sum   'Ce4 Zr6 Si8'
_cell_volume   371.62023203
_cell_formula_units_Z   2
loop_
 _symmetry_equiv_pos_site_id
 _symmetry_equiv_pos_as_xyz
  1  'x, y, z'
loop_
 _atom_site_type_symbol
 _atom_site_label
 _atom_site_symmetry_multiplicity
 _atom_site_fract_x
 _atom_site_fract_y
 _atom_site_fract_z
 _atom_site_occupancy
  Ce  Ce0  1  0.669165  0.928128  0.688981  1
  Ce  Ce1  1  0.330835  0.071872  0.311019  1
  Ce  Ce2  1  0.169165  0.571872  0.311019  1
  Ce  Ce3  1  0.830835  0.428128  0.688981  1
  Zr  Zr4  1  0.676579  0.749789  0.248419  1
  Zr  Zr5  1  0.323421  0.250211  0.751581  1
  Zr  Zr6  1  0.176579  0.750211  0.751581  1
  Zr  Zr7  1  0.823421  0.249789  0.248419  1
  Zr  Zr8  1  0.000000  0.000000  0.000000  1
  Zr  Zr9  1  0.500000  0.500000  0.000000  1
  Si  Si10  1  0.966195  0.872270  0.416408  1
  Si  Si11  1  0.033805  0.127730  0.583592  1
  Si  Si12  1  0.466195  0.627730  0.583592  1
  Si  Si13  1  0.533805  0.372270  0.416408  1
  Si  Si14  1  0.876458  0.627523  0.992655  1
  Si  Si15  1  0.123542  0.372477  0.007345  1
  Si  Si16  1  0.376458  0.872477  0.007345  1
  Si  Si17  1  0.623542  0.127523  0.992655  1
