# generated using pymatgen
data_LiTm5(P2Ru3)6
_symmetry_space_group_name_H-M   'P 1'
_cell_length_a   12.58524522
_cell_length_b   12.58524591
_cell_length_c   3.96009900
_cell_angle_alpha   90.00000000
_cell_angle_beta   90.00000000
_cell_angle_gamma   121.02677422
_symmetry_Int_Tables_number   1
_chemical_formula_structural   LiTm5(P2Ru3)6
_chemical_formula_sum   'Li1 Tm5 P12 Ru18'
_cell_volume   537.49325689
_cell_formula_units_Z   1
loop_
 _symmetry_equiv_pos_site_id
 _symmetry_equiv_pos_as_xyz
  1  'x, y, z'
loop_
 _atom_site_type_symbol
 _atom_site_label
 _atom_site_symmetry_multiplicity
 _atom_site_fract_x
 _atom_site_fract_y
 _atom_site_fract_z
 _atom_site_occupancy
  Li  Li0  1  0.561373  0.561373  0.000000  1
  Tm  Tm1  1  0.181466  0.181466  0.500000  1
  Tm  Tm2  1  0.817365  0.999850  0.500000  1
  Tm  Tm3  1  0.999850  0.817365  0.500000  1
  Tm  Tm4  1  0.329055  0.669010  0.000000  1
  Tm  Tm5  1  0.669010  0.329055  0.000000  1
  P  P6  1  0.809532  0.809532  0.000000  1
  P  P7  1  0.182535  0.001134  0.000000  1
  P  P8  1  0.001134  0.182535  0.000000  1
  P  P9  1  0.173251  0.481210  0.500000  1
  P  P10  1  0.518540  0.698698  0.500000  1
  P  P11  1  0.306865  0.832816  0.500000  1
  P  P12  1  0.698698  0.518540  0.500000  1
  P  P13  1  0.832816  0.306865  0.500000  1
  P  P14  1  0.481210  0.173251  0.500000  1
  P  P15  1  0.366686  0.366686  0.000000  1
  P  P16  1  0.625636  0.998802  0.000000  1
  P  P17  1  0.998802  0.625636  0.000000  1
  Ru  Ru18  1  0.445016  0.000733  0.000000  1
  Ru  Ru19  1  0.000733  0.445016  0.000000  1
  Ru  Ru20  1  0.712666  0.712666  0.500000  1
  Ru  Ru21  1  0.282602  0.002539  0.500000  1
  Ru  Ru22  1  0.002539  0.282602  0.500000  1
  Ru  Ru23  1  0.186435  0.379890  0.000000  1
  Ru  Ru24  1  0.619783  0.806804  0.000000  1
  Ru  Ru25  1  0.187770  0.815699  0.000000  1
  Ru  Ru26  1  0.806804  0.619783  0.000000  1
  Ru  Ru27  1  0.815699  0.187770  0.000000  1
  Ru  Ru28  1  0.379890  0.186435  0.000000  1
  Ru  Ru29  1  0.367272  0.491318  0.500000  1
  Ru  Ru30  1  0.508536  0.877174  0.500000  1
  Ru  Ru31  1  0.129338  0.635787  0.500000  1
  Ru  Ru32  1  0.877174  0.508536  0.500000  1
  Ru  Ru33  1  0.635787  0.129338  0.500000  1
  Ru  Ru34  1  0.491318  0.367272  0.500000  1
  Ru  Ru35  1  0.996816  0.996816  0.000000  1
