# generated using pymatgen
data_MgNiPdO4
_symmetry_space_group_name_H-M   'P 1'
_cell_length_a   6.08017712
_cell_length_b   5.96958469
_cell_length_c   6.07989521
_cell_angle_alpha   60.59855003
_cell_angle_beta   60.48714120
_cell_angle_gamma   60.60055214
_symmetry_Int_Tables_number   1
_chemical_formula_structural   MgNiPdO4
_chemical_formula_sum   'Mg2 Ni2 Pd2 O8'
_cell_volume   158.02297039
_cell_formula_units_Z   2
loop_
 _symmetry_equiv_pos_site_id
 _symmetry_equiv_pos_as_xyz
  1  'x, y, z'
loop_
 _atom_site_type_symbol
 _atom_site_label
 _atom_site_symmetry_multiplicity
 _atom_site_fract_x
 _atom_site_fract_y
 _atom_site_fract_z
 _atom_site_occupancy
  Mg  Mg0  1  0.108173  0.141811  0.108209  1
  Mg  Mg1  1  0.891885  0.858148  0.891853  1
  Ni  Ni2  1  0.499969  0.499990  0.499958  1
  Ni  Ni3  1  0.499995  0.000053  0.499958  1
  Pd  Pd4  1  0.500009  0.499953  0.000091  1
  Pd  Pd5  1  0.000072  0.499959  0.500011  1
  O  O6  1  0.746592  0.731116  0.746599  1
  O  O7  1  0.254586  0.264821  0.715745  1
  O  O8  1  0.253418  0.724277  0.253419  1
  O  O9  1  0.715729  0.264827  0.254586  1
  O  O10  1  0.746554  0.275709  0.746578  1
  O  O11  1  0.284296  0.735210  0.745309  1
  O  O12  1  0.253392  0.268936  0.253403  1
  O  O13  1  0.745332  0.735191  0.284283  1
