# generated using pymatgen
data_MgVCo5As3O16
_symmetry_space_group_name_H-M   'P 1'
_cell_length_a   8.55231185
_cell_length_b   5.35849640
_cell_length_c   9.05118329
_cell_angle_alpha   60.80236927
_cell_angle_beta   90.12945249
_cell_angle_gamma   90.00621136
_symmetry_Int_Tables_number   1
_chemical_formula_structural   MgVCo5As3O16
_chemical_formula_sum   'Mg1 V1 Co5 As3 O16'
_cell_volume   362.08952006
_cell_formula_units_Z   1
loop_
 _symmetry_equiv_pos_site_id
 _symmetry_equiv_pos_as_xyz
  1  'x, y, z'
loop_
 _atom_site_type_symbol
 _atom_site_label
 _atom_site_symmetry_multiplicity
 _atom_site_fract_x
 _atom_site_fract_y
 _atom_site_fract_z
 _atom_site_occupancy
  Mg  Mg0  1  0.499447  0.498162  0.998149  1
  V  V1  1  0.302159  0.851121  0.194641  1
  Co  Co2  1  0.998717  0.498652  0.499886  1
  Co  Co3  1  0.360407  0.490078  0.606228  1
  Co  Co4  1  0.859557  0.512130  0.892190  1
  Co  Co5  1  0.141865  0.491150  0.109555  1
  Co  Co6  1  0.640264  0.508460  0.394019  1
  As  As7  1  0.805343  0.150140  0.304323  1
  As  As8  1  0.194507  0.850194  0.694899  1
  As  As9  1  0.695761  0.147995  0.804960  1
  O  O10  1  0.874596  0.324684  0.743571  1
  O  O11  1  0.433927  0.697870  0.364153  1
  O  O12  1  0.644204  0.233140  0.958081  1
  O  O13  1  0.804151  0.785398  0.383400  1
  O  O14  1  0.145494  0.772028  0.537483  1
  O  O15  1  0.373478  0.673752  0.756437  1
  O  O16  1  0.302207  0.222938  0.114452  1
  O  O17  1  0.933789  0.297893  0.135891  1
  O  O18  1  0.067764  0.704225  0.864971  1
  O  O19  1  0.695113  0.784233  0.884571  1
  O  O20  1  0.626655  0.326976  0.241697  1
  O  O21  1  0.853220  0.226313  0.462930  1
  O  O22  1  0.195708  0.214952  0.616472  1
  O  O23  1  0.362534  0.772687  0.040684  1
  O  O24  1  0.567110  0.294294  0.636462  1
  O  O25  1  0.122023  0.670538  0.259895  1
