# generated using pymatgen
data_Dy6Zn19Ir4Se
_symmetry_space_group_name_H-M   'P 1'
_cell_length_a   8.98668814
_cell_length_b   9.01891388
_cell_length_c   9.01891500
_cell_angle_alpha   59.98501907
_cell_angle_beta   59.75274277
_cell_angle_gamma   59.75273972
_symmetry_Int_Tables_number   1
_chemical_formula_structural   Dy6Zn19Ir4Se
_chemical_formula_sum   'Dy6 Zn19 Ir4 Se1'
_cell_volume   514.88606481
_cell_formula_units_Z   1
loop_
 _symmetry_equiv_pos_site_id
 _symmetry_equiv_pos_as_xyz
  1  'x, y, z'
loop_
 _atom_site_type_symbol
 _atom_site_label
 _atom_site_symmetry_multiplicity
 _atom_site_fract_x
 _atom_site_fract_y
 _atom_site_fract_z
 _atom_site_occupancy
  Dy  Dy0  1  0.713811  0.279543  0.279543  1
  Dy  Dy1  1  0.286189  0.720457  0.720457  1
  Dy  Dy2  1  0.281692  0.723161  0.273114  1
  Dy  Dy3  1  0.718308  0.276839  0.726886  1
  Dy  Dy4  1  0.281692  0.273114  0.723161  1
  Dy  Dy5  1  0.718308  0.726886  0.276839  1
  Zn  Zn6  1  0.125795  0.118336  0.629991  1
  Zn  Zn7  1  0.125795  0.629991  0.118336  1
  Zn  Zn8  1  0.874205  0.881664  0.370009  1
  Zn  Zn9  1  0.874205  0.370009  0.881664  1
  Zn  Zn10  1  0.620863  0.126881  0.126881  1
  Zn  Zn11  1  0.379137  0.873119  0.873119  1
  Zn  Zn12  1  0.500000  0.000000  0.000000  1
  Zn  Zn13  1  0.000000  0.500000  0.500000  1
  Zn  Zn14  1  0.000000  0.500000  0.000000  1
  Zn  Zn15  1  0.000000  0.000000  0.500000  1
  Zn  Zn16  1  0.328027  0.333459  0.333459  1
  Zn  Zn17  1  0.671973  0.666541  0.666541  1
  Zn  Zn18  1  0.326821  0.327180  0.012231  1
  Zn  Zn19  1  0.326821  0.012231  0.327180  1
  Zn  Zn20  1  0.673179  0.672820  0.987769  1
  Zn  Zn21  1  0.673179  0.987769  0.672820  1
  Zn  Zn22  1  0.006124  0.327217  0.327217  1
  Zn  Zn23  1  0.993876  0.672783  0.672783  1
  Zn  Zn24  1  0.000000  0.000000  0.000000  1
  Ir  Ir25  1  0.116151  0.123816  0.123816  1
  Ir  Ir26  1  0.883849  0.876184  0.876184  1
  Ir  Ir27  1  0.500000  0.000000  0.500000  1
  Ir  Ir28  1  0.500000  0.500000  0.000000  1
  Se  Se29  1  0.500000  0.500000  0.500000  1
