# generated using pymatgen
data_Dy8Hf12Si15Hg
_symmetry_space_group_name_H-M   'P 1'
_cell_length_a   7.34226655
_cell_length_b   7.30109483
_cell_length_c   13.43258826
_cell_angle_alpha   89.98732081
_cell_angle_beta   89.89947003
_cell_angle_gamma   90.14370355
_symmetry_Int_Tables_number   1
_chemical_formula_structural   Dy8Hf12Si15Hg
_chemical_formula_sum   'Dy8 Hf12 Si15 Hg1'
_cell_volume   720.07178425
_cell_formula_units_Z   1
loop_
 _symmetry_equiv_pos_site_id
 _symmetry_equiv_pos_as_xyz
  1  'x, y, z'
loop_
 _atom_site_type_symbol
 _atom_site_label
 _atom_site_symmetry_multiplicity
 _atom_site_fract_x
 _atom_site_fract_y
 _atom_site_fract_z
 _atom_site_occupancy
  Dy  Dy0  1  0.496469  0.155166  0.535150  1
  Dy  Dy1  1  0.496279  0.838398  0.033731  1
  Dy  Dy2  1  0.651917  0.002270  0.288923  1
  Dy  Dy3  1  0.344155  0.994877  0.783259  1
  Dy  Dy4  1  0.847354  0.512024  0.962771  1
  Dy  Dy5  1  0.154144  0.495875  0.465307  1
  Dy  Dy6  1  0.003575  0.654317  0.714418  1
  Dy  Dy7  1  0.002028  0.349771  0.218964  1
  Hf  Hf8  1  0.677285  0.323997  0.748830  1
  Hf  Hf9  1  0.324864  0.675580  0.250788  1
  Hf  Hf10  1  0.823519  0.823361  0.500127  1
  Hf  Hf11  1  0.184499  0.175015  0.998337  1
  Hf  Hf12  1  0.490527  0.358346  0.125066  1
  Hf  Hf13  1  0.503348  0.647462  0.624579  1
  Hf  Hf14  1  0.853067  0.003383  0.869633  1
  Hf  Hf15  1  0.148489  0.995248  0.374867  1
  Hf  Hf16  1  0.647070  0.504700  0.376399  1
  Hf  Hf17  1  0.350939  0.498282  0.873193  1
  Hf  Hf18  1  0.013147  0.843712  0.129871  1
  Hf  Hf19  1  0.995007  0.147606  0.625099  1
  Si  Si20  1  0.205128  0.860598  0.567558  1
  Si  Si21  1  0.638959  0.704495  0.816013  1
  Si  Si22  1  0.361807  0.295257  0.318572  1
  Si  Si23  1  0.861369  0.203624  0.432963  1
  Si  Si24  1  0.139743  0.796143  0.931910  1
  Si  Si25  1  0.702003  0.640585  0.184011  1
  Si  Si26  1  0.295992  0.360474  0.682089  1
  Si  Si27  1  0.545670  0.207269  0.931523  1
  Si  Si28  1  0.448982  0.794200  0.436241  1
  Si  Si29  1  0.705022  0.949704  0.684344  1
  Si  Si30  1  0.294272  0.051795  0.185575  1
  Si  Si31  1  0.794659  0.450507  0.564709  1
  Si  Si32  1  0.203383  0.548815  0.062776  1
  Si  Si33  1  0.948605  0.706265  0.316333  1
  Si  Si34  1  0.050692  0.294831  0.814340  1
  Hg  Hg35  1  0.796030  0.136044  0.071730  1
