# generated using pymatgen
data_LuSc2Pt7
_symmetry_space_group_name_H-M   'P 1'
_cell_length_a   10.52957884
_cell_length_b   10.52957772
_cell_length_c   4.02268300
_cell_angle_alpha   90.00000000
_cell_angle_beta   90.00000000
_cell_angle_gamma   157.82599919
_symmetry_Int_Tables_number   1
_chemical_formula_structural   LuSc2Pt7
_chemical_formula_sum   'Lu1 Sc2 Pt7'
_cell_volume   168.33072057
_cell_formula_units_Z   1
loop_
 _symmetry_equiv_pos_site_id
 _symmetry_equiv_pos_as_xyz
  1  'x, y, z'
loop_
 _atom_site_type_symbol
 _atom_site_label
 _atom_site_symmetry_multiplicity
 _atom_site_fract_x
 _atom_site_fract_y
 _atom_site_fract_z
 _atom_site_occupancy
  Lu  Lu0  1  0.000000  0.000000  0.000000  1
  Sc  Sc1  1  0.808814  0.191188  0.000000  1
  Sc  Sc2  1  0.191188  0.808814  0.000000  1
  Pt  Pt3  1  0.600382  0.399619  0.000000  1
  Pt  Pt4  1  0.399619  0.600382  0.000000  1
  Pt  Pt5  1  0.898755  0.101246  0.500001  1
  Pt  Pt6  1  0.700378  0.299624  0.500001  1
  Pt  Pt7  1  0.500001  0.500001  0.500001  1
  Pt  Pt8  1  0.299624  0.700378  0.500001  1
  Pt  Pt9  1  0.101246  0.898755  0.500001  1
