# generated using pymatgen
data_Fe(TcO4)2
_symmetry_space_group_name_H-M   'P 1'
_cell_length_a   9.95512595
_cell_length_b   9.95512509
_cell_length_c   9.95512615
_cell_angle_alpha   57.06188472
_cell_angle_beta   57.06188396
_cell_angle_gamma   57.06188498
_symmetry_Int_Tables_number   1
_chemical_formula_structural   Fe(TcO4)2
_chemical_formula_sum   'Fe3 Tc6 O24'
_cell_volume   650.38288321
_cell_formula_units_Z   3
loop_
 _symmetry_equiv_pos_site_id
 _symmetry_equiv_pos_as_xyz
  1  'x, y, z'
loop_
 _atom_site_type_symbol
 _atom_site_label
 _atom_site_symmetry_multiplicity
 _atom_site_fract_x
 _atom_site_fract_y
 _atom_site_fract_z
 _atom_site_occupancy
  Fe  Fe0  1  0.358036  0.358036  0.358036  1
  Fe  Fe1  1  0.641668  0.641668  0.641668  1
  Fe  Fe2  1  0.853046  0.853046  0.853046  1
  Tc  Tc3  1  0.476936  0.736957  0.034822  1
  Tc  Tc4  1  0.736957  0.034822  0.476936  1
  Tc  Tc5  1  0.034822  0.476936  0.736957  1
  Tc  Tc6  1  0.962172  0.539376  0.250691  1
  Tc  Tc7  1  0.250691  0.962172  0.539376  1
  Tc  Tc8  1  0.539376  0.250691  0.962172  1
  O  O9  1  0.499229  0.288787  0.135519  1
  O  O10  1  0.135519  0.499229  0.288787  1
  O  O11  1  0.330042  0.939425  0.009163  1
  O  O12  1  0.288787  0.135519  0.499229  1
  O  O13  1  0.667401  0.731589  0.012734  1
  O  O14  1  0.395602  0.593388  0.234796  1
  O  O15  1  0.593388  0.234796  0.395602  1
  O  O16  1  0.939425  0.009163  0.330042  1
  O  O17  1  0.234796  0.395602  0.593388  1
  O  O18  1  0.969720  0.684684  0.042633  1
  O  O19  1  0.968534  0.350308  0.280418  1
  O  O20  1  0.280418  0.968534  0.350308  1
  O  O21  1  0.731589  0.012734  0.667401  1
  O  O22  1  0.012734  0.667401  0.731589  1
  O  O23  1  0.009163  0.330042  0.939425  1
  O  O24  1  0.769963  0.623982  0.398188  1
  O  O25  1  0.042633  0.969720  0.684684  1
  O  O26  1  0.398188  0.769963  0.623982  1
  O  O27  1  0.623982  0.398188  0.769963  1
  O  O28  1  0.350308  0.280418  0.968534  1
  O  O29  1  0.674993  0.876948  0.520612  1
  O  O30  1  0.684684  0.042633  0.969720  1
  O  O31  1  0.876948  0.520612  0.674993  1
  O  O32  1  0.520612  0.674993  0.876948  1
