# generated using pymatgen
data_Y10AlTl3Bi4
_symmetry_space_group_name_H-M   'P 1'
_cell_length_a   8.91451365
_cell_length_b   8.91451409
_cell_length_c   8.18495700
_cell_angle_alpha   89.81071725
_cell_angle_beta   89.81071081
_cell_angle_gamma   125.36601807
_symmetry_Int_Tables_number   1
_chemical_formula_structural   Y10AlTl3Bi4
_chemical_formula_sum   'Y10 Al1 Tl3 Bi4'
_cell_volume   530.40684232
_cell_formula_units_Z   1
loop_
 _symmetry_equiv_pos_site_id
 _symmetry_equiv_pos_as_xyz
  1  'x, y, z'
loop_
 _atom_site_type_symbol
 _atom_site_label
 _atom_site_symmetry_multiplicity
 _atom_site_fract_x
 _atom_site_fract_y
 _atom_site_fract_z
 _atom_site_occupancy
  Y  Y0  1  0.044907  0.306406  0.327711  1
  Y  Y1  1  0.962047  0.696853  0.667203  1
  Y  Y2  1  0.465467  0.198550  0.837606  1
  Y  Y3  1  0.795889  0.529327  0.166628  1
  Y  Y4  1  0.529327  0.795889  0.166628  1
  Y  Y5  1  0.198550  0.465467  0.837606  1
  Y  Y6  1  0.696853  0.962047  0.667203  1
  Y  Y7  1  0.306406  0.044907  0.327711  1
  Y  Y8  1  0.004829  0.004829  0.002777  1
  Y  Y9  1  0.498035  0.498035  0.495227  1
  Al  Al10  1  0.373207  0.373207  0.125897  1
  Tl  Tl11  1  0.627847  0.627847  0.872590  1
  Tl  Tl12  1  0.133207  0.133207  0.634093  1
  Tl  Tl13  1  0.866037  0.866037  0.367539  1
  Bi  Bi14  1  0.793094  0.202578  0.001053  1
  Bi  Bi15  1  0.202578  0.793094  0.001053  1
  Bi  Bi16  1  0.707249  0.294473  0.500739  1
  Bi  Bi17  1  0.294473  0.707249  0.500739  1
