# generated using pymatgen
data_Sm3Al10(SiOs2)2
_symmetry_space_group_name_H-M   'P 1'
_cell_length_a   8.74714900
_cell_length_b   8.74714854
_cell_length_c   9.70675300
_cell_angle_alpha   90.00000000
_cell_angle_beta   90.00000000
_cell_angle_gamma   119.99999797
_symmetry_Int_Tables_number   1
_chemical_formula_structural   Sm3Al10(SiOs2)2
_chemical_formula_sum   'Sm6 Al20 Si4 Os8'
_cell_volume   643.18757341
_cell_formula_units_Z   2
loop_
 _symmetry_equiv_pos_site_id
 _symmetry_equiv_pos_as_xyz
  1  'x, y, z'
loop_
 _atom_site_type_symbol
 _atom_site_label
 _atom_site_symmetry_multiplicity
 _atom_site_fract_x
 _atom_site_fract_y
 _atom_site_fract_z
 _atom_site_occupancy
  Sm  Sm0  1  0.193661  0.387322  0.250000  1
  Sm  Sm1  1  0.806339  0.612678  0.750000  1
  Sm  Sm2  1  0.612678  0.806339  0.250000  1
  Sm  Sm3  1  0.387322  0.193661  0.750000  1
  Sm  Sm4  1  0.193661  0.806339  0.250000  1
  Sm  Sm5  1  0.806339  0.193661  0.750000  1
  Al  Al6  1  0.165127  0.330254  0.575473  1
  Al  Al7  1  0.834873  0.669746  0.424527  1
  Al  Al8  1  0.669746  0.834873  0.575473  1
  Al  Al9  1  0.834873  0.669746  0.075473  1
  Al  Al10  1  0.330254  0.165127  0.424527  1
  Al  Al11  1  0.165127  0.330254  0.924527  1
  Al  Al12  1  0.165127  0.834873  0.575473  1
  Al  Al13  1  0.330254  0.165127  0.075473  1
  Al  Al14  1  0.834873  0.165127  0.424527  1
  Al  Al15  1  0.669746  0.834873  0.924527  1
  Al  Al16  1  0.834873  0.165127  0.075473  1
  Al  Al17  1  0.165127  0.834873  0.924527  1
  Al  Al18  1  0.564210  0.128419  0.250000  1
  Al  Al19  1  0.435790  0.871581  0.750000  1
  Al  Al20  1  0.871581  0.435790  0.250000  1
  Al  Al21  1  0.128419  0.564210  0.750000  1
  Al  Al22  1  0.564210  0.435790  0.250000  1
  Al  Al23  1  0.435790  0.564210  0.750000  1
  Al  Al24  1  0.000000  0.000000  0.250000  1
  Al  Al25  1  0.000000  0.000000  0.750000  1
  Si  Si26  1  0.333333  0.666667  0.034910  1
  Si  Si27  1  0.666667  0.333333  0.965090  1
  Si  Si28  1  0.666667  0.333333  0.534910  1
  Si  Si29  1  0.333333  0.666667  0.465090  1
  Os  Os30  1  0.500000  0.000000  0.000000  1
  Os  Os31  1  0.000000  0.500000  0.000000  1
  Os  Os32  1  0.500000  0.000000  0.500000  1
  Os  Os33  1  0.500000  0.500000  0.000000  1
  Os  Os34  1  0.000000  0.500000  0.500000  1
  Os  Os35  1  0.500000  0.500000  0.500000  1
  Os  Os36  1  0.000000  0.000000  0.000000  1
  Os  Os37  1  0.000000  0.000000  0.500000  1
