# generated using pymatgen
data_Sr2GaFeF10
_symmetry_space_group_name_H-M   'P 1'
_cell_length_a   5.80085177
_cell_length_b   5.78547524
_cell_length_c   7.91706325
_cell_angle_alpha   70.30323702
_cell_angle_beta   70.28031957
_cell_angle_gamma   71.74231492
_symmetry_Int_Tables_number   1
_chemical_formula_structural   Sr2GaFeF10
_chemical_formula_sum   'Sr2 Ga1 Fe1 F10'
_cell_volume   229.43762474
_cell_formula_units_Z   1
loop_
 _symmetry_equiv_pos_site_id
 _symmetry_equiv_pos_as_xyz
  1  'x, y, z'
loop_
 _atom_site_type_symbol
 _atom_site_label
 _atom_site_symmetry_multiplicity
 _atom_site_fract_x
 _atom_site_fract_y
 _atom_site_fract_z
 _atom_site_occupancy
  Sr  Sr0  1  0.548080  0.456809  0.248070  1
  Sr  Sr1  1  0.451920  0.543191  0.751930  1
  Ga  Ga2  1  0.000000  0.000000  0.000000  1
  Fe  Fe3  1  0.000000  0.000000  0.500000  1
  F  F4  1  0.067249  0.932210  0.751476  1
  F  F5  1  0.932751  0.067790  0.248524  1
  F  F6  1  0.202814  0.231012  0.891171  1
  F  F7  1  0.763218  0.792339  0.611196  1
  F  F8  1  0.721965  0.295903  0.528830  1
  F  F9  1  0.709683  0.273288  0.969821  1
  F  F10  1  0.278035  0.704097  0.471170  1
  F  F11  1  0.290317  0.726712  0.030179  1
  F  F12  1  0.236782  0.207661  0.388804  1
  F  F13  1  0.797186  0.768988  0.108829  1
