# generated using pymatgen
data_LaYb2Pt9
_symmetry_space_group_name_H-M   'P 1'
_cell_length_a   9.40010304
_cell_length_b   9.40010302
_cell_length_c   9.40010206
_cell_angle_alpha   33.61699525
_cell_angle_beta   33.61699611
_cell_angle_gamma   33.61699605
_symmetry_Int_Tables_number   1
_chemical_formula_structural   LaYb2Pt9
_chemical_formula_sum   'La1 Yb2 Pt9'
_cell_volume   226.79637461
_cell_formula_units_Z   1
loop_
 _symmetry_equiv_pos_site_id
 _symmetry_equiv_pos_as_xyz
  1  'x, y, z'
loop_
 _atom_site_type_symbol
 _atom_site_label
 _atom_site_symmetry_multiplicity
 _atom_site_fract_x
 _atom_site_fract_y
 _atom_site_fract_z
 _atom_site_occupancy
  La  La0  1  0.000000  0.000000  0.000000  1
  Yb  Yb1  1  0.142289  0.142289  0.142289  1
  Yb  Yb2  1  0.857711  0.857711  0.857711  1
  Pt  Pt3  1  0.586895  0.586895  0.082335  1
  Pt  Pt4  1  0.332431  0.332431  0.332431  1
  Pt  Pt5  1  0.917666  0.413104  0.413105  1
  Pt  Pt6  1  0.413104  0.917666  0.413105  1
  Pt  Pt7  1  0.500000  0.500000  0.500000  1
  Pt  Pt8  1  0.586896  0.082334  0.586895  1
  Pt  Pt9  1  0.082334  0.586896  0.586895  1
  Pt  Pt10  1  0.667569  0.667569  0.667569  1
  Pt  Pt11  1  0.413105  0.413105  0.917666  1
