# generated using pymatgen
data_PrNd5Al24Ru5Pt3
_symmetry_space_group_name_H-M   'P 1'
_cell_length_a   8.93050316
_cell_length_b   8.94217106
_cell_length_c   9.65546056
_cell_angle_alpha   90.11306234
_cell_angle_beta   89.94065952
_cell_angle_gamma   120.13404624
_symmetry_Int_Tables_number   1
_chemical_formula_structural   PrNd5Al24Ru5Pt3
_chemical_formula_sum   'Pr1 Nd5 Al24 Ru5 Pt3'
_cell_volume   666.85817147
_cell_formula_units_Z   1
loop_
 _symmetry_equiv_pos_site_id
 _symmetry_equiv_pos_as_xyz
  1  'x, y, z'
loop_
 _atom_site_type_symbol
 _atom_site_label
 _atom_site_symmetry_multiplicity
 _atom_site_fract_x
 _atom_site_fract_y
 _atom_site_fract_z
 _atom_site_occupancy
  Pr  Pr0  1  0.192562  0.381780  0.251133  1
  Nd  Nd1  1  0.807257  0.618020  0.748864  1
  Nd  Nd2  1  0.617617  0.807753  0.249764  1
  Nd  Nd3  1  0.382504  0.192354  0.750222  1
  Nd  Nd4  1  0.191436  0.810773  0.249180  1
  Nd  Nd5  1  0.808562  0.189359  0.750824  1
  Al  Al6  1  0.336453  0.664070  0.021330  1
  Al  Al7  1  0.663699  0.336213  0.978410  1
  Al  Al8  1  0.661252  0.330628  0.520928  1
  Al  Al9  1  0.338893  0.669639  0.479332  1
  Al  Al10  1  0.168160  0.325904  0.575647  1
  Al  Al11  1  0.831810  0.674077  0.424612  1
  Al  Al12  1  0.672300  0.836187  0.575462  1
  Al  Al13  1  0.831973  0.674848  0.076291  1
  Al  Al14  1  0.327794  0.163681  0.424655  1
  Al  Al15  1  0.168004  0.325128  0.923467  1
  Al  Al16  1  0.167435  0.842985  0.575918  1
  Al  Al17  1  0.325994  0.168292  0.077412  1
  Al  Al18  1  0.832347  0.156875  0.424195  1
  Al  Al19  1  0.674096  0.831552  0.922463  1
  Al  Al20  1  0.838550  0.161760  0.078546  1
  Al  Al21  1  0.161221  0.838097  0.921337  1
  Al  Al22  1  0.563099  0.126336  0.253574  1
  Al  Al23  1  0.436906  0.873649  0.746438  1
  Al  Al24  1  0.871102  0.435955  0.249824  1
  Al  Al25  1  0.128640  0.564075  0.750170  1
  Al  Al26  1  0.562081  0.438400  0.249597  1
  Al  Al27  1  0.438279  0.561641  0.750398  1
  Al  Al28  1  0.002132  0.000254  0.250219  1
  Al  Al29  1  0.997714  0.999397  0.749779  1
  Ru  Ru30  1  0.500018  0.000060  0.500039  1
  Ru  Ru31  1  0.500183  0.500090  0.999864  1
  Ru  Ru32  1  0.500194  0.500092  0.500137  1
  Ru  Ru33  1  0.999957  0.999921  0.999930  1
  Ru  Ru34  1  0.999957  0.999917  0.500066  1
  Pt  Pt35  1  0.500023  0.000064  0.999974  1
  Pt  Pt36  1  0.999901  0.500086  0.999872  1
  Pt  Pt37  1  0.999895  0.500086  0.500128  1
