# generated using pymatgen
data_YLu9Si5Sb
_symmetry_space_group_name_H-M   'P 1'
_cell_length_a   8.32195500
_cell_length_b   8.34799419
_cell_length_c   6.17442900
_cell_angle_alpha   90.00000000
_cell_angle_beta   90.00000000
_cell_angle_gamma   119.89687469
_symmetry_Int_Tables_number   1
_chemical_formula_structural   YLu9Si5Sb
_chemical_formula_sum   'Y1 Lu9 Si5 Sb1'
_cell_volume   371.86499406
_cell_formula_units_Z   1
loop_
 _symmetry_equiv_pos_site_id
 _symmetry_equiv_pos_as_xyz
  1  'x, y, z'
loop_
 _atom_site_type_symbol
 _atom_site_label
 _atom_site_symmetry_multiplicity
 _atom_site_fract_x
 _atom_site_fract_y
 _atom_site_fract_z
 _atom_site_occupancy
  Y  Y0  1  0.765023  0.000000  0.750000  1
  Lu  Lu1  1  0.675006  0.343642  0.003395  1
  Lu  Lu2  1  0.331364  0.656358  0.496605  1
  Lu  Lu3  1  0.331364  0.656358  0.003395  1
  Lu  Lu4  1  0.675006  0.343642  0.496605  1
  Lu  Lu5  1  0.756062  0.756270  0.250000  1
  Lu  Lu6  1  0.999792  0.243730  0.250000  1
  Lu  Lu7  1  0.987057  0.746877  0.750000  1
  Lu  Lu8  1  0.240181  0.253123  0.750000  1
  Lu  Lu9  1  0.240064  0.000000  0.250000  1
  Si  Si10  1  0.394161  0.391414  0.250000  1
  Si  Si11  1  0.002748  0.608586  0.250000  1
  Si  Si12  1  0.000604  0.397316  0.750000  1
  Si  Si13  1  0.603289  0.602684  0.750000  1
  Si  Si14  1  0.606785  0.000000  0.250000  1
  Sb  Sb15  1  0.391497  0.000000  0.750000  1
