# generated using pymatgen
data_Ba3InFeO6
_symmetry_space_group_name_H-M   'P 1'
_cell_length_a   7.14123200
_cell_length_b   7.14123107
_cell_length_c   7.14123084
_cell_angle_alpha   93.65304225
_cell_angle_beta   93.65304568
_cell_angle_gamma   93.65304236
_symmetry_Int_Tables_number   1
_chemical_formula_structural   Ba3InFeO6
_chemical_formula_sum   'Ba6 In2 Fe2 O12'
_cell_volume   361.86349360
_cell_formula_units_Z   2
loop_
 _symmetry_equiv_pos_site_id
 _symmetry_equiv_pos_as_xyz
  1  'x, y, z'
loop_
 _atom_site_type_symbol
 _atom_site_label
 _atom_site_symmetry_multiplicity
 _atom_site_fract_x
 _atom_site_fract_y
 _atom_site_fract_z
 _atom_site_occupancy
  Ba  Ba0  1  0.884093  0.250000  0.615907  1
  Ba  Ba1  1  0.250000  0.615907  0.884093  1
  Ba  Ba2  1  0.384093  0.115907  0.750000  1
  Ba  Ba3  1  0.750000  0.384093  0.115907  1
  Ba  Ba4  1  0.115907  0.750000  0.384093  1
  Ba  Ba5  1  0.615907  0.884093  0.250000  1
  In  In6  1  0.250000  0.250000  0.250000  1
  In  In7  1  0.750000  0.750000  0.750000  1
  Fe  Fe8  1  0.500000  0.500000  0.500000  1
  Fe  Fe9  1  0.000000  0.000000  0.000000  1
  O  O10  1  0.721460  0.032495  0.906025  1
  O  O11  1  0.967505  0.093975  0.278540  1
  O  O12  1  0.778540  0.593975  0.467505  1
  O  O13  1  0.593975  0.467505  0.778540  1
  O  O14  1  0.467505  0.778540  0.593975  1
  O  O15  1  0.032495  0.906025  0.721460  1
  O  O16  1  0.406025  0.532495  0.221460  1
  O  O17  1  0.278540  0.967505  0.093975  1
  O  O18  1  0.221460  0.406025  0.532495  1
  O  O19  1  0.532495  0.221460  0.406025  1
  O  O20  1  0.906025  0.721460  0.032495  1
  O  O21  1  0.093975  0.278540  0.967505  1
