# generated using pymatgen
data_SrY2(CoH6)2
_symmetry_space_group_name_H-M   'P 1'
_cell_length_a   4.74074200
_cell_length_b   4.74074286
_cell_length_c   8.21932800
_cell_angle_alpha   90.00000000
_cell_angle_beta   90.00000000
_cell_angle_gamma   119.99999399
_symmetry_Int_Tables_number   1
_chemical_formula_structural   SrY2(CoH6)2
_chemical_formula_sum   'Sr1 Y2 Co2 H12'
_cell_volume   159.97778905
_cell_formula_units_Z   1
loop_
 _symmetry_equiv_pos_site_id
 _symmetry_equiv_pos_as_xyz
  1  'x, y, z'
loop_
 _atom_site_type_symbol
 _atom_site_label
 _atom_site_symmetry_multiplicity
 _atom_site_fract_x
 _atom_site_fract_y
 _atom_site_fract_z
 _atom_site_occupancy
  Sr  Sr0  1  0.000000  0.000000  0.000000  1
  Y  Y1  1  0.666667  0.333333  0.363302  1
  Y  Y2  1  0.333333  0.666667  0.636698  1
  Co  Co3  1  0.666667  0.333333  0.732882  1
  Co  Co4  1  0.333333  0.666667  0.267118  1
  H  H5  1  0.176558  0.823442  0.380333  1
  H  H6  1  0.646883  0.823442  0.380333  1
  H  H7  1  0.176558  0.353117  0.380333  1
  H  H8  1  0.823442  0.176558  0.619667  1
  H  H9  1  0.353117  0.176558  0.619667  1
  H  H10  1  0.823442  0.646883  0.619667  1
  H  H11  1  0.510041  0.020081  0.846478  1
  H  H12  1  0.510041  0.489959  0.846478  1
  H  H13  1  0.979919  0.489959  0.846478  1
  H  H14  1  0.489959  0.979919  0.153522  1
  H  H15  1  0.489959  0.510041  0.153522  1
  H  H16  1  0.020081  0.510041  0.153522  1
