# generated using pymatgen
data_Re3Tc5P4
_symmetry_space_group_name_H-M   'P 1'
_cell_length_a   5.56590528
_cell_length_b   2.94171700
_cell_length_c   10.09299979
_cell_angle_alpha   90.00000000
_cell_angle_beta   90.12354788
_cell_angle_gamma   90.00000000
_symmetry_Int_Tables_number   1
_chemical_formula_structural   Re3Tc5P4
_chemical_formula_sum   'Re3 Tc5 P4'
_cell_volume   165.25551270
_cell_formula_units_Z   1
loop_
 _symmetry_equiv_pos_site_id
 _symmetry_equiv_pos_as_xyz
  1  'x, y, z'
loop_
 _atom_site_type_symbol
 _atom_site_label
 _atom_site_symmetry_multiplicity
 _atom_site_fract_x
 _atom_site_fract_y
 _atom_site_fract_z
 _atom_site_occupancy
  Re  Re0  1  0.673632  0.750001  0.563400  1
  Re  Re1  1  0.326197  0.250001  0.436038  1
  Re  Re2  1  0.172829  0.750001  0.936897  1
  Tc  Tc3  1  0.854934  0.250001  0.786030  1
  Tc  Tc4  1  0.643679  0.750001  0.286082  1
  Tc  Tc5  1  0.355963  0.250001  0.713753  1
  Tc  Tc6  1  0.144612  0.750001  0.213577  1
  Tc  Tc7  1  0.826049  0.250001  0.062915  1
  P  P8  1  0.404089  0.250001  0.105218  1
  P  P9  1  0.097196  0.750001  0.604639  1
  P  P10  1  0.902928  0.250001  0.394692  1
  P  P11  1  0.597890  0.750001  0.896758  1
