# generated using pymatgen
data_Y20Hg6PdRh
_symmetry_space_group_name_H-M   'P 1'
_cell_length_a   9.74586600
_cell_length_b   9.74586690
_cell_length_c   9.63202400
_cell_angle_alpha   90.00000000
_cell_angle_beta   90.00000000
_cell_angle_gamma   120.00000373
_symmetry_Int_Tables_number   1
_chemical_formula_structural   Y20Hg6PdRh
_chemical_formula_sum   'Y20 Hg6 Pd1 Rh1'
_cell_volume   792.29895496
_cell_formula_units_Z   1
loop_
 _symmetry_equiv_pos_site_id
 _symmetry_equiv_pos_as_xyz
  1  'x, y, z'
loop_
 _atom_site_type_symbol
 _atom_site_label
 _atom_site_symmetry_multiplicity
 _atom_site_fract_x
 _atom_site_fract_y
 _atom_site_fract_z
 _atom_site_occupancy
  Y  Y0  1  0.208595  0.791405  0.939288  1
  Y  Y1  1  0.208595  0.417190  0.939288  1
  Y  Y2  1  0.582810  0.791405  0.939288  1
  Y  Y3  1  0.793338  0.206662  0.058476  1
  Y  Y4  1  0.793338  0.586675  0.058476  1
  Y  Y5  1  0.413325  0.206662  0.058476  1
  Y  Y6  1  0.793338  0.206662  0.441524  1
  Y  Y7  1  0.793338  0.586675  0.441524  1
  Y  Y8  1  0.413325  0.206662  0.441524  1
  Y  Y9  1  0.208595  0.791405  0.560712  1
  Y  Y10  1  0.208595  0.417190  0.560712  1
  Y  Y11  1  0.582810  0.791405  0.560712  1
  Y  Y12  1  0.541702  0.458298  0.750000  1
  Y  Y13  1  0.541702  0.083406  0.750000  1
  Y  Y14  1  0.916594  0.458298  0.750000  1
  Y  Y15  1  0.457175  0.542825  0.250000  1
  Y  Y16  1  0.457175  0.914350  0.250000  1
  Y  Y17  1  0.085650  0.542825  0.250000  1
  Y  Y18  1  0.000000  0.000000  0.999888  1
  Y  Y19  1  0.000000  0.000000  0.500112  1
  Hg  Hg20  1  0.879587  0.120413  0.750000  1
  Hg  Hg21  1  0.879587  0.759176  0.750000  1
  Hg  Hg22  1  0.240824  0.120413  0.750000  1
  Hg  Hg23  1  0.120032  0.879968  0.250000  1
  Hg  Hg24  1  0.120032  0.240065  0.250000  1
  Hg  Hg25  1  0.759935  0.879968  0.250000  1
  Pd  Pd26  1  0.666667  0.333333  0.250000  1
  Rh  Rh27  1  0.333333  0.666667  0.750000  1
