# generated using pymatgen
data_Er3BeCo9SiB4
_symmetry_space_group_name_H-M   'P 1'
_cell_length_a   5.04736000
_cell_length_b   5.04736002
_cell_length_c   9.36041400
_cell_angle_alpha   90.00000000
_cell_angle_beta   90.00000000
_cell_angle_gamma   119.99999990
_symmetry_Int_Tables_number   1
_chemical_formula_structural   Er3BeCo9SiB4
_chemical_formula_sum   'Er3 Be1 Co9 Si1 B4'
_cell_volume   206.51626136
_cell_formula_units_Z   1
loop_
 _symmetry_equiv_pos_site_id
 _symmetry_equiv_pos_as_xyz
  1  'x, y, z'
loop_
 _atom_site_type_symbol
 _atom_site_label
 _atom_site_symmetry_multiplicity
 _atom_site_fract_x
 _atom_site_fract_y
 _atom_site_fract_z
 _atom_site_occupancy
  Er  Er0  1  0.000000  0.000000  0.000000  1
  Er  Er1  1  0.000000  0.000000  0.662094  1
  Er  Er2  1  0.000000  0.000000  0.337906  1
  Be  Be3  1  0.333333  0.666667  0.000000  1
  Co  Co4  1  0.500409  0.499591  0.500000  1
  Co  Co5  1  0.500409  0.000818  0.500000  1
  Co  Co6  1  0.999182  0.499591  0.500000  1
  Co  Co7  1  0.499132  0.500868  0.806479  1
  Co  Co8  1  0.499132  0.998264  0.806479  1
  Co  Co9  1  0.001736  0.500868  0.806479  1
  Co  Co10  1  0.499132  0.500868  0.193521  1
  Co  Co11  1  0.499132  0.998264  0.193521  1
  Co  Co12  1  0.001736  0.500868  0.193521  1
  Si  Si13  1  0.666667  0.333333  0.000000  1
  B  B14  1  0.666667  0.333333  0.656760  1
  B  B15  1  0.333333  0.666667  0.655725  1
  B  B16  1  0.333333  0.666667  0.344275  1
  B  B17  1  0.666667  0.333333  0.343240  1
