# generated using pymatgen
data_Zr5U3(Ni4As3)4
_symmetry_space_group_name_H-M   'P 1'
_cell_length_a   12.71185000
_cell_length_b   12.71185034
_cell_length_c   3.88156200
_cell_angle_alpha   90.00000000
_cell_angle_beta   90.00000000
_cell_angle_gamma   119.99999391
_symmetry_Int_Tables_number   1
_chemical_formula_structural   Zr5U3(Ni4As3)4
_chemical_formula_sum   'Zr5 U3 Ni16 As12'
_cell_volume   543.19369036
_cell_formula_units_Z   1
loop_
 _symmetry_equiv_pos_site_id
 _symmetry_equiv_pos_as_xyz
  1  'x, y, z'
loop_
 _atom_site_type_symbol
 _atom_site_label
 _atom_site_symmetry_multiplicity
 _atom_site_fract_x
 _atom_site_fract_y
 _atom_site_fract_z
 _atom_site_occupancy
  Zr  Zr0  1  0.440077  0.440077  0.000000  1
  Zr  Zr1  1  0.559923  0.000000  0.000000  1
  Zr  Zr2  1  0.000000  0.559923  0.000000  1
  Zr  Zr3  1  0.666667  0.333333  0.000000  1
  Zr  Zr4  1  0.333333  0.666667  0.000000  1
  U  U5  1  0.819559  0.819559  0.500000  1
  U  U6  1  0.180441  0.000000  0.500000  1
  U  U7  1  0.000000  0.180441  0.500000  1
  Ni  Ni8  1  0.197142  0.380520  0.000000  1
  Ni  Ni9  1  0.183377  0.802858  0.000000  1
  Ni  Ni10  1  0.816623  0.619480  0.000000  1
  Ni  Ni11  1  0.802858  0.183377  0.000000  1
  Ni  Ni12  1  0.380520  0.197142  0.000000  1
  Ni  Ni13  1  0.120563  0.478263  0.500000  1
  Ni  Ni14  1  0.357700  0.879437  0.500000  1
  Ni  Ni15  1  0.521737  0.642300  0.500000  1
  Ni  Ni16  1  0.642300  0.521737  0.500000  1
  Ni  Ni17  1  0.879437  0.357700  0.500000  1
  Ni  Ni18  1  0.478263  0.120563  0.500000  1
  Ni  Ni19  1  0.000000  0.000000  0.000000  1
  Ni  Ni20  1  0.719425  0.000000  0.500000  1
  Ni  Ni21  1  0.000000  0.719425  0.500000  1
  Ni  Ni22  1  0.619480  0.816623  0.000000  1
  Ni  Ni23  1  0.280575  0.280575  0.500000  1
  As  As24  1  0.646869  0.646869  0.000000  1
  As  As25  1  0.353131  0.000000  0.000000  1
  As  As26  1  0.000000  0.353131  0.000000  1
  As  As27  1  0.488178  0.312229  0.500000  1
  As  As28  1  0.687771  0.175949  0.500000  1
  As  As29  1  0.824051  0.511822  0.500000  1
  As  As30  1  0.511822  0.824051  0.500000  1
  As  As31  1  0.175949  0.687771  0.500000  1
  As  As32  1  0.818674  0.000000  0.000000  1
  As  As33  1  0.000000  0.818674  0.000000  1
  As  As34  1  0.312229  0.488178  0.500000  1
  As  As35  1  0.181326  0.181326  0.000000  1
