# generated using pymatgen
data_Ca8Cu3Si12Pd
_symmetry_space_group_name_H-M   'P 1'
_cell_length_a   8.11930300
_cell_length_b   8.11930305
_cell_length_c   8.63015200
_cell_angle_alpha   90.00000000
_cell_angle_beta   90.00000000
_cell_angle_gamma   119.99999574
_symmetry_Int_Tables_number   1
_chemical_formula_structural   Ca8Cu3Si12Pd
_chemical_formula_sum   'Ca8 Cu3 Si12 Pd1'
_cell_volume   492.70457560
_cell_formula_units_Z   1
loop_
 _symmetry_equiv_pos_site_id
 _symmetry_equiv_pos_as_xyz
  1  'x, y, z'
loop_
 _atom_site_type_symbol
 _atom_site_label
 _atom_site_symmetry_multiplicity
 _atom_site_fract_x
 _atom_site_fract_y
 _atom_site_fract_z
 _atom_site_occupancy
  Ca  Ca0  1  0.500263  0.499737  0.748667  1
  Ca  Ca1  1  0.500324  0.499676  0.251336  1
  Ca  Ca2  1  0.999474  0.499737  0.748667  1
  Ca  Ca3  1  0.999353  0.499676  0.251336  1
  Ca  Ca4  1  0.500263  0.000526  0.748667  1
  Ca  Ca5  1  0.500324  0.000647  0.251336  1
  Ca  Ca6  1  0.000000  0.000000  0.750045  1
  Ca  Ca7  1  0.000000  0.000000  0.249954  1
  Cu  Cu8  1  0.666667  0.333333  0.999901  1
  Cu  Cu9  1  0.333333  0.666667  0.000234  1
  Cu  Cu10  1  0.333333  0.666667  0.499826  1
  Si  Si11  1  0.831482  0.168518  0.000010  1
  Si  Si12  1  0.168399  0.831601  0.999981  1
  Si  Si13  1  0.337037  0.168518  0.000010  1
  Si  Si14  1  0.167633  0.832367  0.499960  1
  Si  Si15  1  0.663202  0.831601  0.999981  1
  Si  Si16  1  0.833612  0.166388  0.500043  1
  Si  Si17  1  0.831482  0.662963  0.000010  1
  Si  Si18  1  0.664732  0.832367  0.499960  1
  Si  Si19  1  0.168399  0.336798  0.999981  1
  Si  Si20  1  0.332778  0.166388  0.500043  1
  Si  Si21  1  0.167633  0.335268  0.499960  1
  Si  Si22  1  0.833612  0.667222  0.500043  1
  Pd  Pd23  1  0.666667  0.333333  0.500044  1
