# generated using pymatgen
data_CsLiHgSe2
_symmetry_space_group_name_H-M   'P 1'
_cell_length_a   8.20542175
_cell_length_b   8.20542126
_cell_length_c   8.20542077
_cell_angle_alpha   148.52331455
_cell_angle_beta   148.52330969
_cell_angle_gamma   45.11343827
_symmetry_Int_Tables_number   1
_chemical_formula_structural   CsLiHgSe2
_chemical_formula_sum   'Cs1 Li1 Hg1 Se2'
_cell_volume   150.14884721
_cell_formula_units_Z   1
loop_
 _symmetry_equiv_pos_site_id
 _symmetry_equiv_pos_as_xyz
  1  'x, y, z'
loop_
 _atom_site_type_symbol
 _atom_site_label
 _atom_site_symmetry_multiplicity
 _atom_site_fract_x
 _atom_site_fract_y
 _atom_site_fract_z
 _atom_site_occupancy
  Cs  Cs0  1  0.000000  0.000000  0.000000  1
  Li  Li1  1  0.250000  0.750000  0.500000  1
  Hg  Hg2  1  0.750000  0.250000  0.500000  1
  Se  Se3  1  0.646226  0.646226  0.000000  1
  Se  Se4  1  0.353774  0.353774  0.000000  1
