# generated using pymatgen
data_Cu3I4
_symmetry_space_group_name_H-M   'P 1'
_cell_length_a   7.33918354
_cell_length_b   7.33918344
_cell_length_c   7.33918338
_cell_angle_alpha   131.61365202
_cell_angle_beta   131.61365337
_cell_angle_gamma   70.83990549
_symmetry_Int_Tables_number   1
_chemical_formula_structural   Cu3I4
_chemical_formula_sum   'Cu3 I4'
_cell_volume   216.41918001
_cell_formula_units_Z   1
loop_
 _symmetry_equiv_pos_site_id
 _symmetry_equiv_pos_as_xyz
  1  'x, y, z'
loop_
 _atom_site_type_symbol
 _atom_site_label
 _atom_site_symmetry_multiplicity
 _atom_site_fract_x
 _atom_site_fract_y
 _atom_site_fract_z
 _atom_site_occupancy
  Cu  Cu0  1  0.750000  0.250000  0.500000  1
  Cu  Cu1  1  0.250000  0.750000  0.500000  1
  Cu  Cu2  1  0.500000  0.500000  0.000000  1
  I  I3  1  0.372586  0.876078  0.000000  1
  I  I4  1  0.123922  0.123922  0.496508  1
  I  I5  1  0.876078  0.372586  0.000000  1
  I  I6  1  0.627414  0.627414  0.503492  1
