# generated using pymatgen
data_Tm4TcMoRu6
_symmetry_space_group_name_H-M   'P 1'
_cell_length_a   5.47643115
_cell_length_b   5.14887394
_cell_length_c   9.01516000
_cell_angle_alpha   90.00000000
_cell_angle_beta   90.00000000
_cell_angle_gamma   122.24424504
_symmetry_Int_Tables_number   1
_chemical_formula_structural   Tm4TcMoRu6
_chemical_formula_sum   'Tm4 Tc1 Mo1 Ru6'
_cell_volume   215.00148937
_cell_formula_units_Z   1
loop_
 _symmetry_equiv_pos_site_id
 _symmetry_equiv_pos_as_xyz
  1  'x, y, z'
loop_
 _atom_site_type_symbol
 _atom_site_label
 _atom_site_symmetry_multiplicity
 _atom_site_fract_x
 _atom_site_fract_y
 _atom_site_fract_z
 _atom_site_occupancy
  Tm  Tm0  1  0.671195  0.342782  0.564248  1
  Tm  Tm1  1  0.331910  0.663834  0.432484  1
  Tm  Tm2  1  0.331910  0.663834  0.067516  1
  Tm  Tm3  1  0.671195  0.342782  0.935752  1
  Tc  Tc4  1  0.827757  0.656226  0.250000  1
  Mo  Mo5  1  0.165806  0.331450  0.750000  1
  Ru  Ru6  1  0.002719  0.005226  0.499280  1
  Ru  Ru7  1  0.002719  0.005226  0.000720  1
  Ru  Ru8  1  0.170056  0.821786  0.750000  1
  Ru  Ru9  1  0.653683  0.821984  0.750000  1
  Ru  Ru10  1  0.831628  0.172821  0.250000  1
  Ru  Ru11  1  0.339426  0.172049  0.250000  1
