# generated using pymatgen
data_SmThSi2(Os2C)2
_symmetry_space_group_name_H-M   'P 1'
_cell_length_a   3.96073800
_cell_length_b   5.94200607
_cell_length_c   7.16917500
_cell_angle_alpha   90.00000000
_cell_angle_beta   90.00000000
_cell_angle_gamma   70.53184440
_symmetry_Int_Tables_number   1
_chemical_formula_structural   SmThSi2(Os2C)2
_chemical_formula_sum   'Sm1 Th1 Si2 Os4 C2'
_cell_volume   159.07807986
_cell_formula_units_Z   1
loop_
 _symmetry_equiv_pos_site_id
 _symmetry_equiv_pos_as_xyz
  1  'x, y, z'
loop_
 _atom_site_type_symbol
 _atom_site_label
 _atom_site_symmetry_multiplicity
 _atom_site_fract_x
 _atom_site_fract_y
 _atom_site_fract_z
 _atom_site_occupancy
  Sm  Sm0  1  0.948959  0.102082  0.250001  1
  Th  Th1  1  0.052543  0.894918  0.750000  1
  Si  Si2  1  0.229748  0.540507  0.250001  1
  Si  Si3  1  0.772732  0.454535  0.750000  1
  Os  Os4  1  0.664993  0.670014  0.058052  1
  Os  Os5  1  0.664993  0.670014  0.441948  1
  Os  Os6  1  0.334129  0.331745  0.556937  1
  Os  Os7  1  0.334129  0.331745  0.943064  1
  C  C8  1  0.498891  0.002220  0.003199  1
  C  C9  1  0.498891  0.002220  0.496801  1
