# generated using pymatgen
data_LaGd2PtO7
_symmetry_space_group_name_H-M   'P 1'
_cell_length_a   6.59374153
_cell_length_b   6.59374017
_cell_length_c   7.63564800
_cell_angle_alpha   90.00000000
_cell_angle_beta   90.00000000
_cell_angle_gamma   109.32994622
_symmetry_Int_Tables_number   1
_chemical_formula_structural   LaGd2PtO7
_chemical_formula_sum   'La2 Gd4 Pt2 O14'
_cell_volume   313.26400930
_cell_formula_units_Z   2
loop_
 _symmetry_equiv_pos_site_id
 _symmetry_equiv_pos_as_xyz
  1  'x, y, z'
loop_
 _atom_site_type_symbol
 _atom_site_label
 _atom_site_symmetry_multiplicity
 _atom_site_fract_x
 _atom_site_fract_y
 _atom_site_fract_z
 _atom_site_occupancy
  La  La0  1  0.500000  0.500000  0.500000  1
  La  La1  1  0.500000  0.500000  0.000000  1
  Gd  Gd2  1  0.531639  0.999540  0.750000  1
  Gd  Gd3  1  0.999540  0.531639  0.250000  1
  Gd  Gd4  1  0.468361  0.000460  0.250000  1
  Gd  Gd5  1  0.000460  0.468361  0.750000  1
  Pt  Pt6  1  0.000000  0.000000  0.500000  1
  Pt  Pt7  1  0.000000  0.000000  0.000000  1
  O  O8  1  0.679767  0.930677  0.473564  1
  O  O9  1  0.930677  0.679767  0.526436  1
  O  O10  1  0.679767  0.930677  0.026436  1
  O  O11  1  0.930677  0.679767  0.973564  1
  O  O12  1  0.320233  0.069323  0.526436  1
  O  O13  1  0.069323  0.320233  0.473564  1
  O  O14  1  0.320233  0.069323  0.973564  1
  O  O15  1  0.069323  0.320233  0.026436  1
  O  O16  1  0.364032  0.635968  0.750000  1
  O  O17  1  0.635968  0.364032  0.250000  1
  O  O18  1  0.641194  0.358806  0.750000  1
  O  O19  1  0.358806  0.641194  0.250000  1
  O  O20  1  0.928424  0.071576  0.750000  1
  O  O21  1  0.071576  0.928424  0.250000  1
