# generated using pymatgen
data_Ca3Y(Si3Pd)2
_symmetry_space_group_name_H-M   'P 1'
_cell_length_a   8.26062800
_cell_length_b   8.26062689
_cell_length_c   8.29771400
_cell_angle_alpha   90.00000000
_cell_angle_beta   90.00000000
_cell_angle_gamma   119.99999642
_symmetry_Int_Tables_number   1
_chemical_formula_structural   Ca3Y(Si3Pd)2
_chemical_formula_sum   'Ca6 Y2 Si12 Pd4'
_cell_volume   490.36016348
_cell_formula_units_Z   2
loop_
 _symmetry_equiv_pos_site_id
 _symmetry_equiv_pos_as_xyz
  1  'x, y, z'
loop_
 _atom_site_type_symbol
 _atom_site_label
 _atom_site_symmetry_multiplicity
 _atom_site_fract_x
 _atom_site_fract_y
 _atom_site_fract_z
 _atom_site_occupancy
  Ca  Ca0  1  0.501332  0.002664  0.250000  1
  Ca  Ca1  1  0.498668  0.997336  0.750000  1
  Ca  Ca2  1  0.997336  0.498668  0.250000  1
  Ca  Ca3  1  0.002664  0.501332  0.750000  1
  Ca  Ca4  1  0.501332  0.498668  0.250000  1
  Ca  Ca5  1  0.498668  0.501332  0.750000  1
  Y  Y6  1  0.000000  0.000000  0.250000  1
  Y  Y7  1  0.000000  0.000000  0.750000  1
  Si  Si8  1  0.164520  0.329040  0.001431  1
  Si  Si9  1  0.835480  0.670960  0.998569  1
  Si  Si10  1  0.670960  0.835480  0.001431  1
  Si  Si11  1  0.835480  0.670960  0.501431  1
  Si  Si12  1  0.329040  0.164520  0.998569  1
  Si  Si13  1  0.164520  0.329040  0.498569  1
  Si  Si14  1  0.164520  0.835480  0.001431  1
  Si  Si15  1  0.329040  0.164520  0.501431  1
  Si  Si16  1  0.835480  0.164520  0.998569  1
  Si  Si17  1  0.670960  0.835480  0.498569  1
  Si  Si18  1  0.835480  0.164520  0.501431  1
  Si  Si19  1  0.164520  0.835480  0.498569  1
  Pd  Pd20  1  0.333333  0.666667  0.001556  1
  Pd  Pd21  1  0.666667  0.333333  0.998444  1
  Pd  Pd22  1  0.666667  0.333333  0.501556  1
  Pd  Pd23  1  0.333333  0.666667  0.498444  1
