# generated using pymatgen
data_Hf2ZrScI12
_symmetry_space_group_name_H-M   'P 1'
_cell_length_a   6.65872703
_cell_length_b   7.93276907
_cell_length_c   13.82050900
_cell_angle_alpha   90.00000000
_cell_angle_beta   90.00000000
_cell_angle_gamma   90.01289040
_symmetry_Int_Tables_number   1
_chemical_formula_structural   Hf2ZrScI12
_chemical_formula_sum   'Hf2 Zr1 Sc1 I12'
_cell_volume   730.02889554
_cell_formula_units_Z   1
loop_
 _symmetry_equiv_pos_site_id
 _symmetry_equiv_pos_as_xyz
  1  'x, y, z'
loop_
 _atom_site_type_symbol
 _atom_site_label
 _atom_site_symmetry_multiplicity
 _atom_site_fract_x
 _atom_site_fract_y
 _atom_site_fract_z
 _atom_site_occupancy
  Hf  Hf0  1  0.750106  0.752171  0.500000  1
  Hf  Hf1  1  0.256409  0.247849  0.000000  1
  Zr  Zr2  1  0.743359  0.247844  0.000000  1
  Sc  Sc3  1  0.249850  0.752221  0.500000  1
  I  I4  1  0.995382  0.603574  0.648200  1
  I  I5  1  0.995368  0.049515  0.500000  1
  I  I6  1  0.004414  0.098671  0.850759  1
  I  I7  1  0.004414  0.098671  0.149241  1
  I  I8  1  0.504518  0.900352  0.351791  1
  I  I9  1  0.495774  0.399425  0.151303  1
  I  I10  1  0.504520  0.454951  0.500000  1
  I  I11  1  0.504518  0.900352  0.648209  1
  I  I12  1  0.495774  0.399425  0.848697  1
  I  I13  1  0.495636  0.944048  0.000000  1
  I  I14  1  0.004574  0.547359  0.000000  1
  I  I15  1  0.995382  0.603574  0.351800  1
