# generated using pymatgen
data_YMgScB2Rh5
_symmetry_space_group_name_H-M   'P 1'
_cell_length_a   9.58241089
_cell_length_b   9.58241089
_cell_length_c   3.12885100
_cell_angle_alpha   90.00000000
_cell_angle_beta   90.00000000
_cell_angle_gamma   88.34705842
_symmetry_Int_Tables_number   1
_chemical_formula_structural   YMgScB2Rh5
_chemical_formula_sum   'Y2 Mg2 Sc2 B4 Rh10'
_cell_volume   287.17968051
_cell_formula_units_Z   2
loop_
 _symmetry_equiv_pos_site_id
 _symmetry_equiv_pos_as_xyz
  1  'x, y, z'
loop_
 _atom_site_type_symbol
 _atom_site_label
 _atom_site_symmetry_multiplicity
 _atom_site_fract_x
 _atom_site_fract_y
 _atom_site_fract_z
 _atom_site_occupancy
  Y  Y0  1  0.677289  0.177289  0.000000  1
  Y  Y1  1  0.322711  0.822711  0.000000  1
  Mg  Mg2  1  0.000000  0.000000  0.000000  1
  Mg  Mg3  1  0.500000  0.500000  0.000000  1
  Sc  Sc4  1  0.173959  0.326041  0.000000  1
  Sc  Sc5  1  0.826041  0.673959  0.000000  1
  B  B6  1  0.121722  0.621722  0.000000  1
  B  B7  1  0.878278  0.378278  0.000000  1
  B  B8  1  0.626231  0.873769  0.000000  1
  B  B9  1  0.373769  0.126231  0.000000  1
  Rh  Rh10  1  0.500000  0.000000  0.500000  1
  Rh  Rh11  1  0.000000  0.500000  0.500000  1
  Rh  Rh12  1  0.219355  0.079013  0.500000  1
  Rh  Rh13  1  0.780645  0.920987  0.500000  1
  Rh  Rh14  1  0.062407  0.773792  0.500000  1
  Rh  Rh15  1  0.726208  0.437593  0.500000  1
  Rh  Rh16  1  0.937593  0.226208  0.500000  1
  Rh  Rh17  1  0.273792  0.562407  0.500000  1
  Rh  Rh18  1  0.579013  0.719355  0.500000  1
  Rh  Rh19  1  0.420987  0.280645  0.500000  1
