# generated using pymatgen
data_TbNd4(DyS4)3
_symmetry_space_group_name_H-M   'P 1'
_cell_length_a   3.94622300
_cell_length_b   10.48126088
_cell_length_c   10.79198200
_cell_angle_alpha   90.34123168
_cell_angle_beta   90.00000000
_cell_angle_gamma   90.00000000
_symmetry_Int_Tables_number   1
_chemical_formula_structural   TbNd4(DyS4)3
_chemical_formula_sum   'Tb1 Nd4 Dy3 S12'
_cell_volume   446.36348992
_cell_formula_units_Z   1
loop_
 _symmetry_equiv_pos_site_id
 _symmetry_equiv_pos_as_xyz
  1  'x, y, z'
loop_
 _atom_site_type_symbol
 _atom_site_label
 _atom_site_symmetry_multiplicity
 _atom_site_fract_x
 _atom_site_fract_y
 _atom_site_fract_z
 _atom_site_occupancy
  Tb  Tb0  1  0.250000  0.187825  0.491035  1
  Nd  Nd1  1  0.750000  0.499629  0.695271  1
  Nd  Nd2  1  0.750000  0.000974  0.195504  1
  Nd  Nd3  1  0.250000  0.502502  0.303972  1
  Nd  Nd4  1  0.250000  0.997121  0.805527  1
  Dy  Dy5  1  0.250000  0.312561  0.990503  1
  Dy  Dy6  1  0.750000  0.812782  0.509057  1
  Dy  Dy7  1  0.750000  0.686956  0.009174  1
  S  S8  1  0.250000  0.298155  0.731170  1
  S  S9  1  0.250000  0.202387  0.230715  1
  S  S10  1  0.750000  0.703942  0.268104  1
  S  S11  1  0.750000  0.795368  0.769134  1
  S  S12  1  0.750000  0.054144  0.615687  1
  S  S13  1  0.750000  0.445103  0.113823  1
  S  S14  1  0.250000  0.944584  0.385405  1
  S  S15  1  0.250000  0.554642  0.886270  1
  S  S16  1  0.250000  0.631760  0.543197  1
  S  S17  1  0.250000  0.868337  0.043603  1
  S  S18  1  0.750000  0.370693  0.455844  1
  S  S19  1  0.750000  0.130537  0.957006  1
