# generated using pymatgen
data_SmNi4Ge
_symmetry_space_group_name_H-M   'P 1'
_cell_length_a   5.11798200
_cell_length_b   4.94539056
_cell_length_c   4.02291600
_cell_angle_alpha   90.00000000
_cell_angle_beta   90.00000000
_cell_angle_gamma   121.16133923
_symmetry_Int_Tables_number   1
_chemical_formula_structural   SmNi4Ge
_chemical_formula_sum   'Sm1 Ni4 Ge1'
_cell_volume   87.13020836
_cell_formula_units_Z   1
loop_
 _symmetry_equiv_pos_site_id
 _symmetry_equiv_pos_as_xyz
  1  'x, y, z'
loop_
 _atom_site_type_symbol
 _atom_site_label
 _atom_site_symmetry_multiplicity
 _atom_site_fract_x
 _atom_site_fract_y
 _atom_site_fract_z
 _atom_site_occupancy
  Sm  Sm0  1  0.000000  0.000000  0.000000  1
  Ni  Ni1  1  0.334706  0.669412  0.000000  1
  Ni  Ni2  1  0.665294  0.330588  0.000000  1
  Ni  Ni3  1  0.500000  0.500000  0.500000  1
  Ni  Ni4  1  0.000000  0.500000  0.500000  1
  Ge  Ge5  1  0.500000  0.000000  0.500000  1
