# generated using pymatgen
data_Dy3Y3U2(ReB6)4
_symmetry_space_group_name_H-M   'P 1'
_cell_length_a   3.68411400
_cell_length_b   9.21463449
_cell_length_c   11.47457942
_cell_angle_alpha   89.44246255
_cell_angle_beta   90.00000000
_cell_angle_gamma   90.00000000
_symmetry_Int_Tables_number   1
_chemical_formula_structural   Dy3Y3U2(ReB6)4
_chemical_formula_sum   'Dy3 Y3 U2 Re4 B24'
_cell_volume   389.51787120
_cell_formula_units_Z   1
loop_
 _symmetry_equiv_pos_site_id
 _symmetry_equiv_pos_as_xyz
  1  'x, y, z'
loop_
 _atom_site_type_symbol
 _atom_site_label
 _atom_site_symmetry_multiplicity
 _atom_site_fract_x
 _atom_site_fract_y
 _atom_site_fract_z
 _atom_site_occupancy
  Dy  Dy0  1  0.000000  0.325334  0.411715  1
  Dy  Dy1  1  0.000000  0.674642  0.588312  1
  Dy  Dy2  1  0.000000  0.834669  0.089520  1
  Y  Y3  1  0.000000  0.165365  0.910485  1
  Y  Y4  1  0.000000  0.945154  0.371732  1
  Y  Y5  1  0.000000  0.054833  0.628218  1
  U  U6  1  0.000000  0.454446  0.105532  1
  U  U7  1  0.000000  0.545799  0.894281  1
  Re  Re8  1  0.000000  0.636324  0.314294  1
  Re  Re9  1  0.000000  0.363804  0.685743  1
  Re  Re10  1  0.000000  0.148822  0.176699  1
  Re  Re11  1  0.000000  0.850949  0.823392  1
  B  B12  1  0.500000  0.553877  0.432015  1
  B  B13  1  0.500000  0.446127  0.567945  1
  B  B14  1  0.500000  0.052385  0.067553  1
  B  B15  1  0.500000  0.947366  0.932610  1
  B  B16  1  0.500000  0.748099  0.418963  1
  B  B17  1  0.500000  0.251903  0.580969  1
  B  B18  1  0.500000  0.245594  0.079487  1
  B  B19  1  0.500000  0.754353  0.920698  1
  B  B20  1  0.500000  0.796313  0.267942  1
  B  B21  1  0.500000  0.203697  0.731909  1
  B  B22  1  0.500000  0.297818  0.229744  1
  B  B23  1  0.500000  0.702092  0.770343  1
  B  B24  1  0.500000  0.637545  0.186700  1
  B  B25  1  0.500000  0.362686  0.813294  1
  B  B26  1  0.500000  0.136190  0.313580  1
  B  B27  1  0.500000  0.863723  0.686371  1
  B  B28  1  0.500000  0.987475  0.213503  1
  B  B29  1  0.500000  0.012374  0.786442  1
  B  B30  1  0.500000  0.484443  0.282197  1
  B  B31  1  0.500000  0.515640  0.717812  1
  B  B32  1  0.500000  0.632170  0.035952  1
  B  B33  1  0.500000  0.368025  0.964075  1
  B  B34  1  0.500000  0.108799  0.470079  1
  B  B35  1  0.500000  0.891168  0.529898  1
