# generated using pymatgen
data_La13YPt6
_symmetry_space_group_name_H-M   'P 1'
_cell_length_a   10.36545500
_cell_length_b   10.36545445
_cell_length_c   6.56569800
_cell_angle_alpha   90.00000000
_cell_angle_beta   90.00000000
_cell_angle_gamma   119.99999858
_symmetry_Int_Tables_number   1
_chemical_formula_structural   La13YPt6
_chemical_formula_sum   'La13 Y1 Pt6'
_cell_volume   610.92550790
_cell_formula_units_Z   1
loop_
 _symmetry_equiv_pos_site_id
 _symmetry_equiv_pos_as_xyz
  1  'x, y, z'
loop_
 _atom_site_type_symbol
 _atom_site_label
 _atom_site_symmetry_multiplicity
 _atom_site_fract_x
 _atom_site_fract_y
 _atom_site_fract_z
 _atom_site_occupancy
  La  La0  1  0.333333  0.666667  0.041251  1
  La  La1  1  0.871173  0.742347  0.749672  1
  La  La2  1  0.257653  0.128827  0.749672  1
  La  La3  1  0.871173  0.128827  0.749672  1
  La  La4  1  0.127191  0.254383  0.252507  1
  La  La5  1  0.745617  0.872809  0.252507  1
  La  La6  1  0.127191  0.872809  0.252507  1
  La  La7  1  0.462794  0.925589  0.561809  1
  La  La8  1  0.074411  0.537206  0.561809  1
  La  La9  1  0.462794  0.537206  0.561809  1
  La  La10  1  0.539015  0.078030  0.060259  1
  La  La11  1  0.921970  0.460985  0.060259  1
  La  La12  1  0.539015  0.460985  0.060259  1
  Y  Y13  1  0.666667  0.333333  0.537091  1
  Pt  Pt14  1  0.187965  0.375930  0.809282  1
  Pt  Pt15  1  0.624070  0.812035  0.809282  1
  Pt  Pt16  1  0.187965  0.812035  0.809282  1
  Pt  Pt17  1  0.810368  0.620734  0.311865  1
  Pt  Pt18  1  0.379266  0.189632  0.311865  1
  Pt  Pt19  1  0.810368  0.189632  0.311865  1
