# generated using pymatgen
data_Sm6GaSiI6
_symmetry_space_group_name_H-M   'P 1'
_cell_length_a   10.74248258
_cell_length_b   10.74248324
_cell_length_c   10.69583031
_cell_angle_alpha   109.50244246
_cell_angle_beta   109.50244067
_cell_angle_gamma   109.58504476
_symmetry_Int_Tables_number   1
_chemical_formula_structural   Sm6GaSiI6
_chemical_formula_sum   'Sm12 Ga2 Si2 I12'
_cell_volume   948.09831677
_cell_formula_units_Z   2
loop_
 _symmetry_equiv_pos_site_id
 _symmetry_equiv_pos_as_xyz
  1  'x, y, z'
loop_
 _atom_site_type_symbol
 _atom_site_label
 _atom_site_symmetry_multiplicity
 _atom_site_fract_x
 _atom_site_fract_y
 _atom_site_fract_z
 _atom_site_occupancy
  Sm  Sm0  1  0.465731  0.484545  0.231244  1
  Sm  Sm1  1  0.753301  0.234487  0.268756  1
  Sm  Sm2  1  0.753553  0.018399  0.485749  1
  Sm  Sm3  1  0.232196  0.467351  0.485749  1
  Sm  Sm4  1  0.265513  0.746699  0.231244  1
  Sm  Sm5  1  0.032649  0.267804  0.014251  1
  Sm  Sm6  1  0.015455  0.034269  0.268756  1
  Sm  Sm7  1  0.481601  0.746447  0.014251  1
  Sm  Sm8  1  0.484333  0.234333  0.468667  1
  Sm  Sm9  1  0.017699  0.482301  0.750000  1
  Sm  Sm10  1  0.265667  0.015667  0.031333  1
  Sm  Sm11  1  0.232301  0.267699  0.750000  1
  Ga  Ga12  1  0.250167  0.249833  0.250000  1
  Ga  Ga13  1  0.499833  0.000167  0.250000  1
  Si  Si14  1  0.999858  0.249858  0.499717  1
  Si  Si15  1  0.250142  0.500142  0.000283  1
  I  I16  1  0.249714  0.756768  0.742240  1
  I  I17  1  0.514527  0.507474  0.757760  1
  I  I18  1  0.984861  0.741811  0.992197  1
  I  I19  1  0.743232  0.250286  0.757760  1
  I  I20  1  0.992526  0.985473  0.742240  1
  I  I21  1  0.249614  0.992663  0.507803  1
  I  I22  1  0.758189  0.515139  0.507803  1
  I  I23  1  0.507337  0.250386  0.992197  1
  I  I24  1  0.757553  0.742447  0.250000  1
  I  I25  1  0.742808  0.992808  0.985617  1
  I  I26  1  0.992447  0.507553  0.250000  1
  I  I27  1  0.507192  0.757192  0.514383  1
