# generated using pymatgen
data_Yb2CdB2Pt7
_symmetry_space_group_name_H-M   'P 1'
_cell_length_a   8.19643942
_cell_length_b   8.19643920
_cell_length_c   8.19643843
_cell_angle_alpha   39.17493426
_cell_angle_beta   39.17493481
_cell_angle_gamma   39.17493497
_symmetry_Int_Tables_number   1
_chemical_formula_structural   Yb2CdB2Pt7
_chemical_formula_sum   'Yb2 Cd1 B2 Pt7'
_cell_volume   197.66931403
_cell_formula_units_Z   1
loop_
 _symmetry_equiv_pos_site_id
 _symmetry_equiv_pos_as_xyz
  1  'x, y, z'
loop_
 _atom_site_type_symbol
 _atom_site_label
 _atom_site_symmetry_multiplicity
 _atom_site_fract_x
 _atom_site_fract_y
 _atom_site_fract_z
 _atom_site_occupancy
  Yb  Yb0  1  0.496133  0.496133  0.496133  1
  Yb  Yb1  1  0.646434  0.646434  0.646434  1
  Cd  Cd2  1  0.351945  0.351945  0.351945  1
  B  B3  1  0.168226  0.168226  0.168226  1
  B  B4  1  0.833901  0.833901  0.833901  1
  Pt  Pt5  1  0.000646  0.000646  0.000646  1
  Pt  Pt6  1  0.568191  0.066130  0.066130  1
  Pt  Pt7  1  0.066130  0.568191  0.066130  1
  Pt  Pt8  1  0.934618  0.934618  0.433028  1
  Pt  Pt9  1  0.066130  0.066130  0.568191  1
  Pt  Pt10  1  0.934618  0.433028  0.934618  1
  Pt  Pt11  1  0.433028  0.934618  0.934618  1
