# generated using pymatgen
data_Tm3Co2CuSn3
_symmetry_space_group_name_H-M   'P 1'
_cell_length_a   7.38293800
_cell_length_b   7.38293862
_cell_length_c   3.75518300
_cell_angle_alpha   90.00000000
_cell_angle_beta   90.00000000
_cell_angle_gamma   120.00000619
_symmetry_Int_Tables_number   1
_chemical_formula_structural   Tm3Co2CuSn3
_chemical_formula_sum   'Tm3 Co2 Cu1 Sn3'
_cell_volume   177.26385505
_cell_formula_units_Z   1
loop_
 _symmetry_equiv_pos_site_id
 _symmetry_equiv_pos_as_xyz
  1  'x, y, z'
loop_
 _atom_site_type_symbol
 _atom_site_label
 _atom_site_symmetry_multiplicity
 _atom_site_fract_x
 _atom_site_fract_y
 _atom_site_fract_z
 _atom_site_occupancy
  Tm  Tm0  1  0.016455  0.410095  0.500000  1
  Tm  Tm1  1  0.589905  0.606360  0.500000  1
  Tm  Tm2  1  0.393640  0.983545  0.500000  1
  Co  Co3  1  0.333333  0.666667  0.000000  1
  Co  Co4  1  0.000000  0.000000  0.500000  1
  Cu  Cu5  1  0.666667  0.333333  0.000000  1
  Sn  Sn6  1  0.998611  0.740415  0.000000  1
  Sn  Sn7  1  0.259585  0.258195  0.000000  1
  Sn  Sn8  1  0.741805  0.001389  0.000000  1
