# generated using pymatgen
data_Tb2Lu5Th(CdNi)2
_symmetry_space_group_name_H-M   'P 1'
_cell_length_a   9.48446884
_cell_length_b   9.48261914
_cell_length_c   9.49792322
_cell_angle_alpha   59.96052191
_cell_angle_beta   59.93845854
_cell_angle_gamma   60.06821652
_symmetry_Int_Tables_number   1
_chemical_formula_structural   Tb2Lu5Th(CdNi)2
_chemical_formula_sum   'Tb4 Lu10 Th2 Cd4 Ni4'
_cell_volume   603.87356057
_cell_formula_units_Z   2
loop_
 _symmetry_equiv_pos_site_id
 _symmetry_equiv_pos_as_xyz
  1  'x, y, z'
loop_
 _atom_site_type_symbol
 _atom_site_label
 _atom_site_symmetry_multiplicity
 _atom_site_fract_x
 _atom_site_fract_y
 _atom_site_fract_z
 _atom_site_occupancy
  Tb  Tb0  1  0.564511  0.936369  0.565995  1
  Tb  Tb1  1  0.936392  0.564518  0.933111  1
  Tb  Tb2  1  0.564928  0.564938  0.935070  1
  Tb  Tb3  1  0.935841  0.935821  0.564170  1
  Lu  Lu4  1  0.349113  0.949980  0.349740  1
  Lu  Lu5  1  0.949993  0.349109  0.351171  1
  Lu  Lu6  1  0.814562  0.188307  0.185899  1
  Lu  Lu7  1  0.188291  0.814569  0.811230  1
  Lu  Lu8  1  0.187808  0.814659  0.185856  1
  Lu  Lu9  1  0.814674  0.187796  0.811672  1
  Lu  Lu10  1  0.185780  0.185792  0.814206  1
  Lu  Lu11  1  0.812882  0.812887  0.187113  1
  Lu  Lu12  1  0.937945  0.561902  0.563736  1
  Lu  Lu13  1  0.561930  0.937918  0.936399  1
  Th  Th14  1  0.343630  0.344493  0.351659  1
  Th  Th15  1  0.344399  0.343690  0.960234  1
  Cd  Cd16  1  0.583987  0.582487  0.578784  1
  Cd  Cd17  1  0.582522  0.583984  0.254722  1
  Cd  Cd18  1  0.584263  0.255232  0.580900  1
  Cd  Cd19  1  0.255245  0.584256  0.579600  1
  Ni  Ni20  1  0.143097  0.141447  0.141684  1
  Ni  Ni21  1  0.141442  0.143092  0.573776  1
  Ni  Ni22  1  0.143429  0.573336  0.142500  1
  Ni  Ni23  1  0.573336  0.143418  0.140772  1
