# generated using pymatgen
data_Sc4FeBr4
_symmetry_space_group_name_H-M   'P 1'
_cell_length_a   10.36516526
_cell_length_b   10.36516595
_cell_length_c   5.48180600
_cell_angle_alpha   90.02829642
_cell_angle_beta   90.02829642
_cell_angle_gamma   89.93994941
_symmetry_Int_Tables_number   1
_chemical_formula_structural   Sc4FeBr4
_chemical_formula_sum   'Sc8 Fe2 Br8'
_cell_volume   588.94645006
_cell_formula_units_Z   2
loop_
 _symmetry_equiv_pos_site_id
 _symmetry_equiv_pos_as_xyz
  1  'x, y, z'
loop_
 _atom_site_type_symbol
 _atom_site_label
 _atom_site_symmetry_multiplicity
 _atom_site_fract_x
 _atom_site_fract_y
 _atom_site_fract_z
 _atom_site_occupancy
  Sc  Sc0  1  0.804053  0.080890  0.001192  1
  Sc  Sc1  1  0.080890  0.804053  0.501192  1
  Sc  Sc2  1  0.080619  0.195932  0.001040  1
  Sc  Sc3  1  0.195932  0.080619  0.501040  1
  Sc  Sc4  1  0.919381  0.804068  0.998960  1
  Sc  Sc5  1  0.919110  0.195947  0.498808  1
  Sc  Sc6  1  0.195947  0.919110  0.998808  1
  Sc  Sc7  1  0.804068  0.919381  0.498960  1
  Fe  Fe8  1  0.000295  0.999705  0.250000  1
  Fe  Fe9  1  0.999705  0.000295  0.750000  1
  Br  Br10  1  0.654413  0.143667  0.489663  1
  Br  Br11  1  0.855552  0.655475  0.506336  1
  Br  Br12  1  0.344525  0.144448  0.993664  1
  Br  Br13  1  0.144448  0.344525  0.493664  1
  Br  Br14  1  0.655475  0.855552  0.006336  1
  Br  Br15  1  0.345587  0.856333  0.510337  1
  Br  Br16  1  0.143667  0.654413  0.989663  1
  Br  Br17  1  0.856333  0.345587  0.010337  1
