# generated using pymatgen
data_Fe3Si3Mo6C
_symmetry_space_group_name_H-M   'P 1'
_cell_length_a   7.75620080
_cell_length_b   7.75619998
_cell_length_c   7.71522300
_cell_angle_alpha   60.17459827
_cell_angle_beta   60.17460177
_cell_angle_gamma   60.24103788
_symmetry_Int_Tables_number   1
_chemical_formula_structural   Fe3Si3Mo6C
_chemical_formula_sum   'Fe6 Si6 Mo12 C2'
_cell_volume   329.65653818
_cell_formula_units_Z   2
loop_
 _symmetry_equiv_pos_site_id
 _symmetry_equiv_pos_as_xyz
  1  'x, y, z'
loop_
 _atom_site_type_symbol
 _atom_site_label
 _atom_site_symmetry_multiplicity
 _atom_site_fract_x
 _atom_site_fract_y
 _atom_site_fract_z
 _atom_site_occupancy
  Fe  Fe0  1  0.335248  0.335248  0.998391  1
  Fe  Fe1  1  0.129415  0.129415  0.616800  1
  Fe  Fe2  1  0.914752  0.914752  0.918889  1
  Fe  Fe3  1  0.125000  0.625000  0.128141  1
  Fe  Fe4  1  0.120585  0.120585  0.125629  1
  Fe  Fe5  1  0.625000  0.125000  0.128141  1
  Si  Si6  1  0.915508  0.246105  0.914852  1
  Si  Si7  1  0.334492  0.003895  0.326465  1
  Si  Si8  1  0.335541  0.335541  0.331141  1
  Si  Si9  1  0.003895  0.334492  0.326465  1
  Si  Si10  1  0.914459  0.914459  0.252224  1
  Si  Si11  1  0.246105  0.915508  0.914852  1
  Mo  Mo12  1  0.305414  0.692503  0.695722  1
  Mo  Mo13  1  0.307455  0.307455  0.698125  1
  Mo  Mo14  1  0.554081  0.943087  0.557848  1
  Mo  Mo15  1  0.943087  0.554081  0.557848  1
  Mo  Mo16  1  0.557497  0.944586  0.943638  1
  Mo  Mo17  1  0.695919  0.306913  0.305015  1
  Mo  Mo18  1  0.944586  0.557497  0.943638  1
  Mo  Mo19  1  0.306913  0.695919  0.305015  1
  Mo  Mo20  1  0.553468  0.553468  0.947031  1
  Mo  Mo21  1  0.692503  0.305414  0.695722  1
  Mo  Mo22  1  0.696532  0.696532  0.303969  1
  Mo  Mo23  1  0.942545  0.942545  0.563033  1
  C  C24  1  0.747787  0.747787  0.752918  1
  C  C25  1  0.502213  0.502213  0.498492  1
