# generated using pymatgen
data_Tb11Er5Cd4Co3Pd
_symmetry_space_group_name_H-M   'P 1'
_cell_length_a   9.55588728
_cell_length_b   9.55600541
_cell_length_c   9.55319897
_cell_angle_alpha   59.96517185
_cell_angle_beta   59.79633795
_cell_angle_gamma   59.86265376
_symmetry_Int_Tables_number   1
_chemical_formula_structural   Tb11Er5Cd4Co3Pd
_chemical_formula_sum   'Tb11 Er5 Cd4 Co3 Pd1'
_cell_volume   615.09616384
_cell_formula_units_Z   1
loop_
 _symmetry_equiv_pos_site_id
 _symmetry_equiv_pos_as_xyz
  1  'x, y, z'
loop_
 _atom_site_type_symbol
 _atom_site_label
 _atom_site_symmetry_multiplicity
 _atom_site_fract_x
 _atom_site_fract_y
 _atom_site_fract_z
 _atom_site_occupancy
  Tb  Tb0  1  0.815356  0.186619  0.815289  1
  Tb  Tb1  1  0.438356  0.049588  0.438264  1
  Tb  Tb2  1  0.604956  0.204290  0.606987  1
  Tb  Tb3  1  0.815225  0.814250  0.188257  1
  Tb  Tb4  1  0.203474  0.605786  0.603987  1
  Tb  Tb5  1  0.809976  0.189703  0.189418  1
  Tb  Tb6  1  0.049967  0.437995  0.438765  1
  Tb  Tb7  1  0.189008  0.812676  0.185890  1
  Tb  Tb8  1  0.603878  0.607744  0.203556  1
  Tb  Tb9  1  0.188892  0.186385  0.812515  1
  Tb  Tb10  1  0.063054  0.434697  0.060906  1
  Er  Er11  1  0.439712  0.439215  0.048696  1
  Er  Er12  1  0.593726  0.593643  0.595691  1
  Er  Er13  1  0.189632  0.812105  0.812812  1
  Er  Er14  1  0.061983  0.060191  0.435737  1
  Er  Er15  1  0.436135  0.062143  0.061623  1
  Cd  Cd16  1  0.828902  0.829291  0.508671  1
  Cd  Cd17  1  0.831128  0.831624  0.830650  1
  Cd  Cd18  1  0.507295  0.829205  0.829311  1
  Cd  Cd19  1  0.828171  0.508097  0.829537  1
  Co  Co20  1  0.826592  0.391426  0.392253  1
  Co  Co21  1  0.389824  0.827213  0.393545  1
  Co  Co22  1  0.390758  0.393473  0.827291  1
  Pd  Pd23  1  0.394000  0.392642  0.390345  1
