# generated using pymatgen
data_DyMn2P2Ir
_symmetry_space_group_name_H-M   'P 1'
_cell_length_a   3.73539100
_cell_length_b   11.02716600
_cell_length_c   12.80572300
_cell_angle_alpha   90.00000000
_cell_angle_beta   90.00000000
_cell_angle_gamma   90.00000000
_symmetry_Int_Tables_number   1
_chemical_formula_structural   DyMn2P2Ir
_chemical_formula_sum   'Dy6 Mn12 P12 Ir6'
_cell_volume   527.47767570
_cell_formula_units_Z   6
loop_
 _symmetry_equiv_pos_site_id
 _symmetry_equiv_pos_as_xyz
  1  'x, y, z'
loop_
 _atom_site_type_symbol
 _atom_site_label
 _atom_site_symmetry_multiplicity
 _atom_site_fract_x
 _atom_site_fract_y
 _atom_site_fract_z
 _atom_site_occupancy
  Dy  Dy0  1  0.000000  0.500000  0.524172  1
  Dy  Dy1  1  0.500000  0.000000  0.475828  1
  Dy  Dy2  1  0.500000  0.821078  0.205279  1
  Dy  Dy3  1  0.500000  0.178922  0.205279  1
  Dy  Dy4  1  0.000000  0.678922  0.794721  1
  Dy  Dy5  1  0.000000  0.321078  0.794721  1
  Mn  Mn6  1  0.500000  0.500000  0.161489  1
  Mn  Mn7  1  0.000000  0.000000  0.838511  1
  Mn  Mn8  1  0.000000  0.500000  0.992711  1
  Mn  Mn9  1  0.500000  0.000000  0.007289  1
  Mn  Mn10  1  0.500000  0.333151  0.998321  1
  Mn  Mn11  1  0.500000  0.666849  0.998321  1
  Mn  Mn12  1  0.000000  0.166849  0.001679  1
  Mn  Mn13  1  0.000000  0.833151  0.001679  1
  Mn  Mn14  1  0.500000  0.294016  0.434618  1
  Mn  Mn15  1  0.500000  0.705984  0.434618  1
  Mn  Mn16  1  0.000000  0.205984  0.565382  1
  Mn  Mn17  1  0.000000  0.794016  0.565382  1
  P  P18  1  0.500000  0.500000  0.888010  1
  P  P19  1  0.000000  0.000000  0.111990  1
  P  P20  1  0.500000  0.500000  0.356712  1
  P  P21  1  0.000000  0.000000  0.643288  1
  P  P22  1  0.500000  0.313512  0.614610  1
  P  P23  1  0.500000  0.686488  0.614610  1
  P  P24  1  0.000000  0.186488  0.385390  1
  P  P25  1  0.000000  0.813512  0.385390  1
  P  P26  1  0.500000  0.842829  0.892286  1
  P  P27  1  0.500000  0.157171  0.892286  1
  P  P28  1  0.000000  0.657171  0.107714  1
  P  P29  1  0.000000  0.342829  0.107714  1
  Ir  Ir30  1  0.500000  0.500000  0.704115  1
  Ir  Ir31  1  0.000000  0.000000  0.295885  1
  Ir  Ir32  1  0.500000  0.875426  0.707638  1
  Ir  Ir33  1  0.500000  0.124574  0.707638  1
  Ir  Ir34  1  0.000000  0.624574  0.292362  1
  Ir  Ir35  1  0.000000  0.375426  0.292362  1
