# generated using pymatgen
data_SrLaNiRhO6
_symmetry_space_group_name_H-M   'P 1'
_cell_length_a   5.67916800
_cell_length_b   5.59750335
_cell_length_c   9.69907907
_cell_angle_alpha   54.72707930
_cell_angle_beta   90.00000000
_cell_angle_gamma   90.00000000
_symmetry_Int_Tables_number   1
_chemical_formula_structural   SrLaNiRhO6
_chemical_formula_sum   'Sr2 La2 Ni2 Rh2 O12'
_cell_volume   251.72028624
_cell_formula_units_Z   2
loop_
 _symmetry_equiv_pos_site_id
 _symmetry_equiv_pos_as_xyz
  1  'x, y, z'
loop_
 _atom_site_type_symbol
 _atom_site_label
 _atom_site_symmetry_multiplicity
 _atom_site_fract_x
 _atom_site_fract_y
 _atom_site_fract_z
 _atom_site_occupancy
  Sr  Sr0  1  0.211265  0.757482  0.249824  1
  Sr  Sr1  1  0.788735  0.757482  0.749824  1
  La  La2  1  0.703139  0.237772  0.251827  1
  La  La3  1  0.296861  0.237772  0.751827  1
  Ni  Ni4  1  0.246948  0.998902  0.500533  1
  Ni  Ni5  1  0.753052  0.998902  0.000533  1
  Rh  Rh6  1  0.247412  0.499883  0.999804  1
  Rh  Rh7  1  0.752588  0.499883  0.499804  1
  O  O8  1  0.235002  0.660547  0.754420  1
  O  O9  1  0.046674  0.829229  0.957742  1
  O  O10  1  0.038365  0.256683  0.543711  1
  O  O11  1  0.961635  0.256683  0.043711  1
  O  O12  1  0.953326  0.829229  0.457742  1
  O  O13  1  0.764998  0.660547  0.254420  1
  O  O14  1  0.728836  0.322375  0.745601  1
  O  O15  1  0.537929  0.185214  0.536503  1
  O  O16  1  0.525443  0.751912  0.960035  1
  O  O17  1  0.474557  0.751912  0.460035  1
  O  O18  1  0.462071  0.185214  0.036503  1
  O  O19  1  0.271164  0.322375  0.245601  1
