# generated using pymatgen
data_Tb3Pr(IrO4)4
_symmetry_space_group_name_H-M   'P 1'
_cell_length_a   5.42380616
_cell_length_b   7.67955006
_cell_length_c   7.46482435
_cell_angle_alpha   80.29520755
_cell_angle_beta   90.76551242
_cell_angle_gamma   93.15641580
_symmetry_Int_Tables_number   1
_chemical_formula_structural   Tb3Pr(IrO4)4
_chemical_formula_sum   'Tb3 Pr1 Ir4 O16'
_cell_volume   306.01063620
_cell_formula_units_Z   1
loop_
 _symmetry_equiv_pos_site_id
 _symmetry_equiv_pos_as_xyz
  1  'x, y, z'
loop_
 _atom_site_type_symbol
 _atom_site_label
 _atom_site_symmetry_multiplicity
 _atom_site_fract_x
 _atom_site_fract_y
 _atom_site_fract_z
 _atom_site_occupancy
  Tb  Tb0  1  0.195674  0.667965  0.102319  1
  Tb  Tb1  1  0.799695  0.328460  0.898128  1
  Tb  Tb2  1  0.736019  0.371150  0.388400  1
  Pr  Pr3  1  0.261321  0.632194  0.607447  1
  Ir  Ir4  1  0.759995  0.841939  0.796782  1
  Ir  Ir5  1  0.717491  0.838563  0.297118  1
  Ir  Ir6  1  0.283084  0.162078  0.700230  1
  Ir  Ir7  1  0.240914  0.159810  0.204948  1
  O  O8  1  0.074975  0.949794  0.693076  1
  O  O9  1  0.399616  0.937120  0.197418  1
  O  O10  1  0.622208  0.833251  0.550617  1
  O  O11  1  0.860096  0.840240  0.052945  1
  O  O12  1  0.462007  0.703976  0.879438  1
  O  O13  1  0.943919  0.613202  0.835550  1
  O  O14  1  0.970196  0.663676  0.372530  1
  O  O15  1  0.499494  0.610559  0.315729  1
  O  O16  1  0.508893  0.385876  0.675791  1
  O  O17  1  0.017544  0.327248  0.619536  1
  O  O18  1  0.049476  0.384102  0.173936  1
  O  O19  1  0.544395  0.296675  0.129375  1
  O  O20  1  0.146796  0.170686  0.945560  1
  O  O21  1  0.387988  0.170357  0.448289  1
  O  O22  1  0.593545  0.060070  0.806541  1
  O  O23  1  0.924660  0.051005  0.308299  1
