# generated using pymatgen
data_NaCa9(Tc2N7)2
_symmetry_space_group_name_H-M   'P 1'
_cell_length_a   6.29459244
_cell_length_b   9.24285295
_cell_length_c   9.17762300
_cell_angle_alpha   115.70105154
_cell_angle_beta   98.34938694
_cell_angle_gamma   88.75788532
_symmetry_Int_Tables_number   1
_chemical_formula_structural   NaCa9(Tc2N7)2
_chemical_formula_sum   'Na1 Ca9 Tc4 N14'
_cell_volume   475.51899138
_cell_formula_units_Z   1
loop_
 _symmetry_equiv_pos_site_id
 _symmetry_equiv_pos_as_xyz
  1  'x, y, z'
loop_
 _atom_site_type_symbol
 _atom_site_label
 _atom_site_symmetry_multiplicity
 _atom_site_fract_x
 _atom_site_fract_y
 _atom_site_fract_z
 _atom_site_occupancy
  Na  Na0  1  0.738199  0.028989  0.456357  1
  Ca  Ca1  1  0.833343  0.621175  0.326205  1
  Ca  Ca2  1  0.267197  0.973988  0.535680  1
  Ca  Ca3  1  0.702507  0.420462  0.864397  1
  Ca  Ca4  1  0.296758  0.579229  0.137268  1
  Ca  Ca5  1  0.408076  0.789524  0.915700  1
  Ca  Ca6  1  0.596339  0.211480  0.091196  1
  Ca  Ca7  1  0.160392  0.384349  0.675032  1
  Ca  Ca8  1  0.903731  0.867678  0.755141  1
  Ca  Ca9  1  0.094051  0.136157  0.243403  1
  Tc  Tc10  1  0.568892  0.353146  0.476120  1
  Tc  Tc11  1  0.419395  0.645244  0.525312  1
  Tc  Tc12  1  0.132355  0.218758  0.927371  1
  Tc  Tc13  1  0.878247  0.778343  0.071544  1
  N  N14  1  0.494087  0.541425  0.674697  1
  N  N15  1  0.486710  0.457056  0.327633  1
  N  N16  1  0.147336  0.725282  0.549592  1
  N  N17  1  0.841327  0.286256  0.448368  1
  N  N18  1  0.384618  0.191165  0.470629  1
  N  N19  1  0.594876  0.809831  0.536037  1
  N  N20  1  0.982441  0.132530  0.720390  1
  N  N21  1  0.050623  0.855996  0.271044  1
  N  N22  1  0.238925  0.056182  0.982342  1
  N  N23  1  0.771302  0.943108  0.019879  1
  N  N24  1  0.373964  0.329853  0.920500  1
  N  N25  1  0.963466  0.356186  0.078614  1
  N  N26  1  0.033918  0.636176  0.914019  1
  N  N27  1  0.636925  0.670431  0.085527  1
