# generated using pymatgen
data_NdEu(CuO3)2
_symmetry_space_group_name_H-M   'P 1'
_cell_length_a   3.95668400
_cell_length_b   12.66341900
_cell_length_c   5.41864200
_cell_angle_alpha   90.00000000
_cell_angle_beta   90.00000000
_cell_angle_gamma   90.00000000
_symmetry_Int_Tables_number   1
_chemical_formula_structural   NdEu(CuO3)2
_chemical_formula_sum   'Nd2 Eu2 Cu4 O12'
_cell_volume   271.50185581
_cell_formula_units_Z   2
loop_
 _symmetry_equiv_pos_site_id
 _symmetry_equiv_pos_as_xyz
  1  'x, y, z'
loop_
 _atom_site_type_symbol
 _atom_site_label
 _atom_site_symmetry_multiplicity
 _atom_site_fract_x
 _atom_site_fract_y
 _atom_site_fract_z
 _atom_site_occupancy
  Nd  Nd0  1  0.264817  0.416747  0.749999  1
  Nd  Nd1  1  0.735183  0.916747  0.749999  1
  Eu  Eu2  1  0.241860  0.084503  0.250000  1
  Eu  Eu3  1  0.758140  0.584503  0.250000  1
  Cu  Cu4  1  0.908939  0.326097  0.250000  1
  Cu  Cu5  1  0.091061  0.826097  0.250000  1
  Cu  Cu6  1  0.900774  0.173175  0.749999  1
  Cu  Cu7  1  0.099226  0.673175  0.749999  1
  O  O8  1  0.130569  0.248830  0.000065  1
  O  O9  1  0.869431  0.748830  0.000065  1
  O  O10  1  0.753916  0.418223  0.014679  1
  O  O11  1  0.246084  0.918223  0.014679  1
  O  O12  1  0.753916  0.418223  0.485322  1
  O  O13  1  0.246084  0.918223  0.485322  1
  O  O14  1  0.130569  0.248830  0.499936  1
  O  O15  1  0.869431  0.748830  0.499936  1
  O  O16  1  0.737089  0.082685  0.512497  1
  O  O17  1  0.262911  0.582685  0.512497  1
  O  O18  1  0.737089  0.082685  0.987504  1
  O  O19  1  0.262911  0.582685  0.987504  1
