# generated using pymatgen
data_Hf10ZnSn7
_symmetry_space_group_name_H-M   'P 1'
_cell_length_a   5.88178001
_cell_length_b   8.70724778
_cell_length_c   8.70718100
_cell_angle_alpha   120.00025343
_cell_angle_beta   89.99930692
_cell_angle_gamma   90.00137115
_symmetry_Int_Tables_number   1
_chemical_formula_structural   Hf10ZnSn7
_chemical_formula_sum   'Hf10 Zn1 Sn7'
_cell_volume   386.18622217
_cell_formula_units_Z   1
loop_
 _symmetry_equiv_pos_site_id
 _symmetry_equiv_pos_as_xyz
  1  'x, y, z'
loop_
 _atom_site_type_symbol
 _atom_site_label
 _atom_site_symmetry_multiplicity
 _atom_site_fract_x
 _atom_site_fract_y
 _atom_site_fract_z
 _atom_site_occupancy
  Hf  Hf0  1  0.499999  0.333342  0.666683  1
  Hf  Hf1  1  0.499999  0.666659  0.333317  1
  Hf  Hf2  1  0.999999  0.666663  0.333327  1
  Hf  Hf3  1  0.999999  0.333336  0.666673  1
  Hf  Hf4  1  0.738279  0.274830  0.000000  1
  Hf  Hf5  1  0.738302  0.725178  0.725154  1
  Hf  Hf6  1  0.738302  0.000025  0.274846  1
  Hf  Hf7  1  0.261713  0.725170  0.000000  1
  Hf  Hf8  1  0.261700  0.274819  0.274845  1
  Hf  Hf9  1  0.261700  0.999974  0.725155  1
  Zn  Zn10  1  0.499999  0.000000  0.000000  1
  Sn  Sn11  1  0.752883  0.614269  0.000000  1
  Sn  Sn12  1  0.752875  0.385756  0.385759  1
  Sn  Sn13  1  0.752875  0.999996  0.614241  1
  Sn  Sn14  1  0.247117  0.385730  0.000000  1
  Sn  Sn15  1  0.247132  0.614242  0.614235  1
  Sn  Sn16  1  0.247132  0.000008  0.385765  1
  Sn  Sn17  1  0.999996  0.000002  0.000000  1
