# generated using pymatgen
data_ScGe2B4Ru10W3
_symmetry_space_group_name_H-M   'P 1'
_cell_length_a   9.34535200
_cell_length_b   9.34535200
_cell_length_c   2.94300600
_cell_angle_alpha   90.00000000
_cell_angle_beta   90.00000000
_cell_angle_gamma   90.00321261
_symmetry_Int_Tables_number   1
_chemical_formula_structural   ScGe2B4Ru10W3
_chemical_formula_sum   'Sc1 Ge2 B4 Ru10 W3'
_cell_volume   257.02920640
_cell_formula_units_Z   1
loop_
 _symmetry_equiv_pos_site_id
 _symmetry_equiv_pos_as_xyz
  1  'x, y, z'
loop_
 _atom_site_type_symbol
 _atom_site_label
 _atom_site_symmetry_multiplicity
 _atom_site_fract_x
 _atom_site_fract_y
 _atom_site_fract_z
 _atom_site_occupancy
  Sc  Sc0  1  0.823830  0.676170  0.000000  1
  Ge  Ge1  1  0.997474  0.995995  0.000000  1
  Ge  Ge2  1  0.504005  0.502526  0.000000  1
  B  B3  1  0.123307  0.624454  0.000000  1
  B  B4  1  0.875546  0.376693  0.000000  1
  B  B5  1  0.624727  0.875273  0.000000  1
  B  B6  1  0.374338  0.125662  0.000000  1
  Ru  Ru7  1  0.213659  0.069558  0.500000  1
  Ru  Ru8  1  0.780613  0.942577  0.500000  1
  Ru  Ru9  1  0.080255  0.788108  0.500000  1
  Ru  Ru10  1  0.711892  0.419745  0.500000  1
  Ru  Ru11  1  0.934641  0.213208  0.500000  1
  Ru  Ru12  1  0.286792  0.565359  0.500000  1
  Ru  Ru13  1  0.557423  0.719387  0.500000  1
  Ru  Ru14  1  0.430442  0.286341  0.500000  1
  Ru  Ru15  1  0.498135  0.001865  0.500000  1
  Ru  Ru16  1  0.004469  0.495531  0.500000  1
  W  W17  1  0.677689  0.176126  0.000000  1
  W  W18  1  0.323874  0.822311  0.000000  1
  W  W19  1  0.176890  0.323110  0.000000  1
