# generated using pymatgen
data_K6GaAs3
_symmetry_space_group_name_H-M   'P 1'
_cell_length_a   9.11906064
_cell_length_b   9.05135053
_cell_length_c   10.27301422
_cell_angle_alpha   81.19877571
_cell_angle_beta   107.35165578
_cell_angle_gamma   119.27215814
_symmetry_Int_Tables_number   1
_chemical_formula_structural   K6GaAs3
_chemical_formula_sum   'K12 Ga2 As6'
_cell_volume   705.97122227
_cell_formula_units_Z   2
loop_
 _symmetry_equiv_pos_site_id
 _symmetry_equiv_pos_as_xyz
  1  'x, y, z'
loop_
 _atom_site_type_symbol
 _atom_site_label
 _atom_site_symmetry_multiplicity
 _atom_site_fract_x
 _atom_site_fract_y
 _atom_site_fract_z
 _atom_site_occupancy
  K  K0  1  0.731827  0.124914  0.618588  1
  K  K1  1  0.254561  0.856094  0.390795  1
  K  K2  1  0.966543  0.818092  0.628435  1
  K  K3  1  0.024239  0.194864  0.392676  1
  K  K4  1  0.621598  0.449218  0.397076  1
  K  K5  1  0.404453  0.562424  0.595215  1
  K  K6  1  0.872583  0.486597  0.139529  1
  K  K7  1  0.109669  0.501814  0.844069  1
  K  K8  1  0.735813  0.087408  0.987944  1
  K  K9  1  0.254830  0.884425  0.003942  1
  K  K10  1  0.568335  0.626455  0.945979  1
  K  K11  1  0.247657  0.209856  0.111420  1
  Ga  Ga12  1  0.587621  0.830552  0.255167  1
  Ga  Ga13  1  0.417872  0.172831  0.748967  1
  As  As14  1  0.302239  0.566809  0.229822  1
  As  As15  1  0.704284  0.427574  0.764132  1
  As  As16  1  0.600771  0.110440  0.264031  1
  As  As17  1  0.382766  0.881219  0.734714  1
  As  As18  1  0.852719  0.821768  0.244631  1
  As  As19  1  0.169000  0.203385  0.764250  1
