# generated using pymatgen
data_Pr12Os2RuRh
_symmetry_space_group_name_H-M   'P 1'
_cell_length_a   6.56095220
_cell_length_b   7.51146405
_cell_length_c   9.86440600
_cell_angle_alpha   90.00000000
_cell_angle_beta   90.00000000
_cell_angle_gamma   90.11696020
_symmetry_Int_Tables_number   1
_chemical_formula_structural   Pr12Os2RuRh
_chemical_formula_sum   'Pr12 Os2 Ru1 Rh1'
_cell_volume   486.14016172
_cell_formula_units_Z   1
loop_
 _symmetry_equiv_pos_site_id
 _symmetry_equiv_pos_as_xyz
  1  'x, y, z'
loop_
 _atom_site_type_symbol
 _atom_site_label
 _atom_site_symmetry_multiplicity
 _atom_site_fract_x
 _atom_site_fract_y
 _atom_site_fract_z
 _atom_site_occupancy
  Pr  Pr0  1  0.332152  0.673980  0.065633  1
  Pr  Pr1  1  0.171186  0.178387  0.433340  1
  Pr  Pr2  1  0.671587  0.323429  0.567146  1
  Pr  Pr3  1  0.826583  0.823879  0.930092  1
  Pr  Pr4  1  0.671587  0.323429  0.932854  1
  Pr  Pr5  1  0.826583  0.823879  0.569908  1
  Pr  Pr6  1  0.332152  0.673980  0.434367  1
  Pr  Pr7  1  0.171186  0.178387  0.066660  1
  Pr  Pr8  1  0.855423  0.537563  0.250000  1
  Pr  Pr9  1  0.642691  0.042235  0.250000  1
  Pr  Pr10  1  0.143763  0.461880  0.750000  1
  Pr  Pr11  1  0.353325  0.960768  0.750000  1
  Os  Os12  1  0.444055  0.383827  0.250000  1
  Os  Os13  1  0.553519  0.615987  0.750000  1
  Ru  Ru14  1  0.948077  0.114340  0.750000  1
  Rh  Rh15  1  0.056134  0.884050  0.250000  1
