# generated using pymatgen
data_Li4Y4Co7(Ni3P4)3
_symmetry_space_group_name_H-M   'P 1'
_cell_length_a   3.72850000
_cell_length_b   10.36070040
_cell_length_c   11.96615060
_cell_angle_alpha   90.13717979
_cell_angle_beta   90.00000000
_cell_angle_gamma   90.00000000
_symmetry_Int_Tables_number   1
_chemical_formula_structural   Li4Y4Co7(Ni3P4)3
_chemical_formula_sum   'Li4 Y4 Co7 Ni9 P12'
_cell_volume   462.24953451
_cell_formula_units_Z   1
loop_
 _symmetry_equiv_pos_site_id
 _symmetry_equiv_pos_as_xyz
  1  'x, y, z'
loop_
 _atom_site_type_symbol
 _atom_site_label
 _atom_site_symmetry_multiplicity
 _atom_site_fract_x
 _atom_site_fract_y
 _atom_site_fract_z
 _atom_site_occupancy
  Li  Li0  1  0.250000  0.798797  0.492805  1
  Li  Li1  1  0.750000  0.201291  0.507444  1
  Li  Li2  1  0.750000  0.297938  0.007290  1
  Li  Li3  1  0.250000  0.701999  0.992428  1
  Y  Y4  1  0.250000  0.920197  0.204867  1
  Y  Y5  1  0.750000  0.080450  0.795028  1
  Y  Y6  1  0.750000  0.419350  0.294992  1
  Y  Y7  1  0.250000  0.580948  0.704633  1
  Co  Co8  1  0.750000  0.378938  0.799347  1
  Co  Co9  1  0.750000  0.120452  0.299697  1
  Co  Co10  1  0.250000  0.879160  0.699935  1
  Co  Co11  1  0.250000  0.033689  0.432158  1
  Co  Co12  1  0.750000  0.966108  0.567720  1
  Co  Co13  1  0.750000  0.534033  0.068583  1
  Co  Co14  1  0.250000  0.466364  0.931883  1
  Ni  Ni15  1  0.250000  0.093482  0.988385  1
  Ni  Ni16  1  0.750000  0.906157  0.011476  1
  Ni  Ni17  1  0.750000  0.594487  0.511991  1
  Ni  Ni18  1  0.250000  0.404588  0.489049  1
  Ni  Ni19  1  0.250000  0.277455  0.673106  1
  Ni  Ni20  1  0.750000  0.723623  0.326530  1
  Ni  Ni21  1  0.750000  0.778108  0.826643  1
  Ni  Ni22  1  0.250000  0.221412  0.173289  1
  Ni  Ni23  1  0.250000  0.621128  0.200647  1
  P  P24  1  0.250000  0.071946  0.613555  1
  P  P25  1  0.750000  0.928073  0.386415  1
  P  P26  1  0.750000  0.572455  0.886787  1
  P  P27  1  0.250000  0.425598  0.112268  1
  P  P28  1  0.250000  0.225616  0.360140  1
  P  P29  1  0.750000  0.773993  0.640125  1
  P  P30  1  0.750000  0.729379  0.137880  1
  P  P31  1  0.250000  0.274104  0.859747  1
  P  P32  1  0.250000  0.900271  0.890298  1
  P  P33  1  0.750000  0.100049  0.109031  1
  P  P34  1  0.750000  0.399796  0.609615  1
  P  P35  1  0.250000  0.598567  0.394209  1
