# generated using pymatgen
data_PrAg4HgO8
_symmetry_space_group_name_H-M   'P 1'
_cell_length_a   6.73385423
_cell_length_b   6.73385318
_cell_length_c   6.73385541
_cell_angle_alpha   126.00273575
_cell_angle_beta   126.00273564
_cell_angle_gamma   79.88364383
_symmetry_Int_Tables_number   1
_chemical_formula_structural   PrAg4HgO8
_chemical_formula_sum   'Pr1 Ag4 Hg1 O8'
_cell_volume   192.98678741
_cell_formula_units_Z   1
loop_
 _symmetry_equiv_pos_site_id
 _symmetry_equiv_pos_as_xyz
  1  'x, y, z'
loop_
 _atom_site_type_symbol
 _atom_site_label
 _atom_site_symmetry_multiplicity
 _atom_site_fract_x
 _atom_site_fract_y
 _atom_site_fract_z
 _atom_site_occupancy
  Pr  Pr0  1  0.000000  0.000000  0.000000  1
  Ag  Ag1  1  0.376448  0.125593  0.754011  1
  Ag  Ag2  1  0.371582  0.622437  0.245989  1
  Ag  Ag3  1  0.874407  0.628418  0.250855  1
  Ag  Ag4  1  0.377563  0.623552  0.749145  1
  Hg  Hg5  1  0.750000  0.250000  0.500000  1
  O  O6  1  0.046992  0.998140  0.652027  1
  O  O7  1  0.605036  0.953008  0.951149  1
  O  O8  1  0.001860  0.653886  0.048851  1
  O  O9  1  0.399483  0.847847  0.143302  1
  O  O10  1  0.743818  0.600517  0.448363  1
  O  O11  1  0.152153  0.295455  0.551637  1
  O  O12  1  0.346114  0.394964  0.347973  1
  O  O13  1  0.704545  0.256182  0.856698  1
