# generated using pymatgen
data_LiV(Co2Si)2
_symmetry_space_group_name_H-M   'P 1'
_cell_length_a   6.81627309
_cell_length_b   6.81627358
_cell_length_c   6.81627248
_cell_angle_alpha   33.74419801
_cell_angle_beta   33.74419074
_cell_angle_gamma   33.74420367
_symmetry_Int_Tables_number   1
_chemical_formula_structural   LiV(Co2Si)2
_chemical_formula_sum   'Li1 V1 Co4 Si2'
_cell_volume   87.06908011
_cell_formula_units_Z   1
loop_
 _symmetry_equiv_pos_site_id
 _symmetry_equiv_pos_as_xyz
  1  'x, y, z'
loop_
 _atom_site_type_symbol
 _atom_site_label
 _atom_site_symmetry_multiplicity
 _atom_site_fract_x
 _atom_site_fract_y
 _atom_site_fract_z
 _atom_site_occupancy
  Li  Li0  1  0.000000  0.000000  0.000000  1
  V  V1  1  0.500000  0.500000  0.500000  1
  Co  Co2  1  0.623124  0.623124  0.623124  1
  Co  Co3  1  0.127875  0.127875  0.127875  1
  Co  Co4  1  0.872125  0.872125  0.872125  1
  Co  Co5  1  0.376876  0.376876  0.376876  1
  Si  Si6  1  0.253389  0.253389  0.253389  1
  Si  Si7  1  0.746611  0.746611  0.746611  1
