# generated using pymatgen
data_Dy3Tm13(AgRh)4
_symmetry_space_group_name_H-M   'P 1'
_cell_length_a   9.41301772
_cell_length_b   9.40759722
_cell_length_c   9.36909056
_cell_angle_alpha   60.17354966
_cell_angle_beta   60.11602347
_cell_angle_gamma   60.27453521
_symmetry_Int_Tables_number   1
_chemical_formula_structural   Dy3Tm13(AgRh)4
_chemical_formula_sum   'Dy3 Tm13 Ag4 Rh4'
_cell_volume   589.16061561
_cell_formula_units_Z   1
loop_
 _symmetry_equiv_pos_site_id
 _symmetry_equiv_pos_as_xyz
  1  'x, y, z'
loop_
 _atom_site_type_symbol
 _atom_site_label
 _atom_site_symmetry_multiplicity
 _atom_site_fract_x
 _atom_site_fract_y
 _atom_site_fract_z
 _atom_site_occupancy
  Dy  Dy0  1  0.064377  0.064377  0.435623  1
  Dy  Dy1  1  0.435407  0.066087  0.434902  1
  Dy  Dy2  1  0.066087  0.435407  0.063604  1
  Tm  Tm3  1  0.058240  0.646818  0.647136  1
  Tm  Tm4  1  0.435432  0.435432  0.064568  1
  Tm  Tm5  1  0.646818  0.058240  0.647808  1
  Tm  Tm6  1  0.187547  0.812752  0.186923  1
  Tm  Tm7  1  0.187396  0.187396  0.812604  1
  Tm  Tm8  1  0.813492  0.813492  0.186508  1
  Tm  Tm9  1  0.436248  0.064742  0.063507  1
  Tm  Tm10  1  0.813369  0.186957  0.186352  1
  Tm  Tm11  1  0.064742  0.436248  0.435502  1
  Tm  Tm12  1  0.812752  0.187547  0.812777  1
  Tm  Tm13  1  0.186957  0.813369  0.813322  1
  Tm  Tm14  1  0.646123  0.646533  0.060614  1
  Tm  Tm15  1  0.646533  0.646123  0.646731  1
  Ag  Ag16  1  0.417681  0.417453  0.417509  1
  Ag  Ag17  1  0.746460  0.417871  0.418062  1
  Ag  Ag18  1  0.417871  0.746460  0.417604  1
  Ag  Ag19  1  0.417453  0.417681  0.747355  1
  Rh  Rh20  1  0.856849  0.855139  0.431056  1
  Rh  Rh21  1  0.855139  0.856849  0.856957  1
  Rh  Rh22  1  0.431184  0.855843  0.856888  1
  Rh  Rh23  1  0.855843  0.431184  0.856086  1
