# generated using pymatgen
data_Tb2HoTm3(Co3P2)6
_symmetry_space_group_name_H-M   'P 1'
_cell_length_a   3.68235800
_cell_length_b   10.49460705
_cell_length_c   12.14701706
_cell_angle_alpha   90.01130068
_cell_angle_beta   90.00000000
_cell_angle_gamma   90.00000000
_symmetry_Int_Tables_number   1
_chemical_formula_structural   Tb2HoTm3(Co3P2)6
_chemical_formula_sum   'Tb2 Ho1 Tm3 Co18 P12'
_cell_volume   469.42025322
_cell_formula_units_Z   1
loop_
 _symmetry_equiv_pos_site_id
 _symmetry_equiv_pos_as_xyz
  1  'x, y, z'
loop_
 _atom_site_type_symbol
 _atom_site_label
 _atom_site_symmetry_multiplicity
 _atom_site_fract_x
 _atom_site_fract_y
 _atom_site_fract_z
 _atom_site_occupancy
  Tb  Tb0  1  0.000000  0.500034  0.522368  1
  Tb  Tb1  1  0.500000  0.000063  0.478078  1
  Ho  Ho2  1  0.500000  0.817801  0.205709  1
  Tm  Tm3  1  0.500000  0.182339  0.205547  1
  Tm  Tm4  1  0.000000  0.682004  0.794398  1
  Tm  Tm5  1  0.000000  0.317952  0.794142  1
  Co  Co6  1  0.500000  0.499886  0.158470  1
  Co  Co7  1  0.000000  0.000214  0.841506  1
  Co  Co8  1  0.500000  0.499839  0.704663  1
  Co  Co9  1  0.000000  0.000674  0.295454  1
  Co  Co10  1  0.000000  0.499613  0.985805  1
  Co  Co11  1  0.500000  0.000350  0.013304  1
  Co  Co12  1  0.500000  0.333181  0.994523  1
  Co  Co13  1  0.500000  0.666370  0.994243  1
  Co  Co14  1  0.000000  0.167221  0.005108  1
  Co  Co15  1  0.000000  0.833200  0.004893  1
  Co  Co16  1  0.500000  0.297271  0.430053  1
  Co  Co17  1  0.500000  0.702723  0.430702  1
  Co  Co18  1  0.000000  0.202857  0.569980  1
  Co  Co19  1  0.000000  0.797232  0.570492  1
  Co  Co20  1  0.500000  0.878615  0.710854  1
  Co  Co21  1  0.500000  0.121355  0.710543  1
  Co  Co22  1  0.000000  0.620816  0.289837  1
  Co  Co23  1  0.000000  0.378564  0.289291  1
  P  P24  1  0.500000  0.499740  0.882281  1
  P  P25  1  0.000000  0.000616  0.117050  1
  P  P26  1  0.500000  0.500062  0.343460  1
  P  P27  1  0.000000  0.999976  0.656688  1
  P  P28  1  0.500000  0.310516  0.617033  1
  P  P29  1  0.500000  0.689350  0.617443  1
  P  P30  1  0.000000  0.189643  0.382956  1
  P  P31  1  0.000000  0.810497  0.383820  1
  P  P32  1  0.500000  0.846365  0.892722  1
  P  P33  1  0.500000  0.153772  0.892401  1
  P  P34  1  0.000000  0.652639  0.106922  1
  P  P35  1  0.000000  0.346647  0.107262  1
