# generated using pymatgen
data_Tb5Ho5AlSb5
_symmetry_space_group_name_H-M   'P 1'
_cell_length_a   8.94107300
_cell_length_b   8.93478201
_cell_length_c   6.38476700
_cell_angle_alpha   90.00000000
_cell_angle_beta   90.00000000
_cell_angle_gamma   120.02329793
_symmetry_Int_Tables_number   1
_chemical_formula_structural   Tb5Ho5AlSb5
_chemical_formula_sum   'Tb5 Ho5 Al1 Sb5'
_cell_volume   441.61852339
_cell_formula_units_Z   1
loop_
 _symmetry_equiv_pos_site_id
 _symmetry_equiv_pos_as_xyz
  1  'x, y, z'
loop_
 _atom_site_type_symbol
 _atom_site_label
 _atom_site_symmetry_multiplicity
 _atom_site_fract_x
 _atom_site_fract_y
 _atom_site_fract_z
 _atom_site_occupancy
  Tb  Tb0  1  0.752160  0.000000  0.750000  1
  Tb  Tb1  1  0.754693  0.755750  0.250000  1
  Tb  Tb2  1  0.998942  0.244250  0.250000  1
  Tb  Tb3  1  0.009465  0.762759  0.750000  1
  Tb  Tb4  1  0.246706  0.237241  0.750000  1
  Ho  Ho5  1  0.334597  0.673374  0.999083  1
  Ho  Ho6  1  0.661224  0.326626  0.500917  1
  Ho  Ho7  1  0.661224  0.326626  0.999083  1
  Ho  Ho8  1  0.334597  0.673374  0.500917  1
  Ho  Ho9  1  0.242868  0.000000  0.250000  1
  Al  Al10  1  0.396993  0.000000  0.750000  1
  Sb  Sb11  1  0.389596  0.391747  0.250000  1
  Sb  Sb12  1  0.997849  0.608253  0.250000  1
  Sb  Sb13  1  0.001964  0.390825  0.750000  1
  Sb  Sb14  1  0.611139  0.609175  0.750000  1
  Sb  Sb15  1  0.605981  0.000000  0.250000  1
