# generated using pymatgen
data_Tm4Al2Ga2Ir3Pt
_symmetry_space_group_name_H-M   'P 1'
_cell_length_a   4.26590200
_cell_length_b   6.76916612
_cell_length_c   7.84510538
_cell_angle_alpha   89.86237585
_cell_angle_beta   90.00000000
_cell_angle_gamma   90.00000000
_symmetry_Int_Tables_number   1
_chemical_formula_structural   Tm4Al2Ga2Ir3Pt
_chemical_formula_sum   'Tm4 Al2 Ga2 Ir3 Pt1'
_cell_volume   226.53931107
_cell_formula_units_Z   1
loop_
 _symmetry_equiv_pos_site_id
 _symmetry_equiv_pos_as_xyz
  1  'x, y, z'
loop_
 _atom_site_type_symbol
 _atom_site_label
 _atom_site_symmetry_multiplicity
 _atom_site_fract_x
 _atom_site_fract_y
 _atom_site_fract_z
 _atom_site_occupancy
  Tm  Tm0  1  0.250000  0.029351  0.680319  1
  Tm  Tm1  1  0.250000  0.533732  0.821194  1
  Tm  Tm2  1  0.750000  0.968498  0.317820  1
  Tm  Tm3  1  0.750000  0.472756  0.180275  1
  Al  Al4  1  0.250000  0.640066  0.438628  1
  Al  Al5  1  0.750000  0.361070  0.559078  1
  Ga  Ga6  1  0.250000  0.144391  0.065303  1
  Ga  Ga7  1  0.750000  0.850755  0.937143  1
  Ir  Ir8  1  0.250000  0.265841  0.382817  1
  Ir  Ir9  1  0.250000  0.762591  0.124094  1
  Ir  Ir10  1  0.750000  0.734599  0.618815  1
  Pt  Pt11  1  0.750000  0.236348  0.874512  1
