# generated using pymatgen
data_SrAc3Si8
_symmetry_space_group_name_H-M   'P 1'
_cell_length_a   4.43900200
_cell_length_b   4.43900200
_cell_length_c   14.39286500
_cell_angle_alpha   90.00000000
_cell_angle_beta   90.00000000
_cell_angle_gamma   90.00000000
_symmetry_Int_Tables_number   1
_chemical_formula_structural   SrAc3Si8
_chemical_formula_sum   'Sr1 Ac3 Si8'
_cell_volume   283.60764478
_cell_formula_units_Z   1
loop_
 _symmetry_equiv_pos_site_id
 _symmetry_equiv_pos_as_xyz
  1  'x, y, z'
loop_
 _atom_site_type_symbol
 _atom_site_label
 _atom_site_symmetry_multiplicity
 _atom_site_fract_x
 _atom_site_fract_y
 _atom_site_fract_z
 _atom_site_occupancy
  Sr  Sr0  1  0.500000  0.500000  0.000000  1
  Ac  Ac1  1  0.000000  0.000000  0.500000  1
  Ac  Ac2  1  0.500000  0.000000  0.750743  1
  Ac  Ac3  1  0.000000  0.500000  0.249257  1
  Si  Si4  1  0.000000  0.000000  0.917392  1
  Si  Si5  1  0.500000  0.500000  0.416060  1
  Si  Si6  1  0.000000  0.500000  0.834310  1
  Si  Si7  1  0.500000  0.000000  0.332071  1
  Si  Si8  1  0.000000  0.000000  0.082608  1
  Si  Si9  1  0.500000  0.500000  0.583940  1
  Si  Si10  1  0.500000  0.000000  0.165690  1
  Si  Si11  1  0.000000  0.500000  0.667929  1
