# generated using pymatgen
data_Tb2Y14MgHg3Pt4
_symmetry_space_group_name_H-M   'P 1'
_cell_length_a   9.71298596
_cell_length_b   9.73158959
_cell_length_c   9.73221700
_cell_angle_alpha   59.99787068
_cell_angle_beta   59.93448619
_cell_angle_gamma   59.97610613
_symmetry_Int_Tables_number   1
_chemical_formula_structural   Tb2Y14MgHg3Pt4
_chemical_formula_sum   'Tb2 Y14 Mg1 Hg3 Pt4'
_cell_volume   650.02858513
_cell_formula_units_Z   1
loop_
 _symmetry_equiv_pos_site_id
 _symmetry_equiv_pos_as_xyz
  1  'x, y, z'
loop_
 _atom_site_type_symbol
 _atom_site_label
 _atom_site_symmetry_multiplicity
 _atom_site_fract_x
 _atom_site_fract_y
 _atom_site_fract_z
 _atom_site_occupancy
  Tb  Tb0  1  0.602677  0.601523  0.599649  1
  Tb  Tb1  1  0.602677  0.601523  0.196152  1
  Y  Y2  1  0.605794  0.189654  0.602276  1
  Y  Y3  1  0.179938  0.608137  0.605963  1
  Y  Y4  1  0.058826  0.441375  0.441437  1
  Y  Y5  1  0.437340  0.062188  0.060914  1
  Y  Y6  1  0.437340  0.062188  0.439558  1
  Y  Y7  1  0.058826  0.441375  0.058362  1
  Y  Y8  1  0.438244  0.440277  0.060740  1
  Y  Y9  1  0.058791  0.059510  0.440850  1
  Y  Y10  1  0.185156  0.813861  0.814587  1
  Y  Y11  1  0.812471  0.187034  0.185693  1
  Y  Y12  1  0.812471  0.187034  0.814802  1
  Y  Y13  1  0.185156  0.813861  0.186396  1
  Y  Y14  1  0.813427  0.814494  0.186040  1
  Y  Y15  1  0.185168  0.187504  0.813664  1
  Mg  Mg16  1  0.534027  0.820873  0.822549  1
  Hg  Hg17  1  0.832849  0.838200  0.838651  1
  Hg  Hg18  1  0.832849  0.838200  0.490300  1
  Hg  Hg19  1  0.832627  0.489623  0.838875  1
  Pt  Pt20  1  0.391591  0.394744  0.396473  1
  Pt  Pt21  1  0.391591  0.394744  0.817194  1
  Pt  Pt22  1  0.390722  0.818948  0.395166  1
  Pt  Pt23  1  0.819446  0.393133  0.393711  1
