# generated using pymatgen
data_Tb2YSi2(PPd5)4
_symmetry_space_group_name_H-M   'P 1'
_cell_length_a   8.71186147
_cell_length_b   8.69186672
_cell_length_c   8.69186622
_cell_angle_alpha   60.15225272
_cell_angle_beta   59.92387466
_cell_angle_gamma   59.92387769
_symmetry_Int_Tables_number   1
_chemical_formula_structural   Tb2YSi2(PPd5)4
_chemical_formula_sum   'Tb2 Y1 Si2 P4 Pd20'
_cell_volume   465.39044699
_cell_formula_units_Z   1
loop_
 _symmetry_equiv_pos_site_id
 _symmetry_equiv_pos_as_xyz
  1  'x, y, z'
loop_
 _atom_site_type_symbol
 _atom_site_label
 _atom_site_symmetry_multiplicity
 _atom_site_fract_x
 _atom_site_fract_y
 _atom_site_fract_z
 _atom_site_occupancy
  Tb  Tb0  1  0.250000  0.250000  0.250000  1
  Tb  Tb1  1  0.750000  0.750000  0.750000  1
  Y  Y2  1  0.000000  0.000000  0.000000  1
  Si  Si3  1  0.734666  0.265334  0.265334  1
  Si  Si4  1  0.265334  0.734666  0.734666  1
  P  P5  1  0.264059  0.735941  0.264059  1
  P  P6  1  0.735941  0.264059  0.735941  1
  P  P7  1  0.264059  0.264059  0.735941  1
  P  P8  1  0.735941  0.735941  0.264059  1
  Pd  Pd9  1  0.383573  0.385069  0.385069  1
  Pd  Pd10  1  0.616427  0.614931  0.614931  1
  Pd  Pd11  1  0.385069  0.383573  0.846290  1
  Pd  Pd12  1  0.385069  0.846290  0.383573  1
  Pd  Pd13  1  0.614931  0.616427  0.153710  1
  Pd  Pd14  1  0.614931  0.153710  0.616427  1
  Pd  Pd15  1  0.846290  0.385069  0.385069  1
  Pd  Pd16  1  0.153710  0.614931  0.614931  1
  Pd  Pd17  1  0.344171  0.000000  0.000000  1
  Pd  Pd18  1  0.655829  0.000000  0.000000  1
  Pd  Pd19  1  0.000000  0.344171  0.655829  1
  Pd  Pd20  1  0.000000  0.655829  0.344171  1
  Pd  Pd21  1  0.000595  0.346256  0.999405  1
  Pd  Pd22  1  0.653744  0.999405  0.346256  1
  Pd  Pd23  1  0.999405  0.653744  0.000595  1
  Pd  Pd24  1  0.346256  0.000595  0.653744  1
  Pd  Pd25  1  0.000595  0.999405  0.346256  1
  Pd  Pd26  1  0.999405  0.000595  0.653744  1
  Pd  Pd27  1  0.653744  0.346256  0.999405  1
  Pd  Pd28  1  0.346256  0.653744  0.000595  1
