# generated using pymatgen
data_Zr10Ga4As2O
_symmetry_space_group_name_H-M   'P 1'
_cell_length_a   8.11119135
_cell_length_b   8.07992164
_cell_length_c   5.64831390
_cell_angle_alpha   90.15876093
_cell_angle_beta   89.68370104
_cell_angle_gamma   120.12810717
_symmetry_Int_Tables_number   1
_chemical_formula_structural   Zr10Ga4As2O
_chemical_formula_sum   'Zr10 Ga4 As2 O1'
_cell_volume   320.16404473
_cell_formula_units_Z   1
loop_
 _symmetry_equiv_pos_site_id
 _symmetry_equiv_pos_as_xyz
  1  'x, y, z'
loop_
 _atom_site_type_symbol
 _atom_site_label
 _atom_site_symmetry_multiplicity
 _atom_site_fract_x
 _atom_site_fract_y
 _atom_site_fract_z
 _atom_site_occupancy
  Zr  Zr0  1  0.999227  0.758179  0.255109  1
  Zr  Zr1  1  0.241048  0.241821  0.255109  1
  Zr  Zr2  1  0.759529  0.000000  0.252639  1
  Zr  Zr3  1  0.000170  0.242003  0.746259  1
  Zr  Zr4  1  0.758167  0.757997  0.746259  1
  Zr  Zr5  1  0.239046  0.000000  0.748168  1
  Zr  Zr6  1  0.334322  0.665222  0.500513  1
  Zr  Zr7  1  0.669101  0.334778  0.500513  1
  Zr  Zr8  1  0.668484  0.335161  0.999867  1
  Zr  Zr9  1  0.333322  0.664839  0.999867  1
  Ga  Ga10  1  0.395087  0.000000  0.247161  1
  Ga  Ga11  1  0.001232  0.606692  0.753048  1
  Ga  Ga12  1  0.394540  0.393308  0.753048  1
  Ga  Ga13  1  0.603073  0.000000  0.754303  1
  As  As14  1  0.999910  0.393916  0.244810  1
  As  As15  1  0.605994  0.606084  0.244810  1
  O  O16  1  0.997747  0.000000  0.498514  1
