# generated using pymatgen
data_Tm4Al18ReNi3Rh2
_symmetry_space_group_name_H-M   'P 1'
_cell_length_a   7.51213456
_cell_length_b   7.51212946
_cell_length_c   9.36014613
_cell_angle_alpha   90.04003126
_cell_angle_beta   90.04007051
_cell_angle_gamma   120.06614555
_symmetry_Int_Tables_number   1
_chemical_formula_structural   Tm4Al18ReNi3Rh2
_chemical_formula_sum   'Tm4 Al18 Re1 Ni3 Rh2'
_cell_volume   457.14018835
_cell_formula_units_Z   1
loop_
 _symmetry_equiv_pos_site_id
 _symmetry_equiv_pos_as_xyz
  1  'x, y, z'
loop_
 _atom_site_type_symbol
 _atom_site_label
 _atom_site_symmetry_multiplicity
 _atom_site_fract_x
 _atom_site_fract_y
 _atom_site_fract_z
 _atom_site_occupancy
  Tm  Tm0  1  0.000223  0.670045  0.247087  1
  Tm  Tm1  1  0.011192  0.338898  0.753750  1
  Tm  Tm2  1  0.661101  0.988808  0.246250  1
  Tm  Tm3  1  0.329955  0.999776  0.752913  1
  Al  Al4  1  0.118892  0.118250  0.250103  1
  Al  Al5  1  0.881750  0.881108  0.749897  1
  Al  Al6  1  0.994673  0.331439  0.074441  1
  Al  Al7  1  0.993532  0.667076  0.925730  1
  Al  Al8  1  0.000161  0.667690  0.574016  1
  Al  Al9  1  0.332310  0.999839  0.425984  1
  Al  Al10  1  0.997466  0.328642  0.425127  1
  Al  Al11  1  0.671358  0.002534  0.574873  1
  Al  Al12  1  0.668561  0.005327  0.925559  1
  Al  Al13  1  0.332924  0.006468  0.074270  1
  Al  Al14  1  0.330514  0.328593  0.550490  1
  Al  Al15  1  0.671407  0.669486  0.449510  1
  Al  Al16  1  0.667255  0.668700  0.048735  1
  Al  Al17  1  0.331300  0.332745  0.951265  1
  Al  Al18  1  0.337709  0.543700  0.250914  1
  Al  Al19  1  0.662682  0.447793  0.752513  1
  Al  Al20  1  0.552207  0.337318  0.247487  1
  Al  Al21  1  0.456300  0.662291  0.749086  1
  Re  Re22  1  0.325192  0.674808  0.000000  1
  Ni  Ni23  1  0.670520  0.329479  0.000000  1
  Ni  Ni24  1  0.999426  0.000574  0.000000  1
  Ni  Ni25  1  0.000883  0.999119  0.500000  1
  Rh  Rh26  1  0.328120  0.671881  0.500000  1
  Rh  Rh27  1  0.672387  0.327614  0.500000  1
