# generated using pymatgen
data_Sr2Tb3Si12Ir19
_symmetry_space_group_name_H-M   'P 1'
_cell_length_a   12.89797630
_cell_length_b   12.91130960
_cell_length_c   4.02570400
_cell_angle_alpha   90.00000000
_cell_angle_beta   90.00000000
_cell_angle_gamma   120.03420174
_symmetry_Int_Tables_number   1
_chemical_formula_structural   Sr2Tb3Si12Ir19
_chemical_formula_sum   'Sr2 Tb3 Si12 Ir19'
_cell_volume   580.38283891
_cell_formula_units_Z   1
loop_
 _symmetry_equiv_pos_site_id
 _symmetry_equiv_pos_as_xyz
  1  'x, y, z'
loop_
 _atom_site_type_symbol
 _atom_site_label
 _atom_site_symmetry_multiplicity
 _atom_site_fract_x
 _atom_site_fract_y
 _atom_site_fract_z
 _atom_site_occupancy
  Sr  Sr0  1  0.184029  0.183748  0.500000  1
  Sr  Sr1  1  0.815971  0.999719  0.500000  1
  Tb  Tb2  1  0.000000  0.816912  0.500000  1
  Tb  Tb3  1  0.333071  0.667263  0.000000  1
  Tb  Tb4  1  0.666929  0.334191  0.000000  1
  Si  Si5  1  0.000000  0.185583  0.000000  1
  Si  Si6  1  0.815643  0.814064  0.000000  1
  Si  Si7  1  0.184357  0.998421  0.000000  1
  Si  Si8  1  0.520375  0.689483  0.500000  1
  Si  Si9  1  0.311234  0.830438  0.500000  1
  Si  Si10  1  0.169661  0.481220  0.500000  1
  Si  Si11  1  0.479625  0.169108  0.500000  1
  Si  Si12  1  0.688766  0.519203  0.500000  1
  Si  Si13  1  0.830339  0.311559  0.500000  1
  Si  Si14  1  0.000000  0.631538  0.000000  1
  Si  Si15  1  0.370655  0.370557  0.000000  1
  Si  Si16  1  0.629345  0.999902  0.000000  1
  Ir  Ir17  1  0.000000  0.286735  0.500000  1
  Ir  Ir18  1  0.715591  0.713455  0.500000  1
  Ir  Ir19  1  0.284409  0.997864  0.500000  1
  Ir  Ir20  1  0.618421  0.801906  0.000000  1
  Ir  Ir21  1  0.193971  0.815731  0.000000  1
  Ir  Ir22  1  0.184767  0.382923  0.000000  1
  Ir  Ir23  1  0.381579  0.183485  0.000000  1
  Ir  Ir24  1  0.806029  0.621759  0.000000  1
  Ir  Ir25  1  0.815233  0.198157  0.000000  1
  Ir  Ir26  1  0.510946  0.873450  0.500000  1
  Ir  Ir27  1  0.126498  0.638100  0.500000  1
  Ir  Ir28  1  0.363659  0.490065  0.500000  1
  Ir  Ir29  1  0.489054  0.362504  0.500000  1
  Ir  Ir30  1  0.873502  0.511603  0.500000  1
  Ir  Ir31  1  0.636341  0.126406  0.500000  1
  Ir  Ir32  1  0.000000  0.995029  0.000000  1
  Ir  Ir33  1  0.000000  0.448857  0.000000  1
  Ir  Ir34  1  0.553996  0.551527  0.000000  1
  Ir  Ir35  1  0.446004  0.997532  0.000000  1
