# generated using pymatgen
data_HoSc3Cr6O24
_symmetry_space_group_name_H-M   'P 1'
_cell_length_a   9.71394708
_cell_length_b   9.71419885
_cell_length_c   9.71355546
_cell_angle_alpha   58.12219269
_cell_angle_beta   58.11867559
_cell_angle_gamma   58.11237694
_symmetry_Int_Tables_number   1
_chemical_formula_structural   HoSc3Cr6O24
_chemical_formula_sum   'Ho1 Sc3 Cr6 O24'
_cell_volume   620.16917393
_cell_formula_units_Z   1
loop_
 _symmetry_equiv_pos_site_id
 _symmetry_equiv_pos_as_xyz
  1  'x, y, z'
loop_
 _atom_site_type_symbol
 _atom_site_label
 _atom_site_symmetry_multiplicity
 _atom_site_fract_x
 _atom_site_fract_y
 _atom_site_fract_z
 _atom_site_occupancy
  Ho  Ho0  1  0.859877  0.859865  0.859901  1
  Sc  Sc1  1  0.643107  0.643137  0.643135  1
  Sc  Sc2  1  0.358709  0.358695  0.358694  1
  Sc  Sc3  1  0.142479  0.142464  0.142480  1
  Cr  Cr4  1  0.752275  0.034235  0.459363  1
  Cr  Cr5  1  0.965443  0.523850  0.262505  1
  Cr  Cr6  1  0.523853  0.262524  0.965403  1
  Cr  Cr7  1  0.459443  0.752166  0.034283  1
  Cr  Cr8  1  0.034340  0.459339  0.752233  1
  Cr  Cr9  1  0.262370  0.965622  0.523914  1
  O  O10  1  0.929574  0.059389  0.288961  1
  O  O11  1  0.771466  0.009784  0.631208  1
  O  O12  1  0.997644  0.355083  0.231062  1
  O  O13  1  0.700821  0.091167  0.937596  1
  O  O14  1  0.581513  0.209413  0.423135  1
  O  O15  1  0.859833  0.496715  0.726806  1
  O  O16  1  0.491491  0.289710  0.135935  1
  O  O17  1  0.791087  0.552469  0.436102  1
  O  O18  1  0.937615  0.700799  0.091188  1
  O  O19  1  0.552425  0.436120  0.791089  1
  O  O20  1  0.355060  0.231056  0.997668  1
  O  O21  1  0.289571  0.136139  0.491512  1
  O  O22  1  0.726922  0.859688  0.496720  1
  O  O23  1  0.631277  0.771332  0.009836  1
  O  O24  1  0.423149  0.581465  0.209467  1
  O  O25  1  0.059529  0.288943  0.929524  1
  O  O26  1  0.209534  0.423178  0.581464  1
  O  O27  1  0.496754  0.726817  0.859734  1
  O  O28  1  0.135961  0.491476  0.289718  1
  O  O29  1  0.435978  0.791214  0.552536  1
  O  O30  1  0.289045  0.929490  0.059433  1
  O  O31  1  0.009861  0.631208  0.771375  1
  O  O32  1  0.230922  0.997715  0.355162  1
  O  O33  1  0.091073  0.937732  0.700858  1
