# generated using pymatgen
data_Y7Ho3(Tl3Cl)2
_symmetry_space_group_name_H-M   'P 1'
_cell_length_a   9.21673500
_cell_length_b   9.21673419
_cell_length_c   6.62777400
_cell_angle_alpha   90.00000000
_cell_angle_beta   90.00000000
_cell_angle_gamma   119.99999933
_symmetry_Int_Tables_number   1
_chemical_formula_structural   Y7Ho3(Tl3Cl)2
_chemical_formula_sum   'Y7 Ho3 Tl6 Cl2'
_cell_volume   487.58741653
_cell_formula_units_Z   1
loop_
 _symmetry_equiv_pos_site_id
 _symmetry_equiv_pos_as_xyz
  1  'x, y, z'
loop_
 _atom_site_type_symbol
 _atom_site_label
 _atom_site_symmetry_multiplicity
 _atom_site_fract_x
 _atom_site_fract_y
 _atom_site_fract_z
 _atom_site_occupancy
  Y  Y0  1  0.260000  0.000065  0.750087  1
  Y  Y1  1  0.740065  0.000065  0.249913  1
  Y  Y2  1  0.999935  0.259935  0.750087  1
  Y  Y3  1  0.999935  0.740000  0.249913  1
  Y  Y4  1  0.740065  0.740000  0.750087  1
  Y  Y5  1  0.260000  0.259935  0.249913  1
  Y  Y6  1  0.333333  0.666667  0.500000  1
  Ho  Ho7  1  0.666667  0.333333  0.500000  1
  Ho  Ho8  1  0.666667  0.333333  0.000000  1
  Ho  Ho9  1  0.333333  0.666667  0.000000  1
  Tl  Tl10  1  0.607986  0.000352  0.750486  1
  Tl  Tl11  1  0.392365  0.000352  0.249514  1
  Tl  Tl12  1  0.999648  0.607635  0.750486  1
  Tl  Tl13  1  0.999648  0.392014  0.249514  1
  Tl  Tl14  1  0.392365  0.392014  0.750486  1
  Tl  Tl15  1  0.607986  0.607635  0.249514  1
  Cl  Cl16  1  0.000000  0.000000  0.500000  1
  Cl  Cl17  1  0.000000  0.000000  0.000000  1
