# generated using pymatgen
data_Y3Mg2AlSi2Pt
_symmetry_space_group_name_H-M   'P 1'
_cell_length_a   7.14803082
_cell_length_b   7.07357282
_cell_length_c   4.26933700
_cell_angle_alpha   90.00000000
_cell_angle_beta   90.00000000
_cell_angle_gamma   119.65601248
_symmetry_Int_Tables_number   1
_chemical_formula_structural   Y3Mg2AlSi2Pt
_chemical_formula_sum   'Y3 Mg2 Al1 Si2 Pt1'
_cell_volume   187.59068709
_cell_formula_units_Z   1
loop_
 _symmetry_equiv_pos_site_id
 _symmetry_equiv_pos_as_xyz
  1  'x, y, z'
loop_
 _atom_site_type_symbol
 _atom_site_label
 _atom_site_symmetry_multiplicity
 _atom_site_fract_x
 _atom_site_fract_y
 _atom_site_fract_z
 _atom_site_occupancy
  Y  Y0  1  0.414951  0.999934  0.000000  1
  Y  Y1  1  0.000000  0.417901  0.000000  1
  Y  Y2  1  0.585050  0.584983  0.000000  1
  Mg  Mg3  1  0.760713  0.999184  0.500000  1
  Mg  Mg4  1  0.239286  0.238470  0.500000  1
  Al  Al5  1  0.000000  0.761064  0.500000  1
  Si  Si6  1  0.675306  0.344651  0.500000  1
  Si  Si7  1  0.324694  0.669345  0.500000  1
  Pt  Pt8  1  0.000000  0.984466  0.000000  1
