# generated using pymatgen
data_LaTb3(OsO4)4
_symmetry_space_group_name_H-M   'P 1'
_cell_length_a   5.43835754
_cell_length_b   7.73978920
_cell_length_c   7.50831013
_cell_angle_alpha   79.24294354
_cell_angle_beta   91.01497944
_cell_angle_gamma   93.79983816
_symmetry_Int_Tables_number   1
_chemical_formula_structural   LaTb3(OsO4)4
_chemical_formula_sum   'La1 Tb3 Os4 O16'
_cell_volume   309.79708847
_cell_formula_units_Z   1
loop_
 _symmetry_equiv_pos_site_id
 _symmetry_equiv_pos_as_xyz
  1  'x, y, z'
loop_
 _atom_site_type_symbol
 _atom_site_label
 _atom_site_symmetry_multiplicity
 _atom_site_fract_x
 _atom_site_fract_y
 _atom_site_fract_z
 _atom_site_occupancy
  La  La0  1  0.259429  0.629781  0.604370  1
  Tb  Tb1  1  0.189567  0.668282  0.100582  1
  Tb  Tb2  1  0.803920  0.323631  0.899573  1
  Tb  Tb3  1  0.735312  0.377925  0.388718  1
  Os  Os4  1  0.756802  0.839026  0.794516  1
  Os  Os5  1  0.715553  0.835832  0.293977  1
  Os  Os6  1  0.284953  0.164347  0.701107  1
  Os  Os7  1  0.245293  0.162114  0.205953  1
  O  O8  1  0.059231  0.966278  0.716411  1
  O  O9  1  0.403142  0.938141  0.207019  1
  O  O10  1  0.646371  0.831811  0.548637  1
  O  O11  1  0.842609  0.832633  0.051708  1
  O  O12  1  0.456112  0.707573  0.874039  1
  O  O13  1  0.939740  0.611959  0.833951  1
  O  O14  1  0.965945  0.656317  0.368591  1
  O  O15  1  0.494776  0.610647  0.314447  1
  O  O16  1  0.509174  0.386336  0.677116  1
  O  O17  1  0.017919  0.329903  0.620874  1
  O  O18  1  0.052317  0.383892  0.176365  1
  O  O19  1  0.549314  0.296526  0.132877  1
  O  O20  1  0.160615  0.177636  0.947662  1
  O  O21  1  0.374128  0.174078  0.449607  1
  O  O22  1  0.592590  0.060806  0.798924  1
  O  O23  1  0.945187  0.034525  0.292975  1
