# generated using pymatgen
data_Ho12Fe(TcPb)2
_symmetry_space_group_name_H-M   'P 1'
_cell_length_a   8.38892354
_cell_length_b   8.38892457
_cell_length_c   8.38892400
_cell_angle_alpha   108.72181200
_cell_angle_beta   108.72181439
_cell_angle_gamma   110.98066272
_symmetry_Int_Tables_number   1
_chemical_formula_structural   Ho12Fe(TcPb)2
_chemical_formula_sum   'Ho12 Fe1 Tc2 Pb2'
_cell_volume   454.22401623
_cell_formula_units_Z   1
loop_
 _symmetry_equiv_pos_site_id
 _symmetry_equiv_pos_as_xyz
  1  'x, y, z'
loop_
 _atom_site_type_symbol
 _atom_site_label
 _atom_site_symmetry_multiplicity
 _atom_site_fract_x
 _atom_site_fract_y
 _atom_site_fract_z
 _atom_site_occupancy
  Ho  Ho0  1  0.303655  0.303655  0.610274  1
  Ho  Ho1  1  0.693379  0.693379  0.389726  1
  Ho  Ho2  1  0.693379  0.303655  0.000000  1
  Ho  Ho3  1  0.303655  0.693379  0.000000  1
  Ho  Ho4  1  0.191629  0.430005  0.238375  1
  Ho  Ho5  1  0.805569  0.570045  0.764475  1
  Ho  Ho6  1  0.191629  0.953252  0.761625  1
  Ho  Ho7  1  0.953252  0.191629  0.761625  1
  Ho  Ho8  1  0.805569  0.041095  0.235525  1
  Ho  Ho9  1  0.041095  0.805569  0.235525  1
  Ho  Ho10  1  0.430005  0.191629  0.238375  1
  Ho  Ho11  1  0.570045  0.805569  0.764475  1
  Fe  Fe12  1  0.629352  0.629352  0.000000  1
  Tc  Tc13  1  0.391285  0.391285  0.000000  1
  Tc  Tc14  1  0.001005  0.001005  0.000000  1
  Pb  Pb15  1  0.997748  0.497748  0.500000  1
  Pb  Pb16  1  0.497748  0.997748  0.500000  1
