# generated using pymatgen
data_Sr20Cd5Pd7
_symmetry_space_group_name_H-M   'P 1'
_cell_length_a   8.35791400
_cell_length_b   8.35798002
_cell_length_c   15.66141600
_cell_angle_alpha   90.00033591
_cell_angle_beta   90.00086376
_cell_angle_gamma   90.38123522
_symmetry_Int_Tables_number   1
_chemical_formula_structural   Sr20Cd5Pd7
_chemical_formula_sum   'Sr20 Cd5 Pd7'
_cell_volume   1094.00835349
_cell_formula_units_Z   1
loop_
 _symmetry_equiv_pos_site_id
 _symmetry_equiv_pos_as_xyz
  1  'x, y, z'
loop_
 _atom_site_type_symbol
 _atom_site_label
 _atom_site_symmetry_multiplicity
 _atom_site_fract_x
 _atom_site_fract_y
 _atom_site_fract_z
 _atom_site_occupancy
  Sr  Sr0  1  0.670867  0.178924  0.109852  1
  Sr  Sr1  1  0.165595  0.665621  0.618403  1
  Sr  Sr2  1  0.320633  0.829675  0.109939  1
  Sr  Sr3  1  0.833903  0.334819  0.618381  1
  Sr  Sr4  1  0.843530  0.656893  0.110730  1
  Sr  Sr5  1  0.333533  0.166957  0.617174  1
  Sr  Sr6  1  0.168030  0.331432  0.113899  1
  Sr  Sr7  1  0.665772  0.833760  0.616430  1
  Sr  Sr8  1  0.834606  0.334596  0.882093  1
  Sr  Sr9  1  0.320848  0.828888  0.389625  1
  Sr  Sr10  1  0.164972  0.665889  0.882117  1
  Sr  Sr11  1  0.670577  0.179572  0.389530  1
  Sr  Sr12  1  0.666086  0.834347  0.884205  1
  Sr  Sr13  1  0.168768  0.331751  0.385492  1
  Sr  Sr14  1  0.333189  0.166352  0.883435  1
  Sr  Sr15  1  0.843065  0.656533  0.388773  1
  Sr  Sr16  1  0.500193  0.500866  0.750890  1
  Sr  Sr17  1  0.008326  0.003259  0.249926  1
  Sr  Sr18  1  0.999166  0.999806  0.750108  1
  Sr  Sr19  1  0.496751  0.491667  0.249090  1
  Cd  Cd20  1  0.499671  0.502507  0.501400  1
  Cd  Cd21  1  0.499650  0.502597  0.998686  1
  Cd  Cd22  1  0.997479  0.000366  0.501339  1
  Cd  Cd23  1  0.618965  0.881020  0.249778  1
  Cd  Cd24  1  0.997422  0.000343  0.998590  1
  Pd  Pd25  1  0.625112  0.126047  0.750150  1
  Pd  Pd26  1  0.125906  0.624265  0.249883  1
  Pd  Pd27  1  0.875748  0.374087  0.249849  1
  Pd  Pd28  1  0.373941  0.874883  0.750152  1
  Pd  Pd29  1  0.872498  0.627501  0.750141  1
  Pd  Pd30  1  0.378265  0.121715  0.249806  1
  Pd  Pd31  1  0.126933  0.373060  0.750136  1
