# generated using pymatgen
data_Tb6Ti2Al22CoOs7
_symmetry_space_group_name_H-M   'P 1'
_cell_length_a   8.87184100
_cell_length_b   8.87184326
_cell_length_c   9.51630300
_cell_angle_alpha   90.00000000
_cell_angle_beta   90.00000000
_cell_angle_gamma   119.99999532
_symmetry_Int_Tables_number   1
_chemical_formula_structural   Tb6Ti2Al22CoOs7
_chemical_formula_sum   'Tb6 Ti2 Al22 Co1 Os7'
_cell_volume   648.67404906
_cell_formula_units_Z   1
loop_
 _symmetry_equiv_pos_site_id
 _symmetry_equiv_pos_as_xyz
  1  'x, y, z'
loop_
 _atom_site_type_symbol
 _atom_site_label
 _atom_site_symmetry_multiplicity
 _atom_site_fract_x
 _atom_site_fract_y
 _atom_site_fract_z
 _atom_site_occupancy
  Tb  Tb0  1  0.192940  0.385881  0.253585  1
  Tb  Tb1  1  0.807060  0.614119  0.746415  1
  Tb  Tb2  1  0.614119  0.807060  0.253585  1
  Tb  Tb3  1  0.385881  0.192940  0.746415  1
  Tb  Tb4  1  0.192940  0.807060  0.253585  1
  Tb  Tb5  1  0.807060  0.192940  0.746415  1
  Ti  Ti6  1  0.333333  0.666667  0.995058  1
  Ti  Ti7  1  0.666667  0.333333  0.004942  1
  Al  Al8  1  0.666667  0.333333  0.518755  1
  Al  Al9  1  0.333333  0.666667  0.481245  1
  Al  Al10  1  0.161965  0.323930  0.576534  1
  Al  Al11  1  0.838035  0.676070  0.423466  1
  Al  Al12  1  0.676070  0.838035  0.576534  1
  Al  Al13  1  0.843215  0.686431  0.074275  1
  Al  Al14  1  0.323930  0.161965  0.423466  1
  Al  Al15  1  0.156785  0.313569  0.925725  1
  Al  Al16  1  0.161965  0.838035  0.576534  1
  Al  Al17  1  0.313569  0.156785  0.074275  1
  Al  Al18  1  0.838035  0.161965  0.423466  1
  Al  Al19  1  0.686431  0.843215  0.925725  1
  Al  Al20  1  0.843215  0.156785  0.074275  1
  Al  Al21  1  0.156785  0.843215  0.925725  1
  Al  Al22  1  0.560258  0.120517  0.252415  1
  Al  Al23  1  0.439742  0.879483  0.747585  1
  Al  Al24  1  0.879483  0.439742  0.252415  1
  Al  Al25  1  0.120517  0.560258  0.747585  1
  Al  Al26  1  0.560258  0.439742  0.252415  1
  Al  Al27  1  0.439742  0.560258  0.747585  1
  Al  Al28  1  0.000000  0.000000  0.242917  1
  Al  Al29  1  0.000000  0.000000  0.757083  1
  Co  Co30  1  0.000000  0.000000  0.000000  1
  Os  Os31  1  0.500000  0.000000  0.000000  1
  Os  Os32  1  0.000000  0.500000  0.000000  1
  Os  Os33  1  0.500000  0.000000  0.500000  1
  Os  Os34  1  0.500000  0.500000  0.000000  1
  Os  Os35  1  0.000000  0.500000  0.500000  1
  Os  Os36  1  0.500000  0.500000  0.500000  1
  Os  Os37  1  0.000000  0.000000  0.500000  1
