# generated using pymatgen
data_YFeNi4P3
_symmetry_space_group_name_H-M   'P 1'
_cell_length_a   3.69448700
_cell_length_b   10.31020300
_cell_length_c   11.86981900
_cell_angle_alpha   90.00000000
_cell_angle_beta   90.00000000
_cell_angle_gamma   90.00000000
_symmetry_Int_Tables_number   1
_chemical_formula_structural   YFeNi4P3
_chemical_formula_sum   'Y4 Fe4 Ni16 P12'
_cell_volume   452.13221853
_cell_formula_units_Z   4
loop_
 _symmetry_equiv_pos_site_id
 _symmetry_equiv_pos_as_xyz
  1  'x, y, z'
loop_
 _atom_site_type_symbol
 _atom_site_label
 _atom_site_symmetry_multiplicity
 _atom_site_fract_x
 _atom_site_fract_y
 _atom_site_fract_z
 _atom_site_occupancy
  Y  Y0  1  0.250000  0.579465  0.704867  1
  Y  Y1  1  0.250000  0.920535  0.204867  1
  Y  Y2  1  0.750000  0.420535  0.295133  1
  Y  Y3  1  0.750000  0.079465  0.795133  1
  Fe  Fe4  1  0.250000  0.463789  0.931860  1
  Fe  Fe5  1  0.250000  0.036211  0.431860  1
  Fe  Fe6  1  0.750000  0.536211  0.068140  1
  Fe  Fe7  1  0.750000  0.963789  0.568140  1
  Ni  Ni8  1  0.250000  0.713605  0.994448  1
  Ni  Ni9  1  0.250000  0.786395  0.494448  1
  Ni  Ni10  1  0.750000  0.286395  0.005552  1
  Ni  Ni11  1  0.750000  0.213605  0.505552  1
  Ni  Ni12  1  0.250000  0.407405  0.487642  1
  Ni  Ni13  1  0.250000  0.092595  0.987642  1
  Ni  Ni14  1  0.750000  0.592595  0.512358  1
  Ni  Ni15  1  0.750000  0.907405  0.012358  1
  Ni  Ni16  1  0.250000  0.224766  0.176719  1
  Ni  Ni17  1  0.250000  0.275234  0.676719  1
  Ni  Ni18  1  0.750000  0.775234  0.823281  1
  Ni  Ni19  1  0.750000  0.724766  0.323281  1
  Ni  Ni20  1  0.250000  0.877434  0.701564  1
  Ni  Ni21  1  0.250000  0.622566  0.201564  1
  Ni  Ni22  1  0.750000  0.122566  0.298436  1
  Ni  Ni23  1  0.750000  0.377434  0.798436  1
  P  P24  1  0.250000  0.425623  0.111659  1
  P  P25  1  0.250000  0.074377  0.611659  1
  P  P26  1  0.750000  0.574377  0.888341  1
  P  P27  1  0.750000  0.925623  0.388341  1
  P  P28  1  0.250000  0.269033  0.869104  1
  P  P29  1  0.250000  0.230967  0.369104  1
  P  P30  1  0.750000  0.730967  0.130896  1
  P  P31  1  0.750000  0.769033  0.630896  1
  P  P32  1  0.250000  0.603887  0.392914  1
  P  P33  1  0.250000  0.896113  0.892914  1
  P  P34  1  0.750000  0.396113  0.607086  1
  P  P35  1  0.750000  0.103887  0.107086  1
