# generated using pymatgen
data_Ce(LuCo)5
_symmetry_space_group_name_H-M   'P 1'
_cell_length_a   5.62717900
_cell_length_b   5.62717965
_cell_length_c   20.56713300
_cell_angle_alpha   89.99915490
_cell_angle_beta   89.99915490
_cell_angle_gamma   40.52753795
_symmetry_Int_Tables_number   1
_chemical_formula_structural   Ce(LuCo)5
_chemical_formula_sum   'Ce2 Lu10 Co10'
_cell_volume   423.19834510
_cell_formula_units_Z   2
loop_
 _symmetry_equiv_pos_site_id
 _symmetry_equiv_pos_as_xyz
  1  'x, y, z'
loop_
 _atom_site_type_symbol
 _atom_site_label
 _atom_site_symmetry_multiplicity
 _atom_site_fract_x
 _atom_site_fract_y
 _atom_site_fract_z
 _atom_site_occupancy
  Ce  Ce0  1  0.000147  0.999164  0.000083  1
  Ce  Ce1  1  0.000081  0.999526  0.500091  1
  Lu  Lu2  1  0.282491  0.282414  0.249926  1
  Lu  Lu3  1  0.717749  0.717409  0.750031  1
  Lu  Lu4  1  0.283057  0.283128  0.075492  1
  Lu  Lu5  1  0.717145  0.716694  0.575715  1
  Lu  Lu6  1  0.716944  0.716908  0.924319  1
  Lu  Lu7  1  0.283244  0.282870  0.424395  1
  Lu  Lu8  1  0.000683  0.000685  0.164444  1
  Lu  Lu9  1  0.999422  0.999103  0.664619  1
  Lu  Lu10  1  0.999356  0.999198  0.835447  1
  Lu  Lu11  1  0.000717  0.000649  0.335452  1
  Co  Co12  1  0.580350  0.580610  0.249971  1
  Co  Co13  1  0.419491  0.419511  0.750066  1
  Co  Co14  1  0.575717  0.577208  0.058049  1
  Co  Co15  1  0.423597  0.424366  0.558225  1
  Co  Co16  1  0.424010  0.424303  0.941719  1
  Co  Co17  1  0.576114  0.575993  0.441969  1
  Co  Co18  1  0.702466  0.702617  0.156127  1
  Co  Co19  1  0.297321  0.297268  0.656166  1
  Co  Co20  1  0.297370  0.297647  0.843802  1
  Co  Co21  1  0.702529  0.702732  0.343892  1
