# generated using pymatgen
data_TbEuEr2(ZnSn)4
_symmetry_space_group_name_H-M   'P 1'
_cell_length_a   4.53817600
_cell_length_b   4.53817712
_cell_length_c   15.98764700
_cell_angle_alpha   90.00000000
_cell_angle_beta   90.00000000
_cell_angle_gamma   119.99999181
_symmetry_Int_Tables_number   1
_chemical_formula_structural   TbEuEr2(ZnSn)4
_chemical_formula_sum   'Tb1 Eu1 Er2 Zn4 Sn4'
_cell_volume   285.15303293
_cell_formula_units_Z   1
loop_
 _symmetry_equiv_pos_site_id
 _symmetry_equiv_pos_as_xyz
  1  'x, y, z'
loop_
 _atom_site_type_symbol
 _atom_site_label
 _atom_site_symmetry_multiplicity
 _atom_site_fract_x
 _atom_site_fract_y
 _atom_site_fract_z
 _atom_site_occupancy
  Tb  Tb0  1  0.000000  0.000000  0.500000  1
  Eu  Eu1  1  0.000000  0.000000  0.000000  1
  Er  Er2  1  0.000000  0.000000  0.256284  1
  Er  Er3  1  0.000000  0.000000  0.743716  1
  Zn  Zn4  1  0.333333  0.666667  0.170446  1
  Zn  Zn5  1  0.666667  0.333333  0.829554  1
  Zn  Zn6  1  0.666667  0.333333  0.657770  1
  Zn  Zn7  1  0.333333  0.666667  0.342230  1
  Sn  Sn8  1  0.333333  0.666667  0.610267  1
  Sn  Sn9  1  0.666667  0.333333  0.389733  1
  Sn  Sn10  1  0.666667  0.333333  0.125066  1
  Sn  Sn11  1  0.333333  0.666667  0.874934  1
