# generated using pymatgen
data_Dy5Ge11PIr3Rh16
_symmetry_space_group_name_H-M   'P 1'
_cell_length_a   13.17960054
_cell_length_b   13.11832941
_cell_length_c   3.99710200
_cell_angle_alpha   90.00000000
_cell_angle_beta   90.00000000
_cell_angle_gamma   120.18719263
_symmetry_Int_Tables_number   1
_chemical_formula_structural   Dy5Ge11PIr3Rh16
_chemical_formula_sum   'Dy5 Ge11 P1 Ir3 Rh16'
_cell_volume   597.35753768
_cell_formula_units_Z   1
loop_
 _symmetry_equiv_pos_site_id
 _symmetry_equiv_pos_as_xyz
  1  'x, y, z'
loop_
 _atom_site_type_symbol
 _atom_site_label
 _atom_site_symmetry_multiplicity
 _atom_site_fract_x
 _atom_site_fract_y
 _atom_site_fract_z
 _atom_site_occupancy
  Dy  Dy0  1  0.333879  0.666537  0.500000  1
  Dy  Dy1  1  0.666958  0.333275  0.500000  1
  Dy  Dy2  1  0.002386  0.817296  0.000000  1
  Dy  Dy3  1  0.184717  0.182530  0.000000  1
  Dy  Dy4  1  0.813552  0.001036  0.000000  1
  Ge  Ge5  1  0.999630  0.632737  0.500000  1
  Ge  Ge6  1  0.366604  0.367150  0.500000  1
  Ge  Ge7  1  0.631651  0.999439  0.500000  1
  Ge  Ge8  1  0.519676  0.682255  0.000000  1
  Ge  Ge9  1  0.318527  0.837136  0.000000  1
  Ge  Ge10  1  0.162720  0.481663  0.000000  1
  Ge  Ge11  1  0.480661  0.162322  0.000000  1
  Ge  Ge12  1  0.681821  0.518802  0.000000  1
  Ge  Ge13  1  0.835834  0.317923  0.000000  1
  Ge  Ge14  1  0.999200  0.177112  0.500000  1
  Ge  Ge15  1  0.821858  0.822461  0.500000  1
  P  P16  1  0.183933  0.999285  0.500000  1
  Ir  Ir17  1  0.273770  0.999617  0.000000  1
  Ir  Ir18  1  0.819175  0.193516  0.500000  1
  Ir  Ir19  1  0.012303  0.000027  0.500000  1
  Rh  Rh20  1  0.516274  0.872348  0.000000  1
  Rh  Rh21  1  0.127468  0.646513  0.000000  1
  Rh  Rh22  1  0.355567  0.482770  0.000000  1
  Rh  Rh23  1  0.481452  0.353798  0.000000  1
  Rh  Rh24  1  0.872952  0.517252  0.000000  1
  Rh  Rh25  1  0.642985  0.127187  0.000000  1
  Rh  Rh26  1  0.001764  0.446166  0.500000  1
  Rh  Rh27  1  0.554032  0.553415  0.500000  1
  Rh  Rh28  1  0.444693  0.000742  0.500000  1
  Rh  Rh29  1  0.999190  0.280019  0.000000  1
  Rh  Rh30  1  0.720214  0.720438  0.000000  1
  Rh  Rh31  1  0.626107  0.806619  0.500000  1
  Rh  Rh32  1  0.192761  0.823222  0.500000  1
  Rh  Rh33  1  0.180683  0.374903  0.500000  1
  Rh  Rh34  1  0.368866  0.176798  0.500000  1
  Rh  Rh35  1  0.806135  0.625692  0.500000  1
