# generated using pymatgen
data_BaZr(NiAs)2
_symmetry_space_group_name_H-M   'P 1'
_cell_length_a   4.10711900
_cell_length_b   8.05947082
_cell_length_c   7.14981591
_cell_angle_alpha   90.78258848
_cell_angle_beta   90.00000000
_cell_angle_gamma   90.00000000
_symmetry_Int_Tables_number   1
_chemical_formula_structural   BaZr(NiAs)2
_chemical_formula_sum   'Ba2 Zr2 Ni4 As4'
_cell_volume   236.64545098
_cell_formula_units_Z   2
loop_
 _symmetry_equiv_pos_site_id
 _symmetry_equiv_pos_as_xyz
  1  'x, y, z'
loop_
 _atom_site_type_symbol
 _atom_site_label
 _atom_site_symmetry_multiplicity
 _atom_site_fract_x
 _atom_site_fract_y
 _atom_site_fract_z
 _atom_site_occupancy
  Ba  Ba0  1  0.250000  0.500034  0.234871  1
  Ba  Ba1  1  0.750000  0.499966  0.765129  1
  Zr  Zr2  1  0.750000  0.003195  0.717262  1
  Zr  Zr3  1  0.250000  0.996805  0.282738  1
  Ni  Ni4  1  0.250000  0.869620  0.923003  1
  Ni  Ni5  1  0.750000  0.130380  0.076997  1
  Ni  Ni6  1  0.750000  0.794394  0.422776  1
  Ni  Ni7  1  0.250000  0.205606  0.577224  1
  As  As8  1  0.250000  0.774558  0.592387  1
  As  As9  1  0.750000  0.225442  0.407613  1
  As  As10  1  0.750000  0.806265  0.088212  1
  As  As11  1  0.250000  0.193735  0.911788  1
