# generated using pymatgen
data_Dy20Cd6CoOs
_symmetry_space_group_name_H-M   'P 1'
_cell_length_a   9.58923500
_cell_length_b   9.58923169
_cell_length_c   9.83629900
_cell_angle_alpha   90.00000000
_cell_angle_beta   90.00000000
_cell_angle_gamma   120.00002085
_symmetry_Int_Tables_number   1
_chemical_formula_structural   Dy20Cd6CoOs
_chemical_formula_sum   'Dy20 Cd6 Co1 Os1'
_cell_volume   783.30344387
_cell_formula_units_Z   1
loop_
 _symmetry_equiv_pos_site_id
 _symmetry_equiv_pos_as_xyz
  1  'x, y, z'
loop_
 _atom_site_type_symbol
 _atom_site_label
 _atom_site_symmetry_multiplicity
 _atom_site_fract_x
 _atom_site_fract_y
 _atom_site_fract_z
 _atom_site_occupancy
  Dy  Dy0  1  0.000000  0.000000  0.499824  1
  Dy  Dy1  1  0.000000  0.000000  0.000176  1
  Dy  Dy2  1  0.540533  0.459467  0.250000  1
  Dy  Dy3  1  0.540532  0.081065  0.250000  1
  Dy  Dy4  1  0.918935  0.459467  0.250000  1
  Dy  Dy5  1  0.457867  0.542133  0.750000  1
  Dy  Dy6  1  0.457867  0.915734  0.750000  1
  Dy  Dy7  1  0.084266  0.542134  0.750000  1
  Dy  Dy8  1  0.209366  0.790634  0.440359  1
  Dy  Dy9  1  0.209366  0.418733  0.440359  1
  Dy  Dy10  1  0.581267  0.790634  0.440359  1
  Dy  Dy11  1  0.787898  0.212102  0.563782  1
  Dy  Dy12  1  0.787898  0.575796  0.563781  1
  Dy  Dy13  1  0.424204  0.212101  0.563781  1
  Dy  Dy14  1  0.787898  0.212102  0.936218  1
  Dy  Dy15  1  0.787898  0.575796  0.936219  1
  Dy  Dy16  1  0.424204  0.212101  0.936219  1
  Dy  Dy17  1  0.209366  0.790634  0.059641  1
  Dy  Dy18  1  0.209366  0.418733  0.059641  1
  Dy  Dy19  1  0.581267  0.790634  0.059641  1
  Cd  Cd20  1  0.885199  0.114801  0.250000  1
  Cd  Cd21  1  0.885199  0.770397  0.250000  1
  Cd  Cd22  1  0.229603  0.114801  0.250000  1
  Cd  Cd23  1  0.114655  0.885345  0.750000  1
  Cd  Cd24  1  0.114655  0.229310  0.750000  1
  Cd  Cd25  1  0.770690  0.885345  0.750000  1
  Co  Co26  1  0.666667  0.333333  0.750000  1
  Os  Os27  1  0.333332  0.666668  0.250000  1
