# generated using pymatgen
data_Y2Ho14MgAg3Rh4
_symmetry_space_group_name_H-M   'P 1'
_cell_length_a   9.54297097
_cell_length_b   9.56239206
_cell_length_c   9.53742200
_cell_angle_alpha   60.08598704
_cell_angle_beta   60.01899051
_cell_angle_gamma   60.06485204
_symmetry_Int_Tables_number   1
_chemical_formula_structural   Y2Ho14MgAg3Rh4
_chemical_formula_sum   'Y2 Ho14 Mg1 Ag3 Rh4'
_cell_volume   616.20142092
_cell_formula_units_Z   1
loop_
 _symmetry_equiv_pos_site_id
 _symmetry_equiv_pos_as_xyz
  1  'x, y, z'
loop_
 _atom_site_type_symbol
 _atom_site_label
 _atom_site_symmetry_multiplicity
 _atom_site_fract_x
 _atom_site_fract_y
 _atom_site_fract_z
 _atom_site_occupancy
  Y  Y0  1  0.814623  0.815572  0.184898  1
  Y  Y1  1  0.184443  0.185237  0.815162  1
  Ho  Ho2  1  0.600755  0.598521  0.598704  1
  Ho  Ho3  1  0.600753  0.598522  0.202015  1
  Ho  Ho4  1  0.600552  0.202974  0.598237  1
  Ho  Ho5  1  0.185748  0.605192  0.604534  1
  Ho  Ho6  1  0.060120  0.438186  0.439309  1
  Ho  Ho7  1  0.435393  0.063386  0.064071  1
  Ho  Ho8  1  0.435390  0.063386  0.437150  1
  Ho  Ho9  1  0.060120  0.438191  0.062388  1
  Ho  Ho10  1  0.435358  0.436243  0.064199  1
  Ho  Ho11  1  0.060018  0.061409  0.439289  1
  Ho  Ho12  1  0.184981  0.813415  0.813837  1
  Ho  Ho13  1  0.814440  0.186049  0.185714  1
  Ho  Ho14  1  0.814439  0.186058  0.813788  1
  Ho  Ho15  1  0.184977  0.813406  0.187784  1
  Mg  Mg16  1  0.538392  0.820942  0.820332  1
  Ag  Ag17  1  0.833107  0.835430  0.833370  1
  Ag  Ag18  1  0.833101  0.835431  0.498094  1
  Ag  Ag19  1  0.832217  0.498249  0.834762  1
  Rh  Rh20  1  0.389672  0.395508  0.393637  1
  Rh  Rh21  1  0.389681  0.395501  0.821186  1
  Rh  Rh22  1  0.389999  0.820414  0.394792  1
  Rh  Rh23  1  0.821720  0.392782  0.392750  1
