# generated using pymatgen
data_V2Cu(AsO5)2
_symmetry_space_group_name_H-M   'P 1'
_cell_length_a   6.70668889
_cell_length_b   7.70444503
_cell_length_c   7.38935054
_cell_angle_alpha   90.00871969
_cell_angle_beta   91.07308767
_cell_angle_gamma   90.00142665
_symmetry_Int_Tables_number   1
_chemical_formula_structural   V2Cu(AsO5)2
_chemical_formula_sum   'V4 Cu2 As4 O20'
_cell_volume   381.75049760
_cell_formula_units_Z   2
loop_
 _symmetry_equiv_pos_site_id
 _symmetry_equiv_pos_as_xyz
  1  'x, y, z'
loop_
 _atom_site_type_symbol
 _atom_site_label
 _atom_site_symmetry_multiplicity
 _atom_site_fract_x
 _atom_site_fract_y
 _atom_site_fract_z
 _atom_site_occupancy
  V  V0  1  0.260671  0.730258  0.156922  1
  V  V1  1  0.739314  0.230191  0.343265  1
  V  V2  1  0.260686  0.769810  0.656735  1
  V  V3  1  0.739329  0.269742  0.843077  1
  Cu  Cu4  1  0.000000  0.000000  0.000000  1
  Cu  Cu5  1  0.000000  0.500000  0.499999  1
  As  As6  1  0.747365  0.629157  0.124704  1
  As  As7  1  0.252624  0.129237  0.375298  1
  As  As8  1  0.747376  0.870763  0.624702  1
  As  As9  1  0.252635  0.370842  0.875296  1
  O  O10  1  0.266457  0.492310  0.067374  1
  O  O11  1  0.759290  0.189930  0.117156  1
  O  O12  1  0.953301  0.765064  0.114875  1
  O  O13  1  0.547740  0.763896  0.142685  1
  O  O14  1  0.221464  0.000242  0.181525  1
  O  O15  1  0.778576  0.500228  0.318432  1
  O  O16  1  0.452226  0.263990  0.357285  1
  O  O17  1  0.046612  0.265048  0.385123  1
  O  O18  1  0.240665  0.690000  0.382971  1
  O  O19  1  0.733343  0.992200  0.432731  1
  O  O20  1  0.266658  0.007799  0.567269  1
  O  O21  1  0.759335  0.310000  0.617029  1
  O  O22  1  0.953387  0.734953  0.614877  1
  O  O23  1  0.547775  0.736010  0.642714  1
  O  O24  1  0.221423  0.499772  0.681568  1
  O  O25  1  0.778537  0.999758  0.818475  1
  O  O26  1  0.452261  0.236103  0.857315  1
  O  O27  1  0.046698  0.234937  0.885125  1
  O  O28  1  0.240710  0.810070  0.882844  1
  O  O29  1  0.733544  0.507689  0.932626  1
