# generated using pymatgen
data_Ho3Er9InCo5
_symmetry_space_group_name_H-M   'P 1'
_cell_length_a   8.21251654
_cell_length_b   8.21251610
_cell_length_c   8.21092790
_cell_angle_alpha   110.91531985
_cell_angle_beta   110.75731984
_cell_angle_gamma   106.78249317
_symmetry_Int_Tables_number   1
_chemical_formula_structural   Ho3Er9InCo5
_chemical_formula_sum   'Ho3 Er9 In1 Co5'
_cell_volume   425.56115427
_cell_formula_units_Z   1
loop_
 _symmetry_equiv_pos_site_id
 _symmetry_equiv_pos_as_xyz
  1  'x, y, z'
loop_
 _atom_site_type_symbol
 _atom_site_label
 _atom_site_symmetry_multiplicity
 _atom_site_fract_x
 _atom_site_fract_y
 _atom_site_fract_z
 _atom_site_occupancy
  Ho  Ho0  1  0.289716  0.186026  0.475741  1
  Ho  Ho1  1  0.710529  0.814329  0.524858  1
  Ho  Ho2  1  0.289541  0.813908  0.103449  1
  Er  Er3  1  0.710320  0.185744  0.896064  1
  Er  Er4  1  0.619993  0.314452  0.305164  1
  Er  Er5  1  0.380172  0.685719  0.694748  1
  Er  Er6  1  0.009030  0.314577  0.694748  1
  Er  Er7  1  0.990711  0.685169  0.305164  1
  Er  Er8  1  0.211050  0.403152  0.191598  1
  Er  Er9  1  0.788530  0.596384  0.808197  1
  Er  Er10  1  0.211812  0.019667  0.808197  1
  Er  Er11  1  0.788448  0.980549  0.191598  1
  In  In12  1  0.500102  0.499893  0.999994  1
  Co  Co13  1  0.999728  0.377574  0.377302  1
  Co  Co14  1  0.000018  0.622327  0.622346  1
  Co  Co15  1  0.387518  0.887501  0.500515  1
  Co  Co16  1  0.613014  0.112997  0.500515  1
  Co  Co17  1  0.999768  0.000032  0.999800  1
