# generated using pymatgen
data_Hf8Fe5Si14Rh3
_symmetry_space_group_name_H-M   'P 1'
_cell_length_a   9.50736716
_cell_length_b   9.50638334
_cell_length_c   9.47859331
_cell_angle_alpha   94.25879620
_cell_angle_beta   94.27691633
_cell_angle_gamma   148.16417542
_symmetry_Int_Tables_number   1
_chemical_formula_structural   Hf8Fe5Si14Rh3
_chemical_formula_sum   'Hf8 Fe5 Si14 Rh3'
_cell_volume   434.93452785
_cell_formula_units_Z   1
loop_
 _symmetry_equiv_pos_site_id
 _symmetry_equiv_pos_as_xyz
  1  'x, y, z'
loop_
 _atom_site_type_symbol
 _atom_site_label
 _atom_site_symmetry_multiplicity
 _atom_site_fract_x
 _atom_site_fract_y
 _atom_site_fract_z
 _atom_site_occupancy
  Hf  Hf0  1  0.137228  0.136762  0.276685  1
  Hf  Hf1  1  0.863203  0.862736  0.723352  1
  Hf  Hf2  1  0.861834  0.138117  0.000012  1
  Hf  Hf3  1  0.138248  0.861779  0.000007  1
  Hf  Hf4  1  0.504919  0.310168  0.803758  1
  Hf  Hf5  1  0.504661  0.696939  0.193698  1
  Hf  Hf6  1  0.689793  0.495071  0.196261  1
  Hf  Hf7  1  0.302951  0.495224  0.806293  1
  Fe  Fe8  1  0.403366  0.905795  0.807262  1
  Fe  Fe9  1  0.094278  0.596640  0.192782  1
  Fe  Fe10  1  0.095826  0.904271  0.499730  1
  Fe  Fe11  1  0.403303  0.596746  0.500043  1
  Fe  Fe12  1  0.610194  0.390357  0.500006  1
  Si  Si13  1  0.454715  0.051029  0.587597  1
  Si  Si14  1  0.444002  0.852324  0.408105  1
  Si  Si15  1  0.949027  0.545289  0.412387  1
  Si  Si16  1  0.147518  0.555811  0.591910  1
  Si  Si17  1  0.751485  0.750683  0.000136  1
  Si  Si18  1  0.249288  0.248486  0.999892  1
  Si  Si19  1  0.304830  0.300503  0.580643  1
  Si  Si20  1  0.699319  0.695018  0.419369  1
  Si  Si21  1  0.708571  0.291621  0.000044  1
  Si  Si22  1  0.291147  0.708877  0.000030  1
  Si  Si23  1  0.029516  0.325491  0.295953  1
  Si  Si24  1  0.018498  0.723954  0.699535  1
  Si  Si25  1  0.674398  0.970387  0.704072  1
  Si  Si26  1  0.276170  0.981567  0.300391  1
  Rh  Rh27  1  0.890137  0.109715  0.499971  1
  Rh  Rh28  1  0.890310  0.388819  0.777063  1
  Rh  Rh29  1  0.611266  0.109821  0.223010  1
