# generated using pymatgen
data_Pr2U(As2Pd3)3
_symmetry_space_group_name_H-M   'P 1'
_cell_length_a   4.12438700
_cell_length_b   8.65757134
_cell_length_c   10.09426950
_cell_angle_alpha   107.00375277
_cell_angle_beta   90.00000000
_cell_angle_gamma   103.78005812
_symmetry_Int_Tables_number   1
_chemical_formula_structural   Pr2U(As2Pd3)3
_chemical_formula_sum   'Pr2 U1 As6 Pd9'
_cell_volume   333.81781031
_cell_formula_units_Z   1
loop_
 _symmetry_equiv_pos_site_id
 _symmetry_equiv_pos_as_xyz
  1  'x, y, z'
loop_
 _atom_site_type_symbol
 _atom_site_label
 _atom_site_symmetry_multiplicity
 _atom_site_fract_x
 _atom_site_fract_y
 _atom_site_fract_z
 _atom_site_occupancy
  Pr  Pr0  1  0.846628  0.693255  0.295661  1
  Pr  Pr1  1  0.153372  0.306745  0.704339  1
  U  U2  1  0.000000  0.000000  0.000000  1
  As  As3  1  0.806903  0.613807  0.873077  1
  As  As4  1  0.193097  0.386193  0.126923  1
  As  As5  1  0.536956  0.073912  0.806453  1
  As  As6  1  0.463044  0.926088  0.193547  1
  As  As7  1  0.635550  0.271100  0.456517  1
  As  As8  1  0.364450  0.728900  0.543483  1
  Pd  Pd9  1  0.958752  0.917504  0.671323  1
  Pd  Pd10  1  0.041248  0.082496  0.328677  1
  Pd  Pd11  1  0.779751  0.559503  0.606580  1
  Pd  Pd12  1  0.220249  0.440497  0.393420  1
  Pd  Pd13  1  0.371816  0.743632  0.792537  1
  Pd  Pd14  1  0.628184  0.256368  0.207463  1
  Pd  Pd15  1  0.500000  0.000000  0.500000  1
  Pd  Pd16  1  0.682880  0.365760  0.967769  1
  Pd  Pd17  1  0.317120  0.634240  0.032231  1
