# generated using pymatgen
data_Tb5HgTe4
_symmetry_space_group_name_H-M   'P 1'
_cell_length_a   7.62948408
_cell_length_b   7.62948415
_cell_length_c   10.82041900
_cell_angle_alpha   61.07951601
_cell_angle_beta   61.07951570
_cell_angle_gamma   32.22193915
_symmetry_Int_Tables_number   1
_chemical_formula_structural   Tb5HgTe4
_chemical_formula_sum   'Tb5 Hg1 Te4'
_cell_volume   290.18556754
_cell_formula_units_Z   1
loop_
 _symmetry_equiv_pos_site_id
 _symmetry_equiv_pos_as_xyz
  1  'x, y, z'
loop_
 _atom_site_type_symbol
 _atom_site_label
 _atom_site_symmetry_multiplicity
 _atom_site_fract_x
 _atom_site_fract_y
 _atom_site_fract_z
 _atom_site_occupancy
  Tb  Tb0  1  0.000000  0.000000  0.500000  1
  Tb  Tb1  1  0.593227  0.593227  0.098212  1
  Tb  Tb2  1  0.192791  0.192791  0.715500  1
  Tb  Tb3  1  0.807209  0.807209  0.284500  1
  Tb  Tb4  1  0.406773  0.406773  0.901788  1
  Hg  Hg5  1  0.000000  0.000000  0.000000  1
  Te  Te6  1  0.606768  0.606768  0.591452  1
  Te  Te7  1  0.196179  0.196179  0.197914  1
  Te  Te8  1  0.803821  0.803821  0.802086  1
  Te  Te9  1  0.393232  0.393232  0.408548  1
