# generated using pymatgen
data_AcAl4Ni9
_symmetry_space_group_name_H-M   'P 1'
_cell_length_a   8.17253902
_cell_length_b   8.17258640
_cell_length_c   8.17193465
_cell_angle_alpha   120.65317183
_cell_angle_beta   120.64731322
_cell_angle_gamma   88.87932313
_symmetry_Int_Tables_number   1
_chemical_formula_structural   AcAl4Ni9
_chemical_formula_sum   'Ac2 Al8 Ni18'
_cell_volume   382.06677760
_cell_formula_units_Z   2
loop_
 _symmetry_equiv_pos_site_id
 _symmetry_equiv_pos_as_xyz
  1  'x, y, z'
loop_
 _atom_site_type_symbol
 _atom_site_label
 _atom_site_symmetry_multiplicity
 _atom_site_fract_x
 _atom_site_fract_y
 _atom_site_fract_z
 _atom_site_occupancy
  Ac  Ac0  1  0.749951  0.749982  0.999980  1
  Ac  Ac1  1  0.250049  0.250018  0.000020  1
  Al  Al2  1  0.058376  0.558347  0.853964  1
  Al  Al3  1  0.704411  0.204503  0.146007  1
  Al  Al4  1  0.558354  0.704469  0.499979  1
  Al  Al5  1  0.204476  0.058401  0.500052  1
  Al  Al6  1  0.941624  0.441653  0.146036  1
  Al  Al7  1  0.295589  0.795497  0.853993  1
  Al  Al8  1  0.441646  0.295531  0.500021  1
  Al  Al9  1  0.795524  0.941599  0.499948  1
  Ni  Ni10  1  0.065473  0.205662  0.271173  1
  Ni  Ni11  1  0.934527  0.794338  0.728827  1
  Ni  Ni12  1  0.565516  0.294383  0.859775  1
  Ni  Ni13  1  0.434484  0.705617  0.140225  1
  Ni  Ni14  1  0.794358  0.065533  0.859758  1
  Ni  Ni15  1  0.205642  0.934467  0.140242  1
  Ni  Ni16  1  0.705808  0.565627  0.271203  1
  Ni  Ni17  1  0.294192  0.434373  0.728797  1
  Ni  Ni18  1  0.438692  0.938700  0.734758  1
  Ni  Ni19  1  0.203967  0.704015  0.265439  1
  Ni  Ni20  1  0.938472  0.203859  0.499781  1
  Ni  Ni21  1  0.703941  0.438657  0.499955  1
  Ni  Ni22  1  0.561308  0.061300  0.265242  1
  Ni  Ni23  1  0.796033  0.295985  0.734561  1
  Ni  Ni24  1  0.061528  0.796141  0.500219  1
  Ni  Ni25  1  0.296059  0.561343  0.500045  1
  Ni  Ni26  1  0.000000  0.500000  0.500000  1
  Ni  Ni27  1  0.500000  0.000000  0.500000  1
