# generated using pymatgen
data_Ho12InFe4Au
_symmetry_space_group_name_H-M   'P 1'
_cell_length_a   8.32947586
_cell_length_b   8.32947499
_cell_length_c   8.32947481
_cell_angle_alpha   110.93410066
_cell_angle_beta   110.78158242
_cell_angle_gamma   106.73225586
_symmetry_Int_Tables_number   1
_chemical_formula_structural   Ho12InFe4Au
_chemical_formula_sum   'Ho12 In1 Fe4 Au1'
_cell_volume   444.10913765
_cell_formula_units_Z   1
loop_
 _symmetry_equiv_pos_site_id
 _symmetry_equiv_pos_as_xyz
  1  'x, y, z'
loop_
 _atom_site_type_symbol
 _atom_site_label
 _atom_site_symmetry_multiplicity
 _atom_site_fract_x
 _atom_site_fract_y
 _atom_site_fract_z
 _atom_site_occupancy
  Ho  Ho0  1  0.313708  0.614645  0.300937  1
  Ho  Ho1  1  0.686292  0.385355  0.699063  1
  Ho  Ho2  1  0.313708  0.012769  0.699063  1
  Ho  Ho3  1  0.686292  0.987231  0.300937  1
  Ho  Ho4  1  0.187305  0.290235  0.477539  1
  Ho  Ho5  1  0.812695  0.709765  0.522461  1
  Ho  Ho6  1  0.187305  0.709765  0.897070  1
  Ho  Ho7  1  0.812695  0.290235  0.102930  1
  Ho  Ho8  1  0.425650  0.221206  0.204443  1
  Ho  Ho9  1  0.574350  0.778794  0.795557  1
  Ho  Ho10  1  0.016762  0.221206  0.795557  1
  Ho  Ho11  1  0.983238  0.778794  0.204443  1
  In  In12  1  0.500000  0.500000  0.000000  1
  Fe  Fe13  1  0.108369  0.608369  0.500000  1
  Fe  Fe14  1  0.891631  0.391631  0.500000  1
  Fe  Fe15  1  0.385158  0.000000  0.385158  1
  Fe  Fe16  1  0.614842  0.000000  0.614842  1
  Au  Au17  1  0.000000  0.000000  0.000000  1
