# generated using pymatgen
data_Ca4La3Sn13Rh4
_symmetry_space_group_name_H-M   'P 1'
_cell_length_a   11.43866200
_cell_length_b   11.43866200
_cell_length_c   4.74200200
_cell_angle_alpha   90.00000000
_cell_angle_beta   90.00000000
_cell_angle_gamma   90.00000000
_symmetry_Int_Tables_number   1
_chemical_formula_structural   Ca4La3Sn13Rh4
_chemical_formula_sum   'Ca4 La3 Sn13 Rh4'
_cell_volume   620.45771244
_cell_formula_units_Z   1
loop_
 _symmetry_equiv_pos_site_id
 _symmetry_equiv_pos_as_xyz
  1  'x, y, z'
loop_
 _atom_site_type_symbol
 _atom_site_label
 _atom_site_symmetry_multiplicity
 _atom_site_fract_x
 _atom_site_fract_y
 _atom_site_fract_z
 _atom_site_occupancy
  Ca  Ca0  1  0.835357  0.168799  0.000000  1
  Ca  Ca1  1  0.831201  0.835357  0.000000  1
  Ca  Ca2  1  0.164643  0.831201  0.000000  1
  Ca  Ca3  1  0.168799  0.164643  0.000000  1
  La  La4  1  0.500000  0.500000  0.500000  1
  La  La5  1  0.000000  0.500000  0.000000  1
  La  La6  1  0.500000  0.000000  0.000000  1
  Sn  Sn7  1  0.014609  0.278485  0.500000  1
  Sn  Sn8  1  0.985391  0.721515  0.500000  1
  Sn  Sn9  1  0.212675  0.614660  0.500000  1
  Sn  Sn10  1  0.573781  0.308049  0.000000  1
  Sn  Sn11  1  0.691951  0.573781  0.000000  1
  Sn  Sn12  1  0.787325  0.385340  0.500000  1
  Sn  Sn13  1  0.721515  0.014609  0.500000  1
  Sn  Sn14  1  0.000000  0.000000  0.500000  1
  Sn  Sn15  1  0.278485  0.985391  0.500000  1
  Sn  Sn16  1  0.426219  0.691951  0.000000  1
  Sn  Sn17  1  0.614660  0.787325  0.500000  1
  Sn  Sn18  1  0.308049  0.426219  0.000000  1
  Sn  Sn19  1  0.385340  0.212675  0.500000  1
  Rh  Rh20  1  0.779510  0.619360  0.500000  1
  Rh  Rh21  1  0.380640  0.779510  0.500000  1
  Rh  Rh22  1  0.619360  0.220490  0.500000  1
  Rh  Rh23  1  0.220490  0.380640  0.500000  1
