# generated using pymatgen
data_TcGe(S2O7)4
_symmetry_space_group_name_H-M   'P 1'
_cell_length_a   6.23893308
_cell_length_b   6.22983001
_cell_length_c   15.72158804
_cell_angle_alpha   80.44998261
_cell_angle_beta   79.18598620
_cell_angle_gamma   87.83727305
_symmetry_Int_Tables_number   1
_chemical_formula_structural   TcGe(S2O7)4
_chemical_formula_sum   'Tc1 Ge1 S8 O28'
_cell_volume   591.87518775
_cell_formula_units_Z   1
loop_
 _symmetry_equiv_pos_site_id
 _symmetry_equiv_pos_as_xyz
  1  'x, y, z'
loop_
 _atom_site_type_symbol
 _atom_site_label
 _atom_site_symmetry_multiplicity
 _atom_site_fract_x
 _atom_site_fract_y
 _atom_site_fract_z
 _atom_site_occupancy
  Tc  Tc0  1  0.876066  0.120559  0.256721  1
  Ge  Ge1  1  0.142724  0.875786  0.753398  1
  S  S2  1  0.596248  0.918289  0.803964  1
  S  S3  1  0.935641  0.570929  0.310150  1
  S  S4  1  0.247599  0.718848  0.940311  1
  S  S5  1  0.235096  0.752049  0.565994  1
  S  S6  1  0.724912  0.244827  0.454832  1
  S  S7  1  0.761318  0.273527  0.062042  1
  S  S8  1  0.226685  0.397940  0.707447  1
  S  S9  1  0.427722  0.049154  0.205004  1
  O  O10  1  0.817377  0.839829  0.767492  1
  O  O11  1  0.871644  0.792631  0.273964  1
  O  O12  1  0.459580  0.900698  0.733894  1
  O  O13  1  0.511023  0.719866  0.879655  1
  O  O14  1  0.462641  0.827594  0.194488  1
  O  O15  1  0.784561  0.179719  0.984393  1
  O  O16  1  0.466680  0.735130  0.553513  1
  O  O17  1  0.881995  0.442892  0.242038  1
  O  O18  1  0.141600  0.903754  0.634055  1
  O  O19  1  0.752386  0.512394  0.393557  1
  O  O20  1  0.120904  0.863105  0.874070  1
  O  O21  1  0.115783  0.791279  0.496508  1
  O  O22  1  0.761704  0.502021  0.062287  1
  O  O23  1  0.843035  0.243817  0.523911  1
  O  O24  1  0.455574  0.365605  0.687620  1
  O  O25  1  0.200174  0.493054  0.953643  1
  O  O26  1  0.890680  0.139021  0.126376  1
  O  O27  1  0.151377  0.554967  0.771337  1
  O  O28  1  0.130598  0.501734  0.622288  1
  O  O29  1  0.849066  0.112865  0.386984  1
  O  O30  1  0.251636  0.836571  0.010060  1
  O  O31  1  0.493992  0.221211  0.469393  1
  O  O32  1  0.579663  0.119553  0.835701  1
  O  O33  1  0.553283  0.124964  0.269227  1
  O  O34  1  0.486633  0.210181  0.116601  1
  O  O35  1  0.088731  0.197811  0.742220  1
  O  O36  1  0.149799  0.536336  0.328602  1
  O  O37  1  0.204037  0.117225  0.240374  1
