# generated using pymatgen
data_PrPuAsBr2
_symmetry_space_group_name_H-M   'P 1'
_cell_length_a   4.22126600
_cell_length_b   4.22126599
_cell_length_c   11.19009500
_cell_angle_alpha   90.00000000
_cell_angle_beta   90.00000000
_cell_angle_gamma   120.00001577
_symmetry_Int_Tables_number   1
_chemical_formula_structural   PrPuAsBr2
_chemical_formula_sum   'Pr1 Pu1 As1 Br2'
_cell_volume   172.68307533
_cell_formula_units_Z   1
loop_
 _symmetry_equiv_pos_site_id
 _symmetry_equiv_pos_as_xyz
  1  'x, y, z'
loop_
 _atom_site_type_symbol
 _atom_site_label
 _atom_site_symmetry_multiplicity
 _atom_site_fract_x
 _atom_site_fract_y
 _atom_site_fract_z
 _atom_site_occupancy
  Pr  Pr0  1  0.333333  0.666667  0.148280  1
  Pu  Pu1  1  0.666667  0.333333  0.849323  1
  As  As2  1  0.000000  0.000000  0.995651  1
  Br  Br3  1  0.333333  0.666667  0.692475  1
  Br  Br4  1  0.666667  0.333333  0.314271  1
