# generated using pymatgen
data_Hg3Pt3PbWO14
_symmetry_space_group_name_H-M   'P 1'
_cell_length_a   7.43515032
_cell_length_b   7.29690558
_cell_length_c   7.29690500
_cell_angle_alpha   59.99999809
_cell_angle_beta   60.61318030
_cell_angle_gamma   60.61317401
_symmetry_Int_Tables_number   1
_chemical_formula_structural   Hg3Pt3PbWO14
_chemical_formula_sum   'Hg3 Pt3 Pb1 W1 O14'
_cell_volume   282.49821763
_cell_formula_units_Z   1
loop_
 _symmetry_equiv_pos_site_id
 _symmetry_equiv_pos_as_xyz
  1  'x, y, z'
loop_
 _atom_site_type_symbol
 _atom_site_label
 _atom_site_symmetry_multiplicity
 _atom_site_fract_x
 _atom_site_fract_y
 _atom_site_fract_z
 _atom_site_occupancy
  Hg  Hg0  1  0.125000  0.125000  0.125000  1
  Hg  Hg1  1  0.125000  0.625000  0.125000  1
  Hg  Hg2  1  0.125000  0.125000  0.625000  1
  Pt  Pt3  1  0.625000  0.625000  0.125000  1
  Pt  Pt4  1  0.625000  0.625000  0.625000  1
  Pt  Pt5  1  0.625000  0.125000  0.625000  1
  Pb  Pb6  1  0.625000  0.125000  0.125000  1
  W  W7  1  0.125000  0.625000  0.625000  1
  O  O8  1  0.708691  0.290598  0.290598  1
  O  O9  1  0.708691  0.290598  0.710112  1
  O  O10  1  0.999470  0.000177  0.000177  1
  O  O11  1  0.307545  0.690148  0.312159  1
  O  O12  1  0.708691  0.710112  0.290598  1
  O  O13  1  0.942455  0.559852  0.559852  1
  O  O14  1  0.307545  0.690148  0.690148  1
  O  O15  1  0.250530  0.249823  0.249823  1
  O  O16  1  0.942455  0.559852  0.937841  1
  O  O17  1  0.541309  0.959402  0.539888  1
  O  O18  1  0.541309  0.539888  0.959402  1
  O  O19  1  0.942455  0.937841  0.559852  1
  O  O20  1  0.541309  0.959402  0.959402  1
  O  O21  1  0.307545  0.312159  0.690148  1
