# generated using pymatgen
data_Sr2Ga7Ni
_symmetry_space_group_name_H-M   'P 1'
_cell_length_a   6.19879486
_cell_length_b   6.20189257
_cell_length_c   11.59682707
_cell_angle_alpha   74.49062772
_cell_angle_beta   74.49855738
_cell_angle_gamma   89.99999825
_symmetry_Int_Tables_number   1
_chemical_formula_structural   Sr2Ga7Ni
_chemical_formula_sum   'Sr4 Ga14 Ni2'
_cell_volume   412.74217476
_cell_formula_units_Z   2
loop_
 _symmetry_equiv_pos_site_id
 _symmetry_equiv_pos_as_xyz
  1  'x, y, z'
loop_
 _atom_site_type_symbol
 _atom_site_label
 _atom_site_symmetry_multiplicity
 _atom_site_fract_x
 _atom_site_fract_y
 _atom_site_fract_z
 _atom_site_occupancy
  Sr  Sr0  1  0.997032  0.997032  0.005937  1
  Sr  Sr1  1  0.500813  0.500813  0.998374  1
  Sr  Sr2  1  0.750737  0.250737  0.498527  1
  Sr  Sr3  1  0.247112  0.747112  0.505778  1
  Ga  Ga4  1  0.203112  0.203112  0.593777  1
  Ga  Ga5  1  0.811423  0.811423  0.377155  1
  Ga  Ga6  1  0.605088  0.129765  0.255090  1
  Ga  Ga7  1  0.139821  0.615144  0.255090  1
  Ga  Ga8  1  0.605088  0.615144  0.255090  1
  Ga  Ga9  1  0.139821  0.129765  0.255090  1
  Ga  Ga10  1  0.865107  0.354040  0.755148  1
  Ga  Ga11  1  0.379745  0.890811  0.755148  1
  Ga  Ga12  1  0.865107  0.890811  0.755148  1
  Ga  Ga13  1  0.379745  0.354040  0.755148  1
  Ga  Ga14  1  0.690823  0.690823  0.618353  1
  Ga  Ga15  1  0.061827  0.561827  0.876346  1
  Ga  Ga16  1  0.452715  0.952715  0.094568  1
  Ga  Ga17  1  0.941193  0.441193  0.117614  1
  Ni  Ni18  1  0.314473  0.314473  0.371053  1
  Ni  Ni19  1  0.564049  0.064049  0.871903  1
