# generated using pymatgen
data_Ca2Ce2H11
_symmetry_space_group_name_H-M   'P 1'
_cell_length_a   6.61133291
_cell_length_b   6.61133281
_cell_length_c   6.61133218
_cell_angle_alpha   133.39903469
_cell_angle_beta   133.39903311
_cell_angle_gamma   68.02817737
_symmetry_Int_Tables_number   1
_chemical_formula_structural   Ca2Ce2H11
_chemical_formula_sum   'Ca2 Ce2 H11'
_cell_volume   149.91292745
_cell_formula_units_Z   1
loop_
 _symmetry_equiv_pos_site_id
 _symmetry_equiv_pos_as_xyz
  1  'x, y, z'
loop_
 _atom_site_type_symbol
 _atom_site_label
 _atom_site_symmetry_multiplicity
 _atom_site_fract_x
 _atom_site_fract_y
 _atom_site_fract_z
 _atom_site_occupancy
  Ca  Ca0  1  0.500000  0.000000  0.500000  1
  Ca  Ca1  1  0.000000  0.500000  0.500000  1
  Ce  Ce2  1  0.262075  0.262075  0.000000  1
  Ce  Ce3  1  0.737925  0.737925  0.000000  1
  H  H4  1  0.642506  0.107712  0.000000  1
  H  H5  1  0.357494  0.357494  0.465206  1
  H  H6  1  0.107712  0.642506  0.000000  1
  H  H7  1  0.892288  0.892288  0.534794  1
  H  H8  1  0.892288  0.357494  0.000000  1
  H  H9  1  0.642506  0.642506  0.534794  1
  H  H10  1  0.357494  0.892288  0.000000  1
  H  H11  1  0.107712  0.107712  0.465206  1
  H  H12  1  0.750000  0.250000  0.500000  1
  H  H13  1  0.500000  0.500000  0.000000  1
  H  H14  1  0.250000  0.750000  0.500000  1
