# generated using pymatgen
data_Pr4SiPPd28
_symmetry_space_group_name_H-M   'P 1'
_cell_length_a   8.98391700
_cell_length_b   8.98391700
_cell_length_c   7.19629800
_cell_angle_alpha   90.00000000
_cell_angle_beta   90.00000000
_cell_angle_gamma   90.00000000
_symmetry_Int_Tables_number   1
_chemical_formula_structural   Pr4SiPPd28
_chemical_formula_sum   'Pr4 Si1 P1 Pd28'
_cell_volume   580.81871432
_cell_formula_units_Z   1
loop_
 _symmetry_equiv_pos_site_id
 _symmetry_equiv_pos_as_xyz
  1  'x, y, z'
loop_
 _atom_site_type_symbol
 _atom_site_label
 _atom_site_symmetry_multiplicity
 _atom_site_fract_x
 _atom_site_fract_y
 _atom_site_fract_z
 _atom_site_occupancy
  Pr  Pr0  1  0.500000  0.000000  0.936115  1
  Pr  Pr1  1  0.000000  0.500000  0.064138  1
  Pr  Pr2  1  0.000000  0.000000  0.499910  1
  Pr  Pr3  1  0.500000  0.500000  0.499910  1
  Si  Si4  1  0.000000  0.500000  0.550472  1
  P  P5  1  0.500000  0.000000  0.449715  1
  Pd  Pd6  1  0.336095  0.836095  0.613851  1
  Pd  Pd7  1  0.336095  0.163905  0.613851  1
  Pd  Pd8  1  0.663905  0.836095  0.613851  1
  Pd  Pd9  1  0.663905  0.163905  0.613851  1
  Pd  Pd10  1  0.165523  0.665523  0.385027  1
  Pd  Pd11  1  0.165523  0.334477  0.385027  1
  Pd  Pd12  1  0.834477  0.665523  0.385027  1
  Pd  Pd13  1  0.834477  0.334477  0.385027  1
  Pd  Pd14  1  0.500000  0.772049  0.258316  1
  Pd  Pd15  1  0.500000  0.227951  0.258316  1
  Pd  Pd16  1  0.272049  0.000000  0.258316  1
  Pd  Pd17  1  0.727951  0.000000  0.258316  1
  Pd  Pd18  1  0.000000  0.729228  0.742746  1
  Pd  Pd19  1  0.000000  0.270772  0.742746  1
  Pd  Pd20  1  0.229228  0.500000  0.742746  1
  Pd  Pd21  1  0.770772  0.500000  0.742746  1
  Pd  Pd22  1  0.500000  0.348351  0.856565  1
  Pd  Pd23  1  0.500000  0.651649  0.856565  1
  Pd  Pd24  1  0.848351  0.000000  0.856565  1
  Pd  Pd25  1  0.151649  0.000000  0.856565  1
  Pd  Pd26  1  0.000000  0.151107  0.143709  1
  Pd  Pd27  1  0.000000  0.848893  0.143709  1
  Pd  Pd28  1  0.651107  0.500000  0.143709  1
  Pd  Pd29  1  0.348893  0.500000  0.143709  1
  Pd  Pd30  1  0.249679  0.749679  0.999722  1
  Pd  Pd31  1  0.249679  0.250321  0.999722  1
  Pd  Pd32  1  0.750321  0.749679  0.999722  1
  Pd  Pd33  1  0.750321  0.250321  0.999722  1
