# generated using pymatgen
data_Dy3Hf2(Co2Si5)2
_symmetry_space_group_name_H-M   'P 1'
_cell_length_a   12.20987700
_cell_length_b   12.20987700
_cell_length_c   4.01096500
_cell_angle_alpha   90.00000000
_cell_angle_beta   90.00000000
_cell_angle_gamma   90.00000000
_symmetry_Int_Tables_number   1
_chemical_formula_structural   Dy3Hf2(Co2Si5)2
_chemical_formula_sum   'Dy6 Hf4 Co8 Si20'
_cell_volume   597.95905964
_cell_formula_units_Z   2
loop_
 _symmetry_equiv_pos_site_id
 _symmetry_equiv_pos_as_xyz
  1  'x, y, z'
loop_
 _atom_site_type_symbol
 _atom_site_label
 _atom_site_symmetry_multiplicity
 _atom_site_fract_x
 _atom_site_fract_y
 _atom_site_fract_z
 _atom_site_occupancy
  Dy  Dy0  1  0.000000  0.000000  0.000000  1
  Dy  Dy1  1  0.500000  0.500000  0.000000  1
  Dy  Dy2  1  0.887554  0.387554  0.500000  1
  Dy  Dy3  1  0.387554  0.112446  0.500000  1
  Dy  Dy4  1  0.612446  0.887554  0.500000  1
  Dy  Dy5  1  0.112446  0.612446  0.500000  1
  Hf  Hf6  1  0.676394  0.176394  0.500000  1
  Hf  Hf7  1  0.176394  0.323606  0.500000  1
  Hf  Hf8  1  0.823606  0.676394  0.500000  1
  Hf  Hf9  1  0.323606  0.823606  0.500000  1
  Co  Co10  1  0.526702  0.255076  0.000000  1
  Co  Co11  1  0.255076  0.473298  0.000000  1
  Co  Co12  1  0.744924  0.526702  0.000000  1
  Co  Co13  1  0.473298  0.744924  0.000000  1
  Co  Co14  1  0.973298  0.755076  0.000000  1
  Co  Co15  1  0.026702  0.244924  0.000000  1
  Co  Co16  1  0.755076  0.026702  0.000000  1
  Co  Co17  1  0.244924  0.973298  0.000000  1
  Si  Si18  1  0.569626  0.069626  0.000000  1
  Si  Si19  1  0.069626  0.430374  0.000000  1
  Si  Si20  1  0.930374  0.569626  0.000000  1
  Si  Si21  1  0.430374  0.930374  0.000000  1
  Si  Si22  1  0.198190  0.156719  0.000000  1
  Si  Si23  1  0.156719  0.801810  0.000000  1
  Si  Si24  1  0.843281  0.198190  0.000000  1
  Si  Si25  1  0.801810  0.843281  0.000000  1
  Si  Si26  1  0.301810  0.656719  0.000000  1
  Si  Si27  1  0.698190  0.343281  0.000000  1
  Si  Si28  1  0.656719  0.698190  0.000000  1
  Si  Si29  1  0.343281  0.301810  0.000000  1
  Si  Si30  1  0.004580  0.167242  0.500000  1
  Si  Si31  1  0.167242  0.995420  0.500000  1
  Si  Si32  1  0.832758  0.004580  0.500000  1
  Si  Si33  1  0.995420  0.832758  0.500000  1
  Si  Si34  1  0.495420  0.667242  0.500000  1
  Si  Si35  1  0.504580  0.332758  0.500000  1
  Si  Si36  1  0.667242  0.504580  0.500000  1
  Si  Si37  1  0.332758  0.495420  0.500000  1
