# generated using pymatgen
data_Rb3Ga2(AsO4)3
_symmetry_space_group_name_H-M   'P 1'
_cell_length_a   9.06393821
_cell_length_b   9.45608900
_cell_length_c   10.24504900
_cell_angle_alpha   90.00000000
_cell_angle_beta   116.25436036
_cell_angle_gamma   90.00000000
_symmetry_Int_Tables_number   1
_chemical_formula_structural   Rb3Ga2(AsO4)3
_chemical_formula_sum   'Rb6 Ga4 As6 O24'
_cell_volume   787.51176642
_cell_formula_units_Z   2
loop_
 _symmetry_equiv_pos_site_id
 _symmetry_equiv_pos_as_xyz
  1  'x, y, z'
loop_
 _atom_site_type_symbol
 _atom_site_label
 _atom_site_symmetry_multiplicity
 _atom_site_fract_x
 _atom_site_fract_y
 _atom_site_fract_z
 _atom_site_occupancy
  Rb  Rb0  1  0.640672  0.346420  0.000000  1
  Rb  Rb1  1  0.359328  0.846420  0.000000  1
  Rb  Rb2  1  0.066526  0.033562  0.232676  1
  Rb  Rb3  1  0.166151  0.533562  0.232676  1
  Rb  Rb4  1  0.833848  0.033562  0.767325  1
  Rb  Rb5  1  0.933475  0.533562  0.767325  1
  Ga  Ga6  1  0.511071  0.177544  0.333608  1
  Ga  Ga7  1  0.822538  0.677544  0.333608  1
  Ga  Ga8  1  0.177462  0.177544  0.666391  1
  Ga  Ga9  1  0.488928  0.677544  0.666391  1
  As  As10  1  0.227622  0.236965  0.000000  1
  As  As11  1  0.772378  0.736965  0.000000  1
  As  As12  1  0.875410  0.343566  0.411608  1
  As  As13  1  0.536198  0.843566  0.411608  1
  As  As14  1  0.463803  0.343566  0.588393  1
  As  As15  1  0.124590  0.843566  0.588393  1
  O  O16  1  0.041069  0.237316  0.000000  1
  O  O17  1  0.311772  0.395954  0.000000  1
  O  O18  1  0.958931  0.737316  0.000000  1
  O  O19  1  0.688228  0.895955  0.000000  1
  O  O20  1  0.361976  0.126189  0.146317  1
  O  O21  1  0.784341  0.626189  0.146317  1
  O  O22  1  0.973781  0.320716  0.308406  1
  O  O23  1  0.334625  0.820716  0.308406  1
  O  O24  1  0.677680  0.276022  0.315910  1
  O  O25  1  0.638231  0.776022  0.315910  1
  O  O26  1  0.387561  0.273421  0.412573  1
  O  O27  1  0.025011  0.773422  0.412573  1
  O  O28  1  0.601272  0.019092  0.450224  1
  O  O29  1  0.848953  0.519092  0.450224  1
  O  O30  1  0.151047  0.019092  0.549776  1
  O  O31  1  0.398728  0.519092  0.549776  1
  O  O32  1  0.974989  0.273421  0.587428  1
  O  O33  1  0.612438  0.773422  0.587428  1
  O  O34  1  0.361769  0.276022  0.684089  1
  O  O35  1  0.322319  0.776022  0.684089  1
  O  O36  1  0.665375  0.320716  0.691593  1
  O  O37  1  0.026219  0.820716  0.691593  1
  O  O38  1  0.215659  0.126189  0.853682  1
  O  O39  1  0.638023  0.626189  0.853682  1
