# generated using pymatgen
data_Cs8NiP4PtS16
_symmetry_space_group_name_H-M   'P 1'
_cell_length_a   13.43370986
_cell_length_b   7.48218535
_cell_length_c   9.83798008
_cell_angle_alpha   84.99982173
_cell_angle_beta   90.60598053
_cell_angle_gamma   89.41481903
_symmetry_Int_Tables_number   1
_chemical_formula_structural   Cs8NiP4PtS16
_chemical_formula_sum   'Cs8 Ni1 P4 Pt1 S16'
_cell_volume   984.97010344
_cell_formula_units_Z   1
loop_
 _symmetry_equiv_pos_site_id
 _symmetry_equiv_pos_as_xyz
  1  'x, y, z'
loop_
 _atom_site_type_symbol
 _atom_site_label
 _atom_site_symmetry_multiplicity
 _atom_site_fract_x
 _atom_site_fract_y
 _atom_site_fract_z
 _atom_site_occupancy
  Cs  Cs0  1  0.132095  0.820735  0.680687  1
  Cs  Cs1  1  0.629592  0.180306  0.821001  1
  Cs  Cs2  1  0.867905  0.179265  0.319313  1
  Cs  Cs3  1  0.370408  0.819694  0.178999  1
  Cs  Cs4  1  0.345831  0.277841  0.532847  1
  Cs  Cs5  1  0.844531  0.719887  0.965426  1
  Cs  Cs6  1  0.654169  0.722159  0.467153  1
  Cs  Cs7  1  0.155469  0.280113  0.034574  1
  Ni  Ni8  1  0.500000  0.500000  0.000000  1
  P  P9  1  0.421533  0.755504  0.766082  1
  P  P10  1  0.919051  0.237455  0.742503  1
  P  P11  1  0.578467  0.244496  0.233918  1
  P  P12  1  0.080949  0.762545  0.257497  1
  Pt  Pt13  1  0.000000  0.500000  0.500000  1
  S  S14  1  0.065963  0.303129  0.679087  1
  S  S15  1  0.566637  0.684599  0.837287  1
  S  S16  1  0.934037  0.696871  0.320913  1
  S  S17  1  0.433363  0.315401  0.162713  1
  S  S18  1  0.399432  0.752445  0.563148  1
  S  S19  1  0.896974  0.236864  0.944404  1
  S  S20  1  0.600568  0.247555  0.436852  1
  S  S21  1  0.103026  0.763136  0.055596  1
  S  S22  1  0.143487  0.531632  0.366215  1
  S  S23  1  0.638830  0.469574  0.122803  1
  S  S24  1  0.856513  0.468368  0.633785  1
  S  S25  1  0.361170  0.530426  0.877197  1
  S  S26  1  0.375280  0.990175  0.832763  1
  S  S27  1  0.873962  0.007664  0.669231  1
  S  S28  1  0.624720  0.009825  0.167237  1
  S  S29  1  0.126038  0.992336  0.330769  1
