# generated using pymatgen
data_Ho2MnFe7(P3W)2
_symmetry_space_group_name_H-M   'P 1'
_cell_length_a   3.67317100
_cell_length_b   10.37604900
_cell_length_c   12.19870500
_cell_angle_alpha   90.00000000
_cell_angle_beta   90.00000000
_cell_angle_gamma   90.00000000
_symmetry_Int_Tables_number   1
_chemical_formula_structural   Ho2MnFe7(P3W)2
_chemical_formula_sum   'Ho4 Mn2 Fe14 P12 W4'
_cell_volume   464.92927149
_cell_formula_units_Z   2
loop_
 _symmetry_equiv_pos_site_id
 _symmetry_equiv_pos_as_xyz
  1  'x, y, z'
loop_
 _atom_site_type_symbol
 _atom_site_label
 _atom_site_symmetry_multiplicity
 _atom_site_fract_x
 _atom_site_fract_y
 _atom_site_fract_z
 _atom_site_occupancy
  Ho  Ho0  1  0.250000  0.583065  0.710981  1
  Ho  Ho1  1  0.250000  0.916935  0.210981  1
  Ho  Ho2  1  0.750000  0.417077  0.288642  1
  Ho  Ho3  1  0.750000  0.082923  0.788642  1
  Mn  Mn4  1  0.250000  0.410713  0.491520  1
  Mn  Mn5  1  0.250000  0.089287  0.991520  1
  Fe  Fe6  1  0.750000  0.587993  0.509949  1
  Fe  Fe7  1  0.750000  0.912007  0.009949  1
  Fe  Fe8  1  0.250000  0.217101  0.173188  1
  Fe  Fe9  1  0.250000  0.282899  0.673188  1
  Fe  Fe10  1  0.750000  0.781453  0.826000  1
  Fe  Fe11  1  0.750000  0.718547  0.326000  1
  Fe  Fe12  1  0.250000  0.880827  0.695824  1
  Fe  Fe13  1  0.250000  0.619173  0.195824  1
  Fe  Fe14  1  0.750000  0.118418  0.303917  1
  Fe  Fe15  1  0.750000  0.381582  0.803917  1
  Fe  Fe16  1  0.250000  0.464443  0.935914  1
  Fe  Fe17  1  0.250000  0.035557  0.435914  1
  Fe  Fe18  1  0.750000  0.536189  0.064182  1
  Fe  Fe19  1  0.750000  0.963811  0.564182  1
  P  P20  1  0.250000  0.422311  0.114354  1
  P  P21  1  0.250000  0.077689  0.614354  1
  P  P22  1  0.750000  0.577978  0.885912  1
  P  P23  1  0.750000  0.922022  0.385912  1
  P  P24  1  0.250000  0.271069  0.858767  1
  P  P25  1  0.250000  0.228931  0.358767  1
  P  P26  1  0.750000  0.729548  0.140946  1
  P  P27  1  0.750000  0.770452  0.640946  1
  P  P28  1  0.250000  0.598801  0.378645  1
  P  P29  1  0.250000  0.901199  0.878645  1
  P  P30  1  0.750000  0.402127  0.621787  1
  P  P31  1  0.750000  0.097873  0.121787  1
  W  W32  1  0.250000  0.704712  0.990939  1
  W  W33  1  0.250000  0.795288  0.490939  1
  W  W34  1  0.750000  0.295183  0.008532  1
  W  W35  1  0.750000  0.204817  0.508532  1
