# generated using pymatgen
data_Er2FeCo3(SiC)2
_symmetry_space_group_name_H-M   'P 1'
_cell_length_a   5.53956261
_cell_length_b   5.53956408
_cell_length_c   6.71611986
_cell_angle_alpha   89.91987807
_cell_angle_beta   90.08012083
_cell_angle_gamma   141.22275283
_symmetry_Int_Tables_number   1
_chemical_formula_structural   Er2FeCo3(SiC)2
_chemical_formula_sum   'Er2 Fe1 Co3 Si2 C2'
_cell_volume   129.07658620
_cell_formula_units_Z   1
loop_
 _symmetry_equiv_pos_site_id
 _symmetry_equiv_pos_as_xyz
  1  'x, y, z'
loop_
 _atom_site_type_symbol
 _atom_site_label
 _atom_site_symmetry_multiplicity
 _atom_site_fract_x
 _atom_site_fract_y
 _atom_site_fract_z
 _atom_site_occupancy
  Er  Er0  1  0.550137  0.449863  0.250461  1
  Er  Er1  1  0.449758  0.550242  0.749042  1
  Fe  Fe2  1  0.836337  0.163663  0.441586  1
  Co  Co3  1  0.835628  0.164372  0.056476  1
  Co  Co4  1  0.163907  0.836093  0.945071  1
  Co  Co5  1  0.164927  0.835073  0.557772  1
  Si  Si6  1  0.271941  0.728059  0.252197  1
  Si  Si7  1  0.729082  0.270918  0.748225  1
  C  C8  1  0.999563  0.000437  0.999748  1
  C  C9  1  0.998720  0.001280  0.499423  1
