# generated using pymatgen
data_CaGa4(Fe3Ge)2
_symmetry_space_group_name_H-M   'P 1'
_cell_length_a   5.02457456
_cell_length_b   6.54580562
_cell_length_c   6.54580580
_cell_angle_alpha   79.96395433
_cell_angle_beta   67.43067585
_cell_angle_gamma   67.43067539
_symmetry_Int_Tables_number   1
_chemical_formula_structural   CaGa4(Fe3Ge)2
_chemical_formula_sum   'Ca1 Ga4 Fe6 Ge2'
_cell_volume   183.48598442
_cell_formula_units_Z   1
loop_
 _symmetry_equiv_pos_site_id
 _symmetry_equiv_pos_as_xyz
  1  'x, y, z'
loop_
 _atom_site_type_symbol
 _atom_site_label
 _atom_site_symmetry_multiplicity
 _atom_site_fract_x
 _atom_site_fract_y
 _atom_site_fract_z
 _atom_site_occupancy
  Ca  Ca0  1  0.000000  0.000000  0.000000  1
  Ga  Ga1  1  0.340390  0.659610  0.659610  1
  Ga  Ga2  1  0.659610  0.340390  0.340390  1
  Ga  Ga3  1  0.324085  0.175915  0.175915  1
  Ga  Ga4  1  0.675915  0.824085  0.824085  1
  Fe  Fe5  1  0.500000  0.247947  0.752053  1
  Fe  Fe6  1  0.500000  0.752053  0.247947  1
  Fe  Fe7  1  0.000000  0.500000  0.000000  1
  Fe  Fe8  1  0.500000  0.500000  0.000000  1
  Fe  Fe9  1  0.000000  0.000000  0.500000  1
  Fe  Fe10  1  0.500000  0.000000  0.500000  1
  Ge  Ge11  1  0.000000  0.656389  0.343611  1
  Ge  Ge12  1  0.000000  0.343611  0.656389  1
