# generated using pymatgen
data_Gd2Pu(SnPt)3
_symmetry_space_group_name_H-M   'P 1'
_cell_length_a   7.57000695
_cell_length_b   7.57000706
_cell_length_c   4.10228000
_cell_angle_alpha   90.00000000
_cell_angle_beta   90.00000000
_cell_angle_gamma   120.20357139
_symmetry_Int_Tables_number   1
_chemical_formula_structural   Gd2Pu(SnPt)3
_chemical_formula_sum   'Gd2 Pu1 Sn3 Pt3'
_cell_volume   203.16736914
_cell_formula_units_Z   1
loop_
 _symmetry_equiv_pos_site_id
 _symmetry_equiv_pos_as_xyz
  1  'x, y, z'
loop_
 _atom_site_type_symbol
 _atom_site_label
 _atom_site_symmetry_multiplicity
 _atom_site_fract_x
 _atom_site_fract_y
 _atom_site_fract_z
 _atom_site_occupancy
  Gd  Gd0  1  0.590847  0.999465  0.500000  1
  Gd  Gd1  1  0.999465  0.590847  0.500000  1
  Pu  Pu2  1  0.413085  0.413085  0.500000  1
  Sn  Sn3  1  0.743635  0.743635  0.000000  1
  Sn  Sn4  1  0.255471  0.999779  0.000000  1
  Sn  Sn5  1  0.999779  0.255471  0.000000  1
  Pt  Pt6  1  0.666575  0.333941  0.000000  1
  Pt  Pt7  1  0.333941  0.666575  0.000000  1
  Pt  Pt8  1  0.997202  0.997202  0.500000  1
