# generated using pymatgen
data_Ho20(IrRh3)3
_symmetry_space_group_name_H-M   'P 1'
_cell_length_a   10.83974426
_cell_length_b   10.83974426
_cell_length_c   6.33766400
_cell_angle_alpha   90.00169593
_cell_angle_beta   90.00169593
_cell_angle_gamma   89.94485943
_symmetry_Int_Tables_number   1
_chemical_formula_structural   Ho20(IrRh3)3
_chemical_formula_sum   'Ho20 Ir3 Rh9'
_cell_volume   744.67552664
_cell_formula_units_Z   1
loop_
 _symmetry_equiv_pos_site_id
 _symmetry_equiv_pos_as_xyz
  1  'x, y, z'
loop_
 _atom_site_type_symbol
 _atom_site_label
 _atom_site_symmetry_multiplicity
 _atom_site_fract_x
 _atom_site_fract_y
 _atom_site_fract_z
 _atom_site_occupancy
  Ho  Ho0  1  0.291052  0.089651  0.378199  1
  Ho  Ho1  1  0.291176  0.910124  0.878050  1
  Ho  Ho2  1  0.709048  0.088266  0.878145  1
  Ho  Ho3  1  0.708768  0.910216  0.377997  1
  Ho  Ho4  1  0.587513  0.789771  0.879223  1
  Ho  Ho5  1  0.587156  0.209428  0.377980  1
  Ho  Ho6  1  0.412468  0.790000  0.378707  1
  Ho  Ho7  1  0.410972  0.209484  0.879386  1
  Ho  Ho8  1  0.210229  0.412487  0.620777  1
  Ho  Ho9  1  0.210000  0.587532  0.121293  1
  Ho  Ho10  1  0.790572  0.412844  0.122020  1
  Ho  Ho11  1  0.790516  0.589028  0.620614  1
  Ho  Ho12  1  0.910349  0.708948  0.121801  1
  Ho  Ho13  1  0.911734  0.290952  0.621855  1
  Ho  Ho14  1  0.089876  0.708824  0.621950  1
  Ho  Ho15  1  0.089784  0.291232  0.122003  1
  Ho  Ho16  1  0.999877  0.999934  0.499872  1
  Ho  Ho17  1  0.000066  0.000123  0.000128  1
  Ho  Ho18  1  0.499723  0.500043  0.999906  1
  Ho  Ho19  1  0.499957  0.500277  0.500094  1
  Ir  Ir20  1  0.654673  0.654075  0.250065  1
  Ir  Ir21  1  0.345925  0.345327  0.249935  1
  Ir  Ir22  1  0.345304  0.654696  0.750000  1
  Rh  Rh23  1  0.846019  0.153981  0.250000  1
  Rh  Rh24  1  0.846443  0.846845  0.750183  1
  Rh  Rh25  1  0.153155  0.153557  0.749817  1
  Rh  Rh26  1  0.153313  0.846687  0.250000  1
  Rh  Rh27  1  0.654884  0.345116  0.750000  1
  Rh  Rh28  1  0.500271  0.000467  0.121993  1
  Rh  Rh29  1  0.500347  0.000699  0.622533  1
  Rh  Rh30  1  0.999301  0.499653  0.877467  1
  Rh  Rh31  1  0.999533  0.499729  0.378007  1
