# generated using pymatgen
data_Tb18DyThSn16
_symmetry_space_group_name_H-M   'P 1'
_cell_length_a   8.09860450
_cell_length_b   8.22361794
_cell_length_c   15.56432400
_cell_angle_alpha   90.07623538
_cell_angle_beta   89.79968450
_cell_angle_gamma   89.89209402
_symmetry_Int_Tables_number   1
_chemical_formula_structural   Tb18DyThSn16
_chemical_formula_sum   'Tb18 Dy1 Th1 Sn16'
_cell_volume   1036.57221961
_cell_formula_units_Z   1
loop_
 _symmetry_equiv_pos_site_id
 _symmetry_equiv_pos_as_xyz
  1  'x, y, z'
loop_
 _atom_site_type_symbol
 _atom_site_label
 _atom_site_symmetry_multiplicity
 _atom_site_fract_x
 _atom_site_fract_y
 _atom_site_fract_z
 _atom_site_occupancy
  Tb  Tb0  1  0.367011  0.835857  0.877859  1
  Tb  Tb1  1  0.868223  0.664090  0.621322  1
  Tb  Tb2  1  0.631472  0.162893  0.377922  1
  Tb  Tb3  1  0.133109  0.337091  0.122619  1
  Tb  Tb4  1  0.633038  0.162845  0.122475  1
  Tb  Tb5  1  0.132104  0.337340  0.378109  1
  Tb  Tb6  1  0.368302  0.836868  0.621873  1
  Tb  Tb7  1  0.867158  0.662739  0.878049  1
  Tb  Tb8  1  0.522590  0.322022  0.902006  1
  Tb  Tb9  1  0.022785  0.179023  0.598904  1
  Tb  Tb10  1  0.478519  0.678614  0.401869  1
  Tb  Tb11  1  0.979539  0.821250  0.098504  1
  Tb  Tb12  1  0.479905  0.678422  0.098048  1
  Tb  Tb13  1  0.978825  0.821109  0.401870  1
  Tb  Tb14  1  0.521212  0.322695  0.597173  1
  Tb  Tb15  1  0.198172  0.500925  0.749313  1
  Tb  Tb16  1  0.698023  0.997429  0.748845  1
  Tb  Tb17  1  0.801605  0.497968  0.250587  1
  Dy  Dy18  1  0.301625  0.001885  0.250034  1
  Th  Th19  1  0.017573  0.180216  0.903165  1
  Sn  Sn20  1  0.293402  0.035152  0.042444  1
  Sn  Sn21  1  0.791266  0.463967  0.458051  1
  Sn  Sn22  1  0.708992  0.965931  0.541922  1
  Sn  Sn23  1  0.209099  0.535234  0.957937  1
  Sn  Sn24  1  0.704544  0.961046  0.958967  1
  Sn  Sn25  1  0.208325  0.536793  0.541653  1
  Sn  Sn26  1  0.291499  0.036107  0.458174  1
  Sn  Sn27  1  0.793136  0.462000  0.041258  1
  Sn  Sn28  1  0.565024  0.619613  0.749727  1
  Sn  Sn29  1  0.065427  0.879822  0.750989  1
  Sn  Sn30  1  0.434764  0.380942  0.250030  1
  Sn  Sn31  1  0.934935  0.119017  0.250256  1
  Sn  Sn32  1  0.331051  0.147140  0.749905  1
  Sn  Sn33  1  0.826786  0.355856  0.748288  1
  Sn  Sn34  1  0.670586  0.852837  0.249855  1
  Sn  Sn35  1  0.170378  0.647263  0.249995  1
