# generated using pymatgen
data_Dy2YLu3MnSb2
_symmetry_space_group_name_H-M   'P 1'
_cell_length_a   8.05220270
_cell_length_b   8.05220382
_cell_length_c   4.24230100
_cell_angle_alpha   90.00000000
_cell_angle_beta   90.00000000
_cell_angle_gamma   119.85215692
_symmetry_Int_Tables_number   1
_chemical_formula_structural   Dy2YLu3MnSb2
_chemical_formula_sum   'Dy2 Y1 Lu3 Mn1 Sb2'
_cell_volume   238.56495148
_cell_formula_units_Z   1
loop_
 _symmetry_equiv_pos_site_id
 _symmetry_equiv_pos_as_xyz
  1  'x, y, z'
loop_
 _atom_site_type_symbol
 _atom_site_label
 _atom_site_symmetry_multiplicity
 _atom_site_fract_x
 _atom_site_fract_y
 _atom_site_fract_z
 _atom_site_occupancy
  Dy  Dy0  1  0.604531  0.999813  0.000000  1
  Dy  Dy1  1  0.999813  0.604531  0.000000  1
  Y  Y2  1  0.395766  0.395766  0.000000  1
  Lu  Lu3  1  0.233215  0.999714  0.500000  1
  Lu  Lu4  1  0.999714  0.233215  0.500000  1
  Lu  Lu5  1  0.767164  0.767164  0.500000  1
  Mn  Mn6  1  0.999731  0.999731  0.000000  1
  Sb  Sb7  1  0.333603  0.666464  0.500000  1
  Sb  Sb8  1  0.666464  0.333603  0.500000  1
