# generated using pymatgen
data_Tb6YbCdCo4(Sn11Ir)2
_symmetry_space_group_name_H-M   'P 1'
_cell_length_a   9.78425685
_cell_length_b   9.78425550
_cell_length_c   10.01720000
_cell_angle_alpha   90.24002299
_cell_angle_beta   89.75997704
_cell_angle_gamma   119.98813402
_symmetry_Int_Tables_number   1
_chemical_formula_structural   Tb6YbCdCo4(Sn11Ir)2
_chemical_formula_sum   'Tb6 Yb1 Cd1 Co4 Sn22 Ir2'
_cell_volume   830.57612088
_cell_formula_units_Z   1
loop_
 _symmetry_equiv_pos_site_id
 _symmetry_equiv_pos_as_xyz
  1  'x, y, z'
loop_
 _atom_site_type_symbol
 _atom_site_label
 _atom_site_symmetry_multiplicity
 _atom_site_fract_x
 _atom_site_fract_y
 _atom_site_fract_z
 _atom_site_occupancy
  Tb  Tb0  1  0.479439  0.520561  0.307023  1
  Tb  Tb1  1  0.520561  0.479439  0.692977  1
  Tb  Tb2  1  0.480090  0.958695  0.306338  1
  Tb  Tb3  1  0.519910  0.041305  0.693662  1
  Tb  Tb4  1  0.041305  0.519910  0.306338  1
  Tb  Tb5  1  0.958695  0.480090  0.693662  1
  Yb  Yb6  1  0.000000  0.000000  0.000000  1
  Cd  Cd7  1  0.000000  0.000000  0.500000  1
  Co  Co8  1  0.829493  0.661155  0.198800  1
  Co  Co9  1  0.170507  0.338845  0.801200  1
  Co  Co10  1  0.338845  0.170507  0.198800  1
  Co  Co11  1  0.661155  0.829493  0.801200  1
  Sn  Sn12  1  0.349797  0.004527  0.005290  1
  Sn  Sn13  1  0.650203  0.995473  0.994710  1
  Sn  Sn14  1  0.004527  0.349797  0.994710  1
  Sn  Sn15  1  0.995473  0.650203  0.005290  1
  Sn  Sn16  1  0.654893  0.654893  0.000000  1
  Sn  Sn17  1  0.345107  0.345107  0.000000  1
  Sn  Sn18  1  0.335905  0.664095  0.819661  1
  Sn  Sn19  1  0.664095  0.335905  0.180339  1
  Sn  Sn20  1  0.780074  0.219926  0.459425  1
  Sn  Sn21  1  0.219926  0.780074  0.540575  1
  Sn  Sn22  1  0.782201  0.564140  0.452656  1
  Sn  Sn23  1  0.217799  0.435860  0.547344  1
  Sn  Sn24  1  0.435860  0.217799  0.452656  1
  Sn  Sn25  1  0.564140  0.782201  0.547344  1
  Sn  Sn26  1  0.333705  0.666295  0.116876  1
  Sn  Sn27  1  0.666295  0.333705  0.883124  1
  Sn  Sn28  1  0.115201  0.884799  0.270643  1
  Sn  Sn29  1  0.884799  0.115201  0.729357  1
  Sn  Sn30  1  0.123006  0.233877  0.274721  1
  Sn  Sn31  1  0.876994  0.766123  0.725279  1
  Sn  Sn32  1  0.766123  0.876994  0.274721  1
  Sn  Sn33  1  0.233877  0.123006  0.725279  1
  Ir  Ir34  1  0.831014  0.168986  0.198846  1
  Ir  Ir35  1  0.168986  0.831014  0.801154  1
