# generated using pymatgen
data_Ti2Nb2Si4OsPt3
_symmetry_space_group_name_H-M   'P 1'
_cell_length_a   3.83616400
_cell_length_b   6.42132593
_cell_length_c   7.38778584
_cell_angle_alpha   89.51427237
_cell_angle_beta   90.00000000
_cell_angle_gamma   90.00000000
_symmetry_Int_Tables_number   1
_chemical_formula_structural   Ti2Nb2Si4OsPt3
_chemical_formula_sum   'Ti2 Nb2 Si4 Os1 Pt3'
_cell_volume   181.97870512
_cell_formula_units_Z   1
loop_
 _symmetry_equiv_pos_site_id
 _symmetry_equiv_pos_as_xyz
  1  'x, y, z'
loop_
 _atom_site_type_symbol
 _atom_site_label
 _atom_site_symmetry_multiplicity
 _atom_site_fract_x
 _atom_site_fract_y
 _atom_site_fract_z
 _atom_site_occupancy
  Ti  Ti0  1  0.250000  0.022819  0.834117  1
  Ti  Ti1  1  0.250000  0.529403  0.678598  1
  Nb  Nb2  1  0.750000  0.478310  0.320609  1
  Nb  Nb3  1  0.750000  0.971283  0.169970  1
  Si  Si4  1  0.250000  0.268083  0.125495  1
  Si  Si5  1  0.250000  0.762861  0.369014  1
  Si  Si6  1  0.750000  0.737394  0.880253  1
  Si  Si7  1  0.750000  0.240134  0.623574  1
  Os  Os8  1  0.250000  0.643045  0.057061  1
  Pt  Pt9  1  0.250000  0.147470  0.441738  1
  Pt  Pt10  1  0.750000  0.849811  0.569493  1
  Pt  Pt11  1  0.750000  0.349386  0.930077  1
