# generated using pymatgen
data_DyY2Ho3Ir2
_symmetry_space_group_name_H-M   'P 1'
_cell_length_a   6.38470441
_cell_length_b   7.23594300
_cell_length_c   9.22725600
_cell_angle_alpha   90.00000000
_cell_angle_beta   90.16163833
_cell_angle_gamma   90.00000000
_symmetry_Int_Tables_number   1
_chemical_formula_structural   DyY2Ho3Ir2
_chemical_formula_sum   'Dy2 Y4 Ho6 Ir4'
_cell_volume   426.29159919
_cell_formula_units_Z   2
loop_
 _symmetry_equiv_pos_site_id
 _symmetry_equiv_pos_as_xyz
  1  'x, y, z'
loop_
 _atom_site_type_symbol
 _atom_site_label
 _atom_site_symmetry_multiplicity
 _atom_site_fract_x
 _atom_site_fract_y
 _atom_site_fract_z
 _atom_site_occupancy
  Dy  Dy0  1  0.328062  0.677005  0.062690  1
  Dy  Dy1  1  0.171938  0.177005  0.437310  1
  Y  Y2  1  0.871280  0.533499  0.250172  1
  Y  Y3  1  0.628720  0.033499  0.249828  1
  Y  Y4  1  0.128406  0.466561  0.749935  1
  Y  Y5  1  0.371594  0.966561  0.750065  1
  Ho  Ho6  1  0.671601  0.323263  0.562821  1
  Ho  Ho7  1  0.828399  0.823263  0.937179  1
  Ho  Ho8  1  0.671398  0.323221  0.937110  1
  Ho  Ho9  1  0.828602  0.823221  0.562890  1
  Ho  Ho10  1  0.328625  0.676650  0.437524  1
  Ho  Ho11  1  0.171375  0.176650  0.062476  1
  Ir  Ir12  1  0.048720  0.883775  0.250036  1
  Ir  Ir13  1  0.451280  0.383775  0.249964  1
  Ir  Ir14  1  0.950641  0.116023  0.751088  1
  Ir  Ir15  1  0.549359  0.616023  0.748912  1
