# generated using pymatgen
data_TbU5O12
_symmetry_space_group_name_H-M   'P 1'
_cell_length_a   6.61853860
_cell_length_b   6.61853849
_cell_length_c   6.61990624
_cell_angle_alpha   80.38789115
_cell_angle_beta   80.38788666
_cell_angle_gamma   119.98054994
_symmetry_Int_Tables_number   1
_chemical_formula_structural   TbU5O12
_chemical_formula_sum   'Tb1 U5 O12'
_cell_volume   236.77195740
_cell_formula_units_Z   1
loop_
 _symmetry_equiv_pos_site_id
 _symmetry_equiv_pos_as_xyz
  1  'x, y, z'
loop_
 _atom_site_type_symbol
 _atom_site_label
 _atom_site_symmetry_multiplicity
 _atom_site_fract_x
 _atom_site_fract_y
 _atom_site_fract_z
 _atom_site_occupancy
  Tb  Tb0  1  0.500000  0.500000  0.500000  1
  U  U1  1  0.833496  0.166504  0.500000  1
  U  U2  1  0.166504  0.833496  0.500000  1
  U  U3  1  0.665231  0.334769  0.000000  1
  U  U4  1  0.000000  0.000000  0.000000  1
  U  U5  1  0.334769  0.665231  0.000000  1
  O  O6  1  0.118504  0.118504  0.628771  1
  O  O7  1  0.707588  0.042080  0.876949  1
  O  O8  1  0.957920  0.292412  0.123051  1
  O  O9  1  0.371665  0.371665  0.881078  1
  O  O10  1  0.042080  0.707588  0.876949  1
  O  O11  1  0.542196  0.204312  0.370919  1
  O  O12  1  0.881496  0.881496  0.371229  1
  O  O13  1  0.457804  0.795688  0.629081  1
  O  O14  1  0.628335  0.628335  0.118922  1
  O  O15  1  0.292412  0.957920  0.123051  1
  O  O16  1  0.795688  0.457804  0.629081  1
  O  O17  1  0.204312  0.542196  0.370919  1
