# generated using pymatgen
data_Ac3ReO8
_symmetry_space_group_name_H-M   'P 1'
_cell_length_a   6.39857000
_cell_length_b   7.87385769
_cell_length_c   7.87004763
_cell_angle_alpha   70.14313703
_cell_angle_beta   90.00000000
_cell_angle_gamma   90.00000000
_symmetry_Int_Tables_number   1
_chemical_formula_structural   Ac3ReO8
_chemical_formula_sum   'Ac6 Re2 O16'
_cell_volume   372.92974396
_cell_formula_units_Z   2
loop_
 _symmetry_equiv_pos_site_id
 _symmetry_equiv_pos_as_xyz
  1  'x, y, z'
loop_
 _atom_site_type_symbol
 _atom_site_label
 _atom_site_symmetry_multiplicity
 _atom_site_fract_x
 _atom_site_fract_y
 _atom_site_fract_z
 _atom_site_occupancy
  Ac  Ac0  1  0.750000  0.106575  0.661562  1
  Ac  Ac1  1  0.250000  0.893425  0.338438  1
  Ac  Ac2  1  0.250000  0.396547  0.394914  1
  Ac  Ac3  1  0.750000  0.603453  0.605086  1
  Ac  Ac4  1  0.250000  0.336401  0.892831  1
  Ac  Ac5  1  0.750000  0.663599  0.107169  1
  Re  Re6  1  0.250000  0.816958  0.819188  1
  Re  Re7  1  0.750000  0.183042  0.180812  1
  O  O8  1  0.999727  0.337992  0.661089  1
  O  O9  1  0.499727  0.662008  0.338911  1
  O  O10  1  0.000273  0.662008  0.338911  1
  O  O11  1  0.500273  0.337992  0.661089  1
  O  O12  1  0.954250  0.804628  0.805384  1
  O  O13  1  0.454250  0.195372  0.194616  1
  O  O14  1  0.045750  0.195372  0.194616  1
  O  O15  1  0.545750  0.804628  0.805384  1
  O  O16  1  0.750000  0.976837  0.398232  1
  O  O17  1  0.250000  0.023163  0.601768  1
  O  O18  1  0.750000  0.335206  0.332798  1
  O  O19  1  0.250000  0.664794  0.667202  1
  O  O20  1  0.750000  0.401733  0.975300  1
  O  O21  1  0.250000  0.598267  0.024700  1
  O  O22  1  0.750000  0.040904  0.035217  1
  O  O23  1  0.250000  0.959096  0.964783  1
