# generated using pymatgen
data_TbEr2Pa(Pd2Pb)2
_symmetry_space_group_name_H-M   'P 1'
_cell_length_a   7.92996375
_cell_length_b   7.93843927
_cell_length_c   3.61380300
_cell_angle_alpha   90.00000000
_cell_angle_beta   90.00000000
_cell_angle_gamma   91.59900310
_symmetry_Int_Tables_number   1
_chemical_formula_structural   TbEr2Pa(Pd2Pb)2
_chemical_formula_sum   'Tb1 Er2 Pa1 Pd4 Pb2'
_cell_volume   227.40586213
_cell_formula_units_Z   1
loop_
 _symmetry_equiv_pos_site_id
 _symmetry_equiv_pos_as_xyz
  1  'x, y, z'
loop_
 _atom_site_type_symbol
 _atom_site_label
 _atom_site_symmetry_multiplicity
 _atom_site_fract_x
 _atom_site_fract_y
 _atom_site_fract_z
 _atom_site_occupancy
  Tb  Tb0  1  0.169803  0.331293  0.500000  1
  Er  Er1  1  0.831437  0.669652  0.500000  1
  Er  Er2  1  0.328025  0.827529  0.500000  1
  Pa  Pa3  1  0.668890  0.168445  0.500000  1
  Pd  Pd4  1  0.382989  0.127331  0.000000  1
  Pd  Pd5  1  0.121691  0.624800  0.000000  1
  Pd  Pd6  1  0.629836  0.880836  0.000000  1
  Pd  Pd7  1  0.864997  0.368030  0.000000  1
  Pb  Pb8  1  0.005282  0.995416  0.000000  1
  Pb  Pb9  1  0.497049  0.506667  0.000000  1
