# generated using pymatgen
data_Yb3Ga24TcPd8
_symmetry_space_group_name_H-M   'P 1'
_cell_length_a   8.48396196
_cell_length_b   8.48396332
_cell_length_c   8.48396371
_cell_angle_alpha   90.12177652
_cell_angle_beta   90.12177343
_cell_angle_gamma   90.12177569
_symmetry_Int_Tables_number   1
_chemical_formula_structural   Yb3Ga24TcPd8
_chemical_formula_sum   'Yb3 Ga24 Tc1 Pd8'
_cell_volume   610.65139001
_cell_formula_units_Z   1
loop_
 _symmetry_equiv_pos_site_id
 _symmetry_equiv_pos_as_xyz
  1  'x, y, z'
loop_
 _atom_site_type_symbol
 _atom_site_label
 _atom_site_symmetry_multiplicity
 _atom_site_fract_x
 _atom_site_fract_y
 _atom_site_fract_z
 _atom_site_occupancy
  Yb  Yb0  1  0.000000  0.500000  0.000000  1
  Yb  Yb1  1  0.500000  0.000000  0.000000  1
  Yb  Yb2  1  0.000000  0.000000  0.500000  1
  Ga  Ga3  1  0.989837  0.642743  0.642743  1
  Ga  Ga4  1  0.642743  0.642743  0.989837  1
  Ga  Ga5  1  0.642743  0.989837  0.642743  1
  Ga  Ga6  1  0.010163  0.357257  0.357257  1
  Ga  Ga7  1  0.357257  0.357257  0.010163  1
  Ga  Ga8  1  0.357257  0.010163  0.357257  1
  Ga  Ga9  1  0.737385  0.500000  0.262615  1
  Ga  Ga10  1  0.262615  0.500000  0.737385  1
  Ga  Ga11  1  0.500000  0.262615  0.737385  1
  Ga  Ga12  1  0.500000  0.737385  0.262615  1
  Ga  Ga13  1  0.262615  0.737385  0.500000  1
  Ga  Ga14  1  0.737385  0.262615  0.500000  1
  Ga  Ga15  1  0.839596  0.140556  0.839596  1
  Ga  Ga16  1  0.140556  0.839596  0.839596  1
  Ga  Ga17  1  0.839596  0.839596  0.140556  1
  Ga  Ga18  1  0.160404  0.859444  0.160404  1
  Ga  Ga19  1  0.859444  0.160404  0.160404  1
  Ga  Ga20  1  0.160404  0.160404  0.859444  1
  Ga  Ga21  1  0.728162  0.487295  0.728162  1
  Ga  Ga22  1  0.487295  0.728162  0.728162  1
  Ga  Ga23  1  0.728162  0.728162  0.487295  1
  Ga  Ga24  1  0.271838  0.512705  0.271838  1
  Ga  Ga25  1  0.512705  0.271838  0.271838  1
  Ga  Ga26  1  0.271838  0.271838  0.512705  1
  Tc  Tc27  1  0.500000  0.500000  0.500000  1
  Pd  Pd28  1  0.833421  0.833421  0.833421  1
  Pd  Pd29  1  0.166579  0.166579  0.166579  1
  Pd  Pd30  1  0.664617  0.335383  0.000000  1
  Pd  Pd31  1  0.000000  0.335383  0.664617  1
  Pd  Pd32  1  0.335383  0.000000  0.664617  1
  Pd  Pd33  1  0.335383  0.664617  0.000000  1
  Pd  Pd34  1  0.000000  0.664617  0.335383  1
  Pd  Pd35  1  0.664617  0.000000  0.335383  1
