# generated using pymatgen
data_Sm5Mo2C7
_symmetry_space_group_name_H-M   'P 1'
_cell_length_a   8.62874259
_cell_length_b   8.62874240
_cell_length_c   3.51548800
_cell_angle_alpha   90.00000000
_cell_angle_beta   90.00000000
_cell_angle_gamma   124.01195962
_symmetry_Int_Tables_number   1
_chemical_formula_structural   Sm5Mo2C7
_chemical_formula_sum   'Sm5 Mo2 C7'
_cell_volume   216.96700364
_cell_formula_units_Z   1
loop_
 _symmetry_equiv_pos_site_id
 _symmetry_equiv_pos_as_xyz
  1  'x, y, z'
loop_
 _atom_site_type_symbol
 _atom_site_label
 _atom_site_symmetry_multiplicity
 _atom_site_fract_x
 _atom_site_fract_y
 _atom_site_fract_z
 _atom_site_occupancy
  Sm  Sm0  1  0.500000  0.500000  0.000000  1
  Sm  Sm1  1  0.070304  0.328841  0.500000  1
  Sm  Sm2  1  0.929696  0.671159  0.500000  1
  Sm  Sm3  1  0.671159  0.929696  0.500000  1
  Sm  Sm4  1  0.328841  0.070304  0.500000  1
  Mo  Mo5  1  0.711901  0.288099  0.000000  1
  Mo  Mo6  1  0.288099  0.711901  0.000000  1
  C  C7  1  0.628993  0.371007  0.500000  1
  C  C8  1  0.371007  0.628993  0.500000  1
  C  C9  1  0.000000  0.000000  0.000000  1
  C  C10  1  0.167089  0.167089  0.000000  1
  C  C11  1  0.832911  0.832911  0.000000  1
  C  C12  1  0.000000  0.500000  0.000000  1
  C  C13  1  0.500000  0.000000  0.000000  1
