# generated using pymatgen
data_Er6Lu4Si5Bi
_symmetry_space_group_name_H-M   'P 1'
_cell_length_a   8.41981600
_cell_length_b   8.44348725
_cell_length_c   6.22812000
_cell_angle_alpha   90.00000000
_cell_angle_beta   90.00000000
_cell_angle_gamma   119.90730447
_symmetry_Int_Tables_number   1
_chemical_formula_structural   Er6Lu4Si5Bi
_chemical_formula_sum   'Er6 Lu4 Si5 Bi1'
_cell_volume   383.81059294
_cell_formula_units_Z   1
loop_
 _symmetry_equiv_pos_site_id
 _symmetry_equiv_pos_as_xyz
  1  'x, y, z'
loop_
 _atom_site_type_symbol
 _atom_site_label
 _atom_site_symmetry_multiplicity
 _atom_site_fract_x
 _atom_site_fract_y
 _atom_site_fract_z
 _atom_site_occupancy
  Er  Er0  1  0.768147  0.000000  0.750000  1
  Er  Er1  1  0.755287  0.756503  0.250000  1
  Er  Er2  1  0.998783  0.243497  0.250000  1
  Er  Er3  1  0.984358  0.745126  0.750000  1
  Er  Er4  1  0.239232  0.254874  0.750000  1
  Er  Er5  1  0.239605  0.000000  0.250000  1
  Lu  Lu6  1  0.677002  0.346237  0.004805  1
  Lu  Lu7  1  0.330763  0.653763  0.495195  1
  Lu  Lu8  1  0.330763  0.653763  0.004805  1
  Lu  Lu9  1  0.677002  0.346237  0.495195  1
  Si  Si10  1  0.394327  0.391549  0.250000  1
  Si  Si11  1  0.002777  0.608451  0.250000  1
  Si  Si12  1  0.998488  0.395525  0.750000  1
  Si  Si13  1  0.602963  0.604475  0.750000  1
  Si  Si14  1  0.606294  0.000000  0.250000  1
  Bi  Bi15  1  0.394212  0.000000  0.750000  1
