# generated using pymatgen
data_Th8Co3Si13
_symmetry_space_group_name_H-M   'P 1'
_cell_length_a   8.11800300
_cell_length_b   8.11800290
_cell_length_c   8.42869300
_cell_angle_alpha   90.00000000
_cell_angle_beta   90.00000000
_cell_angle_gamma   119.99999633
_symmetry_Int_Tables_number   1
_chemical_formula_structural   Th8Co3Si13
_chemical_formula_sum   'Th8 Co3 Si13'
_cell_volume   481.04897446
_cell_formula_units_Z   1
loop_
 _symmetry_equiv_pos_site_id
 _symmetry_equiv_pos_as_xyz
  1  'x, y, z'
loop_
 _atom_site_type_symbol
 _atom_site_label
 _atom_site_symmetry_multiplicity
 _atom_site_fract_x
 _atom_site_fract_y
 _atom_site_fract_z
 _atom_site_occupancy
  Th  Th0  1  0.000000  0.000000  0.750477  1
  Th  Th1  1  0.000000  0.000000  0.249531  1
  Th  Th2  1  0.500676  0.499324  0.750838  1
  Th  Th3  1  0.500676  0.001352  0.750838  1
  Th  Th4  1  0.998648  0.499324  0.750838  1
  Th  Th5  1  0.501160  0.498840  0.249373  1
  Th  Th6  1  0.997681  0.498840  0.249373  1
  Th  Th7  1  0.501160  0.002319  0.249373  1
  Co  Co8  1  0.666667  0.333333  0.998080  1
  Co  Co9  1  0.666667  0.333333  0.501488  1
  Co  Co10  1  0.333333  0.666667  0.498185  1
  Si  Si11  1  0.826635  0.173365  0.999685  1
  Si  Si12  1  0.826635  0.653272  0.999685  1
  Si  Si13  1  0.346728  0.173365  0.999685  1
  Si  Si14  1  0.828656  0.171344  0.500468  1
  Si  Si15  1  0.828656  0.657314  0.500468  1
  Si  Si16  1  0.342686  0.171344  0.500468  1
  Si  Si17  1  0.171741  0.828259  0.499658  1
  Si  Si18  1  0.656516  0.828259  0.499658  1
  Si  Si19  1  0.171741  0.343484  0.499658  1
  Si  Si20  1  0.164502  0.835498  0.000373  1
  Si  Si21  1  0.670996  0.835498  0.000373  1
  Si  Si22  1  0.164502  0.329004  0.000373  1
  Si  Si23  1  0.333333  0.666667  0.001053  1
