# generated using pymatgen
data_Lu4Ga18Ir4PdPt
_symmetry_space_group_name_H-M   'P 1'
_cell_length_a   7.58825403
_cell_length_b   7.58822396
_cell_length_c   9.42637901
_cell_angle_alpha   89.99859545
_cell_angle_beta   89.99839540
_cell_angle_gamma   119.80987617
_symmetry_Int_Tables_number   1
_chemical_formula_structural   Lu4Ga18Ir4PdPt
_chemical_formula_sum   'Lu4 Ga18 Ir4 Pd1 Pt1'
_cell_volume   470.96254936
_cell_formula_units_Z   1
loop_
 _symmetry_equiv_pos_site_id
 _symmetry_equiv_pos_as_xyz
  1  'x, y, z'
loop_
 _atom_site_type_symbol
 _atom_site_label
 _atom_site_symmetry_multiplicity
 _atom_site_fract_x
 _atom_site_fract_y
 _atom_site_fract_z
 _atom_site_occupancy
  Lu  Lu0  1  0.996767  0.670569  0.249833  1
  Lu  Lu1  1  0.003233  0.329431  0.750167  1
  Lu  Lu2  1  0.670566  0.996770  0.249833  1
  Lu  Lu3  1  0.329434  0.003230  0.750167  1
  Ga  Ga4  1  0.130442  0.130443  0.248983  1
  Ga  Ga5  1  0.869558  0.869557  0.751017  1
  Ga  Ga6  1  0.998187  0.337243  0.082662  1
  Ga  Ga7  1  0.001813  0.662757  0.917338  1
  Ga  Ga8  1  0.002041  0.662279  0.582780  1
  Ga  Ga9  1  0.337722  0.997959  0.417219  1
  Ga  Ga10  1  0.997959  0.337721  0.417220  1
  Ga  Ga11  1  0.662278  0.002041  0.582781  1
  Ga  Ga12  1  0.662759  0.001812  0.917336  1
  Ga  Ga13  1  0.337241  0.998188  0.082664  1
  Ga  Ga14  1  0.334371  0.334369  0.569984  1
  Ga  Ga15  1  0.665629  0.665631  0.430016  1
  Ga  Ga16  1  0.666082  0.666087  0.070253  1
  Ga  Ga17  1  0.333918  0.333913  0.929747  1
  Ga  Ga18  1  0.337222  0.547555  0.249900  1
  Ga  Ga19  1  0.662778  0.452445  0.750100  1
  Ga  Ga20  1  0.547557  0.337222  0.249898  1
  Ga  Ga21  1  0.452443  0.662778  0.750102  1
  Ir  Ir22  1  0.672015  0.327988  0.999999  1
  Ir  Ir23  1  0.327985  0.672012  0.000001  1
  Ir  Ir24  1  0.328168  0.671827  0.500001  1
  Ir  Ir25  1  0.671832  0.328173  0.499999  1
  Pd  Pd26  1  0.000000  0.000000  0.000000  1
  Pt  Pt27  1  0.000000  0.000000  0.500000  1
