# generated using pymatgen
data_SrSi3SnO9
_symmetry_space_group_name_H-M   'P 1'
_cell_length_a   6.68589400
_cell_length_b   6.68589346
_cell_length_c   9.97737800
_cell_angle_alpha   90.00000000
_cell_angle_beta   90.00000000
_cell_angle_gamma   119.99999280
_symmetry_Int_Tables_number   1
_chemical_formula_structural   SrSi3SnO9
_chemical_formula_sum   'Sr2 Si6 Sn2 O18'
_cell_volume   386.24780796
_cell_formula_units_Z   2
loop_
 _symmetry_equiv_pos_site_id
 _symmetry_equiv_pos_as_xyz
  1  'x, y, z'
loop_
 _atom_site_type_symbol
 _atom_site_label
 _atom_site_symmetry_multiplicity
 _atom_site_fract_x
 _atom_site_fract_y
 _atom_site_fract_z
 _atom_site_occupancy
  Sr  Sr0  1  0.000000  0.000000  0.000000  1
  Sr  Sr1  1  0.000000  0.000000  0.500000  1
  Si  Si2  1  0.388050  0.438861  0.250000  1
  Si  Si3  1  0.561139  0.949189  0.250000  1
  Si  Si4  1  0.388050  0.949189  0.750000  1
  Si  Si5  1  0.050811  0.611950  0.250000  1
  Si  Si6  1  0.561139  0.611950  0.750000  1
  Si  Si7  1  0.050811  0.438861  0.750000  1
  Sn  Sn8  1  0.666667  0.333333  0.000000  1
  Sn  Sn9  1  0.666667  0.333333  0.500000  1
  O  O10  1  0.914768  0.604956  0.113090  1
  O  O11  1  0.395044  0.309812  0.113090  1
  O  O12  1  0.914768  0.604956  0.386910  1
  O  O13  1  0.914768  0.309812  0.613090  1
  O  O14  1  0.690188  0.085232  0.113090  1
  O  O15  1  0.395044  0.309812  0.386910  1
  O  O16  1  0.395044  0.085232  0.613090  1
  O  O17  1  0.914768  0.309812  0.886910  1
  O  O18  1  0.690188  0.085232  0.386910  1
  O  O19  1  0.395044  0.085232  0.886910  1
  O  O20  1  0.690188  0.604956  0.613090  1
  O  O21  1  0.690188  0.604956  0.886910  1
  O  O22  1  0.130202  0.415353  0.250000  1
  O  O23  1  0.584647  0.714849  0.250000  1
  O  O24  1  0.130202  0.714849  0.750000  1
  O  O25  1  0.285151  0.869798  0.250000  1
  O  O26  1  0.584647  0.869798  0.750000  1
  O  O27  1  0.285151  0.415353  0.750000  1
