# generated using pymatgen
data_PmNbO4
_symmetry_space_group_name_H-M   'P 1'
_cell_length_a   6.41595189
_cell_length_b   6.41595046
_cell_length_c   6.41595100
_cell_angle_alpha   106.37234692
_cell_angle_beta   115.86443314
_cell_angle_gamma   106.37234621
_symmetry_Int_Tables_number   1
_chemical_formula_structural   PmNbO4
_chemical_formula_sum   'Pm2 Nb2 O8'
_cell_volume   201.39188949
_cell_formula_units_Z   2
loop_
 _symmetry_equiv_pos_site_id
 _symmetry_equiv_pos_as_xyz
  1  'x, y, z'
loop_
 _atom_site_type_symbol
 _atom_site_label
 _atom_site_symmetry_multiplicity
 _atom_site_fract_x
 _atom_site_fract_y
 _atom_site_fract_z
 _atom_site_occupancy
  Pm  Pm0  1  0.875001  0.250001  0.124999  1
  Pm  Pm1  1  0.124999  0.750000  0.875001  1
  Nb  Nb2  1  0.625000  0.750000  0.374999  1
  Nb  Nb3  1  0.375000  0.250000  0.624999  1
  O  O4  1  0.259286  0.563600  0.195686  1
  O  O5  1  0.632087  0.936400  0.195685  1
  O  O6  1  0.195686  0.063600  0.259286  1
  O  O7  1  0.804316  0.563600  0.367914  1
  O  O8  1  0.195685  0.436400  0.632086  1
  O  O9  1  0.804315  0.936399  0.740714  1
  O  O10  1  0.367914  0.063599  0.804315  1
  O  O11  1  0.740714  0.436399  0.804314  1
