# generated using pymatgen
data_HfBr16
_symmetry_space_group_name_H-M   'P 1'
_cell_length_a   9.82178980
_cell_length_b   11.26475599
_cell_length_c   8.94633371
_cell_angle_alpha   107.89909170
_cell_angle_beta   102.22175276
_cell_angle_gamma   68.16491381
_symmetry_Int_Tables_number   1
_chemical_formula_structural   HfBr16
_chemical_formula_sum   'Hf1 Br16'
_cell_volume   869.01039727
_cell_formula_units_Z   1
loop_
 _symmetry_equiv_pos_site_id
 _symmetry_equiv_pos_as_xyz
  1  'x, y, z'
loop_
 _atom_site_type_symbol
 _atom_site_label
 _atom_site_symmetry_multiplicity
 _atom_site_fract_x
 _atom_site_fract_y
 _atom_site_fract_z
 _atom_site_occupancy
  Hf  Hf0  1  0.000000  0.000000  0.000000  1
  Br  Br1  1  0.889177  0.182786  0.836746  1
  Br  Br2  1  0.110823  0.817214  0.163254  1
  Br  Br3  1  0.051306  0.824521  0.717898  1
  Br  Br4  1  0.948694  0.175479  0.282102  1
  Br  Br5  1  0.339643  0.260100  0.224422  1
  Br  Br6  1  0.660357  0.739900  0.775578  1
  Br  Br7  1  0.090224  0.268407  0.791890  1
  Br  Br8  1  0.909776  0.731593  0.208110  1
  Br  Br9  1  0.738433  0.992191  0.966676  1
  Br  Br10  1  0.261567  0.007809  0.033324  1
  Br  Br11  1  0.166626  0.581281  0.743101  1
  Br  Br12  1  0.833374  0.418719  0.256899  1
  Br  Br13  1  0.418114  0.444675  0.362827  1
  Br  Br14  1  0.581886  0.555325  0.637173  1
  Br  Br15  1  0.712982  0.656487  0.246998  1
  Br  Br16  1  0.287018  0.343513  0.753002  1
