# generated using pymatgen
data_La4CeIr2Rh
_symmetry_space_group_name_H-M   'P 1'
_cell_length_a   11.36021000
_cell_length_b   11.36021000
_cell_length_c   6.58325300
_cell_angle_alpha   90.00000000
_cell_angle_beta   90.00000000
_cell_angle_gamma   90.00000000
_symmetry_Int_Tables_number   1
_chemical_formula_structural   La4CeIr2Rh
_chemical_formula_sum   'La16 Ce4 Ir8 Rh4'
_cell_volume   849.59757666
_cell_formula_units_Z   4
loop_
 _symmetry_equiv_pos_site_id
 _symmetry_equiv_pos_as_xyz
  1  'x, y, z'
loop_
 _atom_site_type_symbol
 _atom_site_label
 _atom_site_symmetry_multiplicity
 _atom_site_fract_x
 _atom_site_fract_y
 _atom_site_fract_z
 _atom_site_occupancy
  La  La0  1  0.288121  0.089258  0.386611  1
  La  La1  1  0.288121  0.910742  0.886611  1
  La  La2  1  0.711879  0.089258  0.886611  1
  La  La3  1  0.711879  0.910742  0.386611  1
  La  La4  1  0.589258  0.788121  0.886611  1
  La  La5  1  0.589258  0.211879  0.386611  1
  La  La6  1  0.410742  0.788121  0.386611  1
  La  La7  1  0.410742  0.211879  0.886611  1
  La  La8  1  0.211879  0.410742  0.613389  1
  La  La9  1  0.211879  0.589258  0.113389  1
  La  La10  1  0.788121  0.410742  0.113389  1
  La  La11  1  0.788121  0.589258  0.613389  1
  La  La12  1  0.910742  0.711879  0.113389  1
  La  La13  1  0.910742  0.288121  0.613389  1
  La  La14  1  0.089258  0.711879  0.613389  1
  La  La15  1  0.089258  0.288121  0.113389  1
  Ce  Ce16  1  0.000000  0.000000  0.500000  1
  Ce  Ce17  1  0.000000  0.000000  0.000000  1
  Ce  Ce18  1  0.500000  0.500000  0.000000  1
  Ce  Ce19  1  0.500000  0.500000  0.500000  1
  Ir  Ir20  1  0.851017  0.148983  0.250000  1
  Ir  Ir21  1  0.851017  0.851017  0.750000  1
  Ir  Ir22  1  0.148983  0.148983  0.750000  1
  Ir  Ir23  1  0.148983  0.851017  0.250000  1
  Ir  Ir24  1  0.648983  0.351017  0.750000  1
  Ir  Ir25  1  0.648983  0.648983  0.250000  1
  Ir  Ir26  1  0.351017  0.351017  0.250000  1
  Ir  Ir27  1  0.351017  0.648983  0.750000  1
  Rh  Rh28  1  0.500000  0.000000  0.116454  1
  Rh  Rh29  1  0.500000  0.000000  0.616454  1
  Rh  Rh30  1  0.000000  0.500000  0.883546  1
  Rh  Rh31  1  0.000000  0.500000  0.383546  1
