# generated using pymatgen
data_Y3Tm4Sc3(In2Rh)4
_symmetry_space_group_name_H-M   'P 1'
_cell_length_a   3.54204300
_cell_length_b   7.90863437
_cell_length_c   18.00087109
_cell_angle_alpha   90.06729378
_cell_angle_beta   90.00000000
_cell_angle_gamma   90.00000000
_symmetry_Int_Tables_number   1
_chemical_formula_structural   Y3Tm4Sc3(In2Rh)4
_chemical_formula_sum   'Y3 Tm4 Sc3 In8 Rh4'
_cell_volume   504.25306797
_cell_formula_units_Z   1
loop_
 _symmetry_equiv_pos_site_id
 _symmetry_equiv_pos_as_xyz
  1  'x, y, z'
loop_
 _atom_site_type_symbol
 _atom_site_label
 _atom_site_symmetry_multiplicity
 _atom_site_fract_x
 _atom_site_fract_y
 _atom_site_fract_z
 _atom_site_occupancy
  Y  Y0  1  0.000000  0.999502  0.000823  1
  Y  Y1  1  0.000000  0.501276  0.497770  1
  Y  Y2  1  0.000000  0.878521  0.587232  1
  Tm  Tm3  1  0.000000  0.751779  0.784803  1
  Tm  Tm4  1  0.000000  0.247158  0.215411  1
  Tm  Tm5  1  0.000000  0.248816  0.721368  1
  Tm  Tm6  1  0.000000  0.748707  0.279924  1
  Sc  Sc7  1  0.000000  0.121457  0.408162  1
  Sc  Sc8  1  0.000000  0.379500  0.911063  1
  Sc  Sc9  1  0.000000  0.619777  0.089612  1
  In  In10  1  0.500000  0.807316  0.432325  1
  In  In11  1  0.500000  0.203903  0.563969  1
  In  In12  1  0.500000  0.310970  0.060206  1
  In  In13  1  0.500000  0.688572  0.939754  1
  In  In14  1  0.500000  0.920781  0.149576  1
  In  In15  1  0.500000  0.078212  0.852919  1
  In  In16  1  0.500000  0.422244  0.347348  1
  In  In17  1  0.500000  0.566646  0.652791  1
  Rh  Rh18  1  0.500000  0.970155  0.700021  1
  Rh  Rh19  1  0.500000  0.035922  0.304403  1
  Rh  Rh20  1  0.500000  0.467500  0.808427  1
  Rh  Rh21  1  0.500000  0.531287  0.192091  1
