# generated using pymatgen
data_DyLu7(AlRh)2
_symmetry_space_group_name_H-M   'P 1'
_cell_length_a   9.35686440
_cell_length_b   9.35038909
_cell_length_c   9.34655628
_cell_angle_alpha   60.06389158
_cell_angle_beta   59.96351559
_cell_angle_gamma   59.97709173
_symmetry_Int_Tables_number   1
_chemical_formula_structural   DyLu7(AlRh)2
_chemical_formula_sum   'Dy2 Lu14 Al4 Rh4'
_cell_volume   578.24332354
_cell_formula_units_Z   2
loop_
 _symmetry_equiv_pos_site_id
 _symmetry_equiv_pos_as_xyz
  1  'x, y, z'
loop_
 _atom_site_type_symbol
 _atom_site_label
 _atom_site_symmetry_multiplicity
 _atom_site_fract_x
 _atom_site_fract_y
 _atom_site_fract_z
 _atom_site_occupancy
  Dy  Dy0  1  0.936149  0.934980  0.565175  1
  Dy  Dy1  1  0.563696  0.934980  0.565175  1
  Lu  Lu2  1  0.564106  0.562412  0.937474  1
  Lu  Lu3  1  0.147503  0.558723  0.146274  1
  Lu  Lu4  1  0.692714  0.309345  0.305226  1
  Lu  Lu5  1  0.937987  0.560593  0.563434  1
  Lu  Lu6  1  0.936007  0.562412  0.937474  1
  Lu  Lu7  1  0.693346  0.692889  0.305874  1
  Lu  Lu8  1  0.562316  0.936129  0.939239  1
  Lu  Lu9  1  0.146907  0.147745  0.147234  1
  Lu  Lu10  1  0.307892  0.692889  0.305874  1
  Lu  Lu11  1  0.558113  0.147745  0.147234  1
  Lu  Lu12  1  0.306152  0.308178  0.693087  1
  Lu  Lu13  1  0.307186  0.692450  0.693179  1
  Lu  Lu14  1  0.147565  0.146885  0.557985  1
  Lu  Lu15  1  0.692584  0.308178  0.693087  1
  Al  Al16  1  0.921187  0.921718  0.922216  1
  Al  Al17  1  0.234878  0.921718  0.922216  1
  Al  Al18  1  0.922373  0.922056  0.233198  1
  Al  Al19  1  0.921090  0.236693  0.921124  1
  Rh  Rh20  1  0.357104  0.357407  0.928385  1
  Rh  Rh21  1  0.357284  0.358158  0.356707  1
  Rh  Rh22  1  0.927849  0.358158  0.356707  1
  Rh  Rh23  1  0.358008  0.927560  0.356422  1
