# generated using pymatgen
data_Dy2Y2Cd2Cu3Ru
_symmetry_space_group_name_H-M   'P 1'
_cell_length_a   7.50450475
_cell_length_b   7.51406474
_cell_length_c   3.80829300
_cell_angle_alpha   90.00000000
_cell_angle_beta   90.00000000
_cell_angle_gamma   89.51243711
_symmetry_Int_Tables_number   1
_chemical_formula_structural   Dy2Y2Cd2Cu3Ru
_chemical_formula_sum   'Dy2 Y2 Cd2 Cu3 Ru1'
_cell_volume   214.73933279
_cell_formula_units_Z   1
loop_
 _symmetry_equiv_pos_site_id
 _symmetry_equiv_pos_as_xyz
  1  'x, y, z'
loop_
 _atom_site_type_symbol
 _atom_site_label
 _atom_site_symmetry_multiplicity
 _atom_site_fract_x
 _atom_site_fract_y
 _atom_site_fract_z
 _atom_site_occupancy
  Dy  Dy0  1  0.313651  0.813323  0.500000  1
  Dy  Dy1  1  0.840919  0.681740  0.500000  1
  Y  Y2  1  0.672034  0.171941  0.500000  1
  Y  Y3  1  0.182126  0.339974  0.500000  1
  Cd  Cd4  1  0.999612  0.006379  0.000000  1
  Cd  Cd5  1  0.506404  0.499498  0.000000  1
  Cu  Cu6  1  0.875308  0.376220  0.000000  1
  Cu  Cu7  1  0.616168  0.876324  0.000000  1
  Cu  Cu8  1  0.377049  0.115159  0.000000  1
  Ru  Ru9  1  0.116729  0.619443  0.000000  1
