# generated using pymatgen
data_DyZr2IrF15
_symmetry_space_group_name_H-M   'P 1'
_cell_length_a   8.13521940
_cell_length_b   8.13521879
_cell_length_c   8.14009992
_cell_angle_alpha   79.88767291
_cell_angle_beta   79.88767322
_cell_angle_gamma   99.71354759
_symmetry_Int_Tables_number   1
_chemical_formula_structural   DyZr2IrF15
_chemical_formula_sum   'Dy2 Zr4 Ir2 F30'
_cell_volume   510.93146392
_cell_formula_units_Z   2
loop_
 _symmetry_equiv_pos_site_id
 _symmetry_equiv_pos_as_xyz
  1  'x, y, z'
loop_
 _atom_site_type_symbol
 _atom_site_label
 _atom_site_symmetry_multiplicity
 _atom_site_fract_x
 _atom_site_fract_y
 _atom_site_fract_z
 _atom_site_occupancy
  Dy  Dy0  1  0.176341  0.823659  0.250000  1
  Dy  Dy1  1  0.823659  0.176341  0.750000  1
  Zr  Zr2  1  0.747136  0.677034  0.673737  1
  Zr  Zr3  1  0.322966  0.252864  0.826263  1
  Zr  Zr4  1  0.252864  0.322966  0.326263  1
  Zr  Zr5  1  0.677034  0.747136  0.173737  1
  Ir  Ir6  1  0.749317  0.250683  0.250000  1
  Ir  Ir7  1  0.250683  0.749317  0.750000  1
  F  F8  1  0.314340  0.351119  0.054359  1
  F  F9  1  0.935518  0.811852  0.151345  1
  F  F10  1  0.843943  0.459151  0.685474  1
  F  F11  1  0.459151  0.843943  0.185474  1
  F  F12  1  0.811852  0.935518  0.651345  1
  F  F13  1  0.351119  0.314340  0.554358  1
  F  F14  1  0.685660  0.648881  0.945641  1
  F  F15  1  0.064482  0.188148  0.848655  1
  F  F16  1  0.156057  0.540849  0.314526  1
  F  F17  1  0.540849  0.156057  0.814526  1
  F  F18  1  0.188148  0.064482  0.348655  1
  F  F19  1  0.648881  0.685660  0.445641  1
  F  F20  1  0.773196  0.284505  0.003356  1
  F  F21  1  0.999873  0.274073  0.213271  1
  F  F22  1  0.784764  0.502808  0.224446  1
  F  F23  1  0.502808  0.784764  0.724446  1
  F  F24  1  0.274073  0.999873  0.713271  1
  F  F25  1  0.284505  0.773196  0.503356  1
  F  F26  1  0.226804  0.715495  0.996644  1
  F  F27  1  0.000127  0.725927  0.786729  1
  F  F28  1  0.215236  0.497192  0.775554  1
  F  F29  1  0.497192  0.215236  0.275554  1
  F  F30  1  0.725927  0.000127  0.286729  1
  F  F31  1  0.715495  0.226804  0.496644  1
  F  F32  1  0.469649  0.530351  0.250000  1
  F  F33  1  0.745872  0.955701  0.973094  1
  F  F34  1  0.044299  0.254128  0.526906  1
  F  F35  1  0.254128  0.044299  0.026906  1
  F  F36  1  0.955701  0.745872  0.473094  1
  F  F37  1  0.530351  0.469649  0.750000  1
