# generated using pymatgen
data_DyThFe3Re14C3
_symmetry_space_group_name_H-M   'P 1'
_cell_length_a   6.93791504
_cell_length_b   6.93791459
_cell_length_c   6.93791442
_cell_angle_alpha   82.74501677
_cell_angle_beta   82.74501816
_cell_angle_gamma   82.74500791
_symmetry_Int_Tables_number   1
_chemical_formula_structural   DyThFe3Re14C3
_chemical_formula_sum   'Dy1 Th1 Fe3 Re14 C3'
_cell_volume   326.55596078
_cell_formula_units_Z   1
loop_
 _symmetry_equiv_pos_site_id
 _symmetry_equiv_pos_as_xyz
  1  'x, y, z'
loop_
 _atom_site_type_symbol
 _atom_site_label
 _atom_site_symmetry_multiplicity
 _atom_site_fract_x
 _atom_site_fract_y
 _atom_site_fract_z
 _atom_site_occupancy
  Dy  Dy0  1  0.348322  0.348322  0.348322  1
  Th  Th1  1  0.648663  0.648663  0.648663  1
  Fe  Fe2  1  0.999652  0.999652  0.500719  1
  Fe  Fe3  1  0.500719  0.999652  0.999652  1
  Fe  Fe4  1  0.999652  0.500719  0.999652  1
  Re  Re5  1  0.722823  0.277195  0.000805  1
  Re  Re6  1  0.000805  0.722823  0.277195  1
  Re  Re7  1  0.277195  0.000805  0.722823  1
  Re  Re8  1  0.000805  0.277195  0.722823  1
  Re  Re9  1  0.722823  0.000805  0.277195  1
  Re  Re10  1  0.277195  0.722823  0.000805  1
  Re  Re11  1  0.345613  0.345613  0.862738  1
  Re  Re12  1  0.862738  0.345613  0.345613  1
  Re  Re13  1  0.345613  0.862738  0.345613  1
  Re  Re14  1  0.653602  0.653602  0.139427  1
  Re  Re15  1  0.139427  0.653602  0.653602  1
  Re  Re16  1  0.653602  0.139427  0.653602  1
  Re  Re17  1  0.898091  0.898091  0.898091  1
  Re  Re18  1  0.101754  0.101754  0.101754  1
  C  C19  1  0.495985  0.495985  0.008935  1
  C  C20  1  0.008935  0.495985  0.495985  1
  C  C21  1  0.495985  0.008935  0.495985  1
