# generated using pymatgen
data_Er2LuSc2Sn3
_symmetry_space_group_name_H-M   'P 1'
_cell_length_a   8.72986906
_cell_length_b   8.72987053
_cell_length_c   6.23789300
_cell_angle_alpha   90.00000000
_cell_angle_beta   90.00000000
_cell_angle_gamma   120.05635468
_symmetry_Int_Tables_number   1
_chemical_formula_structural   Er2LuSc2Sn3
_chemical_formula_sum   'Er4 Lu2 Sc4 Sn6'
_cell_volume   411.46905904
_cell_formula_units_Z   2
loop_
 _symmetry_equiv_pos_site_id
 _symmetry_equiv_pos_as_xyz
  1  'x, y, z'
loop_
 _atom_site_type_symbol
 _atom_site_label
 _atom_site_symmetry_multiplicity
 _atom_site_fract_x
 _atom_site_fract_y
 _atom_site_fract_z
 _atom_site_occupancy
  Er  Er0  1  0.762001  0.762001  0.750000  1
  Er  Er1  1  0.238345  0.999715  0.750000  1
  Er  Er2  1  0.999715  0.238345  0.750000  1
  Er  Er3  1  0.237994  0.237994  0.250000  1
  Lu  Lu4  1  0.761748  0.999909  0.250000  1
  Lu  Lu5  1  0.999909  0.761748  0.250000  1
  Sc  Sc6  1  0.666715  0.333396  0.000108  1
  Sc  Sc7  1  0.333396  0.666715  0.000108  1
  Sc  Sc8  1  0.333396  0.666715  0.499892  1
  Sc  Sc9  1  0.666715  0.333396  0.499892  1
  Sn  Sn10  1  0.399101  0.399101  0.750000  1
  Sn  Sn11  1  0.600880  0.999977  0.750000  1
  Sn  Sn12  1  0.999977  0.600880  0.750000  1
  Sn  Sn13  1  0.601766  0.601766  0.250000  1
  Sn  Sn14  1  0.398820  0.999523  0.250000  1
  Sn  Sn15  1  0.999523  0.398820  0.250000  1
