# generated using pymatgen
data_La5GaSb2
_symmetry_space_group_name_H-M   'P 1'
_cell_length_a   8.31847300
_cell_length_b   9.53267600
_cell_length_c   12.81025800
_cell_angle_alpha   90.00000000
_cell_angle_beta   90.00000000
_cell_angle_gamma   90.00000000
_symmetry_Int_Tables_number   1
_chemical_formula_structural   La5GaSb2
_chemical_formula_sum   'La20 Ga4 Sb8'
_cell_volume   1015.81897321
_cell_formula_units_Z   4
loop_
 _symmetry_equiv_pos_site_id
 _symmetry_equiv_pos_as_xyz
  1  'x, y, z'
loop_
 _atom_site_type_symbol
 _atom_site_label
 _atom_site_symmetry_multiplicity
 _atom_site_fract_x
 _atom_site_fract_y
 _atom_site_fract_z
 _atom_site_occupancy
  La  La0  1  0.028551  0.750000  0.503167  1
  La  La1  1  0.971449  0.250000  0.496833  1
  La  La2  1  0.528551  0.250000  0.996833  1
  La  La3  1  0.471449  0.750000  0.003167  1
  La  La4  1  0.861993  0.750000  0.788938  1
  La  La5  1  0.138007  0.250000  0.211062  1
  La  La6  1  0.361993  0.250000  0.711062  1
  La  La7  1  0.638007  0.750000  0.288938  1
  La  La8  1  0.697804  0.542042  0.562677  1
  La  La9  1  0.302196  0.457958  0.437323  1
  La  La10  1  0.197804  0.457958  0.937323  1
  La  La11  1  0.302196  0.042042  0.437323  1
  La  La12  1  0.802196  0.542042  0.062677  1
  La  La13  1  0.697804  0.957958  0.562677  1
  La  La14  1  0.802196  0.957958  0.062677  1
  La  La15  1  0.197804  0.042042  0.937323  1
  La  La16  1  0.339575  0.750000  0.716000  1
  La  La17  1  0.660425  0.250000  0.284000  1
  La  La18  1  0.839575  0.250000  0.784000  1
  La  La19  1  0.160425  0.750000  0.216000  1
  Ga  Ga20  1  0.074462  0.750000  0.981804  1
  Ga  Ga21  1  0.925538  0.250000  0.018196  1
  Ga  Ga22  1  0.574462  0.250000  0.518196  1
  Ga  Ga23  1  0.425538  0.750000  0.481804  1
  Sb  Sb24  1  0.576350  0.507711  0.826435  1
  Sb  Sb25  1  0.423650  0.492289  0.173565  1
  Sb  Sb26  1  0.076350  0.492289  0.673565  1
  Sb  Sb27  1  0.423650  0.007711  0.173565  1
  Sb  Sb28  1  0.923650  0.507711  0.326435  1
  Sb  Sb29  1  0.576350  0.992289  0.826435  1
  Sb  Sb30  1  0.923650  0.992289  0.326435  1
  Sb  Sb31  1  0.076350  0.007711  0.673565  1
