# generated using pymatgen
data_Sr7Yb5(ErSi2)8
_symmetry_space_group_name_H-M   'P 1'
_cell_length_a   7.52503990
_cell_length_b   7.93182231
_cell_length_c   15.33792809
_cell_angle_alpha   90.11895649
_cell_angle_beta   90.10040528
_cell_angle_gamma   89.99472721
_symmetry_Int_Tables_number   1
_chemical_formula_structural   Sr7Yb5(ErSi2)8
_chemical_formula_sum   'Sr7 Yb5 Er8 Si16'
_cell_volume   915.47581637
_cell_formula_units_Z   1
loop_
 _symmetry_equiv_pos_site_id
 _symmetry_equiv_pos_as_xyz
  1  'x, y, z'
loop_
 _atom_site_type_symbol
 _atom_site_label
 _atom_site_symmetry_multiplicity
 _atom_site_fract_x
 _atom_site_fract_y
 _atom_site_fract_z
 _atom_site_occupancy
  Sr  Sr0  1  0.974659  0.820752  0.403079  1
  Sr  Sr1  1  0.474495  0.680378  0.096884  1
  Sr  Sr2  1  0.525083  0.320915  0.596771  1
  Sr  Sr3  1  0.025308  0.179166  0.904665  1
  Sr  Sr4  1  0.025186  0.179072  0.596701  1
  Sr  Sr5  1  0.526186  0.320845  0.903722  1
  Sr  Sr6  1  0.474738  0.678910  0.402907  1
  Yb  Yb7  1  0.972257  0.815590  0.097509  1
  Yb  Yb8  1  0.353751  0.014623  0.750181  1
  Yb  Yb9  1  0.853866  0.485457  0.750188  1
  Yb  Yb10  1  0.145768  0.516162  0.248870  1
  Yb  Yb11  1  0.647304  0.983943  0.248774  1
  Er  Er12  1  0.314546  0.176593  0.121251  1
  Er  Er13  1  0.815799  0.322093  0.377827  1
  Er  Er14  1  0.183815  0.678655  0.879040  1
  Er  Er15  1  0.684124  0.821971  0.621703  1
  Er  Er16  1  0.315316  0.177446  0.377518  1
  Er  Er17  1  0.816135  0.322313  0.121805  1
  Er  Er18  1  0.184374  0.677762  0.621737  1
  Er  Er19  1  0.685522  0.822254  0.878888  1
  Si  Si20  1  0.861596  0.537222  0.538019  1
  Si  Si21  1  0.363176  0.963245  0.962273  1
  Si  Si22  1  0.638099  0.037483  0.461500  1
  Si  Si23  1  0.137640  0.467540  0.039898  1
  Si  Si24  1  0.138531  0.462224  0.461574  1
  Si  Si25  1  0.643124  0.034520  0.039227  1
  Si  Si26  1  0.361386  0.962545  0.537904  1
  Si  Si27  1  0.861766  0.541775  0.963762  1
  Si  Si28  1  0.974935  0.875153  0.750179  1
  Si  Si29  1  0.474729  0.625106  0.750282  1
  Si  Si30  1  0.525135  0.375796  0.249510  1
  Si  Si31  1  0.023981  0.123391  0.248623  1
  Si  Si32  1  0.246278  0.405719  0.750325  1
  Si  Si33  1  0.746443  0.094523  0.750278  1
  Si  Si34  1  0.250052  0.903269  0.247370  1
  Si  Si35  1  0.754898  0.595588  0.249252  1
