# generated using pymatgen
data_TbEr2Pa(ZnRh)4
_symmetry_space_group_name_H-M   'P 1'
_cell_length_a   3.86667100
_cell_length_b   7.08836331
_cell_length_c   8.32195430
_cell_angle_alpha   90.85347215
_cell_angle_beta   90.00000000
_cell_angle_gamma   90.00000000
_symmetry_Int_Tables_number   1
_chemical_formula_structural   TbEr2Pa(ZnRh)4
_chemical_formula_sum   'Tb1 Er2 Pa1 Zn4 Rh4'
_cell_volume   228.06588806
_cell_formula_units_Z   1
loop_
 _symmetry_equiv_pos_site_id
 _symmetry_equiv_pos_as_xyz
  1  'x, y, z'
loop_
 _atom_site_type_symbol
 _atom_site_label
 _atom_site_symmetry_multiplicity
 _atom_site_fract_x
 _atom_site_fract_y
 _atom_site_fract_z
 _atom_site_occupancy
  Tb  Tb0  1  0.250000  0.053024  0.322052  1
  Er  Er1  1  0.750000  0.442326  0.809021  1
  Er  Er2  1  0.750000  0.941182  0.686540  1
  Pa  Pa3  1  0.250000  0.553163  0.178399  1
  Zn  Zn4  1  0.250000  0.621729  0.563513  1
  Zn  Zn5  1  0.750000  0.370255  0.442952  1
  Zn  Zn6  1  0.750000  0.893743  0.062271  1
  Zn  Zn7  1  0.250000  0.126638  0.934401  1
  Rh  Rh8  1  0.250000  0.738214  0.888594  1
  Rh  Rh9  1  0.750000  0.281715  0.128402  1
  Rh  Rh10  1  0.750000  0.741832  0.356583  1
  Rh  Rh11  1  0.250000  0.236179  0.627271  1
