# generated using pymatgen
data_Hf2SiAsRu2
_symmetry_space_group_name_H-M   'P 1'
_cell_length_a   7.62565513
_cell_length_b   7.63141462
_cell_length_c   7.63042166
_cell_angle_alpha   127.98108169
_cell_angle_beta   121.23681590
_cell_angle_gamma   82.31694526
_symmetry_Int_Tables_number   1
_chemical_formula_structural   Hf2SiAsRu2
_chemical_formula_sum   'Hf6 Si3 As3 Ru6'
_cell_volume   287.71401662
_cell_formula_units_Z   3
loop_
 _symmetry_equiv_pos_site_id
 _symmetry_equiv_pos_as_xyz
  1  'x, y, z'
loop_
 _atom_site_type_symbol
 _atom_site_label
 _atom_site_symmetry_multiplicity
 _atom_site_fract_x
 _atom_site_fract_y
 _atom_site_fract_z
 _atom_site_occupancy
  Hf  Hf0  1  0.465932  0.691614  0.716915  1
  Hf  Hf1  1  0.528529  0.260876  0.224906  1
  Hf  Hf2  1  0.742208  0.834520  0.583375  1
  Hf  Hf3  1  0.253713  0.836755  0.092455  1
  Hf  Hf4  1  0.057344  0.261933  0.710960  1
  Hf  Hf5  1  0.951992  0.650305  0.204275  1
  Si  Si6  1  0.272699  0.271231  0.499327  1
  Si  Si7  1  0.727736  0.226370  0.998928  1
  Si  Si8  1  0.328402  0.586789  0.249526  1
  As  As9  1  0.672164  0.920279  0.256985  1
  As  As10  1  0.160258  0.919743  0.749741  1
  As  As11  1  0.838237  0.587263  0.758019  1
  Ru  Ru12  1  0.495800  0.491423  0.995020  1
  Ru  Ru13  1  0.001066  0.493294  0.493641  1
  Ru  Ru14  1  0.099003  0.258727  0.109346  1
  Ru  Ru15  1  0.905034  0.010469  0.156509  1
  Ru  Ru16  1  0.352869  0.004568  0.601342  1
  Ru  Ru17  1  0.647014  0.253442  0.658331  1
