# generated using pymatgen
data_NiBi6(SO8)2
_symmetry_space_group_name_H-M   'P 1'
_cell_length_a   5.66492275
_cell_length_b   11.74040334
_cell_length_c   22.78899800
_cell_angle_alpha   84.84409730
_cell_angle_beta   90.04501801
_cell_angle_gamma   90.00284994
_symmetry_Int_Tables_number   1
_chemical_formula_structural   NiBi6(SO8)2
_chemical_formula_sum   'Ni4 Bi24 S8 O64'
_cell_volume   1509.52852317
_cell_formula_units_Z   4
loop_
 _symmetry_equiv_pos_site_id
 _symmetry_equiv_pos_as_xyz
  1  'x, y, z'
loop_
 _atom_site_type_symbol
 _atom_site_label
 _atom_site_symmetry_multiplicity
 _atom_site_fract_x
 _atom_site_fract_y
 _atom_site_fract_z
 _atom_site_occupancy
  Ni  Ni0  1  0.136756  0.999507  0.500158  1
  Ni  Ni1  1  0.626324  0.500830  0.750111  1
  Ni  Ni2  1  0.135944  0.000719  0.999874  1
  Ni  Ni3  1  0.647063  0.500236  0.250066  1
  Bi  Bi4  1  0.117923  0.653591  0.497169  1
  Bi  Bi5  1  0.618554  0.154033  0.746252  1
  Bi  Bi6  1  0.118260  0.654628  0.995607  1
  Bi  Bi7  1  0.618768  0.154287  0.246732  1
  Bi  Bi8  1  0.119028  0.345409  0.504224  1
  Bi  Bi9  1  0.618308  0.845737  0.753850  1
  Bi  Bi10  1  0.118566  0.346493  0.002752  1
  Bi  Bi11  1  0.619091  0.845655  0.253288  1
  Bi  Bi12  1  0.619772  0.521118  0.585683  1
  Bi  Bi13  1  0.120838  0.022139  0.835430  1
  Bi  Bi14  1  0.620529  0.522557  0.085129  1
  Bi  Bi15  1  0.120678  0.021284  0.335443  1
  Bi  Bi16  1  0.621192  0.477442  0.414744  1
  Bi  Bi17  1  0.120233  0.977763  0.664617  1
  Bi  Bi18  1  0.621060  0.478960  0.914195  1
  Bi  Bi19  1  0.120342  0.978556  0.164589  1
  Bi  Bi20  1  0.047248  0.337868  0.336655  1
  Bi  Bi21  1  0.544087  0.837772  0.586230  1
  Bi  Bi22  1  0.043798  0.339036  0.835116  1
  Bi  Bi23  1  0.544959  0.839392  0.085608  1
  Bi  Bi24  1  0.042610  0.661046  0.664927  1
  Bi  Bi25  1  0.544323  0.162136  0.913887  1
  Bi  Bi26  1  0.047141  0.661954  0.163220  1
  Bi  Bi27  1  0.545589  0.160581  0.414362  1
  S  S28  1  0.681000  0.852934  0.435878  1
  S  S29  1  0.185212  0.351914  0.684089  1
  S  S30  1  0.681523  0.854438  0.935410  1
  S  S31  1  0.184710  0.355025  0.186456  1
  S  S32  1  0.682574  0.145539  0.564469  1
  S  S33  1  0.178629  0.648036  0.816125  1
  S  S34  1  0.681993  0.147277  0.064158  1
  S  S35  1  0.183854  0.644765  0.313615  1
  O  O36  1  0.875270  0.499463  0.500676  1
  O  O37  1  0.375988  0.999847  0.750072  1
  O  O38  1  0.874864  0.500422  0.999114  1
  O  O39  1  0.375661  0.999890  0.250039  1
  O  O40  1  0.354588  0.499826  0.500427  1
  O  O41  1  0.854694  0.999662  0.750105  1
  O  O42  1  0.354113  0.500522  0.999487  1
  O  O43  1  0.854453  0.999948  0.249948  1
  O  O44  1  0.898981  0.881168  0.469599  1
  O  O45  1  0.404354  0.381325  0.717197  1
  O  O46  1  0.900230  0.882153  0.968986  1
  O  O47  1  0.403480  0.382116  0.220050  1
  O  O48  1  0.901045  0.117976  0.530846  1
  O  O49  1  0.397735  0.617079  0.783622  1
  O  O50  1  0.899528  0.119236  0.030270  1
  O  O51  1  0.403228  0.617794  0.280311  1
  O  O52  1  0.468492  0.869855  0.474217  1
  O  O53  1  0.974011  0.368060  0.722668  1
  O  O54  1  0.469530  0.872660  0.973657  1
  O  O55  1  0.972539  0.373577  0.224719  1
  O  O56  1  0.470309  0.127136  0.526251  1
  O  O57  1  0.968090  0.632555  0.777014  1
  O  O58  1  0.469016  0.130465  0.025885  1
  O  O59  1  0.972293  0.625702  0.275130  1
  O  O60  1  0.696340  0.732651  0.422646  1
  O  O61  1  0.204168  0.231700  0.670881  1
  O  O62  1  0.695018  0.733871  0.922561  1
  O  O63  1  0.195958  0.234406  0.173578  1
  O  O64  1  0.695942  0.266128  0.577270  1
  O  O65  1  0.199055  0.768327  0.829071  1
  O  O66  1  0.697652  0.267471  0.077511  1
  O  O67  1  0.194039  0.765473  0.326338  1
  O  O68  1  0.162776  0.432061  0.629286  1
  O  O69  1  0.662824  0.934465  0.880465  1
  O  O70  1  0.166385  0.435179  0.131540  1
  O  O71  1  0.661049  0.933454  0.381140  1
  O  O72  1  0.165325  0.564823  0.368587  1
  O  O73  1  0.664531  0.065511  0.619419  1
  O  O74  1  0.152917  0.568373  0.870968  1
  O  O75  1  0.662894  0.066530  0.118811  1
  O  O76  1  0.691544  0.588809  0.676215  1
  O  O77  1  0.194311  0.088761  0.925425  1
  O  O78  1  0.697344  0.588057  0.174985  1
  O  O79  1  0.195175  0.087403  0.425647  1
  O  O80  1  0.697511  0.411820  0.324918  1
  O  O81  1  0.193997  0.911359  0.574624  1
  O  O82  1  0.693975  0.412223  0.823715  1
  O  O83  1  0.194631  0.912646  0.074289  1
  O  O84  1  0.883971  0.665481  0.574261  1
  O  O85  1  0.384186  0.166775  0.823187  1
  O  O86  1  0.884936  0.666415  0.072782  1
  O  O87  1  0.385180  0.165488  0.323762  1
  O  O88  1  0.885396  0.333412  0.427098  1
  O  O89  1  0.383421  0.833023  0.676870  1
  O  O90  1  0.884068  0.334384  0.925718  1
  O  O91  1  0.385331  0.834462  0.176201  1
  O  O92  1  0.378398  0.670863  0.573729  1
  O  O93  1  0.878978  0.171904  0.823047  1
  O  O94  1  0.379039  0.672266  0.072746  1
  O  O95  1  0.879509  0.171077  0.323452  1
  O  O96  1  0.379627  0.327763  0.427217  1
  O  O97  1  0.878130  0.828180  0.676909  1
  O  O98  1  0.378774  0.329231  0.926170  1
  O  O99  1  0.879586  0.828686  0.176556  1
