# generated using pymatgen
data_Y8Tc(B8Os)3
_symmetry_space_group_name_H-M   'P 1'
_cell_length_a   3.66785300
_cell_length_b   9.17508194
_cell_length_c   11.56226019
_cell_angle_alpha   89.94804808
_cell_angle_beta   90.00000000
_cell_angle_gamma   90.00000000
_symmetry_Int_Tables_number   1
_chemical_formula_structural   Y8Tc(B8Os)3
_chemical_formula_sum   'Y8 Tc1 B24 Os3'
_cell_volume   389.10286898
_cell_formula_units_Z   1
loop_
 _symmetry_equiv_pos_site_id
 _symmetry_equiv_pos_as_xyz
  1  'x, y, z'
loop_
 _atom_site_type_symbol
 _atom_site_label
 _atom_site_symmetry_multiplicity
 _atom_site_fract_x
 _atom_site_fract_y
 _atom_site_fract_z
 _atom_site_occupancy
  Y  Y0  1  0.000000  0.324423  0.412927  1
  Y  Y1  1  0.000000  0.676550  0.583275  1
  Y  Y2  1  0.000000  0.820493  0.088304  1
  Y  Y3  1  0.000000  0.176947  0.914886  1
  Y  Y4  1  0.000000  0.942810  0.372558  1
  Y  Y5  1  0.000000  0.056857  0.627490  1
  Y  Y6  1  0.000000  0.444593  0.128121  1
  Y  Y7  1  0.000000  0.556605  0.872144  1
  Tc  Tc8  1  0.000000  0.637497  0.321285  1
  B  B9  1  0.500000  0.552899  0.432830  1
  B  B10  1  0.500000  0.446478  0.567536  1
  B  B11  1  0.500000  0.053580  0.067414  1
  B  B12  1  0.500000  0.946407  0.933026  1
  B  B13  1  0.500000  0.747412  0.419238  1
  B  B14  1  0.500000  0.252719  0.580601  1
  B  B15  1  0.500000  0.247651  0.080489  1
  B  B16  1  0.500000  0.752495  0.919464  1
  B  B17  1  0.500000  0.791065  0.266600  1
  B  B18  1  0.500000  0.209289  0.733480  1
  B  B19  1  0.500000  0.290619  0.232845  1
  B  B20  1  0.500000  0.709799  0.766487  1
  B  B21  1  0.500000  0.631757  0.186238  1
  B  B22  1  0.500000  0.367991  0.814344  1
  B  B23  1  0.500000  0.131834  0.313570  1
  B  B24  1  0.500000  0.868635  0.685899  1
  B  B25  1  0.500000  0.983247  0.212807  1
  B  B26  1  0.500000  0.016661  0.787641  1
  B  B27  1  0.500000  0.482946  0.287267  1
  B  B28  1  0.500000  0.516313  0.712846  1
  B  B29  1  0.500000  0.608521  0.029750  1
  B  B30  1  0.500000  0.391363  0.969595  1
  B  B31  1  0.500000  0.109045  0.469785  1
  B  B32  1  0.500000  0.892257  0.530505  1
  Os  Os33  1  0.000000  0.362127  0.679274  1
  Os  Os34  1  0.000000  0.137267  0.177985  1
  Os  Os35  1  0.000000  0.862848  0.821494  1
