# generated using pymatgen
data_Al2VI8
_symmetry_space_group_name_H-M   'P 1'
_cell_length_a   6.87152500
_cell_length_b   11.30059400
_cell_length_c   14.48289700
_cell_angle_alpha   90.00000000
_cell_angle_beta   90.00000000
_cell_angle_gamma   90.00000000
_symmetry_Int_Tables_number   1
_chemical_formula_structural   Al2VI8
_chemical_formula_sum   'Al4 V2 I16'
_cell_volume   1124.63046817
_cell_formula_units_Z   2
loop_
 _symmetry_equiv_pos_site_id
 _symmetry_equiv_pos_as_xyz
  1  'x, y, z'
loop_
 _atom_site_type_symbol
 _atom_site_label
 _atom_site_symmetry_multiplicity
 _atom_site_fract_x
 _atom_site_fract_y
 _atom_site_fract_z
 _atom_site_occupancy
  Al  Al0  1  0.608433  0.500000  0.175911  1
  Al  Al1  1  0.391567  0.500000  0.824089  1
  Al  Al2  1  0.891567  0.000000  0.675911  1
  Al  Al3  1  0.108433  0.000000  0.324089  1
  V  V4  1  0.000000  0.500000  0.000000  1
  V  V5  1  0.500000  0.000000  0.500000  1
  I  I6  1  0.268434  0.000000  0.667151  1
  I  I7  1  0.762452  0.675549  0.085946  1
  I  I8  1  0.696853  0.500000  0.344138  1
  I  I9  1  0.237548  0.324451  0.914054  1
  I  I10  1  0.803147  0.000000  0.844138  1
  I  I11  1  0.762452  0.324451  0.085946  1
  I  I12  1  0.196853  0.000000  0.155862  1
  I  I13  1  0.231566  0.500000  0.167151  1
  I  I14  1  0.737548  0.824451  0.585946  1
  I  I15  1  0.262452  0.824451  0.414054  1
  I  I16  1  0.237548  0.675549  0.914054  1
  I  I17  1  0.731566  0.000000  0.332849  1
  I  I18  1  0.303147  0.500000  0.655862  1
  I  I19  1  0.768434  0.500000  0.832849  1
  I  I20  1  0.262452  0.175549  0.414054  1
  I  I21  1  0.737548  0.175549  0.585946  1
