# generated using pymatgen
data_La4Bi5SbRh7
_symmetry_space_group_name_H-M   'P 1'
_cell_length_a   7.95350450
_cell_length_b   7.95321845
_cell_length_c   7.95350384
_cell_angle_alpha   109.93267045
_cell_angle_beta   109.93453003
_cell_angle_gamma   108.55180252
_symmetry_Int_Tables_number   1
_chemical_formula_structural   La4Bi5SbRh7
_chemical_formula_sum   'La4 Bi5 Sb1 Rh7'
_cell_volume   387.20994419
_cell_formula_units_Z   1
loop_
 _symmetry_equiv_pos_site_id
 _symmetry_equiv_pos_as_xyz
  1  'x, y, z'
loop_
 _atom_site_type_symbol
 _atom_site_label
 _atom_site_symmetry_multiplicity
 _atom_site_fract_x
 _atom_site_fract_y
 _atom_site_fract_z
 _atom_site_occupancy
  La  La0  1  0.485605  0.001741  0.000010  1
  La  La1  1  0.001765  0.485618  0.000038  1
  La  La2  1  0.001731  0.001741  0.516136  1
  La  La3  1  0.485580  0.485618  0.483854  1
  Bi  Bi4  1  0.991117  0.308572  0.317457  1
  Bi  Bi5  1  0.673687  0.991118  0.682548  1
  Bi  Bi6  1  0.692164  0.692150  0.999986  1
  Bi  Bi7  1  0.991117  0.673676  0.682560  1
  Bi  Bi8  1  0.308570  0.991118  0.317431  1
  Sb  Sb9  1  0.340641  0.340630  0.999989  1
  Rh  Rh10  1  0.050804  0.050800  0.999996  1
  Rh  Rh11  1  0.498520  0.746325  0.247805  1
  Rh  Rh12  1  0.746334  0.498514  0.247825  1
  Rh  Rh13  1  0.241594  0.741612  0.500018  1
  Rh  Rh14  1  0.250688  0.498514  0.752179  1
  Rh  Rh15  1  0.498505  0.250685  0.752180  1
  Rh  Rh16  1  0.741576  0.241564  0.499988  1
