# generated using pymatgen
data_Tb5Gd3Tc(B8Ru)3
_symmetry_space_group_name_H-M   'P 1'
_cell_length_a   3.69490700
_cell_length_b   9.19393413
_cell_length_c   11.57837005
_cell_angle_alpha   89.89060206
_cell_angle_beta   90.00000000
_cell_angle_gamma   90.00000000
_symmetry_Int_Tables_number   1
_chemical_formula_structural   Tb5Gd3Tc(B8Ru)3
_chemical_formula_sum   'Tb5 Gd3 Tc1 B24 Ru3'
_cell_volume   393.32498427
_cell_formula_units_Z   1
loop_
 _symmetry_equiv_pos_site_id
 _symmetry_equiv_pos_as_xyz
  1  'x, y, z'
loop_
 _atom_site_type_symbol
 _atom_site_label
 _atom_site_symmetry_multiplicity
 _atom_site_fract_x
 _atom_site_fract_y
 _atom_site_fract_z
 _atom_site_occupancy
  Tb  Tb0  1  0.000000  0.176048  0.914692  1
  Tb  Tb1  1  0.000000  0.943276  0.372203  1
  Tb  Tb2  1  0.000000  0.057130  0.628468  1
  Tb  Tb3  1  0.000000  0.444232  0.128149  1
  Tb  Tb4  1  0.000000  0.556661  0.871146  1
  Gd  Gd5  1  0.000000  0.325037  0.413031  1
  Gd  Gd6  1  0.000000  0.676010  0.583955  1
  Gd  Gd7  1  0.000000  0.821694  0.088122  1
  Tc  Tc8  1  0.000000  0.637954  0.321168  1
  B  B9  1  0.500000  0.553442  0.432467  1
  B  B10  1  0.500000  0.445968  0.568088  1
  B  B11  1  0.500000  0.053982  0.067683  1
  B  B12  1  0.500000  0.945955  0.932504  1
  B  B13  1  0.500000  0.747274  0.419220  1
  B  B14  1  0.500000  0.252845  0.580903  1
  B  B15  1  0.500000  0.247299  0.080343  1
  B  B16  1  0.500000  0.752646  0.919193  1
  B  B17  1  0.500000  0.790769  0.266839  1
  B  B18  1  0.500000  0.209548  0.733388  1
  B  B19  1  0.500000  0.290366  0.232511  1
  B  B20  1  0.500000  0.710260  0.766748  1
  B  B21  1  0.500000  0.632197  0.186298  1
  B  B22  1  0.500000  0.367444  0.814260  1
  B  B23  1  0.500000  0.132323  0.313592  1
  B  B24  1  0.500000  0.868278  0.685982  1
  B  B25  1  0.500000  0.984519  0.212713  1
  B  B26  1  0.500000  0.015649  0.787744  1
  B  B27  1  0.500000  0.483852  0.287325  1
  B  B28  1  0.500000  0.514978  0.712643  1
  B  B29  1  0.500000  0.609080  0.029604  1
  B  B30  1  0.500000  0.390055  0.969088  1
  B  B31  1  0.500000  0.109791  0.470026  1
  B  B32  1  0.500000  0.891686  0.530821  1
  Ru  Ru33  1  0.000000  0.361460  0.679605  1
  Ru  Ru34  1  0.000000  0.137969  0.178200  1
  Ru  Ru35  1  0.000000  0.862325  0.821277  1
