# generated using pymatgen
data_Dy16Cd3Ni4Hg
_symmetry_space_group_name_H-M   'P 1'
_cell_length_a   9.55818969
_cell_length_b   9.52548446
_cell_length_c   9.55819000
_cell_angle_alpha   59.88635634
_cell_angle_beta   59.99999894
_cell_angle_gamma   59.88635469
_symmetry_Int_Tables_number   1
_chemical_formula_structural   Dy16Cd3Ni4Hg
_chemical_formula_sum   'Dy16 Cd3 Ni4 Hg1'
_cell_volume   614.29252911
_cell_formula_units_Z   1
loop_
 _symmetry_equiv_pos_site_id
 _symmetry_equiv_pos_as_xyz
  1  'x, y, z'
loop_
 _atom_site_type_symbol
 _atom_site_label
 _atom_site_symmetry_multiplicity
 _atom_site_fract_x
 _atom_site_fract_y
 _atom_site_fract_z
 _atom_site_occupancy
  Dy  Dy0  1  0.151893  0.544320  0.151893  1
  Dy  Dy1  1  0.689054  0.310351  0.689054  1
  Dy  Dy2  1  0.689054  0.310351  0.311541  1
  Dy  Dy3  1  0.935722  0.562870  0.565686  1
  Dy  Dy4  1  0.545645  0.151784  0.151285  1
  Dy  Dy5  1  0.151285  0.151784  0.545645  1
  Dy  Dy6  1  0.935251  0.934461  0.565144  1
  Dy  Dy7  1  0.311847  0.687784  0.311847  1
  Dy  Dy8  1  0.565144  0.934461  0.935251  1
  Dy  Dy9  1  0.565144  0.934461  0.565144  1
  Dy  Dy10  1  0.688522  0.687784  0.311847  1
  Dy  Dy11  1  0.565686  0.562870  0.935722  1
  Dy  Dy12  1  0.935722  0.562870  0.935722  1
  Dy  Dy13  1  0.311847  0.687784  0.688522  1
  Dy  Dy14  1  0.151285  0.151784  0.151285  1
  Dy  Dy15  1  0.311541  0.310351  0.689054  1
  Cd  Cd16  1  0.918507  0.919170  0.918507  1
  Cd  Cd17  1  0.918507  0.919170  0.243817  1
  Cd  Cd18  1  0.243817  0.919170  0.918507  1
  Ni  Ni19  1  0.358286  0.358094  0.925334  1
  Ni  Ni20  1  0.358253  0.925244  0.358253  1
  Ni  Ni21  1  0.925334  0.358094  0.358286  1
  Ni  Ni22  1  0.358286  0.358094  0.358286  1
  Hg  Hg23  1  0.914370  0.256890  0.914370  1
