# generated using pymatgen
data_NdYPa2(Al3Ir)6
_symmetry_space_group_name_H-M   'P 1'
_cell_length_a   7.61449141
_cell_length_b   7.61645442
_cell_length_c   9.40630500
_cell_angle_alpha   90.00000000
_cell_angle_beta   90.00000000
_cell_angle_gamma   119.64091171
_symmetry_Int_Tables_number   1
_chemical_formula_structural   NdYPa2(Al3Ir)6
_chemical_formula_sum   'Nd1 Y1 Pa2 Al18 Ir6'
_cell_volume   474.13667345
_cell_formula_units_Z   1
loop_
 _symmetry_equiv_pos_site_id
 _symmetry_equiv_pos_as_xyz
  1  'x, y, z'
loop_
 _atom_site_type_symbol
 _atom_site_label
 _atom_site_symmetry_multiplicity
 _atom_site_fract_x
 _atom_site_fract_y
 _atom_site_fract_z
 _atom_site_occupancy
  Nd  Nd0  1  0.669488  0.993507  0.250000  1
  Y  Y1  1  0.329770  0.006555  0.750000  1
  Pa  Pa2  1  0.997435  0.671104  0.250000  1
  Pa  Pa3  1  0.002517  0.328764  0.750000  1
  Al  Al4  1  0.132053  0.127597  0.250000  1
  Al  Al5  1  0.869965  0.872728  0.750000  1
  Al  Al6  1  0.002318  0.333337  0.075826  1
  Al  Al7  1  0.999459  0.668277  0.922483  1
  Al  Al8  1  0.999459  0.668277  0.577517  1
  Al  Al9  1  0.336455  0.003240  0.427160  1
  Al  Al10  1  0.002318  0.333337  0.424174  1
  Al  Al11  1  0.661664  0.996569  0.576302  1
  Al  Al12  1  0.661664  0.996569  0.923698  1
  Al  Al13  1  0.336455  0.003240  0.072840  1
  Al  Al14  1  0.335209  0.333407  0.553692  1
  Al  Al15  1  0.664835  0.665309  0.448804  1
  Al  Al16  1  0.664835  0.665309  0.051196  1
  Al  Al17  1  0.335209  0.333407  0.946308  1
  Al  Al18  1  0.338837  0.545875  0.250000  1
  Al  Al19  1  0.659450  0.452075  0.750000  1
  Al  Al20  1  0.548922  0.342659  0.250000  1
  Al  Al21  1  0.450461  0.658056  0.750000  1
  Ir  Ir22  1  0.676066  0.330598  0.998895  1
  Ir  Ir23  1  0.323625  0.669344  0.999666  1
  Ir  Ir24  1  0.323625  0.669344  0.500334  1
  Ir  Ir25  1  0.676066  0.330598  0.501105  1
  Ir  Ir26  1  0.000920  0.000458  0.999022  1
  Ir  Ir27  1  0.000920  0.000458  0.500978  1
