# generated using pymatgen
data_La12TbNdPt6
_symmetry_space_group_name_H-M   'P 1'
_cell_length_a   10.33616700
_cell_length_b   10.33616794
_cell_length_c   6.54935100
_cell_angle_alpha   90.00000000
_cell_angle_beta   90.00000000
_cell_angle_gamma   120.00000018
_symmetry_Int_Tables_number   1
_chemical_formula_structural   La12TbNdPt6
_chemical_formula_sum   'La12 Tb1 Nd1 Pt6'
_cell_volume   605.96560195
_cell_formula_units_Z   1
loop_
 _symmetry_equiv_pos_site_id
 _symmetry_equiv_pos_as_xyz
  1  'x, y, z'
loop_
 _atom_site_type_symbol
 _atom_site_label
 _atom_site_symmetry_multiplicity
 _atom_site_fract_x
 _atom_site_fract_y
 _atom_site_fract_z
 _atom_site_occupancy
  La  La0  1  0.871682  0.743362  0.751188  1
  La  La1  1  0.256638  0.128318  0.751188  1
  La  La2  1  0.871682  0.128318  0.751188  1
  La  La3  1  0.128896  0.257794  0.249946  1
  La  La4  1  0.742206  0.871104  0.249946  1
  La  La5  1  0.128896  0.871104  0.249946  1
  La  La6  1  0.461564  0.923128  0.560264  1
  La  La7  1  0.076872  0.538436  0.560264  1
  La  La8  1  0.461564  0.538436  0.560264  1
  La  La9  1  0.537886  0.075772  0.060777  1
  La  La10  1  0.924228  0.462114  0.060777  1
  La  La11  1  0.537886  0.462114  0.060777  1
  Tb  Tb12  1  0.333333  0.666667  0.035661  1
  Nd  Nd13  1  0.666667  0.333333  0.542245  1
  Pt  Pt14  1  0.190111  0.380222  0.812960  1
  Pt  Pt15  1  0.619778  0.809889  0.812960  1
  Pt  Pt16  1  0.190111  0.809889  0.812960  1
  Pt  Pt17  1  0.811339  0.622677  0.310404  1
  Pt  Pt18  1  0.377323  0.188661  0.310404  1
  Pt  Pt19  1  0.811339  0.188661  0.310404  1
