# generated using pymatgen
data_Hf5NiAs2P
_symmetry_space_group_name_H-M   'P 1'
_cell_length_a   3.63874800
_cell_length_b   10.31787700
_cell_length_c   17.33003100
_cell_angle_alpha   90.00000000
_cell_angle_beta   90.00000000
_cell_angle_gamma   90.00000000
_symmetry_Int_Tables_number   1
_chemical_formula_structural   Hf5NiAs2P
_chemical_formula_sum   'Hf20 Ni4 As8 P4'
_cell_volume   650.64135785
_cell_formula_units_Z   4
loop_
 _symmetry_equiv_pos_site_id
 _symmetry_equiv_pos_as_xyz
  1  'x, y, z'
loop_
 _atom_site_type_symbol
 _atom_site_label
 _atom_site_symmetry_multiplicity
 _atom_site_fract_x
 _atom_site_fract_y
 _atom_site_fract_z
 _atom_site_occupancy
  Hf  Hf0  1  0.250000  0.124646  0.478907  1
  Hf  Hf1  1  0.750000  0.875354  0.521093  1
  Hf  Hf2  1  0.750000  0.624646  0.021093  1
  Hf  Hf3  1  0.250000  0.375354  0.978907  1
  Hf  Hf4  1  0.250000  0.063093  0.075947  1
  Hf  Hf5  1  0.750000  0.936907  0.924053  1
  Hf  Hf6  1  0.750000  0.563093  0.424053  1
  Hf  Hf7  1  0.250000  0.436907  0.575947  1
  Hf  Hf8  1  0.250000  0.486610  0.274776  1
  Hf  Hf9  1  0.750000  0.513390  0.725224  1
  Hf  Hf10  1  0.750000  0.986610  0.225224  1
  Hf  Hf11  1  0.250000  0.013390  0.774776  1
  Hf  Hf12  1  0.250000  0.813000  0.371415  1
  Hf  Hf13  1  0.750000  0.187000  0.628585  1
  Hf  Hf14  1  0.750000  0.313000  0.128585  1
  Hf  Hf15  1  0.250000  0.687000  0.871415  1
  Hf  Hf16  1  0.250000  0.759661  0.166803  1
  Hf  Hf17  1  0.750000  0.240339  0.833197  1
  Hf  Hf18  1  0.750000  0.259661  0.333197  1
  Hf  Hf19  1  0.250000  0.740339  0.666803  1
  Ni  Ni20  1  0.250000  0.368697  0.415947  1
  Ni  Ni21  1  0.750000  0.631303  0.584053  1
  Ni  Ni22  1  0.750000  0.868697  0.084053  1
  Ni  Ni23  1  0.250000  0.131303  0.915947  1
  As  As24  1  0.250000  0.509932  0.118076  1
  As  As25  1  0.750000  0.490068  0.881924  1
  As  As26  1  0.750000  0.009932  0.381924  1
  As  As27  1  0.250000  0.990068  0.618076  1
  As  As28  1  0.250000  0.188609  0.220259  1
  As  As29  1  0.750000  0.811391  0.779741  1
  As  As30  1  0.750000  0.688609  0.279741  1
  As  As31  1  0.250000  0.311391  0.720259  1
  P  P32  1  0.250000  0.812615  0.009422  1
  P  P33  1  0.750000  0.187385  0.990578  1
  P  P34  1  0.750000  0.312615  0.490578  1
  P  P35  1  0.250000  0.687385  0.509422  1
