# generated using pymatgen
data_Pr2CdHgRh
_symmetry_space_group_name_H-M   'P 1'
_cell_length_a   8.18190312
_cell_length_b   8.18190312
_cell_length_c   3.91340900
_cell_angle_alpha   90.00000000
_cell_angle_beta   90.00000000
_cell_angle_gamma   88.26933188
_symmetry_Int_Tables_number   1
_chemical_formula_structural   Pr2CdHgRh
_chemical_formula_sum   'Pr4 Cd2 Hg2 Rh2'
_cell_volume   261.85794262
_cell_formula_units_Z   2
loop_
 _symmetry_equiv_pos_site_id
 _symmetry_equiv_pos_as_xyz
  1  'x, y, z'
loop_
 _atom_site_type_symbol
 _atom_site_label
 _atom_site_symmetry_multiplicity
 _atom_site_fract_x
 _atom_site_fract_y
 _atom_site_fract_z
 _atom_site_occupancy
  Pr  Pr0  1  0.653308  0.153308  0.500000  1
  Pr  Pr1  1  0.346692  0.846692  0.500000  1
  Pr  Pr2  1  0.193937  0.306063  0.500000  1
  Pr  Pr3  1  0.806063  0.693937  0.500000  1
  Cd  Cd4  1  0.000000  0.000000  0.000000  1
  Cd  Cd5  1  0.500000  0.500000  0.000000  1
  Hg  Hg6  1  0.130043  0.630043  0.000000  1
  Hg  Hg7  1  0.869957  0.369957  0.000000  1
  Rh  Rh8  1  0.627870  0.872130  0.000000  1
  Rh  Rh9  1  0.372130  0.127870  0.000000  1
