# generated using pymatgen
data_Pr4EuIr2Rh
_symmetry_space_group_name_H-M   'P 1'
_cell_length_a   11.30978700
_cell_length_b   11.30978700
_cell_length_c   6.67749800
_cell_angle_alpha   90.00000000
_cell_angle_beta   90.00000000
_cell_angle_gamma   90.00000000
_symmetry_Int_Tables_number   1
_chemical_formula_structural   Pr4EuIr2Rh
_chemical_formula_sum   'Pr16 Eu4 Ir8 Rh4'
_cell_volume   854.12732963
_cell_formula_units_Z   4
loop_
 _symmetry_equiv_pos_site_id
 _symmetry_equiv_pos_as_xyz
  1  'x, y, z'
loop_
 _atom_site_type_symbol
 _atom_site_label
 _atom_site_symmetry_multiplicity
 _atom_site_fract_x
 _atom_site_fract_y
 _atom_site_fract_z
 _atom_site_occupancy
  Pr  Pr0  1  0.289517  0.090828  0.386824  1
  Pr  Pr1  1  0.289517  0.909172  0.886824  1
  Pr  Pr2  1  0.710483  0.090828  0.886824  1
  Pr  Pr3  1  0.710483  0.909172  0.386824  1
  Pr  Pr4  1  0.590828  0.789517  0.886824  1
  Pr  Pr5  1  0.590828  0.210483  0.386824  1
  Pr  Pr6  1  0.409172  0.789517  0.386824  1
  Pr  Pr7  1  0.409172  0.210483  0.886824  1
  Pr  Pr8  1  0.210483  0.409172  0.613176  1
  Pr  Pr9  1  0.210483  0.590828  0.113176  1
  Pr  Pr10  1  0.789517  0.409172  0.113176  1
  Pr  Pr11  1  0.789517  0.590828  0.613176  1
  Pr  Pr12  1  0.909172  0.710483  0.113176  1
  Pr  Pr13  1  0.909172  0.289517  0.613176  1
  Pr  Pr14  1  0.090828  0.710483  0.613176  1
  Pr  Pr15  1  0.090828  0.289517  0.113176  1
  Eu  Eu16  1  0.000000  0.000000  0.500000  1
  Eu  Eu17  1  0.000000  0.000000  0.000000  1
  Eu  Eu18  1  0.500000  0.500000  0.000000  1
  Eu  Eu19  1  0.500000  0.500000  0.500000  1
  Ir  Ir20  1  0.843539  0.156461  0.250000  1
  Ir  Ir21  1  0.843539  0.843539  0.750000  1
  Ir  Ir22  1  0.156461  0.156461  0.750000  1
  Ir  Ir23  1  0.156461  0.843539  0.250000  1
  Ir  Ir24  1  0.656461  0.343539  0.750000  1
  Ir  Ir25  1  0.656461  0.656461  0.250000  1
  Ir  Ir26  1  0.343539  0.343539  0.250000  1
  Ir  Ir27  1  0.343539  0.656461  0.750000  1
  Rh  Rh28  1  0.500000  0.000000  0.115661  1
  Rh  Rh29  1  0.500000  0.000000  0.615661  1
  Rh  Rh30  1  0.000000  0.500000  0.884339  1
  Rh  Rh31  1  0.000000  0.500000  0.384339  1
