# generated using pymatgen
data_Zr10Sn3Bi3B2
_symmetry_space_group_name_H-M   'P 1'
_cell_length_a   8.64231700
_cell_length_b   8.64231719
_cell_length_c   5.86565000
_cell_angle_alpha   90.00000000
_cell_angle_beta   90.00000000
_cell_angle_gamma   120.00000310
_symmetry_Int_Tables_number   1
_chemical_formula_structural   Zr10Sn3Bi3B2
_chemical_formula_sum   'Zr10 Sn3 Bi3 B2'
_cell_volume   379.40858827
_cell_formula_units_Z   1
loop_
 _symmetry_equiv_pos_site_id
 _symmetry_equiv_pos_as_xyz
  1  'x, y, z'
loop_
 _atom_site_type_symbol
 _atom_site_label
 _atom_site_symmetry_multiplicity
 _atom_site_fract_x
 _atom_site_fract_y
 _atom_site_fract_z
 _atom_site_occupancy
  Zr  Zr0  1  0.666667  0.333333  0.004585  1
  Zr  Zr1  1  0.333333  0.666667  0.004585  1
  Zr  Zr2  1  0.333333  0.666667  0.495415  1
  Zr  Zr3  1  0.666667  0.333333  0.495415  1
  Zr  Zr4  1  0.772028  0.772028  0.750000  1
  Zr  Zr5  1  0.227972  0.000000  0.750000  1
  Zr  Zr6  1  0.000000  0.227972  0.750000  1
  Zr  Zr7  1  0.229627  0.229627  0.250000  1
  Zr  Zr8  1  0.770373  0.000000  0.250000  1
  Zr  Zr9  1  0.000000  0.770373  0.250000  1
  Sn  Sn10  1  0.602234  0.602234  0.250000  1
  Sn  Sn11  1  0.397766  0.000000  0.250000  1
  Sn  Sn12  1  0.000000  0.397766  0.250000  1
  Bi  Bi13  1  0.401915  0.401915  0.750000  1
  Bi  Bi14  1  0.598085  0.000000  0.750000  1
  Bi  Bi15  1  0.000000  0.598085  0.750000  1
  B  B16  1  0.000000  0.000000  0.000146  1
  B  B17  1  0.000000  0.000000  0.499854  1
