# generated using pymatgen
data_Nd3Tm5Cd2RuPt
_symmetry_space_group_name_H-M   'P 1'
_cell_length_a   9.67551079
_cell_length_b   9.67551056
_cell_length_c   9.68275700
_cell_angle_alpha   59.97521853
_cell_angle_beta   59.97521933
_cell_angle_gamma   60.18952457
_symmetry_Int_Tables_number   1
_chemical_formula_structural   Nd3Tm5Cd2RuPt
_chemical_formula_sum   'Nd6 Tm10 Cd4 Ru2 Pt2'
_cell_volume   641.63313140
_cell_formula_units_Z   2
loop_
 _symmetry_equiv_pos_site_id
 _symmetry_equiv_pos_as_xyz
  1  'x, y, z'
loop_
 _atom_site_type_symbol
 _atom_site_label
 _atom_site_symmetry_multiplicity
 _atom_site_fract_x
 _atom_site_fract_y
 _atom_site_fract_z
 _atom_site_occupancy
  Nd  Nd0  1  0.940108  0.555551  0.562551  1
  Nd  Nd1  1  0.555551  0.940108  0.941790  1
  Nd  Nd2  1  0.555551  0.940108  0.562551  1
  Nd  Nd3  1  0.940108  0.555551  0.941790  1
  Nd  Nd4  1  0.559921  0.559921  0.940079  1
  Nd  Nd5  1  0.940755  0.940755  0.559245  1
  Tm  Tm6  1  0.347672  0.347672  0.351338  1
  Tm  Tm7  1  0.347672  0.347672  0.953319  1
  Tm  Tm8  1  0.343878  0.961569  0.347276  1
  Tm  Tm9  1  0.961569  0.343878  0.347276  1
  Tm  Tm10  1  0.818279  0.184566  0.187278  1
  Tm  Tm11  1  0.184566  0.818279  0.809877  1
  Tm  Tm12  1  0.184566  0.818279  0.187278  1
  Tm  Tm13  1  0.818279  0.184566  0.809877  1
  Tm  Tm14  1  0.184906  0.184906  0.815094  1
  Tm  Tm15  1  0.811403  0.811403  0.188597  1
  Cd  Cd16  1  0.579003  0.579003  0.579319  1
  Cd  Cd17  1  0.579003  0.579003  0.262675  1
  Cd  Cd18  1  0.580036  0.260467  0.579749  1
  Cd  Cd19  1  0.260467  0.580036  0.579749  1
  Ru  Ru20  1  0.143604  0.143604  0.137717  1
  Ru  Ru21  1  0.143604  0.143604  0.575076  1
  Pt  Pt22  1  0.144478  0.575024  0.140249  1
  Pt  Pt23  1  0.575024  0.144478  0.140249  1
