# generated using pymatgen
data_Sr8Mn2OsN8
_symmetry_space_group_name_H-M   'P 1'
_cell_length_a   9.79792187
_cell_length_b   9.79792186
_cell_length_c   7.55077730
_cell_angle_alpha   74.72603553
_cell_angle_beta   74.72603517
_cell_angle_gamma   31.69995844
_symmetry_Int_Tables_number   1
_chemical_formula_structural   Sr8Mn2OsN8
_chemical_formula_sum   'Sr8 Mn2 Os1 N8'
_cell_volume   366.33732894
_cell_formula_units_Z   1
loop_
 _symmetry_equiv_pos_site_id
 _symmetry_equiv_pos_as_xyz
  1  'x, y, z'
loop_
 _atom_site_type_symbol
 _atom_site_label
 _atom_site_symmetry_multiplicity
 _atom_site_fract_x
 _atom_site_fract_y
 _atom_site_fract_z
 _atom_site_occupancy
  Sr  Sr0  1  0.397214  0.397214  0.958737  1
  Sr  Sr1  1  0.329487  0.329487  0.475153  1
  Sr  Sr2  1  0.971983  0.971983  0.260133  1
  Sr  Sr3  1  0.199653  0.199653  0.196079  1
  Sr  Sr4  1  0.800347  0.800347  0.803921  1
  Sr  Sr5  1  0.028017  0.028017  0.739867  1
  Sr  Sr6  1  0.670513  0.670513  0.524847  1
  Sr  Sr7  1  0.602786  0.602786  0.041263  1
  Mn  Mn8  1  0.814588  0.814588  0.203012  1
  Mn  Mn9  1  0.185412  0.185412  0.796988  1
  Os  Os10  1  0.500000  0.500000  0.500000  1
  N  N11  1  0.274109  0.274109  0.832755  1
  N  N12  1  0.822580  0.822580  0.427590  1
  N  N13  1  0.104378  0.104378  0.988955  1
  N  N14  1  0.895622  0.895622  0.011045  1
  N  N15  1  0.177420  0.177420  0.572410  1
  N  N16  1  0.474487  0.474487  0.283223  1
  N  N17  1  0.725891  0.725891  0.167245  1
  N  N18  1  0.525513  0.525513  0.716777  1
