# generated using pymatgen
data_Hf11Zr5Pt2(Rh3N2)2
_symmetry_space_group_name_H-M   'P 1'
_cell_length_a   8.76644689
_cell_length_b   8.76644728
_cell_length_c   8.77749000
_cell_angle_alpha   59.95832212
_cell_angle_beta   59.95832066
_cell_angle_gamma   59.73502723
_symmetry_Int_Tables_number   1
_chemical_formula_structural   Hf11Zr5Pt2(Rh3N2)2
_chemical_formula_sum   'Hf11 Zr5 Pt2 Rh6 N4'
_cell_volume   475.72124525
_cell_formula_units_Z   1
loop_
 _symmetry_equiv_pos_site_id
 _symmetry_equiv_pos_as_xyz
  1  'x, y, z'
loop_
 _atom_site_type_symbol
 _atom_site_label
 _atom_site_symmetry_multiplicity
 _atom_site_fract_x
 _atom_site_fract_y
 _atom_site_fract_z
 _atom_site_occupancy
  Hf  Hf0  1  0.117972  0.623946  0.629042  1
  Hf  Hf1  1  0.623946  0.117972  0.629042  1
  Hf  Hf2  1  0.628490  0.628490  0.113800  1
  Hf  Hf3  1  0.628490  0.628490  0.629220  1
  Hf  Hf4  1  0.819058  0.819058  0.180942  1
  Hf  Hf5  1  0.180686  0.180686  0.819314  1
  Hf  Hf6  1  0.816894  0.182696  0.817897  1
  Hf  Hf7  1  0.182696  0.816894  0.182513  1
  Hf  Hf8  1  0.182696  0.816894  0.817897  1
  Hf  Hf9  1  0.816894  0.182696  0.182513  1
  Hf  Hf10  1  0.433509  0.433509  0.066491  1
  Zr  Zr11  1  0.065483  0.065483  0.434517  1
  Zr  Zr12  1  0.433318  0.068641  0.433143  1
  Zr  Zr13  1  0.068641  0.433318  0.064898  1
  Zr  Zr14  1  0.068641  0.433318  0.433143  1
  Zr  Zr15  1  0.433318  0.068641  0.064898  1
  Pt  Pt16  1  0.762707  0.411645  0.412824  1
  Pt  Pt17  1  0.411645  0.762707  0.412824  1
  Rh  Rh18  1  0.413193  0.413193  0.765421  1
  Rh  Rh19  1  0.413193  0.413193  0.408191  1
  Rh  Rh20  1  0.469801  0.842165  0.844018  1
  Rh  Rh21  1  0.842165  0.469801  0.844018  1
  Rh  Rh22  1  0.843127  0.843127  0.471889  1
  Rh  Rh23  1  0.843127  0.843127  0.841858  1
  N  N24  1  0.629422  0.126245  0.122167  1
  N  N25  1  0.126245  0.629422  0.122167  1
  N  N26  1  0.122321  0.122321  0.631349  1
  N  N27  1  0.122321  0.122321  0.124008  1
