# generated using pymatgen
data_Hf6AlZnC2
_symmetry_space_group_name_H-M   'P 1'
_cell_length_a   6.00134000
_cell_length_b   6.00133986
_cell_length_c   9.00734800
_cell_angle_alpha   90.00000000
_cell_angle_beta   90.00000000
_cell_angle_gamma   147.69405926
_symmetry_Int_Tables_number   1
_chemical_formula_structural   Hf6AlZnC2
_chemical_formula_sum   'Hf6 Al1 Zn1 C2'
_cell_volume   173.37734221
_cell_formula_units_Z   1
loop_
 _symmetry_equiv_pos_site_id
 _symmetry_equiv_pos_as_xyz
  1  'x, y, z'
loop_
 _atom_site_type_symbol
 _atom_site_label
 _atom_site_symmetry_multiplicity
 _atom_site_fract_x
 _atom_site_fract_y
 _atom_site_fract_z
 _atom_site_occupancy
  Hf  Hf0  1  0.628029  0.371971  0.956396  1
  Hf  Hf1  1  0.371522  0.628478  0.455448  1
  Hf  Hf2  1  0.371522  0.628478  0.044552  1
  Hf  Hf3  1  0.628029  0.371971  0.543604  1
  Hf  Hf4  1  0.956108  0.043892  0.750000  1
  Hf  Hf5  1  0.045107  0.954893  0.250000  1
  Al  Al6  1  0.253022  0.746978  0.750000  1
  Zn  Zn7  1  0.746779  0.253221  0.250000  1
  C  C8  1  0.999940  0.000060  0.001328  1
  C  C9  1  0.999940  0.000060  0.498672  1
