# generated using pymatgen
data_Eu3Al2(SbAs)2
_symmetry_space_group_name_H-M   'P 1'
_cell_length_a   8.77416076
_cell_length_b   8.77416005
_cell_length_c   6.90968214
_cell_angle_alpha   89.62328983
_cell_angle_beta   89.62328893
_cell_angle_gamma   75.56408001
_symmetry_Int_Tables_number   1
_chemical_formula_structural   Eu3Al2(SbAs)2
_chemical_formula_sum   'Eu6 Al4 Sb4 As4'
_cell_volume   515.13504715
_cell_formula_units_Z   2
loop_
 _symmetry_equiv_pos_site_id
 _symmetry_equiv_pos_as_xyz
  1  'x, y, z'
loop_
 _atom_site_type_symbol
 _atom_site_label
 _atom_site_symmetry_multiplicity
 _atom_site_fract_x
 _atom_site_fract_y
 _atom_site_fract_z
 _atom_site_occupancy
  Eu  Eu0  1  0.741502  0.001905  0.989090  1
  Eu  Eu1  1  0.998095  0.258498  0.510910  1
  Eu  Eu2  1  0.258498  0.998095  0.010910  1
  Eu  Eu3  1  0.001905  0.741502  0.489090  1
  Eu  Eu4  1  0.588351  0.411649  0.250000  1
  Eu  Eu5  1  0.411649  0.588351  0.750000  1
  Al  Al6  1  0.590322  0.814089  0.403141  1
  Al  Al7  1  0.185911  0.409678  0.096859  1
  Al  Al8  1  0.409678  0.185911  0.596859  1
  Al  Al9  1  0.814089  0.590322  0.903141  1
  Sb  Sb10  1  0.715427  0.063614  0.484518  1
  Sb  Sb11  1  0.936386  0.284573  0.015482  1
  Sb  Sb12  1  0.284573  0.936386  0.515482  1
  Sb  Sb13  1  0.063614  0.715427  0.984518  1
  As  As14  1  0.565229  0.740970  0.060238  1
  As  As15  1  0.259030  0.434771  0.439762  1
  As  As16  1  0.434771  0.259030  0.939762  1
  As  As17  1  0.740970  0.565229  0.560238  1
