# generated using pymatgen
data_TbNd5RuI10
_symmetry_space_group_name_H-M   'P 1'
_cell_length_a   7.94634940
_cell_length_b   9.97326477
_cell_length_c   10.01878554
_cell_angle_alpha   107.62320224
_cell_angle_beta   96.68905318
_cell_angle_gamma   104.77852827
_symmetry_Int_Tables_number   1
_chemical_formula_structural   TbNd5RuI10
_chemical_formula_sum   'Tb1 Nd5 Ru1 I10'
_cell_volume   715.35424175
_cell_formula_units_Z   1
loop_
 _symmetry_equiv_pos_site_id
 _symmetry_equiv_pos_as_xyz
  1  'x, y, z'
loop_
 _atom_site_type_symbol
 _atom_site_label
 _atom_site_symmetry_multiplicity
 _atom_site_fract_x
 _atom_site_fract_y
 _atom_site_fract_z
 _atom_site_occupancy
  Tb  Tb0  1  0.649970  0.874827  0.831820  1
  Nd  Nd1  1  0.115797  0.041613  0.761141  1
  Nd  Nd2  1  0.879672  0.955770  0.237053  1
  Nd  Nd3  1  0.967822  0.281277  0.084953  1
  Nd  Nd4  1  0.028742  0.717352  0.912632  1
  Nd  Nd5  1  0.358658  0.129417  0.173508  1
  Ru  Ru6  1  0.999241  0.999652  0.000104  1
  I  I7  1  0.548004  0.179770  0.908233  1
  I  I8  1  0.453340  0.814784  0.084542  1
  I  I9  1  0.354032  0.454249  0.271828  1
  I  I10  1  0.641406  0.553853  0.725969  1
  I  I11  1  0.254940  0.083771  0.459350  1
  I  I12  1  0.738095  0.911200  0.544516  1
  I  I13  1  0.787491  0.260084  0.352851  1
  I  I14  1  0.225510  0.743874  0.653737  1
  I  I15  1  0.088350  0.369632  0.821353  1
  I  I16  1  0.908928  0.628876  0.176412  1
