# generated using pymatgen
data_Tb3ZnCd3HgRu
_symmetry_space_group_name_H-M   'P 1'
_cell_length_a   7.99400900
_cell_length_b   7.99401109
_cell_length_c   3.75096100
_cell_angle_alpha   90.00000000
_cell_angle_beta   90.00000000
_cell_angle_gamma   119.99999548
_symmetry_Int_Tables_number   1
_chemical_formula_structural   Tb3ZnCd3HgRu
_chemical_formula_sum   'Tb3 Zn1 Cd3 Hg1 Ru1'
_cell_volume   207.58816007
_cell_formula_units_Z   1
loop_
 _symmetry_equiv_pos_site_id
 _symmetry_equiv_pos_as_xyz
  1  'x, y, z'
loop_
 _atom_site_type_symbol
 _atom_site_label
 _atom_site_symmetry_multiplicity
 _atom_site_fract_x
 _atom_site_fract_y
 _atom_site_fract_z
 _atom_site_occupancy
  Tb  Tb0  1  0.610629  0.036039  0.000000  1
  Tb  Tb1  1  0.963961  0.574591  0.000000  1
  Tb  Tb2  1  0.425409  0.389371  0.000000  1
  Zn  Zn3  1  0.000000  0.000000  0.000000  1
  Cd  Cd4  1  0.260322  0.001613  0.500000  1
  Cd  Cd5  1  0.998387  0.258708  0.500000  1
  Cd  Cd6  1  0.741292  0.739678  0.500000  1
  Hg  Hg7  1  0.333333  0.666667  0.500000  1
  Ru  Ru8  1  0.666667  0.333333  0.500000  1
