# generated using pymatgen
data_Er6Al24Ir4Os3Rh
_symmetry_space_group_name_H-M   'P 1'
_cell_length_a   8.81658744
_cell_length_b   8.78012978
_cell_length_c   9.51981563
_cell_angle_alpha   89.95893853
_cell_angle_beta   89.86279722
_cell_angle_gamma   119.97303710
_symmetry_Int_Tables_number   1
_chemical_formula_structural   Er6Al24Ir4Os3Rh
_chemical_formula_sum   'Er6 Al24 Ir4 Os3 Rh1'
_cell_volume   638.37555970
_cell_formula_units_Z   1
loop_
 _symmetry_equiv_pos_site_id
 _symmetry_equiv_pos_as_xyz
  1  'x, y, z'
loop_
 _atom_site_type_symbol
 _atom_site_label
 _atom_site_symmetry_multiplicity
 _atom_site_fract_x
 _atom_site_fract_y
 _atom_site_fract_z
 _atom_site_occupancy
  Er  Er0  1  0.190951  0.387370  0.251603  1
  Er  Er1  1  0.809049  0.612630  0.748397  1
  Er  Er2  1  0.613945  0.807102  0.250929  1
  Er  Er3  1  0.386055  0.192898  0.749071  1
  Er  Er4  1  0.190516  0.802920  0.251354  1
  Er  Er5  1  0.809484  0.197080  0.748646  1
  Al  Al6  1  0.333949  0.666335  0.029286  1
  Al  Al7  1  0.666051  0.333665  0.970714  1
  Al  Al8  1  0.667736  0.334258  0.527740  1
  Al  Al9  1  0.332264  0.665742  0.472260  1
  Al  Al10  1  0.163203  0.327728  0.575932  1
  Al  Al11  1  0.836797  0.672272  0.424068  1
  Al  Al12  1  0.673212  0.836748  0.576357  1
  Al  Al13  1  0.835493  0.672742  0.076374  1
  Al  Al14  1  0.326788  0.163252  0.423643  1
  Al  Al15  1  0.164507  0.327258  0.923626  1
  Al  Al16  1  0.162948  0.835459  0.576253  1
  Al  Al17  1  0.326405  0.162927  0.077353  1
  Al  Al18  1  0.837052  0.164541  0.423747  1
  Al  Al19  1  0.673595  0.837073  0.922647  1
  Al  Al20  1  0.835437  0.162841  0.076262  1
  Al  Al21  1  0.164563  0.837159  0.923738  1
  Al  Al22  1  0.561561  0.124299  0.249685  1
  Al  Al23  1  0.438439  0.875701  0.750315  1
  Al  Al24  1  0.874121  0.436715  0.250667  1
  Al  Al25  1  0.125879  0.563285  0.749333  1
  Al  Al26  1  0.560964  0.437556  0.249119  1
  Al  Al27  1  0.439036  0.562444  0.750881  1
  Al  Al28  1  0.998586  0.999459  0.250015  1
  Al  Al29  1  0.001414  0.000541  0.749985  1
  Ir  Ir30  1  0.500000  0.000000  0.000000  1
  Ir  Ir31  1  0.000000  0.500000  0.000000  1
  Ir  Ir32  1  0.500000  0.000000  0.500000  1
  Ir  Ir33  1  0.500000  0.500000  0.500000  1
  Os  Os34  1  0.000000  0.500000  0.500000  1
  Os  Os35  1  0.000000  0.000000  0.000000  1
  Os  Os36  1  0.000000  0.000000  0.500000  1
  Rh  Rh37  1  0.500000  0.500000  0.000000  1
