# generated using pymatgen
data_Ac2La3Sn4
_symmetry_space_group_name_H-M   'P 1'
_cell_length_a   8.64679000
_cell_length_b   8.71526900
_cell_length_c   16.61432100
_cell_angle_alpha   90.00000000
_cell_angle_beta   90.00000000
_cell_angle_gamma   90.00000000
_symmetry_Int_Tables_number   1
_chemical_formula_structural   Ac2La3Sn4
_chemical_formula_sum   'Ac8 La12 Sn16'
_cell_volume   1252.04029157
_cell_formula_units_Z   4
loop_
 _symmetry_equiv_pos_site_id
 _symmetry_equiv_pos_as_xyz
  1  'x, y, z'
loop_
 _atom_site_type_symbol
 _atom_site_label
 _atom_site_symmetry_multiplicity
 _atom_site_fract_x
 _atom_site_fract_y
 _atom_site_fract_z
 _atom_site_occupancy
  Ac  Ac0  1  0.517693  0.320639  0.902392  1
  Ac  Ac1  1  0.017693  0.179361  0.597608  1
  Ac  Ac2  1  0.482307  0.679361  0.402392  1
  Ac  Ac3  1  0.982307  0.820639  0.097608  1
  Ac  Ac4  1  0.482307  0.679361  0.097608  1
  Ac  Ac5  1  0.982307  0.820639  0.402392  1
  Ac  Ac6  1  0.517693  0.320639  0.597608  1
  Ac  Ac7  1  0.017693  0.179361  0.902392  1
  La  La8  1  0.365954  0.840980  0.880277  1
  La  La9  1  0.865954  0.659020  0.619723  1
  La  La10  1  0.634046  0.159020  0.380277  1
  La  La11  1  0.134046  0.340980  0.119723  1
  La  La12  1  0.634046  0.159020  0.119723  1
  La  La13  1  0.134046  0.340980  0.380277  1
  La  La14  1  0.365954  0.840980  0.619723  1
  La  La15  1  0.865954  0.659020  0.880277  1
  La  La16  1  0.202327  0.502422  0.750000  1
  La  La17  1  0.702327  0.997578  0.750000  1
  La  La18  1  0.797673  0.497578  0.250000  1
  La  La19  1  0.297673  0.002422  0.250000  1
  Sn  Sn20  1  0.297326  0.041840  0.043951  1
  Sn  Sn21  1  0.797326  0.458160  0.456049  1
  Sn  Sn22  1  0.702674  0.958160  0.543951  1
  Sn  Sn23  1  0.202674  0.541840  0.956049  1
  Sn  Sn24  1  0.702674  0.958160  0.956049  1
  Sn  Sn25  1  0.202674  0.541840  0.543951  1
  Sn  Sn26  1  0.297326  0.041840  0.456049  1
  Sn  Sn27  1  0.797326  0.458160  0.043951  1
  Sn  Sn28  1  0.567640  0.624215  0.750000  1
  Sn  Sn29  1  0.067640  0.875785  0.750000  1
  Sn  Sn30  1  0.432360  0.375785  0.250000  1
  Sn  Sn31  1  0.932360  0.124215  0.250000  1
  Sn  Sn32  1  0.323268  0.137126  0.750000  1
  Sn  Sn33  1  0.823268  0.362874  0.750000  1
  Sn  Sn34  1  0.676732  0.862874  0.250000  1
  Sn  Sn35  1  0.176732  0.637126  0.250000  1
