# generated using pymatgen
data_Y9Er3In20
_symmetry_space_group_name_H-M   'P 1'
_cell_length_a   6.51686606
_cell_length_b   10.42522400
_cell_length_c   12.28147012
_cell_angle_alpha   90.00000000
_cell_angle_beta   90.01579749
_cell_angle_gamma   90.00000000
_symmetry_Int_Tables_number   1
_chemical_formula_structural   Y9Er3In20
_chemical_formula_sum   'Y9 Er3 In20'
_cell_volume   834.40045016
_cell_formula_units_Z   1
loop_
 _symmetry_equiv_pos_site_id
 _symmetry_equiv_pos_as_xyz
  1  'x, y, z'
loop_
 _atom_site_type_symbol
 _atom_site_label
 _atom_site_symmetry_multiplicity
 _atom_site_fract_x
 _atom_site_fract_y
 _atom_site_fract_z
 _atom_site_occupancy
  Y  Y0  1  0.850992  0.250000  0.443624  1
  Y  Y1  1  0.890089  0.492630  0.142091  1
  Y  Y2  1  0.609584  0.006849  0.642454  1
  Y  Y3  1  0.109989  0.992417  0.858232  1
  Y  Y4  1  0.389794  0.506877  0.358016  1
  Y  Y5  1  0.109989  0.507583  0.858232  1
  Y  Y6  1  0.389794  0.993123  0.358016  1
  Y  Y7  1  0.890089  0.007370  0.142091  1
  Y  Y8  1  0.609584  0.493151  0.642454  1
  Er  Er9  1  0.350090  0.750000  0.055618  1
  Er  Er10  1  0.149831  0.750000  0.556026  1
  Er  Er11  1  0.649879  0.250000  0.944548  1
  In  In12  1  0.614751  0.750000  0.505118  1
  In  In13  1  0.885081  0.750000  0.005281  1
  In  In14  1  0.383444  0.250000  0.495489  1
  In  In15  1  0.115316  0.250000  0.994394  1
  In  In16  1  0.650725  0.750000  0.244601  1
  In  In17  1  0.849314  0.750000  0.745008  1
  In  In18  1  0.349361  0.250000  0.755533  1
  In  In19  1  0.152657  0.250000  0.253959  1
  In  In20  1  0.125244  0.750000  0.283531  1
  In  In21  1  0.375496  0.750000  0.783724  1
  In  In22  1  0.875259  0.250000  0.716820  1
  In  In23  1  0.624731  0.250000  0.214939  1
  In  In24  1  0.875204  0.544876  0.401208  1
  In  In25  1  0.624633  0.956271  0.901257  1
  In  In26  1  0.124382  0.043509  0.599228  1
  In  In27  1  0.375241  0.456385  0.098407  1
  In  In28  1  0.124382  0.456491  0.599228  1
  In  In29  1  0.375241  0.043615  0.098407  1
  In  In30  1  0.875204  0.955124  0.401208  1
  In  In31  1  0.624633  0.543729  0.901257  1
