# generated using pymatgen
data_SmLuFeB6
_symmetry_space_group_name_H-M   'P 1'
_cell_length_a   3.55684900
_cell_length_b   9.07807200
_cell_length_c   11.48036000
_cell_angle_alpha   90.00000000
_cell_angle_beta   90.00000000
_cell_angle_gamma   90.00000000
_symmetry_Int_Tables_number   1
_chemical_formula_structural   SmLuFeB6
_chemical_formula_sum   'Sm4 Lu4 Fe4 B24'
_cell_volume   370.69314766
_cell_formula_units_Z   4
loop_
 _symmetry_equiv_pos_site_id
 _symmetry_equiv_pos_as_xyz
  1  'x, y, z'
loop_
 _atom_site_type_symbol
 _atom_site_label
 _atom_site_symmetry_multiplicity
 _atom_site_fract_x
 _atom_site_fract_y
 _atom_site_fract_z
 _atom_site_occupancy
  Sm  Sm0  1  0.000000  0.823773  0.085716  1
  Sm  Sm1  1  0.000000  0.176227  0.914284  1
  Sm  Sm2  1  0.000000  0.323773  0.414284  1
  Sm  Sm3  1  0.000000  0.676227  0.585716  1
  Lu  Lu4  1  0.000000  0.443542  0.129453  1
  Lu  Lu5  1  0.000000  0.556458  0.870547  1
  Lu  Lu6  1  0.000000  0.943542  0.370547  1
  Lu  Lu7  1  0.000000  0.056458  0.629453  1
  Fe  Fe8  1  0.000000  0.139942  0.180939  1
  Fe  Fe9  1  0.000000  0.860058  0.819061  1
  Fe  Fe10  1  0.000000  0.639942  0.319061  1
  Fe  Fe11  1  0.000000  0.360058  0.680939  1
  B  B12  1  0.500000  0.056429  0.070232  1
  B  B13  1  0.500000  0.943571  0.929768  1
  B  B14  1  0.500000  0.556429  0.429768  1
  B  B15  1  0.500000  0.443571  0.570232  1
  B  B16  1  0.500000  0.249093  0.083115  1
  B  B17  1  0.500000  0.750907  0.916885  1
  B  B18  1  0.500000  0.749093  0.416885  1
  B  B19  1  0.500000  0.250907  0.583115  1
  B  B20  1  0.500000  0.289571  0.233128  1
  B  B21  1  0.500000  0.710429  0.766872  1
  B  B22  1  0.500000  0.789571  0.266872  1
  B  B23  1  0.500000  0.210429  0.733128  1
  B  B24  1  0.500000  0.130626  0.314482  1
  B  B25  1  0.500000  0.869374  0.685518  1
  B  B26  1  0.500000  0.630626  0.185518  1
  B  B27  1  0.500000  0.369374  0.814482  1
  B  B28  1  0.500000  0.486811  0.286729  1
  B  B29  1  0.500000  0.513189  0.713271  1
  B  B30  1  0.500000  0.986811  0.213271  1
  B  B31  1  0.500000  0.013189  0.786729  1
  B  B32  1  0.500000  0.102755  0.472011  1
  B  B33  1  0.500000  0.897245  0.527989  1
  B  B34  1  0.500000  0.602755  0.027989  1
  B  B35  1  0.500000  0.397245  0.972011  1
