# generated using pymatgen
data_Sc9Ti(ReO)3
_symmetry_space_group_name_H-M   'P 1'
_cell_length_a   8.63979900
_cell_length_b   8.63979889
_cell_length_c   8.22773400
_cell_angle_alpha   90.00000000
_cell_angle_beta   90.00000000
_cell_angle_gamma   120.00000426
_symmetry_Int_Tables_number   1
_chemical_formula_structural   Sc9Ti(ReO)3
_chemical_formula_sum   'Sc18 Ti2 Re6 O6'
_cell_volume   531.88547197
_cell_formula_units_Z   2
loop_
 _symmetry_equiv_pos_site_id
 _symmetry_equiv_pos_as_xyz
  1  'x, y, z'
loop_
 _atom_site_type_symbol
 _atom_site_label
 _atom_site_symmetry_multiplicity
 _atom_site_fract_x
 _atom_site_fract_y
 _atom_site_fract_z
 _atom_site_occupancy
  Sc  Sc0  1  0.456721  0.913441  0.250000  1
  Sc  Sc1  1  0.543279  0.086559  0.750000  1
  Sc  Sc2  1  0.086559  0.543279  0.250000  1
  Sc  Sc3  1  0.913441  0.456721  0.750000  1
  Sc  Sc4  1  0.456721  0.543279  0.250000  1
  Sc  Sc5  1  0.543279  0.456721  0.750000  1
  Sc  Sc6  1  0.203734  0.407466  0.549410  1
  Sc  Sc7  1  0.796266  0.592534  0.450590  1
  Sc  Sc8  1  0.592534  0.796266  0.549410  1
  Sc  Sc9  1  0.796266  0.592534  0.049410  1
  Sc  Sc10  1  0.407466  0.203734  0.450590  1
  Sc  Sc11  1  0.203734  0.407466  0.950590  1
  Sc  Sc12  1  0.203734  0.796266  0.549410  1
  Sc  Sc13  1  0.407466  0.203734  0.049410  1
  Sc  Sc14  1  0.796266  0.203734  0.450590  1
  Sc  Sc15  1  0.592534  0.796266  0.950590  1
  Sc  Sc16  1  0.796266  0.203734  0.049410  1
  Sc  Sc17  1  0.203734  0.796266  0.950590  1
  Ti  Ti18  1  0.000000  0.000000  0.000000  1
  Ti  Ti19  1  0.000000  0.000000  0.500000  1
  Re  Re20  1  0.108817  0.217633  0.250000  1
  Re  Re21  1  0.891183  0.782367  0.750000  1
  Re  Re22  1  0.782367  0.891183  0.250000  1
  Re  Re23  1  0.217633  0.108817  0.750000  1
  Re  Re24  1  0.108817  0.891183  0.250000  1
  Re  Re25  1  0.891183  0.108817  0.750000  1
  O  O26  1  0.500000  0.000000  0.000000  1
  O  O27  1  0.000000  0.500000  0.000000  1
  O  O28  1  0.500000  0.000000  0.500000  1
  O  O29  1  0.500000  0.500000  0.000000  1
  O  O30  1  0.000000  0.500000  0.500000  1
  O  O31  1  0.500000  0.500000  0.500000  1
