# generated using pymatgen
data_Tb3Pr2DyRuBr10
_symmetry_space_group_name_H-M   'P 1'
_cell_length_a   7.50330558
_cell_length_b   9.43781870
_cell_length_c   9.37033080
_cell_angle_alpha   107.79891187
_cell_angle_beta   95.77158594
_cell_angle_gamma   106.60942801
_symmetry_Int_Tables_number   1
_chemical_formula_structural   Tb3Pr2DyRuBr10
_chemical_formula_sum   'Tb3 Pr2 Dy1 Ru1 Br10'
_cell_volume   592.45287229
_cell_formula_units_Z   1
loop_
 _symmetry_equiv_pos_site_id
 _symmetry_equiv_pos_as_xyz
  1  'x, y, z'
loop_
 _atom_site_type_symbol
 _atom_site_label
 _atom_site_symmetry_multiplicity
 _atom_site_fract_x
 _atom_site_fract_y
 _atom_site_fract_z
 _atom_site_occupancy
  Tb  Tb0  1  0.023695  0.696000  0.902799  1
  Tb  Tb1  1  0.366958  0.140353  0.180755  1
  Tb  Tb2  1  0.632941  0.859856  0.819224  1
  Pr  Pr3  1  0.123474  0.046656  0.761210  1
  Pr  Pr4  1  0.876477  0.953654  0.238919  1
  Dy  Dy5  1  0.976890  0.303390  0.097110  1
  Ru  Ru6  1  0.999922  0.000330  0.000101  1
  Br  Br7  1  0.552986  0.175327  0.920350  1
  Br  Br8  1  0.447268  0.824843  0.079823  1
  Br  Br9  1  0.354047  0.452663  0.271674  1
  Br  Br10  1  0.645051  0.547236  0.727999  1
  Br  Br11  1  0.264185  0.087479  0.450860  1
  Br  Br12  1  0.735819  0.912512  0.549112  1
  Br  Br13  1  0.789582  0.264642  0.343784  1
  Br  Br14  1  0.210851  0.735637  0.655702  1
  Br  Br15  1  0.085720  0.375972  0.834571  1
  Br  Br16  1  0.914135  0.623449  0.166008  1
