# generated using pymatgen
data_Cs16Ti3SnS16
_symmetry_space_group_name_H-M   'P 1'
_cell_length_a   8.72578653
_cell_length_b   10.34589100
_cell_length_c   15.19722387
_cell_angle_alpha   90.00000000
_cell_angle_beta   90.03923565
_cell_angle_gamma   90.00000000
_symmetry_Int_Tables_number   1
_chemical_formula_structural   Cs16Ti3SnS16
_chemical_formula_sum   'Cs16 Ti3 Sn1 S16'
_cell_volume   1371.94481151
_cell_formula_units_Z   1
loop_
 _symmetry_equiv_pos_site_id
 _symmetry_equiv_pos_as_xyz
  1  'x, y, z'
loop_
 _atom_site_type_symbol
 _atom_site_label
 _atom_site_symmetry_multiplicity
 _atom_site_fract_x
 _atom_site_fract_y
 _atom_site_fract_z
 _atom_site_occupancy
  Cs  Cs0  1  0.997186  0.999498  0.000677  1
  Cs  Cs1  1  0.499897  0.999089  0.499423  1
  Cs  Cs2  1  0.997186  0.500502  0.000677  1
  Cs  Cs3  1  0.499897  0.500911  0.499423  1
  Cs  Cs4  1  0.994698  0.750000  0.422779  1
  Cs  Cs5  1  0.496539  0.250000  0.079285  1
  Cs  Cs6  1  0.001480  0.250000  0.574289  1
  Cs  Cs7  1  0.511006  0.750000  0.922775  1
  Cs  Cs8  1  0.831437  0.058583  0.282246  1
  Cs  Cs9  1  0.330639  0.941000  0.217577  1
  Cs  Cs10  1  0.168528  0.558530  0.718030  1
  Cs  Cs11  1  0.667583  0.442666  0.779982  1
  Cs  Cs12  1  0.168528  0.941470  0.718030  1
  Cs  Cs13  1  0.667583  0.057334  0.779982  1
  Cs  Cs14  1  0.831437  0.441417  0.282246  1
  Cs  Cs15  1  0.330639  0.559000  0.217577  1
  Ti  Ti16  1  0.761482  0.750000  0.664511  1
  Ti  Ti17  1  0.239189  0.250000  0.334494  1
  Ti  Ti18  1  0.738666  0.750000  0.166315  1
  Sn  Sn19  1  0.262884  0.250000  0.837044  1
  S  S20  1  0.984718  0.250000  0.826529  1
  S  S21  1  0.501592  0.250000  0.326538  1
  S  S22  1  0.499053  0.750000  0.672923  1
  S  S23  1  0.001003  0.750000  0.173954  1
  S  S24  1  0.657544  0.570504  0.094290  1
  S  S25  1  0.158190  0.429781  0.406380  1
  S  S26  1  0.348250  0.057698  0.912369  1
  S  S27  1  0.842730  0.929453  0.592486  1
  S  S28  1  0.348250  0.442302  0.912369  1
  S  S29  1  0.842730  0.570547  0.592486  1
  S  S30  1  0.657544  0.929496  0.094290  1
  S  S31  1  0.158190  0.070219  0.406380  1
  S  S32  1  0.636434  0.750000  0.305837  1
  S  S33  1  0.136749  0.250000  0.194890  1
  S  S34  1  0.366144  0.250000  0.686912  1
  S  S35  1  0.864392  0.750000  0.804006  1
