# generated using pymatgen
data_CaNd6RhBr12
_symmetry_space_group_name_H-M   'P 1'
_cell_length_a   9.49468931
_cell_length_b   9.61345459
_cell_length_c   9.61676163
_cell_angle_alpha   107.13521262
_cell_angle_beta   107.01030716
_cell_angle_gamma   107.12839548
_symmetry_Int_Tables_number   1
_chemical_formula_structural   CaNd6RhBr12
_chemical_formula_sum   'Ca1 Nd6 Rh1 Br12'
_cell_volume   729.20003861
_cell_formula_units_Z   1
loop_
 _symmetry_equiv_pos_site_id
 _symmetry_equiv_pos_as_xyz
  1  'x, y, z'
loop_
 _atom_site_type_symbol
 _atom_site_label
 _atom_site_symmetry_multiplicity
 _atom_site_fract_x
 _atom_site_fract_y
 _atom_site_fract_z
 _atom_site_occupancy
  Ca  Ca0  1  0.500000  0.500000  0.500000  1
  Nd  Nd1  1  0.308632  0.103425  0.024534  1
  Nd  Nd2  1  0.025133  0.319606  0.107874  1
  Nd  Nd3  1  0.107661  0.025803  0.318825  1
  Nd  Nd4  1  0.892339  0.974197  0.681176  1
  Nd  Nd5  1  0.974867  0.680395  0.892127  1
  Nd  Nd6  1  0.691369  0.896575  0.975467  1
  Rh  Rh7  1  0.000000  0.000000  0.000000  1
  Br  Br8  1  0.680856  0.218241  0.068517  1
  Br  Br9  1  0.379574  0.457119  0.166679  1
  Br  Br10  1  0.069052  0.682764  0.219116  1
  Br  Br11  1  0.779273  0.930855  0.317270  1
  Br  Br12  1  0.458735  0.167092  0.378260  1
  Br  Br13  1  0.164533  0.378082  0.457086  1
  Br  Br14  1  0.835467  0.621919  0.542914  1
  Br  Br15  1  0.541265  0.832909  0.621740  1
  Br  Br16  1  0.220728  0.069146  0.682730  1
  Br  Br17  1  0.930948  0.317236  0.780885  1
  Br  Br18  1  0.620427  0.542881  0.833321  1
  Br  Br19  1  0.319145  0.781759  0.931483  1
