# generated using pymatgen
data_YTm3Al8
_symmetry_space_group_name_H-M   'P 1'
_cell_length_a   9.58147944
_cell_length_b   9.58147973
_cell_length_c   9.58148005
_cell_angle_alpha   33.52302648
_cell_angle_beta   33.52302246
_cell_angle_gamma   33.52302276
_symmetry_Int_Tables_number   1
_chemical_formula_structural   YTm3Al8
_chemical_formula_sum   'Y1 Tm3 Al8'
_cell_volume   238.95840629
_cell_formula_units_Z   1
loop_
 _symmetry_equiv_pos_site_id
 _symmetry_equiv_pos_as_xyz
  1  'x, y, z'
loop_
 _atom_site_type_symbol
 _atom_site_label
 _atom_site_symmetry_multiplicity
 _atom_site_fract_x
 _atom_site_fract_y
 _atom_site_fract_z
 _atom_site_occupancy
  Y  Y0  1  0.687458  0.687458  0.687458  1
  Tm  Tm1  1  0.187509  0.187509  0.187509  1
  Tm  Tm2  1  0.812697  0.812697  0.812697  1
  Tm  Tm3  1  0.312317  0.312317  0.312317  1
  Al  Al4  1  0.999891  0.999891  0.999891  1
  Al  Al5  1  0.500018  0.500018  0.500018  1
  Al  Al6  1  0.750060  0.250298  0.250298  1
  Al  Al7  1  0.249561  0.749945  0.749945  1
  Al  Al8  1  0.250298  0.750060  0.250298  1
  Al  Al9  1  0.749945  0.249561  0.749945  1
  Al  Al10  1  0.250298  0.250298  0.750060  1
  Al  Al11  1  0.749945  0.749945  0.249561  1
