# generated using pymatgen
data_Sc4SeBr6
_symmetry_space_group_name_H-M   'P 1'
_cell_length_a   3.88526100
_cell_length_b   12.71886900
_cell_length_c   13.25421200
_cell_angle_alpha   90.00000000
_cell_angle_beta   90.00000000
_cell_angle_gamma   90.00000000
_symmetry_Int_Tables_number   1
_chemical_formula_structural   Sc4SeBr6
_chemical_formula_sum   'Sc8 Se2 Br12'
_cell_volume   654.97180611
_cell_formula_units_Z   2
loop_
 _symmetry_equiv_pos_site_id
 _symmetry_equiv_pos_as_xyz
  1  'x, y, z'
loop_
 _atom_site_type_symbol
 _atom_site_label
 _atom_site_symmetry_multiplicity
 _atom_site_fract_x
 _atom_site_fract_y
 _atom_site_fract_z
 _atom_site_occupancy
  Sc  Sc0  1  0.000000  0.108245  0.083265  1
  Sc  Sc1  1  0.000000  0.891755  0.916735  1
  Sc  Sc2  1  0.000000  0.608245  0.416735  1
  Sc  Sc3  1  0.000000  0.391755  0.583265  1
  Sc  Sc4  1  0.500000  0.126517  0.849145  1
  Sc  Sc5  1  0.500000  0.873483  0.150855  1
  Sc  Sc6  1  0.500000  0.626517  0.650855  1
  Sc  Sc7  1  0.500000  0.373483  0.349145  1
  Se  Se8  1  0.500000  0.000000  0.000000  1
  Se  Se9  1  0.500000  0.500000  0.500000  1
  Br  Br10  1  0.500000  0.264379  0.676849  1
  Br  Br11  1  0.500000  0.735621  0.323151  1
  Br  Br12  1  0.500000  0.764379  0.823151  1
  Br  Br13  1  0.500000  0.235621  0.176849  1
  Br  Br14  1  0.000000  0.256045  0.927943  1
  Br  Br15  1  0.000000  0.743955  0.072057  1
  Br  Br16  1  0.000000  0.482651  0.244835  1
  Br  Br17  1  0.000000  0.517349  0.755165  1
  Br  Br18  1  0.000000  0.982651  0.255165  1
  Br  Br19  1  0.000000  0.017349  0.744835  1
  Br  Br20  1  0.000000  0.243955  0.427943  1
  Br  Br21  1  0.000000  0.756045  0.572057  1
