# generated using pymatgen
data_V3CrPd12
_symmetry_space_group_name_H-M   'P 1'
_cell_length_a   5.54875500
_cell_length_b   5.54875630
_cell_length_c   8.98448400
_cell_angle_alpha   90.00000000
_cell_angle_beta   90.00000000
_cell_angle_gamma   119.99999822
_symmetry_Int_Tables_number   1
_chemical_formula_structural   V3CrPd12
_chemical_formula_sum   'V3 Cr1 Pd12'
_cell_volume   239.56037237
_cell_formula_units_Z   1
loop_
 _symmetry_equiv_pos_site_id
 _symmetry_equiv_pos_as_xyz
  1  'x, y, z'
loop_
 _atom_site_type_symbol
 _atom_site_label
 _atom_site_symmetry_multiplicity
 _atom_site_fract_x
 _atom_site_fract_y
 _atom_site_fract_z
 _atom_site_occupancy
  V  V0  1  0.000000  0.000000  0.502991  1
  V  V1  1  0.000000  0.000000  0.997009  1
  V  V2  1  0.666667  0.333333  0.250000  1
  Cr  Cr3  1  0.333333  0.666667  0.750000  1
  Pd  Pd4  1  0.501570  0.498430  0.495681  1
  Pd  Pd5  1  0.501570  0.003140  0.495681  1
  Pd  Pd6  1  0.996860  0.498430  0.495681  1
  Pd  Pd7  1  0.501570  0.498430  0.004319  1
  Pd  Pd8  1  0.501570  0.003140  0.004319  1
  Pd  Pd9  1  0.996860  0.498430  0.004319  1
  Pd  Pd10  1  0.163571  0.836429  0.250000  1
  Pd  Pd11  1  0.163571  0.327142  0.250000  1
  Pd  Pd12  1  0.672858  0.836429  0.250000  1
  Pd  Pd13  1  0.835049  0.164951  0.750000  1
  Pd  Pd14  1  0.835049  0.670095  0.750000  1
  Pd  Pd15  1  0.329905  0.164951  0.750000  1
