# generated using pymatgen
data_Zr3NpCN3
_symmetry_space_group_name_H-M   'P 1'
_cell_length_a   11.13811734
_cell_length_b   11.13811739
_cell_length_c   11.13811820
_cell_angle_alpha   17.06119860
_cell_angle_beta   17.06119959
_cell_angle_gamma   17.06119355
_symmetry_Int_Tables_number   1
_chemical_formula_structural   Zr3NpCN3
_chemical_formula_sum   'Zr3 Np1 C1 N3'
_cell_volume   103.76770321
_cell_formula_units_Z   1
loop_
 _symmetry_equiv_pos_site_id
 _symmetry_equiv_pos_as_xyz
  1  'x, y, z'
loop_
 _atom_site_type_symbol
 _atom_site_label
 _atom_site_symmetry_multiplicity
 _atom_site_fract_x
 _atom_site_fract_y
 _atom_site_fract_z
 _atom_site_occupancy
  Zr  Zr0  1  0.124383  0.124383  0.124383  1
  Zr  Zr1  1  0.374458  0.374458  0.374458  1
  Zr  Zr2  1  0.626768  0.626768  0.626768  1
  Np  Np3  1  0.874664  0.874664  0.874664  1
  C  C4  1  0.001583  0.001583  0.001583  1
  N  N5  1  0.252302  0.252302  0.252302  1
  N  N6  1  0.495993  0.495993  0.495993  1
  N  N7  1  0.749849  0.749849  0.749849  1
