# generated using pymatgen
data_Tm17Mg(ScIr6)2
_symmetry_space_group_name_H-M   'P 1'
_cell_length_a   10.67032000
_cell_length_b   10.67032000
_cell_length_c   6.22073000
_cell_angle_alpha   90.00000000
_cell_angle_beta   90.00000000
_cell_angle_gamma   90.00000000
_symmetry_Int_Tables_number   1
_chemical_formula_structural   Tm17Mg(ScIr6)2
_chemical_formula_sum   'Tm17 Mg1 Sc2 Ir12'
_cell_volume   708.26574846
_cell_formula_units_Z   1
loop_
 _symmetry_equiv_pos_site_id
 _symmetry_equiv_pos_as_xyz
  1  'x, y, z'
loop_
 _atom_site_type_symbol
 _atom_site_label
 _atom_site_symmetry_multiplicity
 _atom_site_fract_x
 _atom_site_fract_y
 _atom_site_fract_z
 _atom_site_occupancy
  Tm  Tm0  1  0.284733  0.084176  0.376977  1
  Tm  Tm1  1  0.291592  0.912255  0.878179  1
  Tm  Tm2  1  0.708408  0.087745  0.878179  1
  Tm  Tm3  1  0.715267  0.915824  0.376977  1
  Tm  Tm4  1  0.587199  0.788763  0.877878  1
  Tm  Tm5  1  0.585745  0.211312  0.376901  1
  Tm  Tm6  1  0.414255  0.788688  0.376901  1
  Tm  Tm7  1  0.412801  0.211237  0.877878  1
  Tm  Tm8  1  0.211312  0.414255  0.623099  1
  Tm  Tm9  1  0.211237  0.587199  0.122122  1
  Tm  Tm10  1  0.788763  0.412801  0.122122  1
  Tm  Tm11  1  0.788688  0.585745  0.623099  1
  Tm  Tm12  1  0.912255  0.708408  0.121821  1
  Tm  Tm13  1  0.915824  0.284733  0.623023  1
  Tm  Tm14  1  0.084176  0.715267  0.623023  1
  Tm  Tm15  1  0.087745  0.291592  0.121821  1
  Tm  Tm16  1  0.000000  0.000000  0.000000  1
  Mg  Mg17  1  0.000000  0.000000  0.500000  1
  Sc  Sc18  1  0.500000  0.500000  0.000000  1
  Sc  Sc19  1  0.500000  0.500000  0.500000  1
  Ir  Ir20  1  0.845398  0.155545  0.247061  1
  Ir  Ir21  1  0.844455  0.845398  0.752939  1
  Ir  Ir22  1  0.155545  0.154602  0.752939  1
  Ir  Ir23  1  0.154602  0.844455  0.247061  1
  Ir  Ir24  1  0.648773  0.351458  0.748945  1
  Ir  Ir25  1  0.648542  0.648773  0.251055  1
  Ir  Ir26  1  0.351458  0.351227  0.251055  1
  Ir  Ir27  1  0.351227  0.648542  0.748945  1
  Ir  Ir28  1  0.500000  0.000000  0.125047  1
  Ir  Ir29  1  0.500000  0.000000  0.621123  1
  Ir  Ir30  1  0.000000  0.500000  0.874953  1
  Ir  Ir31  1  0.000000  0.500000  0.378877  1
