# generated using pymatgen
data_Tb5Sm3Re3B24Ru
_symmetry_space_group_name_H-M   'P 1'
_cell_length_a   3.71637500
_cell_length_b   9.22821680
_cell_length_c   11.64005034
_cell_angle_alpha   90.08887667
_cell_angle_beta   90.00000000
_cell_angle_gamma   90.00000000
_symmetry_Int_Tables_number   1
_chemical_formula_structural   Tb5Sm3Re3B24Ru
_chemical_formula_sum   'Tb5 Sm3 Re3 B24 Ru1'
_cell_volume   399.20103152
_cell_formula_units_Z   1
loop_
 _symmetry_equiv_pos_site_id
 _symmetry_equiv_pos_as_xyz
  1  'x, y, z'
loop_
 _atom_site_type_symbol
 _atom_site_label
 _atom_site_symmetry_multiplicity
 _atom_site_fract_x
 _atom_site_fract_y
 _atom_site_fract_z
 _atom_site_occupancy
  Tb  Tb0  1  0.000000  0.176414  0.913756  1
  Tb  Tb1  1  0.000000  0.941656  0.368928  1
  Tb  Tb2  1  0.000000  0.056711  0.629893  1
  Tb  Tb3  1  0.000000  0.442791  0.130675  1
  Tb  Tb4  1  0.000000  0.556923  0.870758  1
  Sm  Sm5  1  0.000000  0.322177  0.414265  1
  Sm  Sm6  1  0.000000  0.676987  0.587566  1
  Sm  Sm7  1  0.000000  0.824747  0.084362  1
  Re  Re8  1  0.000000  0.361456  0.679393  1
  Re  Re9  1  0.000000  0.138531  0.179270  1
  Re  Re10  1  0.000000  0.862271  0.820666  1
  B  B11  1  0.500000  0.554544  0.431551  1
  B  B12  1  0.500000  0.446006  0.568369  1
  B  B13  1  0.500000  0.054485  0.066900  1
  B  B14  1  0.500000  0.947492  0.931765  1
  B  B15  1  0.500000  0.748101  0.417084  1
  B  B16  1  0.500000  0.251002  0.582923  1
  B  B17  1  0.500000  0.249034  0.081462  1
  B  B18  1  0.500000  0.752235  0.917400  1
  B  B19  1  0.500000  0.789869  0.266063  1
  B  B20  1  0.500000  0.208400  0.734549  1
  B  B21  1  0.500000  0.290613  0.233694  1
  B  B22  1  0.500000  0.709043  0.766605  1
  B  B23  1  0.500000  0.630977  0.186579  1
  B  B24  1  0.500000  0.368797  0.814159  1
  B  B25  1  0.500000  0.130631  0.313767  1
  B  B26  1  0.500000  0.869474  0.686649  1
  B  B27  1  0.500000  0.984340  0.211670  1
  B  B28  1  0.500000  0.017339  0.787721  1
  B  B29  1  0.500000  0.484931  0.287822  1
  B  B30  1  0.500000  0.516326  0.712867  1
  B  B31  1  0.500000  0.600752  0.028568  1
  B  B32  1  0.500000  0.398191  0.972195  1
  B  B33  1  0.500000  0.099013  0.471787  1
  B  B34  1  0.500000  0.899126  0.527753  1
  Ru  Ru35  1  0.000000  0.638614  0.320568  1
