# generated using pymatgen
data_NdSm2Fe2Co7P6
_symmetry_space_group_name_H-M   'P 1'
_cell_length_a   3.75137800
_cell_length_b   10.64701700
_cell_length_c   12.25213300
_cell_angle_alpha   90.00000000
_cell_angle_beta   90.00000000
_cell_angle_gamma   90.00000000
_symmetry_Int_Tables_number   1
_chemical_formula_structural   NdSm2Fe2Co7P6
_chemical_formula_sum   'Nd2 Sm4 Fe4 Co14 P12'
_cell_volume   489.36226453
_cell_formula_units_Z   2
loop_
 _symmetry_equiv_pos_site_id
 _symmetry_equiv_pos_as_xyz
  1  'x, y, z'
loop_
 _atom_site_type_symbol
 _atom_site_label
 _atom_site_symmetry_multiplicity
 _atom_site_fract_x
 _atom_site_fract_y
 _atom_site_fract_z
 _atom_site_occupancy
  Nd  Nd0  1  0.000000  0.500000  0.521320  1
  Nd  Nd1  1  0.500000  0.000000  0.478680  1
  Sm  Sm2  1  0.500000  0.819322  0.204718  1
  Sm  Sm3  1  0.500000  0.180678  0.204718  1
  Sm  Sm4  1  0.000000  0.680678  0.795282  1
  Sm  Sm5  1  0.000000  0.319322  0.795282  1
  Fe  Fe6  1  0.500000  0.500000  0.153492  1
  Fe  Fe7  1  0.000000  0.000000  0.846508  1
  Fe  Fe8  1  0.000000  0.500000  0.989618  1
  Fe  Fe9  1  0.500000  0.000000  0.010382  1
  Co  Co10  1  0.500000  0.500000  0.703190  1
  Co  Co11  1  0.000000  0.000000  0.296810  1
  Co  Co12  1  0.500000  0.331761  0.995749  1
  Co  Co13  1  0.500000  0.668239  0.995749  1
  Co  Co14  1  0.000000  0.168239  0.004251  1
  Co  Co15  1  0.000000  0.831761  0.004251  1
  Co  Co16  1  0.500000  0.296447  0.429830  1
  Co  Co17  1  0.500000  0.703553  0.429830  1
  Co  Co18  1  0.000000  0.203553  0.570170  1
  Co  Co19  1  0.000000  0.796447  0.570170  1
  Co  Co20  1  0.500000  0.880318  0.710936  1
  Co  Co21  1  0.500000  0.119682  0.710936  1
  Co  Co22  1  0.000000  0.619682  0.289064  1
  Co  Co23  1  0.000000  0.380318  0.289064  1
  P  P24  1  0.500000  0.500000  0.887784  1
  P  P25  1  0.000000  0.000000  0.112216  1
  P  P26  1  0.500000  0.500000  0.336923  1
  P  P27  1  0.000000  0.000000  0.663077  1
  P  P28  1  0.500000  0.305846  0.615488  1
  P  P29  1  0.500000  0.694154  0.615488  1
  P  P30  1  0.000000  0.194154  0.384512  1
  P  P31  1  0.000000  0.805846  0.384512  1
  P  P32  1  0.500000  0.847709  0.894990  1
  P  P33  1  0.500000  0.152291  0.894990  1
  P  P34  1  0.000000  0.652291  0.105010  1
  P  P35  1  0.000000  0.347709  0.105010  1
