# generated using pymatgen
data_Ho5Er3Ti11Si16Au
_symmetry_space_group_name_H-M   'P 1'
_cell_length_a   7.05729151
_cell_length_b   7.05698092
_cell_length_c   12.86873805
_cell_angle_alpha   90.12556337
_cell_angle_beta   89.86791117
_cell_angle_gamma   89.65084719
_symmetry_Int_Tables_number   1
_chemical_formula_structural   Ho5Er3Ti11Si16Au
_chemical_formula_sum   'Ho5 Er3 Ti11 Si16 Au1'
_cell_volume   640.88880620
_cell_formula_units_Z   1
loop_
 _symmetry_equiv_pos_site_id
 _symmetry_equiv_pos_as_xyz
  1  'x, y, z'
loop_
 _atom_site_type_symbol
 _atom_site_label
 _atom_site_symmetry_multiplicity
 _atom_site_fract_x
 _atom_site_fract_y
 _atom_site_fract_z
 _atom_site_occupancy
  Ho  Ho0  1  0.340854  0.002273  0.466772  1
  Ho  Ho1  1  0.497550  0.841021  0.716847  1
  Ho  Ho2  1  0.501269  0.157390  0.214354  1
  Ho  Ho3  1  0.841063  0.497499  0.283199  1
  Ho  Ho4  1  0.157352  0.501243  0.785619  1
  Er  Er5  1  0.656496  0.000797  0.968713  1
  Er  Er6  1  0.002211  0.341104  0.533253  1
  Er  Er7  1  0.000723  0.656474  0.031241  1
  Ti  Ti8  1  0.174712  0.826193  0.249423  1
  Ti  Ti9  1  0.826198  0.174750  0.750539  1
  Ti  Ti10  1  0.672835  0.672674  0.500008  1
  Ti  Ti11  1  0.147340  0.007097  0.876845  1
  Ti  Ti12  1  0.495233  0.650907  0.122836  1
  Ti  Ti13  1  0.507013  0.350872  0.625418  1
  Ti  Ti14  1  0.650931  0.495237  0.877173  1
  Ti  Ti15  1  0.350816  0.506952  0.374583  1
  Ti  Ti16  1  0.850435  0.992217  0.374230  1
  Ti  Ti17  1  0.007066  0.147377  0.123172  1
  Ti  Ti18  1  0.992161  0.850459  0.625776  1
  Si  Si19  1  0.201959  0.133064  0.684049  1
  Si  Si20  1  0.373697  0.720193  0.928483  1
  Si  Si21  1  0.631794  0.293688  0.432280  1
  Si  Si22  1  0.720209  0.373697  0.071521  1
  Si  Si23  1  0.293510  0.631408  0.567777  1
  Si  Si24  1  0.797665  0.866623  0.182242  1
  Si  Si25  1  0.132869  0.202192  0.315890  1
  Si  Si26  1  0.866625  0.797662  0.817768  1
  Si  Si27  1  0.286393  0.937938  0.065721  1
  Si  Si28  1  0.547020  0.791344  0.314444  1
  Si  Si29  1  0.454593  0.207612  0.809942  1
  Si  Si30  1  0.791480  0.546853  0.685439  1
  Si  Si31  1  0.207588  0.454566  0.190068  1
  Si  Si32  1  0.708662  0.048040  0.564483  1
  Si  Si33  1  0.937924  0.286406  0.934304  1
  Si  Si34  1  0.047841  0.708270  0.435585  1
  Au  Au35  1  0.327917  0.327913  0.000002  1
