# generated using pymatgen
data_Tb3Y(Ga3Ir)6
_symmetry_space_group_name_H-M   'P 1'
_cell_length_a   7.60142700
_cell_length_b   7.60147521
_cell_length_c   9.51496500
_cell_angle_alpha   90.00000000
_cell_angle_beta   90.00000000
_cell_angle_gamma   119.93848219
_symmetry_Int_Tables_number   1
_chemical_formula_structural   Tb3Y(Ga3Ir)6
_chemical_formula_sum   'Tb3 Y1 Ga18 Ir6'
_cell_volume   476.43068262
_cell_formula_units_Z   1
loop_
 _symmetry_equiv_pos_site_id
 _symmetry_equiv_pos_as_xyz
  1  'x, y, z'
loop_
 _atom_site_type_symbol
 _atom_site_label
 _atom_site_symmetry_multiplicity
 _atom_site_fract_x
 _atom_site_fract_y
 _atom_site_fract_z
 _atom_site_occupancy
  Tb  Tb0  1  0.996892  0.667788  0.250000  1
  Tb  Tb1  1  0.003108  0.332215  0.750000  1
  Tb  Tb2  1  0.667789  0.996894  0.250000  1
  Y  Y3  1  0.332216  0.003110  0.750000  1
  Ga  Ga4  1  0.126954  0.126952  0.250000  1
  Ga  Ga5  1  0.873045  0.873051  0.750000  1
  Ga  Ga6  1  0.999444  0.333825  0.079753  1
  Ga  Ga7  1  0.000559  0.666179  0.920250  1
  Ga  Ga8  1  0.000559  0.666179  0.579750  1
  Ga  Ga9  1  0.333825  0.999442  0.420248  1
  Ga  Ga10  1  0.999444  0.333825  0.420247  1
  Ga  Ga11  1  0.666170  0.000557  0.579750  1
  Ga  Ga12  1  0.666170  0.000557  0.920250  1
  Ga  Ga13  1  0.333825  0.999442  0.079752  1
  Ga  Ga14  1  0.332936  0.332932  0.563391  1
  Ga  Ga15  1  0.667063  0.667063  0.436604  1
  Ga  Ga16  1  0.667063  0.667063  0.063396  1
  Ga  Ga17  1  0.332936  0.332932  0.936609  1
  Ga  Ga18  1  0.338770  0.545793  0.250000  1
  Ga  Ga19  1  0.661246  0.454213  0.750000  1
  Ga  Ga20  1  0.545790  0.338767  0.250000  1
  Ga  Ga21  1  0.454206  0.661233  0.750000  1
  Ir  Ir22  1  0.671416  0.328582  0.999999  1
  Ir  Ir23  1  0.328580  0.671414  0.000000  1
  Ir  Ir24  1  0.328580  0.671414  0.500000  1
  Ir  Ir25  1  0.671416  0.328582  0.500001  1
  Ir  Ir26  1  0.000000  0.999998  0.000002  1
  Ir  Ir27  1  0.000000  0.999998  0.499998  1
