# generated using pymatgen
data_Cs4EuMoCl12
_symmetry_space_group_name_H-M   'P 1'
_cell_length_a   7.58098300
_cell_length_b   7.58098300
_cell_length_c   10.71524700
_cell_angle_alpha   90.00000000
_cell_angle_beta   90.00000000
_cell_angle_gamma   90.00000000
_symmetry_Int_Tables_number   1
_chemical_formula_structural   Cs4EuMoCl12
_chemical_formula_sum   'Cs4 Eu1 Mo1 Cl12'
_cell_volume   615.81920970
_cell_formula_units_Z   1
loop_
 _symmetry_equiv_pos_site_id
 _symmetry_equiv_pos_as_xyz
  1  'x, y, z'
loop_
 _atom_site_type_symbol
 _atom_site_label
 _atom_site_symmetry_multiplicity
 _atom_site_fract_x
 _atom_site_fract_y
 _atom_site_fract_z
 _atom_site_occupancy
  Cs  Cs0  1  0.500000  0.000000  0.777456  1
  Cs  Cs1  1  0.000000  0.500000  0.222544  1
  Cs  Cs2  1  0.500000  0.000000  0.222544  1
  Cs  Cs3  1  0.000000  0.500000  0.777456  1
  Eu  Eu4  1  0.000000  0.000000  0.000000  1
  Mo  Mo5  1  0.500000  0.500000  0.500000  1
  Cl  Cl6  1  0.000000  0.000000  0.745477  1
  Cl  Cl7  1  0.500000  0.500000  0.280878  1
  Cl  Cl8  1  0.719297  0.719297  0.500000  1
  Cl  Cl9  1  0.253023  0.253023  0.000000  1
  Cl  Cl10  1  0.719297  0.280703  0.500000  1
  Cl  Cl11  1  0.253023  0.746977  0.000000  1
  Cl  Cl12  1  0.000000  0.000000  0.254523  1
  Cl  Cl13  1  0.500000  0.500000  0.719122  1
  Cl  Cl14  1  0.280703  0.280703  0.500000  1
  Cl  Cl15  1  0.746977  0.746977  0.000000  1
  Cl  Cl16  1  0.280703  0.719297  0.500000  1
  Cl  Cl17  1  0.746977  0.253023  0.000000  1
