# generated using pymatgen
data_Nd7GdGe4(BO4)8
_symmetry_space_group_name_H-M   'P 1'
_cell_length_a   13.81568287
_cell_length_b   4.51159624
_cell_length_c   9.58387291
_cell_angle_alpha   90.00877133
_cell_angle_beta   90.11623892
_cell_angle_gamma   90.03640412
_symmetry_Int_Tables_number   1
_chemical_formula_structural   Nd7GdGe4(BO4)8
_chemical_formula_sum   'Nd7 Gd1 Ge4 B8 O32'
_cell_volume   597.36894496
_cell_formula_units_Z   1
loop_
 _symmetry_equiv_pos_site_id
 _symmetry_equiv_pos_as_xyz
  1  'x, y, z'
loop_
 _atom_site_type_symbol
 _atom_site_label
 _atom_site_symmetry_multiplicity
 _atom_site_fract_x
 _atom_site_fract_y
 _atom_site_fract_z
 _atom_site_occupancy
  Nd  Nd0  1  0.642399  0.543834  0.026481  1
  Nd  Nd1  1  0.140202  0.044305  0.473170  1
  Nd  Nd2  1  0.359612  0.543963  0.474086  1
  Nd  Nd3  1  0.641161  0.455203  0.526908  1
  Nd  Nd4  1  0.859919  0.955847  0.525599  1
  Nd  Nd5  1  0.359625  0.457055  0.973793  1
  Nd  Nd6  1  0.139361  0.956956  0.974179  1
  Gd  Gd7  1  0.860138  0.044398  0.026643  1
  Ge  Ge8  1  0.500167  0.077676  0.249823  1
  Ge  Ge9  1  0.998605  0.577198  0.248175  1
  Ge  Ge10  1  0.999223  0.420654  0.751180  1
  Ge  Ge11  1  0.500536  0.922809  0.750723  1
  B  B12  1  0.199806  0.467235  0.203866  1
  B  B13  1  0.299251  0.967089  0.204106  1
  B  B14  1  0.799239  0.466365  0.294115  1
  B  B15  1  0.700346  0.966634  0.295106  1
  B  B16  1  0.299523  0.032879  0.704457  1
  B  B17  1  0.200110  0.532613  0.704681  1
  B  B18  1  0.701994  0.033995  0.796731  1
  B  B19  1  0.800580  0.533767  0.796452  1
  O  O20  1  0.191744  0.462038  0.053470  1
  O  O21  1  0.306952  0.961779  0.053769  1
  O  O22  1  0.495915  0.295851  0.099528  1
  O  O23  1  0.001550  0.799824  0.098919  1
  O  O24  1  0.892368  0.346066  0.229841  1
  O  O25  1  0.606536  0.848461  0.232885  1
  O  O26  1  0.718102  0.274537  0.240137  1
  O  O27  1  0.780880  0.774442  0.237822  1
  O  O28  1  0.280228  0.273805  0.260189  1
  O  O29  1  0.218679  0.773762  0.259941  1
  O  O30  1  0.105653  0.349840  0.265660  1
  O  O31  1  0.393161  0.849629  0.266852  1
  O  O32  1  0.504772  0.295401  0.400419  1
  O  O33  1  0.995046  0.794408  0.398830  1
  O  O34  1  0.808304  0.461070  0.444438  1
  O  O35  1  0.692970  0.959645  0.445771  1
  O  O36  1  0.307278  0.039221  0.553997  1
  O  O37  1  0.191856  0.539563  0.554322  1
  O  O38  1  0.004982  0.202043  0.601007  1
  O  O39  1  0.495935  0.705085  0.600257  1
  O  O40  1  0.607269  0.151980  0.735714  1
  O  O41  1  0.893555  0.651016  0.732128  1
  O  O42  1  0.781163  0.228070  0.738949  1
  O  O43  1  0.719489  0.726853  0.741385  1
  O  O44  1  0.219057  0.225715  0.760476  1
  O  O45  1  0.280784  0.726050  0.760276  1
  O  O46  1  0.393548  0.150631  0.767156  1
  O  O47  1  0.106264  0.647764  0.768639  1
  O  O48  1  0.992239  0.201593  0.901468  1
  O  O49  1  0.505327  0.704818  0.901036  1
  O  O50  1  0.696634  0.039994  0.947629  1
  O  O51  1  0.809962  0.538579  0.946811  1
