# generated using pymatgen
data_Mn4NbRu
_symmetry_space_group_name_H-M   'P 1'
_cell_length_a   4.72345200
_cell_length_b   4.72345077
_cell_length_c   7.77351300
_cell_angle_alpha   90.00000000
_cell_angle_beta   90.00000000
_cell_angle_gamma   120.00000865
_symmetry_Int_Tables_number   1
_chemical_formula_structural   Mn4NbRu
_chemical_formula_sum   'Mn8 Nb2 Ru2'
_cell_volume   150.19892429
_cell_formula_units_Z   2
loop_
 _symmetry_equiv_pos_site_id
 _symmetry_equiv_pos_as_xyz
  1  'x, y, z'
loop_
 _atom_site_type_symbol
 _atom_site_label
 _atom_site_symmetry_multiplicity
 _atom_site_fract_x
 _atom_site_fract_y
 _atom_site_fract_z
 _atom_site_occupancy
  Mn  Mn0  1  0.173045  0.346089  0.750775  1
  Mn  Mn1  1  0.826955  0.173045  0.250775  1
  Mn  Mn2  1  0.346089  0.173045  0.250775  1
  Mn  Mn3  1  0.653911  0.826955  0.750775  1
  Mn  Mn4  1  0.000000  0.000000  0.003367  1
  Mn  Mn5  1  0.000000  0.000000  0.503367  1
  Mn  Mn6  1  0.826955  0.653911  0.250775  1
  Mn  Mn7  1  0.173045  0.826955  0.750775  1
  Nb  Nb8  1  0.666667  0.333333  0.563716  1
  Nb  Nb9  1  0.333333  0.666667  0.063716  1
  Ru  Ru10  1  0.333333  0.666667  0.430592  1
  Ru  Ru11  1  0.666667  0.333333  0.930592  1
