# generated using pymatgen
data_Ta2Nb2VSi3
_symmetry_space_group_name_H-M   'P 1'
_cell_length_a   7.52001485
_cell_length_b   7.52001475
_cell_length_c   7.52001475
_cell_angle_alpha   129.08258905
_cell_angle_beta   129.08258829
_cell_angle_gamma   74.87771904
_symmetry_Int_Tables_number   1
_chemical_formula_structural   Ta2Nb2VSi3
_chemical_formula_sum   'Ta4 Nb4 V2 Si6'
_cell_volume   249.57033754
_cell_formula_units_Z   2
loop_
 _symmetry_equiv_pos_site_id
 _symmetry_equiv_pos_as_xyz
  1  'x, y, z'
loop_
 _atom_site_type_symbol
 _atom_site_label
 _atom_site_symmetry_multiplicity
 _atom_site_fract_x
 _atom_site_fract_y
 _atom_site_fract_z
 _atom_site_occupancy
  Ta  Ta0  1  0.983294  0.483294  0.167920  1
  Ta  Ta1  1  0.315374  0.815374  0.832080  1
  Ta  Ta2  1  0.483294  0.315374  0.500000  1
  Ta  Ta3  1  0.815374  0.983294  0.500000  1
  Nb  Nb4  1  0.017436  0.517436  0.833838  1
  Nb  Nb5  1  0.683598  0.183598  0.166162  1
  Nb  Nb6  1  0.517436  0.683598  0.500000  1
  Nb  Nb7  1  0.183598  0.017436  0.500000  1
  V  V8  1  0.001474  0.001474  0.000000  1
  V  V9  1  0.501474  0.501474  0.000000  1
  Si  Si10  1  0.749556  0.749556  0.000000  1
  Si  Si11  1  0.249556  0.249556  0.000000  1
  Si  Si12  1  0.632235  0.132235  0.765202  1
  Si  Si13  1  0.367032  0.867032  0.234798  1
  Si  Si14  1  0.132235  0.367032  0.500000  1
  Si  Si15  1  0.867032  0.632235  0.500000  1
