# generated using pymatgen
data_TaNb2B2Os2Ru3
_symmetry_space_group_name_H-M   'P 1'
_cell_length_a   9.48644400
_cell_length_b   9.56216200
_cell_length_c   3.01508800
_cell_angle_alpha   90.00000000
_cell_angle_beta   90.00000000
_cell_angle_gamma   90.00000000
_symmetry_Int_Tables_number   1
_chemical_formula_structural   TaNb2B2Os2Ru3
_chemical_formula_sum   'Ta2 Nb4 B4 Os4 Ru6'
_cell_volume   273.50138927
_cell_formula_units_Z   2
loop_
 _symmetry_equiv_pos_site_id
 _symmetry_equiv_pos_as_xyz
  1  'x, y, z'
loop_
 _atom_site_type_symbol
 _atom_site_label
 _atom_site_symmetry_multiplicity
 _atom_site_fract_x
 _atom_site_fract_y
 _atom_site_fract_z
 _atom_site_occupancy
  Ta  Ta0  1  0.500000  0.500000  0.000000  1
  Ta  Ta1  1  0.000000  0.000000  0.000000  1
  Nb  Nb2  1  0.823801  0.676915  0.000000  1
  Nb  Nb3  1  0.176199  0.323085  0.000000  1
  Nb  Nb4  1  0.323801  0.823085  0.000000  1
  Nb  Nb5  1  0.676199  0.176915  0.000000  1
  B  B6  1  0.620638  0.879179  0.000000  1
  B  B7  1  0.379362  0.120821  0.000000  1
  B  B8  1  0.120638  0.620821  0.000000  1
  B  B9  1  0.879362  0.379179  0.000000  1
  Os  Os10  1  0.571584  0.720053  0.500000  1
  Os  Os11  1  0.428416  0.279947  0.500000  1
  Os  Os12  1  0.071584  0.779947  0.500000  1
  Os  Os13  1  0.928416  0.220053  0.500000  1
  Ru  Ru14  1  0.281593  0.570420  0.500000  1
  Ru  Ru15  1  0.718407  0.429580  0.500000  1
  Ru  Ru16  1  0.218407  0.070420  0.500000  1
  Ru  Ru17  1  0.781593  0.929580  0.500000  1
  Ru  Ru18  1  0.500000  0.000000  0.500000  1
  Ru  Ru19  1  0.000000  0.500000  0.500000  1
