# generated using pymatgen
data_Dy5Er7In2Fe2Ru
_symmetry_space_group_name_H-M   'P 1'
_cell_length_a   8.33589893
_cell_length_b   8.33172298
_cell_length_c   8.33594566
_cell_angle_alpha   108.61190253
_cell_angle_beta   108.60780456
_cell_angle_gamma   111.22835497
_symmetry_Int_Tables_number   1
_chemical_formula_structural   Dy5Er7In2Fe2Ru
_chemical_formula_sum   'Dy5 Er7 In2 Fe2 Ru1'
_cell_volume   445.25345584
_cell_formula_units_Z   1
loop_
 _symmetry_equiv_pos_site_id
 _symmetry_equiv_pos_as_xyz
  1  'x, y, z'
loop_
 _atom_site_type_symbol
 _atom_site_label
 _atom_site_symmetry_multiplicity
 _atom_site_fract_x
 _atom_site_fract_y
 _atom_site_fract_z
 _atom_site_occupancy
  Dy  Dy0  1  0.807294  0.568216  0.760927  1
  Dy  Dy1  1  0.305913  0.306907  0.613727  1
  Dy  Dy2  1  0.692876  0.693250  0.385742  1
  Dy  Dy3  1  0.307557  0.693318  0.000384  1
  Dy  Dy4  1  0.693132  0.306872  0.001005  1
  Er  Er5  1  0.429292  0.191477  0.237295  1
  Er  Er6  1  0.569709  0.808227  0.761872  1
  Er  Er7  1  0.954360  0.191634  0.762261  1
  Er  Er8  1  0.192707  0.954494  0.761758  1
  Er  Er9  1  0.046334  0.808202  0.238468  1
  Er  Er10  1  0.807968  0.045886  0.237926  1
  Er  Er11  1  0.192170  0.429807  0.237592  1
  In  In12  1  0.500184  0.000993  0.500872  1
  In  In13  1  0.000700  0.500051  0.499545  1
  Fe  Fe14  1  0.385503  0.385597  0.999877  1
  Fe  Fe15  1  0.613945  0.614341  0.000521  1
  Ru  Ru16  1  0.000353  0.000728  0.000226  1
