# generated using pymatgen
data_DyTl(PS3)2
_symmetry_space_group_name_H-M   'P 1'
_cell_length_a   7.39114400
_cell_length_b   6.56598490
_cell_length_c   10.19339400
_cell_angle_alpha   86.71271347
_cell_angle_beta   90.00000000
_cell_angle_gamma   90.00000000
_symmetry_Int_Tables_number   1
_chemical_formula_structural   DyTl(PS3)2
_chemical_formula_sum   'Dy2 Tl2 P4 S12'
_cell_volume   493.87286192
_cell_formula_units_Z   2
loop_
 _symmetry_equiv_pos_site_id
 _symmetry_equiv_pos_as_xyz
  1  'x, y, z'
loop_
 _atom_site_type_symbol
 _atom_site_label
 _atom_site_symmetry_multiplicity
 _atom_site_fract_x
 _atom_site_fract_y
 _atom_site_fract_z
 _atom_site_occupancy
  Dy  Dy0  1  0.201903  0.216154  0.998636  1
  Dy  Dy1  1  0.701903  0.783846  0.001364  1
  Tl  Tl2  1  0.474712  0.691970  0.501591  1
  Tl  Tl3  1  0.974712  0.308030  0.498409  1
  P  P4  1  0.686686  0.329937  0.834027  1
  P  P5  1  0.962355  0.800497  0.284190  1
  P  P6  1  0.186686  0.670063  0.165973  1
  P  P7  1  0.462355  0.199503  0.715810  1
  S  S8  1  0.775181  0.599190  0.753778  1
  S  S9  1  0.548130  0.167542  0.533265  1
  S  S10  1  0.757343  0.601766  0.262446  1
  S  S11  1  0.565666  0.375593  0.012563  1
  S  S12  1  0.397741  0.947142  0.837760  1
  S  S13  1  0.257343  0.398234  0.737554  1
  S  S14  1  0.065666  0.624407  0.987437  1
  S  S15  1  0.897741  0.052858  0.162240  1
  S  S16  1  0.048130  0.832458  0.466735  1
  S  S17  1  0.379174  0.898334  0.157674  1
  S  S18  1  0.879174  0.101666  0.842326  1
  S  S19  1  0.275181  0.400810  0.246222  1
