# generated using pymatgen
data_Sm2RuC2
_symmetry_space_group_name_H-M   'P 1'
_cell_length_a   5.28504200
_cell_length_b   6.50613000
_cell_length_c   9.99392600
_cell_angle_alpha   90.00000000
_cell_angle_beta   90.00000000
_cell_angle_gamma   90.00000000
_symmetry_Int_Tables_number   1
_chemical_formula_structural   Sm2RuC2
_chemical_formula_sum   'Sm8 Ru4 C8'
_cell_volume   343.64284755
_cell_formula_units_Z   4
loop_
 _symmetry_equiv_pos_site_id
 _symmetry_equiv_pos_as_xyz
  1  'x, y, z'
loop_
 _atom_site_type_symbol
 _atom_site_label
 _atom_site_symmetry_multiplicity
 _atom_site_fract_x
 _atom_site_fract_y
 _atom_site_fract_z
 _atom_site_occupancy
  Sm  Sm0  1  0.750000  0.479634  0.782219  1
  Sm  Sm1  1  0.250000  0.020366  0.282219  1
  Sm  Sm2  1  0.750000  0.979634  0.717781  1
  Sm  Sm3  1  0.250000  0.520366  0.217781  1
  Sm  Sm4  1  0.750000  0.812975  0.051111  1
  Sm  Sm5  1  0.250000  0.187025  0.948889  1
  Sm  Sm6  1  0.750000  0.312975  0.448889  1
  Sm  Sm7  1  0.250000  0.687025  0.551111  1
  Ru  Ru8  1  0.750000  0.774321  0.362297  1
  Ru  Ru9  1  0.250000  0.725679  0.862297  1
  Ru  Ru10  1  0.250000  0.225679  0.637703  1
  Ru  Ru11  1  0.750000  0.274321  0.137703  1
  C  C12  1  0.250000  0.963589  0.744665  1
  C  C13  1  0.750000  0.536411  0.244665  1
  C  C14  1  0.250000  0.463589  0.755335  1
  C  C15  1  0.750000  0.036411  0.255335  1
  C  C16  1  0.250000  0.319442  0.452910  1
  C  C17  1  0.750000  0.180558  0.952910  1
  C  C18  1  0.250000  0.819442  0.047090  1
  C  C19  1  0.750000  0.680558  0.547090  1
