# generated using pymatgen
data_Ac3La(ZnIr)4
_symmetry_space_group_name_H-M   'P 1'
_cell_length_a   7.39779244
_cell_length_b   4.29959400
_cell_length_c   8.40743757
_cell_angle_alpha   90.00000000
_cell_angle_beta   90.08657945
_cell_angle_gamma   90.00000000
_symmetry_Int_Tables_number   1
_chemical_formula_structural   Ac3La(ZnIr)4
_chemical_formula_sum   'Ac3 La1 Zn4 Ir4'
_cell_volume   267.41929892
_cell_formula_units_Z   1
loop_
 _symmetry_equiv_pos_site_id
 _symmetry_equiv_pos_as_xyz
  1  'x, y, z'
loop_
 _atom_site_type_symbol
 _atom_site_label
 _atom_site_symmetry_multiplicity
 _atom_site_fract_x
 _atom_site_fract_y
 _atom_site_fract_z
 _atom_site_occupancy
  Ac  Ac0  1  0.025712  0.250000  0.306944  1
  Ac  Ac1  1  0.525310  0.250000  0.189327  1
  Ac  Ac2  1  0.974643  0.750000  0.693727  1
  La  La3  1  0.473224  0.750000  0.809044  1
  Zn  Zn4  1  0.644429  0.250000  0.569643  1
  Zn  Zn5  1  0.156382  0.250000  0.931414  1
  Zn  Zn6  1  0.354936  0.750000  0.438463  1
  Zn  Zn7  1  0.847065  0.750000  0.064007  1
  Ir  Ir8  1  0.276014  0.250000  0.615156  1
  Ir  Ir9  1  0.765955  0.250000  0.887055  1
  Ir  Ir10  1  0.726909  0.750000  0.389879  1
  Ir  Ir11  1  0.229420  0.750000  0.105341  1
