# generated using pymatgen
data_Gd2FeC4
_symmetry_space_group_name_H-M   'P 1'
_cell_length_a   6.68121691
_cell_length_b   6.68121368
_cell_length_c   6.68121305
_cell_angle_alpha   135.43857487
_cell_angle_beta   112.04503491
_cell_angle_gamma   84.96098988
_symmetry_Int_Tables_number   1
_chemical_formula_structural   Gd2FeC4
_chemical_formula_sum   'Gd4 Fe2 C8'
_cell_volume   186.42580744
_cell_formula_units_Z   2
loop_
 _symmetry_equiv_pos_site_id
 _symmetry_equiv_pos_as_xyz
  1  'x, y, z'
loop_
 _atom_site_type_symbol
 _atom_site_label
 _atom_site_symmetry_multiplicity
 _atom_site_fract_x
 _atom_site_fract_y
 _atom_site_fract_z
 _atom_site_occupancy
  Gd  Gd0  1  0.196548  0.356309  0.840239  1
  Gd  Gd1  1  0.803452  0.643691  0.159761  1
  Gd  Gd2  1  0.516066  0.856309  0.659758  1
  Gd  Gd3  1  0.483934  0.143691  0.340242  1
  Fe  Fe4  1  0.000000  0.250003  0.250003  1
  Fe  Fe5  1  0.000000  0.749997  0.749997  1
  C  C6  1  0.792195  0.127521  0.664675  1
  C  C7  1  0.207805  0.872479  0.335325  1
  C  C8  1  0.462851  0.627512  0.835339  1
  C  C9  1  0.537149  0.372488  0.164661  1
  C  C10  1  0.915058  0.078396  0.836662  1
  C  C11  1  0.084942  0.921604  0.163338  1
  C  C12  1  0.241735  0.578392  0.663343  1
  C  C13  1  0.758265  0.421608  0.336657  1
