# generated using pymatgen
data_CaDyGaRh3
_symmetry_space_group_name_H-M   'P 1'
_cell_length_a   5.12687455
_cell_length_b   5.12687372
_cell_length_c   5.12687400
_cell_angle_alpha   66.47713800
_cell_angle_beta   66.47714203
_cell_angle_gamma   66.47714733
_symmetry_Int_Tables_number   1
_chemical_formula_structural   CaDyGaRh3
_chemical_formula_sum   'Ca1 Dy1 Ga1 Rh3'
_cell_volume   108.58553897
_cell_formula_units_Z   1
loop_
 _symmetry_equiv_pos_site_id
 _symmetry_equiv_pos_as_xyz
  1  'x, y, z'
loop_
 _atom_site_type_symbol
 _atom_site_label
 _atom_site_symmetry_multiplicity
 _atom_site_fract_x
 _atom_site_fract_y
 _atom_site_fract_z
 _atom_site_occupancy
  Ca  Ca0  1  0.628018  0.628018  0.628018  1
  Dy  Dy1  1  0.369161  0.369161  0.369161  1
  Ga  Ga2  1  0.000228  0.000228  0.000228  1
  Rh  Rh3  1  0.001050  0.001050  0.500493  1
  Rh  Rh4  1  0.500493  0.001050  0.001050  1
  Rh  Rh5  1  0.001050  0.500493  0.001050  1
