# generated using pymatgen
data_Nb6Ga3Si
_symmetry_space_group_name_H-M   'P 1'
_cell_length_a   6.91495857
_cell_length_b   6.91495857
_cell_length_c   3.51762000
_cell_angle_alpha   90.00000000
_cell_angle_beta   90.00000000
_cell_angle_gamma   90.58325468
_symmetry_Int_Tables_number   1
_chemical_formula_structural   Nb6Ga3Si
_chemical_formula_sum   'Nb6 Ga3 Si1'
_cell_volume   168.19209661
_cell_formula_units_Z   1
loop_
 _symmetry_equiv_pos_site_id
 _symmetry_equiv_pos_as_xyz
  1  'x, y, z'
loop_
 _atom_site_type_symbol
 _atom_site_label
 _atom_site_symmetry_multiplicity
 _atom_site_fract_x
 _atom_site_fract_y
 _atom_site_fract_z
 _atom_site_occupancy
  Nb  Nb0  1  0.499137  0.496762  0.000000  1
  Nb  Nb1  1  0.003238  0.000863  0.000000  1
  Nb  Nb2  1  0.664207  0.175952  0.500000  1
  Nb  Nb3  1  0.324048  0.835793  0.500000  1
  Nb  Nb4  1  0.181445  0.318555  0.500000  1
  Nb  Nb5  1  0.825092  0.674908  0.500000  1
  Ga  Ga6  1  0.127997  0.626559  0.000000  1
  Ga  Ga7  1  0.873441  0.372003  0.000000  1
  Ga  Ga8  1  0.627240  0.872760  0.000000  1
  Si  Si9  1  0.374155  0.125845  0.000000  1
