# generated using pymatgen
data_La8YbPrIr6
_symmetry_space_group_name_H-M   'P 1'
_cell_length_a   11.43060300
_cell_length_b   11.43060300
_cell_length_c   6.57891500
_cell_angle_alpha   90.00000000
_cell_angle_beta   90.00000000
_cell_angle_gamma   90.00000000
_symmetry_Int_Tables_number   1
_chemical_formula_structural   La8YbPrIr6
_chemical_formula_sum   'La16 Yb2 Pr2 Ir12'
_cell_volume   859.59238226
_cell_formula_units_Z   2
loop_
 _symmetry_equiv_pos_site_id
 _symmetry_equiv_pos_as_xyz
  1  'x, y, z'
loop_
 _atom_site_type_symbol
 _atom_site_label
 _atom_site_symmetry_multiplicity
 _atom_site_fract_x
 _atom_site_fract_y
 _atom_site_fract_z
 _atom_site_occupancy
  La  La0  1  0.291683  0.090623  0.389381  1
  La  La1  1  0.291683  0.909377  0.889381  1
  La  La2  1  0.708317  0.090623  0.889381  1
  La  La3  1  0.708317  0.909377  0.389381  1
  La  La4  1  0.589315  0.786329  0.891965  1
  La  La5  1  0.589315  0.213671  0.391965  1
  La  La6  1  0.410685  0.786329  0.391965  1
  La  La7  1  0.410685  0.213671  0.891965  1
  La  La8  1  0.213671  0.410685  0.608035  1
  La  La9  1  0.213671  0.589315  0.108035  1
  La  La10  1  0.786329  0.410685  0.108035  1
  La  La11  1  0.786329  0.589315  0.608035  1
  La  La12  1  0.909377  0.708317  0.110619  1
  La  La13  1  0.909377  0.291683  0.610619  1
  La  La14  1  0.090623  0.708317  0.610619  1
  La  La15  1  0.090623  0.291683  0.110619  1
  Yb  Yb16  1  0.500000  0.500000  0.000000  1
  Yb  Yb17  1  0.500000  0.500000  0.500000  1
  Pr  Pr18  1  0.000000  0.000000  0.500000  1
  Pr  Pr19  1  0.000000  0.000000  0.000000  1
  Ir  Ir20  1  0.844526  0.155474  0.250000  1
  Ir  Ir21  1  0.844526  0.844526  0.750000  1
  Ir  Ir22  1  0.155474  0.155474  0.750000  1
  Ir  Ir23  1  0.155474  0.844526  0.250000  1
  Ir  Ir24  1  0.655870  0.344130  0.750000  1
  Ir  Ir25  1  0.655870  0.655870  0.250000  1
  Ir  Ir26  1  0.344130  0.344130  0.250000  1
  Ir  Ir27  1  0.344130  0.655870  0.750000  1
  Ir  Ir28  1  0.500000  0.000000  0.117971  1
  Ir  Ir29  1  0.500000  0.000000  0.617971  1
  Ir  Ir30  1  0.000000  0.500000  0.882029  1
  Ir  Ir31  1  0.000000  0.500000  0.382029  1
