# generated using pymatgen
data_Al2GeI8
_symmetry_space_group_name_H-M   'P 1'
_cell_length_a   8.16688700
_cell_length_b   8.28117184
_cell_length_c   15.19087665
_cell_angle_alpha   87.24086131
_cell_angle_beta   90.00000000
_cell_angle_gamma   90.00000000
_symmetry_Int_Tables_number   1
_chemical_formula_structural   Al2GeI8
_chemical_formula_sum   'Al4 Ge2 I16'
_cell_volume   1026.18915429
_cell_formula_units_Z   2
loop_
 _symmetry_equiv_pos_site_id
 _symmetry_equiv_pos_as_xyz
  1  'x, y, z'
loop_
 _atom_site_type_symbol
 _atom_site_label
 _atom_site_symmetry_multiplicity
 _atom_site_fract_x
 _atom_site_fract_y
 _atom_site_fract_z
 _atom_site_occupancy
  Al  Al0  1  0.935487  0.219188  0.579770  1
  Al  Al1  1  0.064513  0.219188  0.079770  1
  Al  Al2  1  0.571673  0.641347  0.778049  1
  Al  Al3  1  0.428327  0.641347  0.278049  1
  Ge  Ge4  1  0.755250  0.066473  0.803404  1
  Ge  Ge5  1  0.244750  0.066473  0.303404  1
  I  I6  1  0.420870  0.615271  0.636317  1
  I  I7  1  0.579130  0.615271  0.136317  1
  I  I8  1  0.875607  0.742527  0.759794  1
  I  I9  1  0.124393  0.742527  0.259794  1
  I  I10  1  0.934051  0.486158  0.496452  1
  I  I11  1  0.065949  0.486158  0.996452  1
  I  I12  1  0.917837  0.996100  0.997558  1
  I  I13  1  0.082163  0.996100  0.497558  1
  I  I14  1  0.637032  0.122727  0.622412  1
  I  I15  1  0.362968  0.122727  0.122412  1
  I  I16  1  0.570207  0.376349  0.874588  1
  I  I17  1  0.429793  0.376349  0.374588  1
  I  I18  1  0.450204  0.873547  0.867017  1
  I  I19  1  0.549796  0.873547  0.367017  1
  I  I20  1  0.937590  0.227713  0.236839  1
  I  I21  1  0.062410  0.227713  0.736839  1
