# generated using pymatgen
data_Nd4Fe2NiPdO12
_symmetry_space_group_name_H-M   'P 1'
_cell_length_a   5.48786149
_cell_length_b   5.71321149
_cell_length_c   7.89035885
_cell_angle_alpha   90.21005591
_cell_angle_beta   89.87619590
_cell_angle_gamma   89.91024939
_symmetry_Int_Tables_number   1
_chemical_formula_structural   Nd4Fe2NiPdO12
_chemical_formula_sum   'Nd4 Fe2 Ni1 Pd1 O12'
_cell_volume   247.38634659
_cell_formula_units_Z   1
loop_
 _symmetry_equiv_pos_site_id
 _symmetry_equiv_pos_as_xyz
  1  'x, y, z'
loop_
 _atom_site_type_symbol
 _atom_site_label
 _atom_site_symmetry_multiplicity
 _atom_site_fract_x
 _atom_site_fract_y
 _atom_site_fract_z
 _atom_site_occupancy
  Nd  Nd0  1  0.021752  0.941208  0.761411  1
  Nd  Nd1  1  0.488599  0.438760  0.761283  1
  Nd  Nd2  1  0.511401  0.561240  0.238717  1
  Nd  Nd3  1  0.978248  0.058792  0.238589  1
  Fe  Fe4  1  0.000000  0.500000  0.000000  1
  Fe  Fe5  1  0.000000  0.500000  0.500000  1
  Ni  Ni6  1  0.500000  0.000000  0.000000  1
  Pd  Pd7  1  0.500000  0.000000  0.500000  1
  O  O8  1  0.701857  0.293561  0.442151  1
  O  O9  1  0.803629  0.794521  0.044884  1
  O  O10  1  0.204623  0.208085  0.559402  1
  O  O11  1  0.296561  0.695705  0.955916  1
  O  O12  1  0.298143  0.706439  0.557849  1
  O  O13  1  0.196371  0.205479  0.955116  1
  O  O14  1  0.795377  0.791915  0.440598  1
  O  O15  1  0.703439  0.304295  0.044084  1
  O  O16  1  0.090443  0.472441  0.256376  1
  O  O17  1  0.395773  0.969107  0.253795  1
  O  O18  1  0.604227  0.030893  0.746205  1
  O  O19  1  0.909557  0.527559  0.743624  1
