# generated using pymatgen
data_K2HfSc(PO4)3
_symmetry_space_group_name_H-M   'P 1'
_cell_length_a   10.22536900
_cell_length_b   10.22536900
_cell_length_c   10.22536900
_cell_angle_alpha   90.00000000
_cell_angle_beta   90.00000000
_cell_angle_gamma   90.00000000
_symmetry_Int_Tables_number   1
_chemical_formula_structural   K2HfSc(PO4)3
_chemical_formula_sum   'K8 Hf4 Sc4 P12 O48'
_cell_volume   1069.14588234
_cell_formula_units_Z   4
loop_
 _symmetry_equiv_pos_site_id
 _symmetry_equiv_pos_as_xyz
  1  'x, y, z'
loop_
 _atom_site_type_symbol
 _atom_site_label
 _atom_site_symmetry_multiplicity
 _atom_site_fract_x
 _atom_site_fract_y
 _atom_site_fract_z
 _atom_site_occupancy
  K  K0  1  0.573438  0.073438  0.426562  1
  K  K1  1  0.073438  0.426562  0.573438  1
  K  K2  1  0.426562  0.573438  0.073438  1
  K  K3  1  0.926562  0.926562  0.926562  1
  K  K4  1  0.796182  0.296182  0.203818  1
  K  K5  1  0.296182  0.203818  0.796182  1
  K  K6  1  0.203818  0.796182  0.296182  1
  K  K7  1  0.703818  0.703818  0.703818  1
  Hf  Hf8  1  0.355115  0.855115  0.644885  1
  Hf  Hf9  1  0.855115  0.644885  0.355115  1
  Hf  Hf10  1  0.644885  0.355115  0.855115  1
  Hf  Hf11  1  0.144885  0.144885  0.144885  1
  Sc  Sc12  1  0.083386  0.583386  0.916614  1
  Sc  Sc13  1  0.583386  0.916614  0.083386  1
  Sc  Sc14  1  0.916614  0.083386  0.583386  1
  Sc  Sc15  1  0.416614  0.416614  0.416614  1
  P  P16  1  0.372917  0.539479  0.732791  1
  P  P17  1  0.267209  0.872917  0.960521  1
  P  P18  1  0.039479  0.767209  0.627083  1
  P  P19  1  0.872917  0.960521  0.267209  1
  P  P20  1  0.767209  0.627083  0.039479  1
  P  P21  1  0.539479  0.732791  0.372917  1
  P  P22  1  0.627083  0.039479  0.767209  1
  P  P23  1  0.732791  0.372917  0.539479  1
  P  P24  1  0.960521  0.267209  0.872917  1
  P  P25  1  0.127083  0.460521  0.232791  1
  P  P26  1  0.232791  0.127083  0.460521  1
  P  P27  1  0.460521  0.232791  0.127083  1
  O  O28  1  0.251390  0.519122  0.817880  1
  O  O29  1  0.182120  0.751390  0.980878  1
  O  O30  1  0.019122  0.682120  0.748610  1
  O  O31  1  0.751390  0.980878  0.182120  1
  O  O32  1  0.682120  0.748610  0.019122  1
  O  O33  1  0.519122  0.817880  0.251390  1
  O  O34  1  0.748610  0.019122  0.682120  1
  O  O35  1  0.817880  0.251390  0.519122  1
  O  O36  1  0.980878  0.182120  0.751390  1
  O  O37  1  0.248610  0.480878  0.317880  1
  O  O38  1  0.317880  0.248610  0.480878  1
  O  O39  1  0.480878  0.317880  0.248610  1
  O  O40  1  0.348068  0.494897  0.592243  1
  O  O41  1  0.407757  0.848068  0.005103  1
  O  O42  1  0.994897  0.907757  0.651932  1
  O  O43  1  0.848068  0.005103  0.407757  1
  O  O44  1  0.907757  0.651932  0.994897  1
  O  O45  1  0.494897  0.592243  0.348068  1
  O  O46  1  0.651932  0.994897  0.907757  1
  O  O47  1  0.592243  0.348068  0.494897  1
  O  O48  1  0.005103  0.407757  0.848068  1
  O  O49  1  0.151932  0.505103  0.092243  1
  O  O50  1  0.092243  0.151932  0.505103  1
  O  O51  1  0.505103  0.092243  0.151932  1
  O  O52  1  0.419113  0.684758  0.736850  1
  O  O53  1  0.263150  0.919113  0.815242  1
  O  O54  1  0.184758  0.763150  0.580887  1
  O  O55  1  0.919113  0.815242  0.263150  1
  O  O56  1  0.763150  0.580887  0.184758  1
  O  O57  1  0.684758  0.736850  0.419113  1
  O  O58  1  0.580887  0.184758  0.763150  1
  O  O59  1  0.736850  0.419113  0.684758  1
  O  O60  1  0.815242  0.263150  0.919113  1
  O  O61  1  0.080887  0.315242  0.236850  1
  O  O62  1  0.236850  0.080887  0.315242  1
  O  O63  1  0.315242  0.236850  0.080887  1
  O  O64  1  0.484057  0.456431  0.795351  1
  O  O65  1  0.204649  0.984057  0.043569  1
  O  O66  1  0.956431  0.704649  0.515943  1
  O  O67  1  0.984057  0.043569  0.204649  1
  O  O68  1  0.704649  0.515943  0.956431  1
  O  O69  1  0.456431  0.795351  0.484057  1
  O  O70  1  0.515943  0.956431  0.704649  1
  O  O71  1  0.795351  0.484057  0.456431  1
  O  O72  1  0.043569  0.204649  0.984057  1
  O  O73  1  0.015943  0.543569  0.295351  1
  O  O74  1  0.295351  0.015943  0.543569  1
  O  O75  1  0.543569  0.295351  0.015943  1
