# generated using pymatgen
data_SmHo3(Al8Pt3)3
_symmetry_space_group_name_H-M   'P 1'
_cell_length_a   7.52652503
_cell_length_b   7.54580839
_cell_length_c   13.18631300
_cell_angle_alpha   84.60721731
_cell_angle_beta   79.11991197
_cell_angle_gamma   59.92227689
_symmetry_Int_Tables_number   1
_chemical_formula_structural   SmHo3(Al8Pt3)3
_chemical_formula_sum   'Sm1 Ho3 Al24 Pt9'
_cell_volume   636.40821755
_cell_formula_units_Z   1
loop_
 _symmetry_equiv_pos_site_id
 _symmetry_equiv_pos_as_xyz
  1  'x, y, z'
loop_
 _atom_site_type_symbol
 _atom_site_label
 _atom_site_symmetry_multiplicity
 _atom_site_fract_x
 _atom_site_fract_y
 _atom_site_fract_z
 _atom_site_occupancy
  Sm  Sm0  1  0.393123  0.168241  0.808627  1
  Ho  Ho1  1  0.606406  0.831596  0.192559  1
  Ho  Ho2  1  0.733695  0.498722  0.807548  1
  Ho  Ho3  1  0.266159  0.501398  0.192720  1
  Al  Al4  1  0.684837  0.832998  0.945355  1
  Al  Al5  1  0.315575  0.166158  0.056491  1
  Al  Al6  1  0.146667  0.832423  0.561006  1
  Al  Al7  1  0.853622  0.167565  0.438324  1
  Al  Al8  1  0.479934  0.166653  0.558124  1
  Al  Al9  1  0.520399  0.833125  0.441091  1
  Al  Al10  1  0.217458  0.165253  0.329502  1
  Al  Al11  1  0.783418  0.834234  0.669351  1
  Al  Al12  1  0.437653  0.506744  0.669463  1
  Al  Al13  1  0.562874  0.493615  0.329227  1
  Al  Al14  1  0.109307  0.160069  0.668201  1
  Al  Al15  1  0.890719  0.839946  0.330464  1
  Al  Al16  1  0.352534  0.500318  0.945336  1
  Al  Al17  1  0.646636  0.500918  0.056005  1
  Al  Al18  1  0.014261  0.167613  0.954126  1
  Al  Al19  1  0.984153  0.832317  0.047691  1
  Al  Al20  1  0.186774  0.499297  0.441104  1
  Al  Al21  1  0.813335  0.500727  0.558321  1
  Al  Al22  1  0.734323  0.164014  0.183718  1
  Al  Al23  1  0.266221  0.833720  0.816377  1
  Al  Al24  1  0.059358  0.632742  0.815357  1
  Al  Al25  1  0.938495  0.369042  0.184698  1
  Al  Al26  1  0.856874  0.042422  0.816067  1
  Al  Al27  1  0.144921  0.957959  0.184091  1
  Pt  Pt28  1  0.119405  0.492724  0.638238  1
  Pt  Pt29  1  0.880153  0.508371  0.360906  1
  Pt  Pt30  1  0.657246  0.171463  0.000407  1
  Pt  Pt31  1  0.342579  0.828365  0.000439  1
  Pt  Pt32  1  0.537822  0.166781  0.361110  1
  Pt  Pt33  1  0.462221  0.832377  0.638207  1
  Pt  Pt34  1  0.779599  0.174956  0.636812  1
  Pt  Pt35  1  0.221693  0.824661  0.362472  1
  Pt  Pt36  1  0.999549  0.500476  0.000465  1
