# generated using pymatgen
data_HoEr3Tc3B16W
_symmetry_space_group_name_H-M   'P 1'
_cell_length_a   3.58523400
_cell_length_b   5.97372239
_cell_length_c   11.55093503
_cell_angle_alpha   89.95301454
_cell_angle_beta   90.00000000
_cell_angle_gamma   90.00000000
_symmetry_Int_Tables_number   1
_chemical_formula_structural   HoEr3Tc3B16W
_chemical_formula_sum   'Ho1 Er3 Tc3 B16 W1'
_cell_volume   247.38851731
_cell_formula_units_Z   1
loop_
 _symmetry_equiv_pos_site_id
 _symmetry_equiv_pos_as_xyz
  1  'x, y, z'
loop_
 _atom_site_type_symbol
 _atom_site_label
 _atom_site_symmetry_multiplicity
 _atom_site_fract_x
 _atom_site_fract_y
 _atom_site_fract_z
 _atom_site_occupancy
  Ho  Ho0  1  0.000000  0.625773  0.347770  1
  Er  Er1  1  0.000000  0.372384  0.652125  1
  Er  Er2  1  0.000000  0.127292  0.147900  1
  Er  Er3  1  0.000000  0.872219  0.852844  1
  Tc  Tc4  1  0.000000  0.635519  0.088734  1
  Tc  Tc5  1  0.000000  0.365506  0.912748  1
  Tc  Tc6  1  0.000000  0.130411  0.414315  1
  B  B7  1  0.500000  0.787485  0.184942  1
  B  B8  1  0.500000  0.213572  0.815670  1
  B  B9  1  0.500000  0.287127  0.314069  1
  B  B10  1  0.500000  0.709673  0.687434  1
  B  B11  1  0.500000  0.864536  0.031234  1
  B  B12  1  0.500000  0.135896  0.969186  1
  B  B13  1  0.500000  0.365023  0.466882  1
  B  B14  1  0.500000  0.632166  0.530676  1
  B  B15  1  0.500000  0.886800  0.450375  1
  B  B16  1  0.500000  0.117723  0.546457  1
  B  B17  1  0.500000  0.386529  0.047227  1
  B  B18  1  0.500000  0.613661  0.953123  1
  B  B19  1  0.500000  0.978148  0.305926  1
  B  B20  1  0.500000  0.025341  0.694492  1
  B  B21  1  0.500000  0.475461  0.192189  1
  B  B22  1  0.500000  0.522719  0.808390  1
  W  W23  1  0.000000  0.869036  0.585291  1
