# generated using pymatgen
data_UTi6V5Tc12
_symmetry_space_group_name_H-M   'P 1'
_cell_length_a   4.37501700
_cell_length_b   6.18098300
_cell_length_c   13.12965700
_cell_angle_alpha   89.99992801
_cell_angle_beta   89.99979486
_cell_angle_gamma   90.00002237
_symmetry_Int_Tables_number   1
_chemical_formula_structural   UTi6V5Tc12
_chemical_formula_sum   'U1 Ti6 V5 Tc12'
_cell_volume   355.05094649
_cell_formula_units_Z   1
loop_
 _symmetry_equiv_pos_site_id
 _symmetry_equiv_pos_as_xyz
  1  'x, y, z'
loop_
 _atom_site_type_symbol
 _atom_site_label
 _atom_site_symmetry_multiplicity
 _atom_site_fract_x
 _atom_site_fract_y
 _atom_site_fract_z
 _atom_site_occupancy
  U  U0  1  0.999998  0.500000  0.000008  1
  Ti  Ti1  1  0.000000  0.000000  0.999984  1
  Ti  Ti2  1  0.499956  0.500001  0.178682  1
  Ti  Ti3  1  0.999943  0.000000  0.335774  1
  Ti  Ti4  1  0.500001  0.500001  0.500003  1
  Ti  Ti5  1  0.000057  0.999999  0.664238  1
  Ti  Ti6  1  0.500044  0.500000  0.821319  1
  V  V7  1  0.499948  0.000000  0.173777  1
  V  V8  1  0.999952  0.500000  0.339273  1
  V  V9  1  0.500000  0.000000  0.499999  1
  V  V10  1  0.000049  0.500001  0.660728  1
  V  V11  1  0.500054  0.000002  0.826215  1
  Tc  Tc12  1  0.500000  0.250482  0.999991  1
  Tc  Tc13  1  0.500001  0.749519  0.999991  1
  Tc  Tc14  1  0.999954  0.248783  0.167530  1
  Tc  Tc15  1  0.999954  0.751218  0.167530  1
  Tc  Tc16  1  0.499952  0.248373  0.334798  1
  Tc  Tc17  1  0.499953  0.751628  0.334798  1
  Tc  Tc18  1  0.000000  0.250281  0.500000  1
  Tc  Tc19  1  0.000001  0.749719  0.499999  1
  Tc  Tc20  1  0.500049  0.248353  0.665216  1
  Tc  Tc21  1  0.500048  0.751647  0.665215  1
  Tc  Tc22  1  0.000047  0.248755  0.832466  1
  Tc  Tc23  1  0.000047  0.751246  0.832466  1
