# generated using pymatgen
data_Dy2HoPaCo3
_symmetry_space_group_name_H-M   'P 1'
_cell_length_a   5.88739500
_cell_length_b   5.88739462
_cell_length_c   14.04648300
_cell_angle_alpha   90.00000000
_cell_angle_beta   90.00000000
_cell_angle_gamma   143.50735406
_symmetry_Int_Tables_number   1
_chemical_formula_structural   Dy2HoPaCo3
_chemical_formula_sum   'Dy4 Ho2 Pa2 Co6'
_cell_volume   289.55173675
_cell_formula_units_Z   2
loop_
 _symmetry_equiv_pos_site_id
 _symmetry_equiv_pos_as_xyz
  1  'x, y, z'
loop_
 _atom_site_type_symbol
 _atom_site_label
 _atom_site_symmetry_multiplicity
 _atom_site_fract_x
 _atom_site_fract_y
 _atom_site_fract_z
 _atom_site_occupancy
  Dy  Dy0  1  0.781078  0.218922  0.385067  1
  Dy  Dy1  1  0.218922  0.781078  0.614933  1
  Dy  Dy2  1  0.781078  0.218922  0.114933  1
  Dy  Dy3  1  0.218922  0.781078  0.885067  1
  Ho  Ho4  1  0.508051  0.491949  0.250000  1
  Ho  Ho5  1  0.491949  0.508051  0.750000  1
  Pa  Pa6  1  0.500000  0.500000  0.500000  1
  Pa  Pa7  1  0.500000  0.500000  0.000000  1
  Co  Co8  1  0.079824  0.920176  0.399211  1
  Co  Co9  1  0.920176  0.079824  0.600789  1
  Co  Co10  1  0.079824  0.920176  0.100789  1
  Co  Co11  1  0.920176  0.079824  0.899211  1
  Co  Co12  1  0.203043  0.796957  0.250000  1
  Co  Co13  1  0.796957  0.203043  0.750000  1
