# generated using pymatgen
data_Tm8Hf12Si15Ni
_symmetry_space_group_name_H-M   'P 1'
_cell_length_a   7.21677041
_cell_length_b   7.24456778
_cell_length_c   13.29799343
_cell_angle_alpha   90.19223100
_cell_angle_beta   89.92262989
_cell_angle_gamma   90.14684711
_symmetry_Int_Tables_number   1
_chemical_formula_structural   Tm8Hf12Si15Ni
_chemical_formula_sum   'Tm8 Hf12 Si15 Ni1'
_cell_volume   695.24395521
_cell_formula_units_Z   1
loop_
 _symmetry_equiv_pos_site_id
 _symmetry_equiv_pos_as_xyz
  1  'x, y, z'
loop_
 _atom_site_type_symbol
 _atom_site_label
 _atom_site_symmetry_multiplicity
 _atom_site_fract_x
 _atom_site_fract_y
 _atom_site_fract_z
 _atom_site_occupancy
  Tm  Tm0  1  0.997231  0.348453  0.215562  1
  Tm  Tm1  1  0.005761  0.653450  0.714536  1
  Tm  Tm2  1  0.160197  0.489482  0.461454  1
  Tm  Tm3  1  0.504450  0.845691  0.034675  1
  Tm  Tm4  1  0.844014  0.504412  0.965881  1
  Tm  Tm5  1  0.495689  0.152502  0.537210  1
  Tm  Tm6  1  0.345157  0.996464  0.785426  1
  Tm  Tm7  1  0.656741  0.003616  0.284455  1
  Hf  Hf8  1  0.175359  0.177372  0.999387  1
  Hf  Hf9  1  0.825832  0.822250  0.499634  1
  Hf  Hf10  1  0.323067  0.677257  0.250325  1
  Hf  Hf11  1  0.676105  0.324061  0.750205  1
  Hf  Hf12  1  0.152398  0.008535  0.374314  1
  Hf  Hf13  1  0.852225  0.002962  0.875801  1
  Hf  Hf14  1  0.502839  0.647080  0.624692  1
  Hf  Hf15  1  0.353421  0.497352  0.874652  1
  Hf  Hf16  1  0.494519  0.351689  0.128792  1
  Hf  Hf17  1  0.638547  0.497646  0.376044  1
  Hf  Hf18  1  0.997808  0.145995  0.626062  1
  Hf  Hf19  1  0.999848  0.852850  0.123989  1
  Si  Si20  1  0.641197  0.705169  0.818558  1
  Si  Si21  1  0.203960  0.857491  0.566756  1
  Si  Si22  1  0.140904  0.796524  0.931999  1
  Si  Si23  1  0.795848  0.142442  0.068052  1
  Si  Si24  1  0.856615  0.199319  0.435325  1
  Si  Si25  1  0.296136  0.358767  0.683060  1
  Si  Si26  1  0.704385  0.643137  0.181910  1
  Si  Si27  1  0.293159  0.051787  0.185316  1
  Si  Si28  1  0.704453  0.949338  0.686048  1
  Si  Si29  1  0.449428  0.795790  0.435841  1
  Si  Si30  1  0.203360  0.551256  0.062996  1
  Si  Si31  1  0.548930  0.204367  0.936191  1
  Si  Si32  1  0.797574  0.449460  0.564717  1
  Si  Si33  1  0.048907  0.297623  0.814901  1
  Si  Si34  1  0.949896  0.706277  0.313998  1
  Ni  Ni35  1  0.364039  0.292135  0.311238  1
