# generated using pymatgen
data_AcHo(CrN3)2
_symmetry_space_group_name_H-M   'P 1'
_cell_length_a   7.13688556
_cell_length_b   7.13688633
_cell_length_c   5.92302779
_cell_angle_alpha   78.83938506
_cell_angle_beta   78.83938227
_cell_angle_gamma   89.24064802
_symmetry_Int_Tables_number   1
_chemical_formula_structural   AcHo(CrN3)2
_chemical_formula_sum   'Ac2 Ho2 Cr4 N12'
_cell_volume   290.29539477
_cell_formula_units_Z   2
loop_
 _symmetry_equiv_pos_site_id
 _symmetry_equiv_pos_as_xyz
  1  'x, y, z'
loop_
 _atom_site_type_symbol
 _atom_site_label
 _atom_site_symmetry_multiplicity
 _atom_site_fract_x
 _atom_site_fract_y
 _atom_site_fract_z
 _atom_site_occupancy
  Ac  Ac0  1  0.325503  0.674497  0.750000  1
  Ac  Ac1  1  0.674497  0.325503  0.250000  1
  Ho  Ho2  1  0.090339  0.909661  0.250000  1
  Ho  Ho3  1  0.909661  0.090339  0.750000  1
  Cr  Cr4  1  0.370806  0.196666  0.773928  1
  Cr  Cr5  1  0.629194  0.803334  0.226072  1
  Cr  Cr6  1  0.803334  0.629194  0.726072  1
  Cr  Cr7  1  0.196666  0.370806  0.273928  1
  N  N8  1  0.990024  0.791072  0.642983  1
  N  N9  1  0.876261  0.409422  0.809936  1
  N  N10  1  0.791072  0.990024  0.142983  1
  N  N11  1  0.123739  0.590578  0.190064  1
  N  N12  1  0.009976  0.208928  0.357017  1
  N  N13  1  0.208928  0.009976  0.857017  1
  N  N14  1  0.590578  0.123739  0.690064  1
  N  N15  1  0.639214  0.674465  0.982994  1
  N  N16  1  0.360786  0.325535  0.017006  1
  N  N17  1  0.409422  0.876261  0.309936  1
  N  N18  1  0.674465  0.639214  0.482994  1
  N  N19  1  0.325535  0.360786  0.517006  1
