# generated using pymatgen
data_NdErTh3Ge3C
_symmetry_space_group_name_H-M   'P 1'
_cell_length_a   8.86455000
_cell_length_b   8.86455080
_cell_length_c   6.44665500
_cell_angle_alpha   90.00000000
_cell_angle_beta   90.00000000
_cell_angle_gamma   119.99998953
_symmetry_Int_Tables_number   1
_chemical_formula_structural   NdErTh3Ge3C
_chemical_formula_sum   'Nd2 Er2 Th6 Ge6 C2'
_cell_volume   438.71101026
_cell_formula_units_Z   2
loop_
 _symmetry_equiv_pos_site_id
 _symmetry_equiv_pos_as_xyz
  1  'x, y, z'
loop_
 _atom_site_type_symbol
 _atom_site_label
 _atom_site_symmetry_multiplicity
 _atom_site_fract_x
 _atom_site_fract_y
 _atom_site_fract_z
 _atom_site_occupancy
  Nd  Nd0  1  0.666667  0.333333  0.000000  1
  Nd  Nd1  1  0.333333  0.666667  0.000000  1
  Er  Er2  1  0.333333  0.666667  0.500000  1
  Er  Er3  1  0.666667  0.333333  0.500000  1
  Th  Th4  1  0.770140  0.770140  0.748612  1
  Th  Th5  1  0.229860  0.000000  0.748612  1
  Th  Th6  1  0.000000  0.229860  0.748612  1
  Th  Th7  1  0.229860  0.229860  0.251388  1
  Th  Th8  1  0.770140  0.000000  0.251388  1
  Th  Th9  1  0.000000  0.770140  0.251388  1
  Ge  Ge10  1  0.401074  0.401074  0.739471  1
  Ge  Ge11  1  0.598926  0.000000  0.739471  1
  Ge  Ge12  1  0.000000  0.598926  0.739471  1
  Ge  Ge13  1  0.598926  0.598926  0.260529  1
  Ge  Ge14  1  0.401074  0.000000  0.260529  1
  Ge  Ge15  1  0.000000  0.401074  0.260529  1
  C  C16  1  0.000000  0.000000  0.000000  1
  C  C17  1  0.000000  0.000000  0.500000  1
