# generated using pymatgen
data_Nd5DyAl24(Os3Rh)2
_symmetry_space_group_name_H-M   'P 1'
_cell_length_a   8.85676360
_cell_length_b   8.86690470
_cell_length_c   9.67718500
_cell_angle_alpha   90.00000000
_cell_angle_beta   90.00000000
_cell_angle_gamma   119.28991147
_symmetry_Int_Tables_number   1
_chemical_formula_structural   Nd5DyAl24(Os3Rh)2
_chemical_formula_sum   'Nd5 Dy1 Al24 Os6 Rh2'
_cell_volume   662.81148589
_cell_formula_units_Z   1
loop_
 _symmetry_equiv_pos_site_id
 _symmetry_equiv_pos_as_xyz
  1  'x, y, z'
loop_
 _atom_site_type_symbol
 _atom_site_label
 _atom_site_symmetry_multiplicity
 _atom_site_fract_x
 _atom_site_fract_y
 _atom_site_fract_z
 _atom_site_occupancy
  Nd  Nd0  1  0.814649  0.616810  0.750000  1
  Nd  Nd1  1  0.617621  0.815086  0.250000  1
  Nd  Nd2  1  0.382663  0.184434  0.750000  1
  Nd  Nd3  1  0.191886  0.807022  0.250000  1
  Nd  Nd4  1  0.807275  0.192526  0.750000  1
  Dy  Dy5  1  0.185308  0.387195  0.250000  1
  Al  Al6  1  0.332592  0.666417  0.018963  1
  Al  Al7  1  0.667276  0.332568  0.983379  1
  Al  Al8  1  0.667276  0.332568  0.516621  1
  Al  Al9  1  0.332592  0.666417  0.481037  1
  Al  Al10  1  0.162156  0.326083  0.572821  1
  Al  Al11  1  0.837645  0.673478  0.424510  1
  Al  Al12  1  0.673705  0.837957  0.574687  1
  Al  Al13  1  0.837645  0.673478  0.075490  1
  Al  Al14  1  0.325479  0.163030  0.423894  1
  Al  Al15  1  0.162156  0.326083  0.927179  1
  Al  Al16  1  0.164995  0.834955  0.573501  1
  Al  Al17  1  0.325479  0.163030  0.076106  1
  Al  Al18  1  0.836645  0.165444  0.425314  1
  Al  Al19  1  0.673705  0.837957  0.925313  1
  Al  Al20  1  0.836645  0.165444  0.074686  1
  Al  Al21  1  0.164995  0.834955  0.926499  1
  Al  Al22  1  0.561639  0.127711  0.250000  1
  Al  Al23  1  0.437795  0.871863  0.750000  1
  Al  Al24  1  0.873603  0.437686  0.250000  1
  Al  Al25  1  0.127503  0.561448  0.750000  1
  Al  Al26  1  0.558172  0.438874  0.250000  1
  Al  Al27  1  0.438706  0.560268  0.750000  1
  Al  Al28  1  0.001086  0.005976  0.250000  1
  Al  Al29  1  0.001206  0.998268  0.750000  1
  Os  Os30  1  0.499842  0.999712  0.000238  1
  Os  Os31  1  0.000771  0.499162  0.001405  1
  Os  Os32  1  0.499842  0.999712  0.499762  1
  Os  Os33  1  0.000771  0.499162  0.498595  1
  Os  Os34  1  0.000050  0.999913  0.000471  1
  Os  Os35  1  0.000050  0.999913  0.499529  1
  Rh  Rh36  1  0.499287  0.498697  0.001208  1
  Rh  Rh37  1  0.499287  0.498697  0.498792  1
