# generated using pymatgen
data_Dy20Si14NiP
_symmetry_space_group_name_H-M   'P 1'
_cell_length_a   7.43421987
_cell_length_b   7.64842615
_cell_length_c   14.54780711
_cell_angle_alpha   89.59883768
_cell_angle_beta   89.92842891
_cell_angle_gamma   89.84936681
_symmetry_Int_Tables_number   1
_chemical_formula_structural   Dy20Si14NiP
_chemical_formula_sum   'Dy20 Si14 Ni1 P1'
_cell_volume   827.16573921
_cell_formula_units_Z   1
loop_
 _symmetry_equiv_pos_site_id
 _symmetry_equiv_pos_as_xyz
  1  'x, y, z'
loop_
 _atom_site_type_symbol
 _atom_site_label
 _atom_site_symmetry_multiplicity
 _atom_site_fract_x
 _atom_site_fract_y
 _atom_site_fract_z
 _atom_site_occupancy
  Dy  Dy0  1  0.648120  0.993945  0.249641  1
  Dy  Dy1  1  0.143815  0.511532  0.248208  1
  Dy  Dy2  1  0.849960  0.485759  0.756753  1
  Dy  Dy3  1  0.353369  0.008563  0.752720  1
  Dy  Dy4  1  0.973176  0.818542  0.099709  1
  Dy  Dy5  1  0.472566  0.681384  0.398512  1
  Dy  Dy6  1  0.533021  0.319922  0.901341  1
  Dy  Dy7  1  0.029919  0.182252  0.598797  1
  Dy  Dy8  1  0.028603  0.182762  0.902206  1
  Dy  Dy9  1  0.530631  0.317101  0.598411  1
  Dy  Dy10  1  0.469074  0.682056  0.103739  1
  Dy  Dy11  1  0.969911  0.817276  0.398686  1
  Dy  Dy12  1  0.685483  0.807531  0.883474  1
  Dy  Dy13  1  0.181123  0.680914  0.621769  1
  Dy  Dy14  1  0.811104  0.339190  0.116969  1
  Dy  Dy15  1  0.315180  0.177970  0.376612  1
  Dy  Dy16  1  0.318434  0.181219  0.121730  1
  Dy  Dy17  1  0.814932  0.324316  0.375738  1
  Dy  Dy18  1  0.176942  0.672319  0.878477  1
  Dy  Dy19  1  0.682100  0.818693  0.622645  1
  Si  Si20  1  0.265265  0.872840  0.250641  1
  Si  Si21  1  0.735262  0.120700  0.749919  1
  Si  Si22  1  0.235799  0.372102  0.746831  1
  Si  Si23  1  0.018068  0.111089  0.247020  1
  Si  Si24  1  0.514394  0.390570  0.250740  1
  Si  Si25  1  0.474604  0.604947  0.748087  1
  Si  Si26  1  0.977664  0.894595  0.748955  1
  Si  Si27  1  0.355122  0.971353  0.540100  1
  Si  Si28  1  0.646783  0.027448  0.042687  1
  Si  Si29  1  0.146074  0.471854  0.459221  1
  Si  Si30  1  0.146087  0.475501  0.041641  1
  Si  Si31  1  0.646603  0.029268  0.458975  1
  Si  Si32  1  0.354949  0.966305  0.961705  1
  Si  Si33  1  0.855503  0.529011  0.538898  1
  Ni  Ni34  1  0.866498  0.520017  0.956906  1
  P  P35  1  0.773862  0.639152  0.251536  1
