# generated using pymatgen
data_HoLu6Sn23Ir6
_symmetry_space_group_name_H-M   'P 1'
_cell_length_a   9.81381600
_cell_length_b   9.81381467
_cell_length_c   10.07888500
_cell_angle_alpha   90.00000000
_cell_angle_beta   90.00000000
_cell_angle_gamma   119.99999776
_symmetry_Int_Tables_number   1
_chemical_formula_structural   HoLu6Sn23Ir6
_chemical_formula_sum   'Ho1 Lu6 Sn23 Ir6'
_cell_volume   840.65711798
_cell_formula_units_Z   1
loop_
 _symmetry_equiv_pos_site_id
 _symmetry_equiv_pos_as_xyz
  1  'x, y, z'
loop_
 _atom_site_type_symbol
 _atom_site_label
 _atom_site_symmetry_multiplicity
 _atom_site_fract_x
 _atom_site_fract_y
 _atom_site_fract_z
 _atom_site_occupancy
  Ho  Ho0  1  0.000000  0.000000  0.000000  1
  Lu  Lu1  1  0.516661  0.483339  0.694294  1
  Lu  Lu2  1  0.516661  0.033321  0.694294  1
  Lu  Lu3  1  0.966679  0.483339  0.694294  1
  Lu  Lu4  1  0.033321  0.516661  0.305706  1
  Lu  Lu5  1  0.483339  0.966679  0.305706  1
  Lu  Lu6  1  0.483339  0.516661  0.305706  1
  Sn  Sn7  1  0.666667  0.333333  0.169031  1
  Sn  Sn8  1  0.666667  0.333333  0.868628  1
  Sn  Sn9  1  0.333333  0.666667  0.131372  1
  Sn  Sn10  1  0.351902  0.351902  0.000000  1
  Sn  Sn11  1  0.000000  0.648098  0.000000  1
  Sn  Sn12  1  0.648098  0.000000  0.000000  1
  Sn  Sn13  1  0.648098  0.648098  0.000000  1
  Sn  Sn14  1  0.333333  0.666667  0.830969  1
  Sn  Sn15  1  0.447614  0.223808  0.459474  1
  Sn  Sn16  1  0.223808  0.776192  0.540526  1
  Sn  Sn17  1  0.223808  0.447614  0.540526  1
  Sn  Sn18  1  0.552386  0.776192  0.540526  1
  Sn  Sn19  1  0.119761  0.880239  0.284885  1
  Sn  Sn20  1  0.776192  0.552386  0.459474  1
  Sn  Sn21  1  0.776192  0.223808  0.459474  1
  Sn  Sn22  1  0.351902  0.000000  0.000000  1
  Sn  Sn23  1  0.119761  0.239523  0.284885  1
  Sn  Sn24  1  0.760477  0.880239  0.284885  1
  Sn  Sn25  1  0.239523  0.119761  0.715115  1
  Sn  Sn26  1  0.880239  0.760477  0.715115  1
  Sn  Sn27  1  0.880239  0.119761  0.715115  1
  Sn  Sn28  1  0.000000  0.000000  0.500000  1
  Sn  Sn29  1  0.000000  0.351902  0.000000  1
  Ir  Ir30  1  0.170087  0.829913  0.799456  1
  Ir  Ir31  1  0.170087  0.340173  0.799456  1
  Ir  Ir32  1  0.659827  0.829913  0.799456  1
  Ir  Ir33  1  0.340173  0.170087  0.200544  1
  Ir  Ir34  1  0.829913  0.659827  0.200544  1
  Ir  Ir35  1  0.829913  0.170087  0.200544  1
