# generated using pymatgen
data_LiDy16Hg3Rh4
_symmetry_space_group_name_H-M   'P 1'
_cell_length_a   9.58861603
_cell_length_b   9.58524487
_cell_length_c   9.58524500
_cell_angle_alpha   60.00000302
_cell_angle_beta   60.01163246
_cell_angle_gamma   60.01164132
_symmetry_Int_Tables_number   1
_chemical_formula_structural   LiDy16Hg3Rh4
_chemical_formula_sum   'Li1 Dy16 Hg3 Rh4'
_cell_volume   623.05119946
_cell_formula_units_Z   1
loop_
 _symmetry_equiv_pos_site_id
 _symmetry_equiv_pos_as_xyz
  1  'x, y, z'
loop_
 _atom_site_type_symbol
 _atom_site_label
 _atom_site_symmetry_multiplicity
 _atom_site_fract_x
 _atom_site_fract_y
 _atom_site_fract_z
 _atom_site_occupancy
  Li  Li0  1  0.704386  0.431871  0.431871  1
  Dy  Dy1  1  0.064842  0.435461  0.435461  1
  Dy  Dy2  1  0.647564  0.050922  0.650758  1
  Dy  Dy3  1  0.815379  0.814112  0.185255  1
  Dy  Dy4  1  0.435393  0.064757  0.064757  1
  Dy  Dy5  1  0.435393  0.435093  0.064757  1
  Dy  Dy6  1  0.190313  0.188241  0.810723  1
  Dy  Dy7  1  0.815379  0.185255  0.185255  1
  Dy  Dy8  1  0.064842  0.435461  0.064236  1
  Dy  Dy9  1  0.435393  0.064757  0.435093  1
  Dy  Dy10  1  0.063122  0.645627  0.645627  1
  Dy  Dy11  1  0.190313  0.810723  0.810723  1
  Dy  Dy12  1  0.647564  0.650758  0.050922  1
  Dy  Dy13  1  0.190313  0.810723  0.188241  1
  Dy  Dy14  1  0.064842  0.064236  0.435461  1
  Dy  Dy15  1  0.815379  0.185255  0.814112  1
  Dy  Dy16  1  0.647564  0.650758  0.650758  1
  Hg  Hg17  1  0.421124  0.413157  0.752562  1
  Hg  Hg18  1  0.421124  0.413157  0.413157  1
  Hg  Hg19  1  0.421124  0.752562  0.413157  1
  Rh  Rh20  1  0.859930  0.429633  0.855218  1
  Rh  Rh21  1  0.428859  0.857047  0.857047  1
  Rh  Rh22  1  0.859930  0.855218  0.429633  1
  Rh  Rh23  1  0.859930  0.855218  0.855218  1
