# generated using pymatgen
data_TbHo7Re(B8Ru)3
_symmetry_space_group_name_H-M   'P 1'
_cell_length_a   3.66016000
_cell_length_b   9.12755497
_cell_length_c   11.51192601
_cell_angle_alpha   90.13029850
_cell_angle_beta   90.00000000
_cell_angle_gamma   90.00000000
_symmetry_Int_Tables_number   1
_chemical_formula_structural   TbHo7Re(B8Ru)3
_chemical_formula_sum   'Tb1 Ho7 Re1 B24 Ru3'
_cell_volume   384.59301675
_cell_formula_units_Z   1
loop_
 _symmetry_equiv_pos_site_id
 _symmetry_equiv_pos_as_xyz
  1  'x, y, z'
loop_
 _atom_site_type_symbol
 _atom_site_label
 _atom_site_symmetry_multiplicity
 _atom_site_fract_x
 _atom_site_fract_y
 _atom_site_fract_z
 _atom_site_occupancy
  Tb  Tb0  1  0.000000  0.323091  0.415030  1
  Ho  Ho1  1  0.000000  0.680024  0.588139  1
  Ho  Ho2  1  0.000000  0.822817  0.083438  1
  Ho  Ho3  1  0.000000  0.175999  0.913451  1
  Ho  Ho4  1  0.000000  0.943007  0.370956  1
  Ho  Ho5  1  0.000000  0.056271  0.627816  1
  Ho  Ho6  1  0.000000  0.442656  0.128616  1
  Ho  Ho7  1  0.000000  0.556003  0.872459  1
  Re  Re8  1  0.000000  0.862390  0.821235  1
  B  B9  1  0.500000  0.554402  0.433232  1
  B  B10  1  0.500000  0.446463  0.567387  1
  B  B11  1  0.500000  0.053675  0.067371  1
  B  B12  1  0.500000  0.947151  0.933293  1
  B  B13  1  0.500000  0.748444  0.419526  1
  B  B14  1  0.500000  0.251935  0.580662  1
  B  B15  1  0.500000  0.247978  0.080648  1
  B  B16  1  0.500000  0.751444  0.919397  1
  B  B17  1  0.500000  0.790331  0.265714  1
  B  B18  1  0.500000  0.209210  0.733368  1
  B  B19  1  0.500000  0.290556  0.233970  1
  B  B20  1  0.500000  0.708338  0.765835  1
  B  B21  1  0.500000  0.631017  0.185165  1
  B  B22  1  0.500000  0.368316  0.814466  1
  B  B23  1  0.500000  0.131420  0.314690  1
  B  B24  1  0.500000  0.868781  0.685364  1
  B  B25  1  0.500000  0.983281  0.212371  1
  B  B26  1  0.500000  0.017959  0.787394  1
  B  B27  1  0.500000  0.483601  0.287835  1
  B  B28  1  0.500000  0.516881  0.712624  1
  B  B29  1  0.500000  0.605571  0.030038  1
  B  B30  1  0.500000  0.392381  0.970825  1
  B  B31  1  0.500000  0.106796  0.469965  1
  B  B32  1  0.500000  0.893518  0.528753  1
  Ru  Ru33  1  0.000000  0.638059  0.321045  1
  Ru  Ru34  1  0.000000  0.362451  0.678732  1
  Ru  Ru35  1  0.000000  0.137777  0.179194  1
