# generated using pymatgen
data_TbDy7(HoRu2)2
_symmetry_space_group_name_H-M   'P 1'
_cell_length_a   6.36150892
_cell_length_b   7.25300383
_cell_length_c   8.48620223
_cell_angle_alpha   96.66627311
_cell_angle_beta   112.12016085
_cell_angle_gamma   89.87800313
_symmetry_Int_Tables_number   1
_chemical_formula_structural   TbDy7(HoRu2)2
_chemical_formula_sum   'Tb1 Dy7 Ho2 Ru4'
_cell_volume   359.91344632
_cell_formula_units_Z   1
loop_
 _symmetry_equiv_pos_site_id
 _symmetry_equiv_pos_as_xyz
  1  'x, y, z'
loop_
 _atom_site_type_symbol
 _atom_site_label
 _atom_site_symmetry_multiplicity
 _atom_site_fract_x
 _atom_site_fract_y
 _atom_site_fract_z
 _atom_site_occupancy
  Tb  Tb0  1  0.978108  0.915579  0.186167  1
  Dy  Dy1  1  0.792826  0.584228  0.813584  1
  Dy  Dy2  1  0.021535  0.084526  0.813774  1
  Dy  Dy3  1  0.207348  0.415700  0.186189  1
  Dy  Dy4  1  0.640532  0.814578  0.434198  1
  Dy  Dy5  1  0.206706  0.685604  0.566486  1
  Dy  Dy6  1  0.359480  0.185562  0.566186  1
  Dy  Dy7  1  0.793389  0.314337  0.433702  1
  Ho  Ho8  1  0.421873  0.749517  0.999617  1
  Ho  Ho9  1  0.577836  0.250442  0.000105  1
  Ru  Ru10  1  0.824111  0.575712  0.220199  1
  Ru  Ru11  1  0.603981  0.924834  0.779440  1
  Ru  Ru12  1  0.175802  0.424065  0.779963  1
  Ru  Ru13  1  0.396473  0.075317  0.220391  1
