# generated using pymatgen
data_DyUTeN2
_symmetry_space_group_name_H-M   'P 1'
_cell_length_a   6.87817773
_cell_length_b   6.87817766
_cell_length_c   6.87817853
_cell_angle_alpha   146.95207368
_cell_angle_beta   146.95207086
_cell_angle_gamma   47.43475316
_symmetry_Int_Tables_number   1
_chemical_formula_structural   DyUTeN2
_chemical_formula_sum   'Dy1 U1 Te1 N2'
_cell_volume   96.39776184
_cell_formula_units_Z   1
loop_
 _symmetry_equiv_pos_site_id
 _symmetry_equiv_pos_as_xyz
  1  'x, y, z'
loop_
 _atom_site_type_symbol
 _atom_site_label
 _atom_site_symmetry_multiplicity
 _atom_site_fract_x
 _atom_site_fract_y
 _atom_site_fract_z
 _atom_site_occupancy
  Dy  Dy0  1  0.340275  0.340275  0.000000  1
  U  U1  1  0.667389  0.667389  0.000000  1
  Te  Te2  1  0.004761  0.004761  0.000000  1
  N  N3  1  0.743787  0.243787  0.500000  1
  N  N4  1  0.243787  0.743787  0.500000  1
