# generated using pymatgen
data_Th3Sn2GeRh3
_symmetry_space_group_name_H-M   'P 1'
_cell_length_a   7.52941926
_cell_length_b   7.52941935
_cell_length_c   4.08449200
_cell_angle_alpha   90.00000000
_cell_angle_beta   90.00000000
_cell_angle_gamma   120.27862766
_symmetry_Int_Tables_number   1
_chemical_formula_structural   Th3Sn2GeRh3
_chemical_formula_sum   'Th3 Sn2 Ge1 Rh3'
_cell_volume   199.97027612
_cell_formula_units_Z   1
loop_
 _symmetry_equiv_pos_site_id
 _symmetry_equiv_pos_as_xyz
  1  'x, y, z'
loop_
 _atom_site_type_symbol
 _atom_site_label
 _atom_site_symmetry_multiplicity
 _atom_site_fract_x
 _atom_site_fract_y
 _atom_site_fract_z
 _atom_site_occupancy
  Th  Th0  1  0.426266  0.426266  0.500000  1
  Th  Th1  1  0.588072  0.991624  0.500000  1
  Th  Th2  1  0.991624  0.588072  0.500000  1
  Sn  Sn3  1  0.250095  0.003588  0.000000  1
  Sn  Sn4  1  0.003588  0.250095  0.000000  1
  Ge  Ge5  1  0.748542  0.748542  0.000000  1
  Rh  Rh6  1  0.670211  0.342487  0.000000  1
  Rh  Rh7  1  0.342487  0.670211  0.000000  1
  Rh  Rh8  1  0.979115  0.979115  0.500000  1
