# generated using pymatgen
data_Tb2Y2Al18MoPd5
_symmetry_space_group_name_H-M   'P 1'
_cell_length_a   7.64273726
_cell_length_b   7.64271929
_cell_length_c   9.56614879
_cell_angle_alpha   89.64762029
_cell_angle_beta   89.65567842
_cell_angle_gamma   118.94524424
_symmetry_Int_Tables_number   1
_chemical_formula_structural   Tb2Y2Al18MoPd5
_chemical_formula_sum   'Tb2 Y2 Al18 Mo1 Pd5'
_cell_volume   488.93589011
_cell_formula_units_Z   1
loop_
 _symmetry_equiv_pos_site_id
 _symmetry_equiv_pos_as_xyz
  1  'x, y, z'
loop_
 _atom_site_type_symbol
 _atom_site_label
 _atom_site_symmetry_multiplicity
 _atom_site_fract_x
 _atom_site_fract_y
 _atom_site_fract_z
 _atom_site_occupancy
  Tb  Tb0  1  0.995120  0.676630  0.248005  1
  Tb  Tb1  1  0.004880  0.323370  0.751995  1
  Y  Y2  1  0.676603  0.995115  0.248005  1
  Y  Y3  1  0.323397  0.004885  0.751995  1
  Al  Al4  1  0.133461  0.133460  0.248437  1
  Al  Al5  1  0.866539  0.866540  0.751563  1
  Al  Al6  1  0.002346  0.334108  0.075571  1
  Al  Al7  1  0.997654  0.665892  0.924429  1
  Al  Al8  1  0.998126  0.661538  0.578170  1
  Al  Al9  1  0.338460  0.001877  0.421827  1
  Al  Al10  1  0.001874  0.338462  0.421830  1
  Al  Al11  1  0.661540  0.998123  0.578173  1
  Al  Al12  1  0.665824  0.997628  0.924462  1
  Al  Al13  1  0.334176  0.002372  0.075538  1
  Al  Al14  1  0.333606  0.333599  0.554658  1
  Al  Al15  1  0.666394  0.666401  0.445342  1
  Al  Al16  1  0.667914  0.667941  0.052459  1
  Al  Al17  1  0.332086  0.332059  0.947541  1
  Al  Al18  1  0.342078  0.549846  0.250083  1
  Al  Al19  1  0.657922  0.450154  0.749917  1
  Al  Al20  1  0.549856  0.342091  0.250087  1
  Al  Al21  1  0.450144  0.657909  0.749913  1
  Mo  Mo22  1  0.000000  0.000000  0.000000  1
  Pd  Pd23  1  0.672208  0.327747  0.000000  1
  Pd  Pd24  1  0.327792  0.672253  0.000000  1
  Pd  Pd25  1  0.327986  0.672124  0.499995  1
  Pd  Pd26  1  0.672014  0.327876  0.500005  1
  Pd  Pd27  1  0.000000  0.000000  0.500000  1
