# generated using pymatgen
data_Er5OsPb2
_symmetry_space_group_name_H-M   'P 1'
_cell_length_a   7.81499000
_cell_length_b   9.05051500
_cell_length_c   12.30733400
_cell_angle_alpha   90.00000000
_cell_angle_beta   90.00000000
_cell_angle_gamma   90.00000000
_symmetry_Int_Tables_number   1
_chemical_formula_structural   Er5OsPb2
_chemical_formula_sum   'Er20 Os4 Pb8'
_cell_volume   870.49384741
_cell_formula_units_Z   4
loop_
 _symmetry_equiv_pos_site_id
 _symmetry_equiv_pos_as_xyz
  1  'x, y, z'
loop_
 _atom_site_type_symbol
 _atom_site_label
 _atom_site_symmetry_multiplicity
 _atom_site_fract_x
 _atom_site_fract_y
 _atom_site_fract_z
 _atom_site_occupancy
  Er  Er0  1  0.659576  0.750000  0.712349  1
  Er  Er1  1  0.340424  0.250000  0.287651  1
  Er  Er2  1  0.159576  0.250000  0.787651  1
  Er  Er3  1  0.840424  0.750000  0.212349  1
  Er  Er4  1  0.125861  0.750000  0.808860  1
  Er  Er5  1  0.874139  0.250000  0.191140  1
  Er  Er6  1  0.625861  0.250000  0.691140  1
  Er  Er7  1  0.374139  0.750000  0.308860  1
  Er  Er8  1  0.550516  0.750000  0.995509  1
  Er  Er9  1  0.449484  0.250000  0.004491  1
  Er  Er10  1  0.050516  0.250000  0.504491  1
  Er  Er11  1  0.949484  0.750000  0.495509  1
  Er  Er12  1  0.826867  0.462585  0.930289  1
  Er  Er13  1  0.173133  0.537415  0.069711  1
  Er  Er14  1  0.326867  0.537415  0.569711  1
  Er  Er15  1  0.173133  0.962585  0.069711  1
  Er  Er16  1  0.673133  0.462585  0.430289  1
  Er  Er17  1  0.826867  0.037415  0.930289  1
  Er  Er18  1  0.673133  0.037415  0.430289  1
  Er  Er19  1  0.326867  0.962585  0.569711  1
  Os  Os20  1  0.925026  0.750000  0.993055  1
  Os  Os21  1  0.074974  0.250000  0.006945  1
  Os  Os22  1  0.425026  0.250000  0.506945  1
  Os  Os23  1  0.574974  0.750000  0.493055  1
  Pb  Pb24  1  0.934199  0.004038  0.671346  1
  Pb  Pb25  1  0.065801  0.995962  0.328654  1
  Pb  Pb26  1  0.434199  0.995962  0.828654  1
  Pb  Pb27  1  0.065801  0.504038  0.328654  1
  Pb  Pb28  1  0.565801  0.004038  0.171346  1
  Pb  Pb29  1  0.934199  0.495962  0.671346  1
  Pb  Pb30  1  0.565801  0.495962  0.171346  1
  Pb  Pb31  1  0.434199  0.504038  0.828654  1
