# generated using pymatgen
data_Li4Er3TmSi6
_symmetry_space_group_name_H-M   'P 1'
_cell_length_a   9.19723900
_cell_length_b   9.19723820
_cell_length_c   6.63379900
_cell_angle_alpha   90.00000000
_cell_angle_beta   90.00000000
_cell_angle_gamma   153.47598517
_symmetry_Int_Tables_number   1
_chemical_formula_structural   Li4Er3TmSi6
_chemical_formula_sum   'Li4 Er3 Tm1 Si6'
_cell_volume   250.59335793
_cell_formula_units_Z   1
loop_
 _symmetry_equiv_pos_site_id
 _symmetry_equiv_pos_as_xyz
  1  'x, y, z'
loop_
 _atom_site_type_symbol
 _atom_site_label
 _atom_site_symmetry_multiplicity
 _atom_site_fract_x
 _atom_site_fract_y
 _atom_site_fract_z
 _atom_site_occupancy
  Li  Li0  1  0.809492  0.190508  0.559107  1
  Li  Li1  1  0.190449  0.809551  0.441048  1
  Li  Li2  1  0.190449  0.809551  0.058952  1
  Li  Li3  1  0.809492  0.190508  0.940893  1
  Er  Er4  1  0.552166  0.447834  0.250000  1
  Er  Er5  1  0.447915  0.552085  0.750000  1
  Er  Er6  1  0.344965  0.655035  0.250000  1
  Tm  Tm7  1  0.654991  0.345009  0.750000  1
  Si  Si8  1  0.940136  0.059864  0.071358  1
  Si  Si9  1  0.059974  0.940026  0.928484  1
  Si  Si10  1  0.059974  0.940026  0.571516  1
  Si  Si11  1  0.940136  0.059864  0.428642  1
  Si  Si12  1  0.720008  0.279992  0.250000  1
  Si  Si13  1  0.279855  0.720145  0.750000  1
