# generated using pymatgen
data_Sc(FeI4)2
_symmetry_space_group_name_H-M   'P 1'
_cell_length_a   8.75572471
_cell_length_b   8.75572480
_cell_length_c   6.86719508
_cell_angle_alpha   92.46052292
_cell_angle_beta   92.46052708
_cell_angle_gamma   83.88414442
_symmetry_Int_Tables_number   1
_chemical_formula_structural   Sc(FeI4)2
_chemical_formula_sum   'Sc1 Fe2 I8'
_cell_volume   522.58887433
_cell_formula_units_Z   1
loop_
 _symmetry_equiv_pos_site_id
 _symmetry_equiv_pos_as_xyz
  1  'x, y, z'
loop_
 _atom_site_type_symbol
 _atom_site_label
 _atom_site_symmetry_multiplicity
 _atom_site_fract_x
 _atom_site_fract_y
 _atom_site_fract_z
 _atom_site_occupancy
  Sc  Sc0  1  0.000000  0.000000  0.000000  1
  Fe  Fe1  1  0.808871  0.808871  0.347091  1
  Fe  Fe2  1  0.191128  0.191128  0.652909  1
  I  I3  1  0.728309  0.083719  0.221885  1
  I  I4  1  0.083719  0.728309  0.221885  1
  I  I5  1  0.623866  0.623866  0.230062  1
  I  I6  1  0.187335  0.187335  0.270837  1
  I  I7  1  0.812665  0.812665  0.729162  1
  I  I8  1  0.376135  0.376135  0.769938  1
  I  I9  1  0.916280  0.271691  0.778115  1
  I  I10  1  0.271691  0.916280  0.778115  1
