# generated using pymatgen
data_Pr4Ga18(PtRh)3
_symmetry_space_group_name_H-M   'P 1'
_cell_length_a   7.72681653
_cell_length_b   7.72681810
_cell_length_c   9.63066728
_cell_angle_alpha   89.97004857
_cell_angle_beta   89.97004747
_cell_angle_gamma   119.75898750
_symmetry_Int_Tables_number   1
_chemical_formula_structural   Pr4Ga18(PtRh)3
_chemical_formula_sum   'Pr4 Ga18 Pt3 Rh3'
_cell_volume   499.15758836
_cell_formula_units_Z   1
loop_
 _symmetry_equiv_pos_site_id
 _symmetry_equiv_pos_as_xyz
  1  'x, y, z'
loop_
 _atom_site_type_symbol
 _atom_site_label
 _atom_site_symmetry_multiplicity
 _atom_site_fract_x
 _atom_site_fract_y
 _atom_site_fract_z
 _atom_site_occupancy
  Pr  Pr0  1  0.995237  0.670487  0.749493  1
  Pr  Pr1  1  0.001652  0.327111  0.250931  1
  Pr  Pr2  1  0.672889  0.998348  0.749069  1
  Pr  Pr3  1  0.329513  0.004763  0.250507  1
  Ga  Ga4  1  0.137045  0.135372  0.750477  1
  Ga  Ga5  1  0.864628  0.862955  0.249523  1
  Ga  Ga6  1  0.005975  0.339352  0.579501  1
  Ga  Ga7  1  0.003390  0.665248  0.421026  1
  Ga  Ga8  1  0.000338  0.661003  0.076810  1
  Ga  Ga9  1  0.338997  0.999662  0.923190  1
  Ga  Ga10  1  0.000812  0.338919  0.922843  1
  Ga  Ga11  1  0.661081  0.999188  0.077157  1
  Ga  Ga12  1  0.660648  0.994025  0.420499  1
  Ga  Ga13  1  0.334752  0.996610  0.578974  1
  Ga  Ga14  1  0.336511  0.336767  0.057976  1
  Ga  Ga15  1  0.663233  0.663489  0.942024  1
  Ga  Ga16  1  0.661421  0.665019  0.561199  1
  Ga  Ga17  1  0.334981  0.338579  0.438801  1
  Ga  Ga18  1  0.340547  0.549259  0.750777  1
  Ga  Ga19  1  0.660233  0.455717  0.246100  1
  Ga  Ga20  1  0.544283  0.339767  0.753900  1
  Ga  Ga21  1  0.450741  0.659453  0.249223  1
  Pt  Pt22  1  0.670745  0.329255  0.500000  1
  Pt  Pt23  1  0.999754  0.000246  0.500000  1
  Pt  Pt24  1  0.000052  0.999948  0.000000  1
  Rh  Rh25  1  0.329979  0.670021  0.500000  1
  Rh  Rh26  1  0.329844  0.670156  0.000000  1
  Rh  Rh27  1  0.670717  0.329283  0.000000  1
