# generated using pymatgen
data_Tb2Y2HoPd15
_symmetry_space_group_name_H-M   'P 1'
_cell_length_a   4.11810400
_cell_length_b   4.11748400
_cell_length_c   20.78451600
_cell_angle_alpha   90.00000000
_cell_angle_beta   90.00000000
_cell_angle_gamma   90.00000000
_symmetry_Int_Tables_number   1
_chemical_formula_structural   Tb2Y2HoPd15
_chemical_formula_sum   'Tb2 Y2 Ho1 Pd15'
_cell_volume   352.42697825
_cell_formula_units_Z   1
loop_
 _symmetry_equiv_pos_site_id
 _symmetry_equiv_pos_as_xyz
  1  'x, y, z'
loop_
 _atom_site_type_symbol
 _atom_site_label
 _atom_site_symmetry_multiplicity
 _atom_site_fract_x
 _atom_site_fract_y
 _atom_site_fract_z
 _atom_site_occupancy
  Tb  Tb0  1  0.000000  0.000000  0.199182  1
  Tb  Tb1  1  0.000000  0.000000  0.399670  1
  Y  Y2  1  0.000000  0.000000  0.600076  1
  Y  Y3  1  0.000000  0.000000  0.800936  1
  Ho  Ho4  1  0.000000  0.000000  0.000143  1
  Pd  Pd5  1  0.500000  0.500000  0.999988  1
  Pd  Pd6  1  0.500000  0.500000  0.198938  1
  Pd  Pd7  1  0.500000  0.500000  0.399631  1
  Pd  Pd8  1  0.500000  0.500000  0.600393  1
  Pd  Pd9  1  0.500000  0.500000  0.800963  1
  Pd  Pd10  1  0.500000  0.000000  0.099093  1
  Pd  Pd11  1  0.500000  0.000000  0.299687  1
  Pd  Pd12  1  0.500000  0.000000  0.499835  1
  Pd  Pd13  1  0.500000  0.000000  0.700343  1
  Pd  Pd14  1  0.500000  0.000000  0.901081  1
  Pd  Pd15  1  0.000000  0.500000  0.099108  1
  Pd  Pd16  1  0.000000  0.500000  0.299691  1
  Pd  Pd17  1  0.000000  0.500000  0.499837  1
  Pd  Pd18  1  0.000000  0.500000  0.700342  1
  Pd  Pd19  1  0.000000  0.500000  0.901062  1
