# generated using pymatgen
data_Pr7Nd2Th(Al2Os3)2
_symmetry_space_group_name_H-M   'P 1'
_cell_length_a   8.60530743
_cell_length_b   8.63102204
_cell_length_c   8.60530728
_cell_angle_alpha   109.31332609
_cell_angle_beta   109.11107503
_cell_angle_gamma   109.86844884
_symmetry_Int_Tables_number   1
_chemical_formula_structural   Pr7Nd2Th(Al2Os3)2
_chemical_formula_sum   'Pr7 Nd2 Th1 Al4 Os6'
_cell_volume   492.72393730
_cell_formula_units_Z   1
loop_
 _symmetry_equiv_pos_site_id
 _symmetry_equiv_pos_as_xyz
  1  'x, y, z'
loop_
 _atom_site_type_symbol
 _atom_site_label
 _atom_site_symmetry_multiplicity
 _atom_site_fract_x
 _atom_site_fract_y
 _atom_site_fract_z
 _atom_site_occupancy
  Pr  Pr0  1  0.683591  0.433369  0.251440  1
  Pr  Pr1  1  0.066938  0.750000  0.816938  1
  Pr  Pr2  1  0.818071  0.066631  0.750222  1
  Pr  Pr3  1  0.216095  0.215780  0.212651  1
  Pr  Pr4  1  0.497810  0.996884  0.284278  1
  Pr  Pr5  1  0.287395  0.503116  0.000926  1
  Pr  Pr6  1  0.996871  0.284220  0.500316  1
  Nd  Nd7  1  0.249014  0.680576  0.432404  1
  Nd  Nd8  1  0.751828  0.819424  0.068437  1
  Th  Th9  1  0.434654  0.250000  0.684654  1
  Al  Al10  1  0.588958  0.592658  0.591575  1
  Al  Al11  1  0.502539  0.998946  0.909683  1
  Al  Al12  1  0.910737  0.501054  0.003593  1
  Al  Al13  1  0.998917  0.907342  0.496300  1
  Os  Os14  1  0.256900  0.121129  0.856382  1
  Os  Os15  1  0.735253  0.378871  0.635771  1
  Os  Os16  1  0.868388  0.250000  0.118389  1
  Os  Os17  1  0.119836  0.869630  0.251924  1
  Os  Os18  1  0.633915  0.750000  0.383915  1
  Os  Os19  1  0.382292  0.630369  0.750204  1
