# generated using pymatgen
data_Sc8Al14SiRh7
_symmetry_space_group_name_H-M   'P 1'
_cell_length_a   8.88027902
_cell_length_b   8.88028009
_cell_length_c   8.88027901
_cell_angle_alpha   120.13404358
_cell_angle_beta   119.95409978
_cell_angle_gamma   89.92375556
_symmetry_Int_Tables_number   1
_chemical_formula_structural   Sc8Al14SiRh7
_chemical_formula_sum   'Sc8 Al14 Si1 Rh7'
_cell_volume   494.85017034
_cell_formula_units_Z   1
loop_
 _symmetry_equiv_pos_site_id
 _symmetry_equiv_pos_as_xyz
  1  'x, y, z'
loop_
 _atom_site_type_symbol
 _atom_site_label
 _atom_site_symmetry_multiplicity
 _atom_site_fract_x
 _atom_site_fract_y
 _atom_site_fract_z
 _atom_site_occupancy
  Sc  Sc0  1  0.798032  0.291075  0.079039  1
  Sc  Sc1  1  0.212037  0.291075  0.493044  1
  Sc  Sc2  1  0.201354  0.701354  0.500000  1
  Sc  Sc3  1  0.212037  0.718993  0.920961  1
  Sc  Sc4  1  0.798032  0.718993  0.506956  1
  Sc  Sc5  1  0.779867  0.279867  0.500000  1
  Sc  Sc6  1  0.379695  0.119692  0.739997  1
  Sc  Sc7  1  0.379695  0.639697  0.260003  1
  Al  Al8  1  0.162675  0.333778  0.171102  1
  Al  Al9  1  0.162675  0.991573  0.828898  1
  Al  Al10  1  0.156228  0.340152  0.816076  1
  Al  Al11  1  0.524076  0.340152  0.183924  1
  Al  Al12  1  0.837416  0.660272  0.822856  1
  Al  Al13  1  0.837416  0.014561  0.177144  1
  Al  Al14  1  0.834678  0.662904  0.171775  1
  Al  Al15  1  0.491129  0.662904  0.828225  1
  Al  Al16  1  0.379669  0.121947  0.257723  1
  Al  Al17  1  0.864224  0.121947  0.742277  1
  Al  Al18  1  0.621190  0.875693  0.254504  1
  Al  Al19  1  0.621190  0.366686  0.745496  1
  Al  Al20  1  0.622570  0.878107  0.744462  1
  Al  Al21  1  0.133644  0.878107  0.255538  1
  Si  Si22  1  0.990982  0.490982  0.500000  1
  Rh  Rh23  1  0.995452  0.999401  0.499056  1
  Rh  Rh24  1  0.500345  0.999401  0.003949  1
  Rh  Rh25  1  0.500455  0.500455  0.000000  1
  Rh  Rh26  1  0.500345  0.496397  0.500944  1
  Rh  Rh27  1  0.995452  0.496397  0.996051  1
  Rh  Rh28  1  0.000296  0.000296  0.000000  1
  Rh  Rh29  1  0.507141  0.007141  0.500000  1
