# generated using pymatgen
data_Tb2Y6CdHgPt2
_symmetry_space_group_name_H-M   'P 1'
_cell_length_a   9.71078517
_cell_length_b   9.71078395
_cell_length_c   9.70804000
_cell_angle_alpha   60.00935362
_cell_angle_beta   60.00935776
_cell_angle_gamma   60.04922470
_symmetry_Int_Tables_number   1
_chemical_formula_structural   Tb2Y6CdHgPt2
_chemical_formula_sum   'Tb4 Y12 Cd2 Hg2 Pt4'
_cell_volume   647.66129889
_cell_formula_units_Z   2
loop_
 _symmetry_equiv_pos_site_id
 _symmetry_equiv_pos_as_xyz
  1  'x, y, z'
loop_
 _atom_site_type_symbol
 _atom_site_label
 _atom_site_symmetry_multiplicity
 _atom_site_fract_x
 _atom_site_fract_y
 _atom_site_fract_z
 _atom_site_occupancy
  Tb  Tb0  1  0.353157  0.353157  0.350910  1
  Tb  Tb1  1  0.353157  0.353157  0.942774  1
  Tb  Tb2  1  0.356219  0.936275  0.353754  1
  Tb  Tb3  1  0.936275  0.356219  0.353754  1
  Y  Y4  1  0.810559  0.189517  0.190385  1
  Y  Y5  1  0.189517  0.810559  0.809540  1
  Y  Y6  1  0.189517  0.810559  0.190385  1
  Y  Y7  1  0.810559  0.189517  0.809540  1
  Y  Y8  1  0.190104  0.190104  0.809896  1
  Y  Y9  1  0.809949  0.809949  0.190051  1
  Y  Y10  1  0.934972  0.563856  0.564423  1
  Y  Y11  1  0.563856  0.934972  0.936749  1
  Y  Y12  1  0.563856  0.934972  0.564423  1
  Y  Y13  1  0.934972  0.563856  0.936749  1
  Y  Y14  1  0.564281  0.564281  0.935719  1
  Y  Y15  1  0.936186  0.936186  0.563814  1
  Cd  Cd16  1  0.580406  0.254161  0.582716  1
  Cd  Cd17  1  0.254161  0.580406  0.582716  1
  Hg  Hg18  1  0.584871  0.584871  0.588097  1
  Hg  Hg19  1  0.584871  0.584871  0.242161  1
  Pt  Pt20  1  0.143481  0.143481  0.145922  1
  Pt  Pt21  1  0.143481  0.143481  0.567116  1
  Pt  Pt22  1  0.142019  0.569574  0.144204  1
  Pt  Pt23  1  0.569574  0.142019  0.144204  1
