# generated using pymatgen
data_YbDy3(Ga8Pt3)3
_symmetry_space_group_name_H-M   'P 1'
_cell_length_a   7.50450356
_cell_length_b   7.58381063
_cell_length_c   13.37095989
_cell_angle_alpha   84.72573178
_cell_angle_beta   79.46008777
_cell_angle_gamma   60.25912720
_symmetry_Int_Tables_number   1
_chemical_formula_structural   YbDy3(Ga8Pt3)3
_chemical_formula_sum   'Yb1 Dy3 Ga24 Pt9'
_cell_volume   649.59142653
_cell_formula_units_Z   1
loop_
 _symmetry_equiv_pos_site_id
 _symmetry_equiv_pos_as_xyz
  1  'x, y, z'
loop_
 _atom_site_type_symbol
 _atom_site_label
 _atom_site_symmetry_multiplicity
 _atom_site_fract_x
 _atom_site_fract_y
 _atom_site_fract_z
 _atom_site_occupancy
  Yb  Yb0  1  0.395632  0.168253  0.809053  1
  Dy  Dy1  1  0.604446  0.832325  0.189099  1
  Dy  Dy2  1  0.732485  0.498004  0.812150  1
  Dy  Dy3  1  0.267500  0.501099  0.188168  1
  Ga  Ga4  1  0.684938  0.835844  0.938496  1
  Ga  Ga5  1  0.313397  0.166109  0.060998  1
  Ga  Ga6  1  0.146002  0.832341  0.559144  1
  Ga  Ga7  1  0.854244  0.167555  0.440534  1
  Ga  Ga8  1  0.478332  0.166125  0.555957  1
  Ga  Ga9  1  0.522043  0.833422  0.443433  1
  Ga  Ga10  1  0.222153  0.164819  0.322452  1
  Ga  Ga11  1  0.778741  0.835322  0.676522  1
  Ga  Ga12  1  0.437729  0.503141  0.675113  1
  Ga  Ga13  1  0.562647  0.496660  0.323809  1
  Ga  Ga14  1  0.107483  0.163573  0.674151  1
  Ga  Ga15  1  0.893177  0.836284  0.324458  1
  Ga  Ga16  1  0.358050  0.496465  0.938934  1
  Ga  Ga17  1  0.640551  0.502702  0.062004  1
  Ga  Ga18  1  0.021240  0.169068  0.944811  1
  Ga  Ga19  1  0.979051  0.829974  0.057113  1
  Ga  Ga20  1  0.187652  0.499055  0.442717  1
  Ga  Ga21  1  0.812370  0.501336  0.557154  1
  Ga  Ga22  1  0.735004  0.164146  0.182133  1
  Ga  Ga23  1  0.267069  0.833317  0.818378  1
  Ga  Ga24  1  0.059000  0.631597  0.817622  1
  Ga  Ga25  1  0.938360  0.369948  0.183144  1
  Ga  Ga26  1  0.857502  0.042187  0.817110  1
  Ga  Ga27  1  0.143663  0.959045  0.183507  1
  Pt  Pt28  1  0.117516  0.495464  0.639099  1
  Pt  Pt29  1  0.883792  0.503966  0.360730  1
  Pt  Pt30  1  0.660259  0.169484  0.000154  1
  Pt  Pt31  1  0.338986  0.830363  0.001628  1
  Pt  Pt32  1  0.541489  0.167257  0.360012  1
  Pt  Pt33  1  0.458156  0.833876  0.639786  1
  Pt  Pt34  1  0.779240  0.171854  0.637002  1
  Pt  Pt35  1  0.221148  0.827656  0.362500  1
  Pt  Pt36  1  0.998952  0.500364  0.000927  1
