# generated using pymatgen
data_Ho3Tl(SbO4)4
_symmetry_space_group_name_H-M   'P 1'
_cell_length_a   5.37766085
_cell_length_b   7.65981505
_cell_length_c   7.54432600
_cell_angle_alpha   81.17783846
_cell_angle_beta   90.41321339
_cell_angle_gamma   92.02783384
_symmetry_Int_Tables_number   1
_chemical_formula_structural   Ho3Tl(SbO4)4
_chemical_formula_sum   'Ho3 Tl1 Sb4 O16'
_cell_volume   306.89559454
_cell_formula_units_Z   1
loop_
 _symmetry_equiv_pos_site_id
 _symmetry_equiv_pos_as_xyz
  1  'x, y, z'
loop_
 _atom_site_type_symbol
 _atom_site_label
 _atom_site_symmetry_multiplicity
 _atom_site_fract_x
 _atom_site_fract_y
 _atom_site_fract_z
 _atom_site_occupancy
  Ho  Ho0  1  0.263751  0.134846  0.613293  1
  Ho  Ho1  1  0.737532  0.868517  0.385758  1
  Ho  Ho2  1  0.213983  0.156701  0.109862  1
  Tl  Tl3  1  0.780293  0.842660  0.888523  1
  Sb  Sb4  1  0.238882  0.663235  0.194165  1
  Sb  Sb5  1  0.758267  0.334766  0.806497  1
  Sb  Sb6  1  0.725990  0.336069  0.308434  1
  Sb  Sb7  1  0.273085  0.663347  0.690805  1
  O  O8  1  0.085585  0.432709  0.688984  1
  O  O9  1  0.912800  0.565334  0.311534  1
  O  O10  1  0.607340  0.324858  0.560467  1
  O  O11  1  0.394394  0.675099  0.437763  1
  O  O12  1  0.873688  0.329860  0.061812  1
  O  O13  1  0.125632  0.667512  0.938844  1
  O  O14  1  0.400395  0.430587  0.195252  1
  O  O15  1  0.593222  0.565445  0.803431  1
  O  O16  1  0.051190  0.886144  0.183931  1
  O  O17  1  0.963443  0.114046  0.827932  1
  O  O18  1  0.510322  0.111211  0.322471  1
  O  O19  1  0.487502  0.889850  0.673298  1
  O  O20  1  0.460903  0.189311  0.877922  1
  O  O21  1  0.538973  0.816342  0.122360  1
  O  O22  1  0.993980  0.169478  0.382414  1
  O  O23  1  0.008845  0.832074  0.614249  1
