# generated using pymatgen
data_Ho12Th4Mg3HgIr4
_symmetry_space_group_name_H-M   'P 1'
_cell_length_a   9.75207333
_cell_length_b   9.75207366
_cell_length_c   9.75207297
_cell_angle_alpha   59.95825254
_cell_angle_beta   59.95824948
_cell_angle_gamma   59.95825412
_symmetry_Int_Tables_number   1
_chemical_formula_structural   Ho12Th4Mg3HgIr4
_chemical_formula_sum   'Ho12 Th4 Mg3 Hg1 Ir4'
_cell_volume   655.18583594
_cell_formula_units_Z   1
loop_
 _symmetry_equiv_pos_site_id
 _symmetry_equiv_pos_as_xyz
  1  'x, y, z'
loop_
 _atom_site_type_symbol
 _atom_site_label
 _atom_site_symmetry_multiplicity
 _atom_site_fract_x
 _atom_site_fract_y
 _atom_site_fract_z
 _atom_site_occupancy
  Ho  Ho0  1  0.812891  0.187357  0.187357  1
  Ho  Ho1  1  0.185849  0.813215  0.813215  1
  Ho  Ho2  1  0.187357  0.812891  0.187357  1
  Ho  Ho3  1  0.813215  0.185849  0.813215  1
  Ho  Ho4  1  0.187357  0.187357  0.812891  1
  Ho  Ho5  1  0.813215  0.813215  0.185849  1
  Ho  Ho6  1  0.934187  0.565281  0.565281  1
  Ho  Ho7  1  0.564500  0.935303  0.935303  1
  Ho  Ho8  1  0.565281  0.934187  0.565281  1
  Ho  Ho9  1  0.935303  0.564500  0.935303  1
  Ho  Ho10  1  0.565281  0.565281  0.934187  1
  Ho  Ho11  1  0.935303  0.935303  0.564500  1
  Th  Th12  1  0.347907  0.347907  0.347907  1
  Th  Th13  1  0.351010  0.351010  0.949527  1
  Th  Th14  1  0.351010  0.949527  0.351010  1
  Th  Th15  1  0.949527  0.351010  0.351010  1
  Mg  Mg16  1  0.579297  0.579297  0.261043  1
  Mg  Mg17  1  0.579297  0.261043  0.579297  1
  Mg  Mg18  1  0.261043  0.579297  0.579297  1
  Hg  Hg19  1  0.583691  0.583691  0.583691  1
  Ir  Ir20  1  0.143263  0.143263  0.143263  1
  Ir  Ir21  1  0.141989  0.141989  0.570240  1
  Ir  Ir22  1  0.141989  0.570240  0.141989  1
  Ir  Ir23  1  0.570240  0.141989  0.141989  1
