# generated using pymatgen
data_NaSr2Fe3(CoP2)3
_symmetry_space_group_name_H-M   'P 1'
_cell_length_a   8.34097216
_cell_length_b   8.34097154
_cell_length_c   6.45708768
_cell_angle_alpha   67.39049133
_cell_angle_beta   67.39049042
_cell_angle_gamma   36.85370666
_symmetry_Int_Tables_number   1
_chemical_formula_structural   NaSr2Fe3(CoP2)3
_chemical_formula_sum   'Na1 Sr2 Fe3 Co3 P6'
_cell_volume   246.32403777
_cell_formula_units_Z   1
loop_
 _symmetry_equiv_pos_site_id
 _symmetry_equiv_pos_as_xyz
  1  'x, y, z'
loop_
 _atom_site_type_symbol
 _atom_site_label
 _atom_site_symmetry_multiplicity
 _atom_site_fract_x
 _atom_site_fract_y
 _atom_site_fract_z
 _atom_site_occupancy
  Na  Na0  1  0.000035  0.999965  0.000000  1
  Sr  Sr1  1  0.661671  0.661798  0.676427  1
  Sr  Sr2  1  0.338202  0.338329  0.323573  1
  Fe  Fe3  1  0.082091  0.584675  0.833028  1
  Fe  Fe4  1  0.415325  0.917909  0.166972  1
  Fe  Fe5  1  0.752145  0.247855  0.500000  1
  Co  Co6  1  0.248650  0.751350  0.500000  1
  Co  Co7  1  0.584015  0.082175  0.832449  1
  Co  Co8  1  0.917825  0.415985  0.167551  1
  P  P9  1  0.883559  0.883132  0.533974  1
  P  P10  1  0.216385  0.217345  0.867603  1
  P  P11  1  0.550969  0.550395  0.202410  1
  P  P12  1  0.449605  0.449031  0.797590  1
  P  P13  1  0.782655  0.783615  0.132397  1
  P  P14  1  0.116868  0.116441  0.466026  1
