# generated using pymatgen
data_Tm4CrB16Mo3
_symmetry_space_group_name_H-M   'P 1'
_cell_length_a   3.55508600
_cell_length_b   5.98158982
_cell_length_c   11.54849853
_cell_angle_alpha   89.91055405
_cell_angle_beta   90.00000000
_cell_angle_gamma   90.00000000
_symmetry_Int_Tables_number   1
_chemical_formula_structural   Tm4CrB16Mo3
_chemical_formula_sum   'Tm4 Cr1 B16 Mo3'
_cell_volume   245.57928665
_cell_formula_units_Z   1
loop_
 _symmetry_equiv_pos_site_id
 _symmetry_equiv_pos_as_xyz
  1  'x, y, z'
loop_
 _atom_site_type_symbol
 _atom_site_label
 _atom_site_symmetry_multiplicity
 _atom_site_fract_x
 _atom_site_fract_y
 _atom_site_fract_z
 _atom_site_occupancy
  Tm  Tm0  1  0.000000  0.626894  0.352659  1
  Tm  Tm1  1  0.000000  0.375976  0.648464  1
  Tm  Tm2  1  0.000000  0.127211  0.150538  1
  Tm  Tm3  1  0.000000  0.872693  0.846784  1
  Cr  Cr4  1  0.000000  0.872830  0.581386  1
  B  B5  1  0.500000  0.787747  0.187718  1
  B  B6  1  0.500000  0.210773  0.811320  1
  B  B7  1  0.500000  0.286866  0.314536  1
  B  B8  1  0.500000  0.717891  0.683147  1
  B  B9  1  0.500000  0.868378  0.031692  1
  B  B10  1  0.500000  0.131697  0.967448  1
  B  B11  1  0.500000  0.367630  0.470046  1
  B  B12  1  0.500000  0.636299  0.533552  1
  B  B13  1  0.500000  0.882426  0.455342  1
  B  B14  1  0.500000  0.110439  0.550370  1
  B  B15  1  0.500000  0.384572  0.047522  1
  B  B16  1  0.500000  0.615822  0.951290  1
  B  B17  1  0.500000  0.974776  0.307374  1
  B  B18  1  0.500000  0.020301  0.692228  1
  B  B19  1  0.500000  0.475024  0.194887  1
  B  B20  1  0.500000  0.526460  0.803846  1
  Mo  Mo21  1  0.000000  0.630276  0.084176  1
  Mo  Mo22  1  0.000000  0.370119  0.914542  1
  Mo  Mo23  1  0.000000  0.126902  0.419133  1
