# generated using pymatgen
data_Hf17Sc(Re4Ni)2
_symmetry_space_group_name_H-M   'P 1'
_cell_length_a   8.60353806
_cell_length_b   8.60353741
_cell_length_c   8.46977200
_cell_angle_alpha   90.00000000
_cell_angle_beta   90.00000000
_cell_angle_gamma   119.86222060
_symmetry_Int_Tables_number   1
_chemical_formula_structural   Hf17Sc(Re4Ni)2
_chemical_formula_sum   'Hf17 Sc1 Re8 Ni2'
_cell_volume   543.69804329
_cell_formula_units_Z   1
loop_
 _symmetry_equiv_pos_site_id
 _symmetry_equiv_pos_as_xyz
  1  'x, y, z'
loop_
 _atom_site_type_symbol
 _atom_site_label
 _atom_site_symmetry_multiplicity
 _atom_site_fract_x
 _atom_site_fract_y
 _atom_site_fract_z
 _atom_site_occupancy
  Hf  Hf0  1  0.198228  0.801772  0.445464  1
  Hf  Hf1  1  0.198838  0.396087  0.444122  1
  Hf  Hf2  1  0.603913  0.801162  0.444122  1
  Hf  Hf3  1  0.801519  0.198481  0.555201  1
  Hf  Hf4  1  0.802320  0.604606  0.555923  1
  Hf  Hf5  1  0.395394  0.197680  0.555923  1
  Hf  Hf6  1  0.801519  0.198481  0.944799  1
  Hf  Hf7  1  0.802320  0.604606  0.944077  1
  Hf  Hf8  1  0.395394  0.197680  0.944077  1
  Hf  Hf9  1  0.198228  0.801772  0.054536  1
  Hf  Hf10  1  0.198838  0.396087  0.055878  1
  Hf  Hf11  1  0.603913  0.801162  0.055878  1
  Hf  Hf12  1  0.540226  0.080020  0.250000  1
  Hf  Hf13  1  0.919980  0.459774  0.250000  1
  Hf  Hf14  1  0.458446  0.541554  0.750000  1
  Hf  Hf15  1  0.459816  0.918795  0.750000  1
  Hf  Hf16  1  0.081205  0.540184  0.750000  1
  Sc  Sc17  1  0.541778  0.458222  0.250000  1
  Re  Re18  1  0.889511  0.110489  0.250000  1
  Re  Re19  1  0.890727  0.779527  0.250000  1
  Re  Re20  1  0.220473  0.109273  0.250000  1
  Re  Re21  1  0.110108  0.889892  0.750000  1
  Re  Re22  1  0.109500  0.220737  0.750000  1
  Re  Re23  1  0.779263  0.890500  0.750000  1
  Re  Re24  1  0.000079  0.999921  0.499140  1
  Re  Re25  1  0.000079  0.999921  0.000860  1
  Ni  Ni26  1  0.332026  0.667974  0.250000  1
  Ni  Ni27  1  0.666362  0.333638  0.750000  1
