# generated using pymatgen
data_Pr3Y5Cd2IrPd
_symmetry_space_group_name_H-M   'P 1'
_cell_length_a   9.83137644
_cell_length_b   9.83137650
_cell_length_c   9.82984500
_cell_angle_alpha   60.00514956
_cell_angle_beta   60.00514934
_cell_angle_gamma   60.27848924
_symmetry_Int_Tables_number   1
_chemical_formula_structural   Pr3Y5Cd2IrPd
_chemical_formula_sum   'Pr6 Y10 Cd4 Ir2 Pd2'
_cell_volume   673.28662808
_cell_formula_units_Z   2
loop_
 _symmetry_equiv_pos_site_id
 _symmetry_equiv_pos_as_xyz
  1  'x, y, z'
loop_
 _atom_site_type_symbol
 _atom_site_label
 _atom_site_symmetry_multiplicity
 _atom_site_fract_x
 _atom_site_fract_y
 _atom_site_fract_z
 _atom_site_occupancy
  Pr  Pr0  1  0.940087  0.563053  0.558927  1
  Pr  Pr1  1  0.563053  0.940087  0.937933  1
  Pr  Pr2  1  0.563053  0.940087  0.558927  1
  Pr  Pr3  1  0.940087  0.563053  0.937933  1
  Pr  Pr4  1  0.561283  0.561283  0.938717  1
  Pr  Pr5  1  0.939538  0.939538  0.560462  1
  Y  Y6  1  0.350521  0.350521  0.343805  1
  Y  Y7  1  0.350521  0.350521  0.955153  1
  Y  Y8  1  0.357857  0.945365  0.348388  1
  Y  Y9  1  0.945365  0.357857  0.348388  1
  Y  Y10  1  0.806820  0.188050  0.188326  1
  Y  Y11  1  0.188050  0.806820  0.816802  1
  Y  Y12  1  0.188050  0.806820  0.188326  1
  Y  Y13  1  0.806820  0.188050  0.816802  1
  Y  Y14  1  0.188796  0.188796  0.811204  1
  Y  Y15  1  0.813032  0.813032  0.186968  1
  Cd  Cd16  1  0.579686  0.579686  0.580016  1
  Cd  Cd17  1  0.579686  0.579686  0.260613  1
  Cd  Cd18  1  0.578437  0.262613  0.579475  1
  Cd  Cd19  1  0.262613  0.578437  0.579475  1
  Ir  Ir20  1  0.140295  0.573148  0.143279  1
  Ir  Ir21  1  0.573148  0.140295  0.143279  1
  Pd  Pd22  1  0.141600  0.141600  0.145418  1
  Pd  Pd23  1  0.141600  0.141600  0.571383  1
