# generated using pymatgen
data_Ce2In4Bi4Rh
_symmetry_space_group_name_H-M   'P 1'
_cell_length_a   4.74805500
_cell_length_b   4.75066800
_cell_length_c   13.14617600
_cell_angle_alpha   90.00000000
_cell_angle_beta   90.00000000
_cell_angle_gamma   90.00000000
_symmetry_Int_Tables_number   1
_chemical_formula_structural   Ce2In4Bi4Rh
_chemical_formula_sum   'Ce2 In4 Bi4 Rh1'
_cell_volume   296.53083750
_cell_formula_units_Z   1
loop_
 _symmetry_equiv_pos_site_id
 _symmetry_equiv_pos_as_xyz
  1  'x, y, z'
loop_
 _atom_site_type_symbol
 _atom_site_label
 _atom_site_symmetry_multiplicity
 _atom_site_fract_x
 _atom_site_fract_y
 _atom_site_fract_z
 _atom_site_occupancy
  Ce  Ce0  1  0.000000  0.000000  0.303217  1
  Ce  Ce1  1  0.000000  0.000000  0.696783  1
  In  In2  1  0.000000  0.500000  0.112335  1
  In  In3  1  0.000000  0.500000  0.887665  1
  In  In4  1  0.500000  0.000000  0.112423  1
  In  In5  1  0.500000  0.000000  0.887577  1
  Bi  Bi6  1  0.500000  0.500000  0.289054  1
  Bi  Bi7  1  0.500000  0.500000  0.710946  1
  Bi  Bi8  1  0.000000  0.500000  0.500000  1
  Bi  Bi9  1  0.500000  0.000000  0.500000  1
  Rh  Rh10  1  0.000000  0.000000  0.000000  1
