# generated using pymatgen
data_Tm16Al4NiRu3
_symmetry_space_group_name_H-M   'P 1'
_cell_length_a   9.33680082
_cell_length_b   9.36829952
_cell_length_c   9.36830000
_cell_angle_alpha   60.00000537
_cell_angle_beta   59.88834447
_cell_angle_gamma   59.88834867
_symmetry_Int_Tables_number   1
_chemical_formula_structural   Tm16Al4NiRu3
_chemical_formula_sum   'Tm16 Al4 Ni1 Ru3'
_cell_volume   578.45512414
_cell_formula_units_Z   1
loop_
 _symmetry_equiv_pos_site_id
 _symmetry_equiv_pos_as_xyz
  1  'x, y, z'
loop_
 _atom_site_type_symbol
 _atom_site_label
 _atom_site_symmetry_multiplicity
 _atom_site_fract_x
 _atom_site_fract_y
 _atom_site_fract_z
 _atom_site_occupancy
  Tm  Tm0  1  0.352696  0.350298  0.350298  1
  Tm  Tm1  1  0.352696  0.350298  0.946710  1
  Tm  Tm2  1  0.352696  0.946710  0.350298  1
  Tm  Tm3  1  0.947636  0.350788  0.350788  1
  Tm  Tm4  1  0.806319  0.193787  0.193787  1
  Tm  Tm5  1  0.192799  0.805702  0.805702  1
  Tm  Tm6  1  0.192799  0.805702  0.195797  1
  Tm  Tm7  1  0.806319  0.193787  0.806107  1
  Tm  Tm8  1  0.192799  0.195797  0.805702  1
  Tm  Tm9  1  0.806319  0.806107  0.193787  1
  Tm  Tm10  1  0.938783  0.560257  0.560257  1
  Tm  Tm11  1  0.559469  0.937645  0.937645  1
  Tm  Tm12  1  0.559469  0.937645  0.565241  1
  Tm  Tm13  1  0.938783  0.560257  0.940702  1
  Tm  Tm14  1  0.559469  0.565241  0.937645  1
  Tm  Tm15  1  0.938783  0.940702  0.560257  1
  Al  Al16  1  0.576914  0.578070  0.578070  1
  Al  Al17  1  0.576914  0.578070  0.266949  1
  Al  Al18  1  0.576914  0.266949  0.578070  1
  Al  Al19  1  0.265493  0.578169  0.578169  1
  Ni  Ni20  1  0.578188  0.140605  0.140605  1
  Ru  Ru21  1  0.142582  0.139605  0.139605  1
  Ru  Ru22  1  0.142582  0.139605  0.578209  1
  Ru  Ru23  1  0.142582  0.578209  0.139605  1
