# generated using pymatgen
data_Sc4Co17(Si4Tc)3
_symmetry_space_group_name_H-M   'P 1'
_cell_length_a   3.64288100
_cell_length_b   10.47176391
_cell_length_c   12.04236300
_cell_angle_alpha   90.31861538
_cell_angle_beta   90.00000000
_cell_angle_gamma   90.00000000
_symmetry_Int_Tables_number   1
_chemical_formula_structural   Sc4Co17(Si4Tc)3
_chemical_formula_sum   'Sc4 Co17 Si12 Tc3'
_cell_volume   459.37761247
_cell_formula_units_Z   1
loop_
 _symmetry_equiv_pos_site_id
 _symmetry_equiv_pos_as_xyz
  1  'x, y, z'
loop_
 _atom_site_type_symbol
 _atom_site_label
 _atom_site_symmetry_multiplicity
 _atom_site_fract_x
 _atom_site_fract_y
 _atom_site_fract_z
 _atom_site_occupancy
  Sc  Sc0  1  0.250000  0.579166  0.703170  1
  Sc  Sc1  1  0.250000  0.922395  0.202952  1
  Sc  Sc2  1  0.750000  0.420861  0.294435  1
  Sc  Sc3  1  0.750000  0.075092  0.795663  1
  Co  Co4  1  0.750000  0.204308  0.508582  1
  Co  Co5  1  0.250000  0.404808  0.488734  1
  Co  Co6  1  0.250000  0.093390  0.989381  1
  Co  Co7  1  0.750000  0.591462  0.512582  1
  Co  Co8  1  0.750000  0.908072  0.014758  1
  Co  Co9  1  0.250000  0.216526  0.177869  1
  Co  Co10  1  0.250000  0.284306  0.671945  1
  Co  Co11  1  0.750000  0.785978  0.825948  1
  Co  Co12  1  0.750000  0.714331  0.326298  1
  Co  Co13  1  0.250000  0.887278  0.701007  1
  Co  Co14  1  0.250000  0.615301  0.199792  1
  Co  Co15  1  0.750000  0.116707  0.301529  1
  Co  Co16  1  0.750000  0.382515  0.797419  1
  Co  Co17  1  0.250000  0.464560  0.930920  1
  Co  Co18  1  0.250000  0.034989  0.432260  1
  Co  Co19  1  0.750000  0.534460  0.065464  1
  Co  Co20  1  0.750000  0.969122  0.567511  1
  Si  Si21  1  0.250000  0.417840  0.116125  1
  Si  Si22  1  0.250000  0.084616  0.613506  1
  Si  Si23  1  0.750000  0.582160  0.881104  1
  Si  Si24  1  0.750000  0.917993  0.383893  1
  Si  Si25  1  0.250000  0.261817  0.862379  1
  Si  Si26  1  0.250000  0.234501  0.368685  1
  Si  Si27  1  0.750000  0.735839  0.137373  1
  Si  Si28  1  0.750000  0.767564  0.637214  1
  Si  Si29  1  0.250000  0.594732  0.390962  1
  Si  Si30  1  0.250000  0.903700  0.892889  1
  Si  Si31  1  0.750000  0.399169  0.605846  1
  Si  Si32  1  0.750000  0.099175  0.110312  1
  Tc  Tc33  1  0.250000  0.702036  0.992202  1
  Tc  Tc34  1  0.250000  0.795734  0.492147  1
  Tc  Tc35  1  0.750000  0.297501  0.007146  1
