# generated using pymatgen
data_Pr5(Tl2Ir)2
_symmetry_space_group_name_H-M   'P 1'
_cell_length_a   3.82360400
_cell_length_b   8.39714400
_cell_length_c   18.98308700
_cell_angle_alpha   90.00000000
_cell_angle_beta   90.00000000
_cell_angle_gamma   90.00000000
_symmetry_Int_Tables_number   1
_chemical_formula_structural   Pr5(Tl2Ir)2
_chemical_formula_sum   'Pr10 Tl8 Ir4'
_cell_volume   609.49668268
_cell_formula_units_Z   2
loop_
 _symmetry_equiv_pos_site_id
 _symmetry_equiv_pos_as_xyz
  1  'x, y, z'
loop_
 _atom_site_type_symbol
 _atom_site_label
 _atom_site_symmetry_multiplicity
 _atom_site_fract_x
 _atom_site_fract_y
 _atom_site_fract_z
 _atom_site_occupancy
  Pr  Pr0  1  0.000000  0.113609  0.408773  1
  Pr  Pr1  1  0.000000  0.886391  0.591227  1
  Pr  Pr2  1  0.000000  0.386391  0.908773  1
  Pr  Pr3  1  0.000000  0.613609  0.091227  1
  Pr  Pr4  1  0.000000  0.242691  0.220921  1
  Pr  Pr5  1  0.000000  0.757309  0.779079  1
  Pr  Pr6  1  0.000000  0.257309  0.720921  1
  Pr  Pr7  1  0.000000  0.742691  0.279079  1
  Pr  Pr8  1  0.000000  0.000000  0.000000  1
  Pr  Pr9  1  0.000000  0.500000  0.500000  1
  Tl  Tl10  1  0.500000  0.429669  0.350612  1
  Tl  Tl11  1  0.500000  0.570331  0.649388  1
  Tl  Tl12  1  0.500000  0.070331  0.850612  1
  Tl  Tl13  1  0.500000  0.929669  0.149388  1
  Tl  Tl14  1  0.500000  0.291313  0.067599  1
  Tl  Tl15  1  0.500000  0.708687  0.932401  1
  Tl  Tl16  1  0.500000  0.208687  0.567599  1
  Tl  Tl17  1  0.500000  0.791313  0.432401  1
  Ir  Ir18  1  0.500000  0.013180  0.303987  1
  Ir  Ir19  1  0.500000  0.986820  0.696013  1
  Ir  Ir20  1  0.500000  0.486820  0.803987  1
  Ir  Ir21  1  0.500000  0.513180  0.196013  1
