# generated using pymatgen
data_Y8Er9Lu3Sn16
_symmetry_space_group_name_H-M   'P 1'
_cell_length_a   7.97779500
_cell_length_b   8.11739785
_cell_length_c   15.36049900
_cell_angle_alpha   90.00000000
_cell_angle_beta   90.00000000
_cell_angle_gamma   90.02624310
_symmetry_Int_Tables_number   1
_chemical_formula_structural   Y8Er9Lu3Sn16
_chemical_formula_sum   'Y8 Er9 Lu3 Sn16'
_cell_volume   994.72946721
_cell_formula_units_Z   1
loop_
 _symmetry_equiv_pos_site_id
 _symmetry_equiv_pos_as_xyz
  1  'x, y, z'
loop_
 _atom_site_type_symbol
 _atom_site_label
 _atom_site_symmetry_multiplicity
 _atom_site_fract_x
 _atom_site_fract_y
 _atom_site_fract_z
 _atom_site_occupancy
  Y  Y0  1  0.521451  0.320567  0.903052  1
  Y  Y1  1  0.020973  0.179270  0.596956  1
  Y  Y2  1  0.478667  0.679286  0.402966  1
  Y  Y3  1  0.978917  0.820604  0.096968  1
  Y  Y4  1  0.478667  0.679286  0.097034  1
  Y  Y5  1  0.978917  0.820604  0.403032  1
  Y  Y6  1  0.521451  0.320567  0.596948  1
  Y  Y7  1  0.020973  0.179270  0.903044  1
  Er  Er8  1  0.366878  0.837374  0.877373  1
  Er  Er9  1  0.866370  0.662937  0.622762  1
  Er  Er10  1  0.633325  0.162727  0.377137  1
  Er  Er11  1  0.133272  0.337290  0.123158  1
  Er  Er12  1  0.633325  0.162727  0.122863  1
  Er  Er13  1  0.133272  0.337290  0.376842  1
  Er  Er14  1  0.366878  0.837374  0.622627  1
  Er  Er15  1  0.866370  0.662937  0.877238  1
  Er  Er16  1  0.197591  0.503831  0.750000  1
  Lu  Lu17  1  0.697825  0.995692  0.750000  1
  Lu  Lu18  1  0.802350  0.496013  0.250000  1
  Lu  Lu19  1  0.302361  0.004066  0.250000  1
  Sn  Sn20  1  0.294847  0.038467  0.042089  1
  Sn  Sn21  1  0.795026  0.462093  0.457901  1
  Sn  Sn22  1  0.705108  0.961888  0.541868  1
  Sn  Sn23  1  0.204792  0.538171  0.958505  1
  Sn  Sn24  1  0.705108  0.961888  0.958132  1
  Sn  Sn25  1  0.204792  0.538171  0.541495  1
  Sn  Sn26  1  0.294847  0.038467  0.457911  1
  Sn  Sn27  1  0.795026  0.462093  0.042099  1
  Sn  Sn28  1  0.564062  0.619093  0.750000  1
  Sn  Sn29  1  0.063265  0.881551  0.750000  1
  Sn  Sn30  1  0.437179  0.380778  0.250000  1
  Sn  Sn31  1  0.936817  0.119109  0.250000  1
  Sn  Sn32  1  0.330953  0.148133  0.750000  1
  Sn  Sn33  1  0.830260  0.350261  0.750000  1
  Sn  Sn34  1  0.669008  0.850553  0.250000  1
  Sn  Sn35  1  0.169080  0.649570  0.250000  1
