# generated using pymatgen
data_ThSe23
_symmetry_space_group_name_H-M   'P 1'
_cell_length_a   5.23736715
_cell_length_b   10.19426330
_cell_length_c   16.49151900
_cell_angle_alpha   88.31348080
_cell_angle_beta   86.83688808
_cell_angle_gamma   91.83957472
_symmetry_Int_Tables_number   1
_chemical_formula_structural   ThSe23
_chemical_formula_sum   'Th1 Se23'
_cell_volume   878.27619183
_cell_formula_units_Z   1
loop_
 _symmetry_equiv_pos_site_id
 _symmetry_equiv_pos_as_xyz
  1  'x, y, z'
loop_
 _atom_site_type_symbol
 _atom_site_label
 _atom_site_symmetry_multiplicity
 _atom_site_fract_x
 _atom_site_fract_y
 _atom_site_fract_z
 _atom_site_occupancy
  Th  Th0  1  0.593214  0.403310  0.471041  1
  Se  Se1  1  0.588232  0.825093  0.374904  1
  Se  Se2  1  0.009159  0.321426  0.120007  1
  Se  Se3  1  0.829202  0.162923  0.436873  1
  Se  Se4  1  0.301692  0.740074  0.480797  1
  Se  Se5  1  0.240109  0.273667  0.997795  1
  Se  Se6  1  0.746537  0.711415  0.006213  1
  Se  Se7  1  0.113547  0.344175  0.391068  1
  Se  Se8  1  0.835881  0.633185  0.352678  1
  Se  Se9  1  0.757972  0.132993  0.163481  1
  Se  Se10  1  0.249874  0.872875  0.130694  1
  Se  Se11  1  0.701291  0.599520  0.639514  1
  Se  Se12  1  0.164899  0.360383  0.626089  1
  Se  Se13  1  0.233378  0.864050  0.847139  1
  Se  Se14  1  0.745059  0.129060  0.861555  1
  Se  Se15  1  0.016408  0.674031  0.113840  1
  Se  Se16  1  0.497241  0.796308  0.601649  1
  Se  Se17  1  0.464814  0.199240  0.587076  1
  Se  Se18  1  0.983279  0.671373  0.883495  1
  Se  Se19  1  0.985881  0.322982  0.887119  1
  Se  Se20  1  0.536066  0.483520  0.301305  1
  Se  Se21  1  0.032559  0.993689  0.232651  1
  Se  Se22  1  0.386717  0.480185  0.724328  1
  Se  Se23  1  0.986988  0.004519  0.768693  1
