# generated using pymatgen
data_ErScCo3P7Ru9
_symmetry_space_group_name_H-M   'P 1'
_cell_length_a   9.29231000
_cell_length_b   9.29231042
_cell_length_c   3.80053500
_cell_angle_alpha   90.00000000
_cell_angle_beta   90.00000000
_cell_angle_gamma   119.99999852
_symmetry_Int_Tables_number   1
_chemical_formula_structural   ErScCo3P7Ru9
_chemical_formula_sum   'Er1 Sc1 Co3 P7 Ru9'
_cell_volume   284.19914935
_cell_formula_units_Z   1
loop_
 _symmetry_equiv_pos_site_id
 _symmetry_equiv_pos_as_xyz
  1  'x, y, z'
loop_
 _atom_site_type_symbol
 _atom_site_label
 _atom_site_symmetry_multiplicity
 _atom_site_fract_x
 _atom_site_fract_y
 _atom_site_fract_z
 _atom_site_occupancy
  Er  Er0  1  0.333333  0.666667  0.000000  1
  Sc  Sc1  1  0.666667  0.333333  0.500000  1
  Co  Co2  1  0.728800  0.888209  0.000000  1
  Co  Co3  1  0.111791  0.840589  0.000000  1
  Co  Co4  1  0.159411  0.271200  0.000000  1
  P  P5  1  0.599200  0.716165  0.500000  1
  P  P6  1  0.000000  0.000000  0.000000  1
  P  P7  1  0.283835  0.883034  0.500000  1
  P  P8  1  0.116966  0.400800  0.500000  1
  P  P9  1  0.887720  0.585071  0.000000  1
  P  P10  1  0.414929  0.302649  0.000000  1
  P  P11  1  0.697351  0.112280  0.000000  1
  Ru  Ru12  1  0.563779  0.948686  0.500000  1
  Ru  Ru13  1  0.384908  0.436221  0.500000  1
  Ru  Ru14  1  0.914679  0.120393  0.500000  1
  Ru  Ru15  1  0.205714  0.085321  0.500000  1
  Ru  Ru16  1  0.879607  0.794286  0.500000  1
  Ru  Ru17  1  0.427972  0.065662  0.000000  1
  Ru  Ru18  1  0.934338  0.362311  0.000000  1
  Ru  Ru19  1  0.637689  0.572028  0.000000  1
  Ru  Ru20  1  0.051314  0.615092  0.500000  1
