# generated using pymatgen
data_LaTbDy14(CdNi)4
_symmetry_space_group_name_H-M   'P 1'
_cell_length_a   9.55755437
_cell_length_b   9.55738218
_cell_length_c   9.55743016
_cell_angle_alpha   60.08510664
_cell_angle_beta   60.08551711
_cell_angle_gamma   60.06379065
_symmetry_Int_Tables_number   1
_chemical_formula_structural   LaTbDy14(CdNi)4
_chemical_formula_sum   'La1 Tb1 Dy14 Cd4 Ni4'
_cell_volume   618.41519934
_cell_formula_units_Z   1
loop_
 _symmetry_equiv_pos_site_id
 _symmetry_equiv_pos_as_xyz
  1  'x, y, z'
loop_
 _atom_site_type_symbol
 _atom_site_label
 _atom_site_symmetry_multiplicity
 _atom_site_fract_x
 _atom_site_fract_y
 _atom_site_fract_z
 _atom_site_occupancy
  La  La0  1  0.346029  0.346041  0.346003  1
  Tb  Tb1  1  0.936180  0.936180  0.562885  1
  Dy  Dy2  1  0.348751  0.348747  0.950986  1
  Dy  Dy3  1  0.348881  0.950934  0.348690  1
  Dy  Dy4  1  0.950935  0.348880  0.348694  1
  Dy  Dy5  1  0.814398  0.188754  0.188581  1
  Dy  Dy6  1  0.189927  0.811520  0.811566  1
  Dy  Dy7  1  0.188755  0.814396  0.188581  1
  Dy  Dy8  1  0.811522  0.189926  0.811562  1
  Dy  Dy9  1  0.188675  0.188671  0.814451  1
  Dy  Dy10  1  0.811582  0.811579  0.189754  1
  Dy  Dy11  1  0.936710  0.564293  0.564423  1
  Dy  Dy12  1  0.562714  0.936211  0.936360  1
  Dy  Dy13  1  0.564296  0.936704  0.564430  1
  Dy  Dy14  1  0.936212  0.562716  0.936359  1
  Dy  Dy15  1  0.564440  0.564445  0.936661  1
  Cd  Cd16  1  0.580811  0.580806  0.580813  1
  Cd  Cd17  1  0.583023  0.583026  0.255547  1
  Cd  Cd18  1  0.582919  0.255600  0.583058  1
  Cd  Cd19  1  0.255597  0.582918  0.583055  1
  Ni  Ni20  1  0.142939  0.142942  0.142872  1
  Ni  Ni21  1  0.139939  0.139938  0.574851  1
  Ni  Ni22  1  0.139905  0.574864  0.139905  1
  Ni  Ni23  1  0.574859  0.139905  0.139911  1
