# generated using pymatgen
data_AcNd(InHg2)2
_symmetry_space_group_name_H-M   'P 1'
_cell_length_a   5.34252109
_cell_length_b   7.55776100
_cell_length_c   16.24166700
_cell_angle_alpha   90.00000000
_cell_angle_beta   89.87810543
_cell_angle_gamma   90.00000000
_symmetry_Int_Tables_number   1
_chemical_formula_structural   AcNd(InHg2)2
_chemical_formula_sum   'Ac3 Nd3 In6 Hg12'
_cell_volume   655.79638521
_cell_formula_units_Z   3
loop_
 _symmetry_equiv_pos_site_id
 _symmetry_equiv_pos_as_xyz
  1  'x, y, z'
loop_
 _atom_site_type_symbol
 _atom_site_label
 _atom_site_symmetry_multiplicity
 _atom_site_fract_x
 _atom_site_fract_y
 _atom_site_fract_z
 _atom_site_occupancy
  Ac  Ac0  1  0.999920  0.500000  0.994996  1
  Ac  Ac1  1  0.500059  0.000000  0.166707  1
  Ac  Ac2  1  0.000236  0.500000  0.338478  1
  Nd  Nd3  1  0.499968  0.000000  0.505027  1
  Nd  Nd4  1  0.000343  0.500000  0.666817  1
  Nd  Nd5  1  0.500421  0.000000  0.828131  1
  In  In6  1  0.999633  0.000000  0.997199  1
  In  In7  1  0.499871  0.500000  0.166601  1
  In  In8  1  0.999982  0.000000  0.336062  1
  In  In9  1  0.499922  0.500000  0.503484  1
  In  In10  1  0.999988  0.000000  0.666588  1
  In  In11  1  0.499686  0.500000  0.830128  1
  Hg  Hg12  1  0.499903  0.237823  0.992902  1
  Hg  Hg13  1  0.499903  0.762177  0.992902  1
  Hg  Hg14  1  0.999922  0.258333  0.166602  1
  Hg  Hg15  1  0.999922  0.741667  0.166602  1
  Hg  Hg16  1  0.500067  0.237884  0.340484  1
  Hg  Hg17  1  0.500067  0.762116  0.340484  1
  Hg  Hg18  1  0.999845  0.242388  0.506192  1
  Hg  Hg19  1  0.999845  0.757612  0.506192  1
  Hg  Hg20  1  0.500186  0.253442  0.666674  1
  Hg  Hg21  1  0.500186  0.746558  0.666674  1
  Hg  Hg22  1  0.999963  0.242579  0.827036  1
  Hg  Hg23  1  0.999963  0.757421  0.827036  1
