# generated using pymatgen
data_Tm3TlIn3IrRh
_symmetry_space_group_name_H-M   'P 1'
_cell_length_a   7.86246900
_cell_length_b   7.86246934
_cell_length_c   3.79752800
_cell_angle_alpha   90.00000000
_cell_angle_beta   90.00000000
_cell_angle_gamma   120.00000276
_symmetry_Int_Tables_number   1
_chemical_formula_structural   Tm3TlIn3IrRh
_chemical_formula_sum   'Tm3 Tl1 In3 Ir1 Rh1'
_cell_volume   203.30568160
_cell_formula_units_Z   1
loop_
 _symmetry_equiv_pos_site_id
 _symmetry_equiv_pos_as_xyz
  1  'x, y, z'
loop_
 _atom_site_type_symbol
 _atom_site_label
 _atom_site_symmetry_multiplicity
 _atom_site_fract_x
 _atom_site_fract_y
 _atom_site_fract_z
 _atom_site_occupancy
  Tm  Tm0  1  0.037396  0.421440  0.500000  1
  Tm  Tm1  1  0.578560  0.615956  0.500000  1
  Tm  Tm2  1  0.384044  0.962604  0.500000  1
  Tl  Tl3  1  0.666667  0.333333  0.000000  1
  In  In4  1  0.250768  0.256787  0.000000  1
  In  In5  1  0.006019  0.749232  0.000000  1
  In  In6  1  0.743213  0.993981  0.000000  1
  Ir  Ir7  1  0.333333  0.666667  0.000000  1
  Rh  Rh8  1  0.000000  0.000000  0.500000  1
