# generated using pymatgen
data_Hf6Al16Cu2Ir4Au
_symmetry_space_group_name_H-M   'P 1'
_cell_length_a   8.70459761
_cell_length_b   8.74719621
_cell_length_c   8.69679343
_cell_angle_alpha   59.72525442
_cell_angle_beta   60.35389192
_cell_angle_gamma   59.77887537
_symmetry_Int_Tables_number   1
_chemical_formula_structural   Hf6Al16Cu2Ir4Au
_chemical_formula_sum   'Hf6 Al16 Cu2 Ir4 Au1'
_cell_volume   467.69532425
_cell_formula_units_Z   1
loop_
 _symmetry_equiv_pos_site_id
 _symmetry_equiv_pos_as_xyz
  1  'x, y, z'
loop_
 _atom_site_type_symbol
 _atom_site_label
 _atom_site_symmetry_multiplicity
 _atom_site_fract_x
 _atom_site_fract_y
 _atom_site_fract_z
 _atom_site_occupancy
  Hf  Hf0  1  0.683972  0.316028  0.316028  1
  Hf  Hf1  1  0.316028  0.683972  0.683972  1
  Hf  Hf2  1  0.317216  0.680131  0.319869  1
  Hf  Hf3  1  0.682784  0.319869  0.680131  1
  Hf  Hf4  1  0.312264  0.314119  0.685881  1
  Hf  Hf5  1  0.687736  0.685881  0.314119  1
  Al  Al6  1  0.336152  0.332352  0.337377  1
  Al  Al7  1  0.663848  0.667648  0.662623  1
  Al  Al8  1  0.328105  0.342530  0.995515  1
  Al  Al9  1  0.333849  0.995515  0.342530  1
  Al  Al10  1  0.671895  0.657470  0.004485  1
  Al  Al11  1  0.666151  0.004485  0.657470  1
  Al  Al12  1  0.994118  0.337377  0.332352  1
  Al  Al13  1  0.005882  0.662623  0.667648  1
  Al  Al14  1  0.108692  0.118948  0.128306  1
  Al  Al15  1  0.891308  0.881052  0.871694  1
  Al  Al16  1  0.111518  0.125135  0.641212  1
  Al  Al17  1  0.122135  0.641212  0.125135  1
  Al  Al18  1  0.888482  0.874865  0.358788  1
  Al  Al19  1  0.877865  0.358788  0.874865  1
  Al  Al20  1  0.644054  0.128306  0.118948  1
  Al  Al21  1  0.355946  0.871694  0.881052  1
  Cu  Cu22  1  0.000000  0.500000  0.000000  1
  Cu  Cu23  1  0.500000  0.000000  0.500000  1
  Ir  Ir24  1  0.000000  0.500000  0.500000  1
  Ir  Ir25  1  0.000000  0.000000  0.500000  1
  Ir  Ir26  1  0.500000  0.500000  0.000000  1
  Ir  Ir27  1  0.000000  0.000000  0.000000  1
  Au  Au28  1  0.500000  0.000000  0.000000  1
