# generated using pymatgen
data_Tb2Y2Bi3Sb
_symmetry_space_group_name_H-M   'P 1'
_cell_length_a   7.72406854
_cell_length_b   7.72406861
_cell_length_c   7.72406889
_cell_angle_alpha   131.73675642
_cell_angle_beta   131.73676604
_cell_angle_gamma   70.64508407
_symmetry_Int_Tables_number   1
_chemical_formula_structural   Tb2Y2Bi3Sb
_chemical_formula_sum   'Tb2 Y2 Bi3 Sb1'
_cell_volume   251.38251587
_cell_formula_units_Z   1
loop_
 _symmetry_equiv_pos_site_id
 _symmetry_equiv_pos_as_xyz
  1  'x, y, z'
loop_
 _atom_site_type_symbol
 _atom_site_label
 _atom_site_symmetry_multiplicity
 _atom_site_fract_x
 _atom_site_fract_y
 _atom_site_fract_z
 _atom_site_occupancy
  Tb  Tb0  1  0.500000  0.000000  0.500000  1
  Tb  Tb1  1  0.000000  0.500000  0.500000  1
  Y  Y2  1  0.245989  0.245989  0.000000  1
  Y  Y3  1  0.754011  0.754011  0.000000  1
  Bi  Bi4  1  0.500000  0.500000  0.000000  1
  Bi  Bi5  1  0.749999  0.250001  0.500000  1
  Bi  Bi6  1  0.250001  0.749999  0.500000  1
  Sb  Sb7  1  0.000000  0.000000  0.000000  1
