# generated using pymatgen
data_Ho16Tm3LuPt16
_symmetry_space_group_name_H-M   'P 1'
_cell_length_a   7.43461400
_cell_length_b   7.53515500
_cell_length_c   14.66787300
_cell_angle_alpha   90.00000000
_cell_angle_beta   90.00000000
_cell_angle_gamma   90.00349828
_symmetry_Int_Tables_number   1
_chemical_formula_structural   Ho16Tm3LuPt16
_chemical_formula_sum   'Ho16 Tm3 Lu1 Pt16'
_cell_volume   821.70845574
_cell_formula_units_Z   1
loop_
 _symmetry_equiv_pos_site_id
 _symmetry_equiv_pos_as_xyz
  1  'x, y, z'
loop_
 _atom_site_type_symbol
 _atom_site_label
 _atom_site_symmetry_multiplicity
 _atom_site_fract_x
 _atom_site_fract_y
 _atom_site_fract_z
 _atom_site_occupancy
  Ho  Ho0  1  0.656702  0.168233  0.622588  1
  Ho  Ho1  1  0.156456  0.332042  0.877411  1
  Ho  Ho2  1  0.343365  0.831962  0.122501  1
  Ho  Ho3  1  0.843388  0.668068  0.377515  1
  Ho  Ho4  1  0.343365  0.831962  0.377499  1
  Ho  Ho5  1  0.843388  0.668068  0.122485  1
  Ho  Ho6  1  0.656702  0.168233  0.877412  1
  Ho  Ho7  1  0.156456  0.332042  0.622589  1
  Ho  Ho8  1  0.502049  0.679723  0.593270  1
  Ho  Ho9  1  0.001834  0.820075  0.906742  1
  Ho  Ho10  1  0.498030  0.320196  0.093147  1
  Ho  Ho11  1  0.998081  0.179779  0.406855  1
  Ho  Ho12  1  0.498030  0.320196  0.406853  1
  Ho  Ho13  1  0.998081  0.179779  0.093145  1
  Ho  Ho14  1  0.502049  0.679723  0.906730  1
  Ho  Ho15  1  0.001834  0.820075  0.593258  1
  Tm  Tm16  1  0.318926  0.987939  0.750000  1
  Tm  Tm17  1  0.181087  0.487877  0.250000  1
  Tm  Tm18  1  0.681102  0.012119  0.250000  1
  Lu  Lu19  1  0.818786  0.512260  0.750000  1
  Pt  Pt20  1  0.683903  0.968253  0.457925  1
  Pt  Pt21  1  0.183891  0.531745  0.042092  1
  Pt  Pt22  1  0.316138  0.031707  0.957887  1
  Pt  Pt23  1  0.816129  0.468269  0.542229  1
  Pt  Pt24  1  0.316138  0.031707  0.542113  1
  Pt  Pt25  1  0.816129  0.468269  0.957771  1
  Pt  Pt26  1  0.683903  0.968253  0.042075  1
  Pt  Pt27  1  0.183891  0.531745  0.457908  1
  Pt  Pt28  1  0.454800  0.388567  0.750000  1
  Pt  Pt29  1  0.954105  0.111897  0.750000  1
  Pt  Pt30  1  0.545781  0.611696  0.250000  1
  Pt  Pt31  1  0.045794  0.888370  0.250000  1
  Pt  Pt32  1  0.681845  0.854861  0.750000  1
  Pt  Pt33  1  0.180990  0.644260  0.750000  1
  Pt  Pt34  1  0.318450  0.144522  0.250000  1
  Pt  Pt35  1  0.818400  0.355528  0.250000  1
