# generated using pymatgen
data_SrVAsF12
_symmetry_space_group_name_H-M   'P 1'
_cell_length_a   11.60831455
_cell_length_b   5.93890847
_cell_length_c   5.97631544
_cell_angle_alpha   57.29036624
_cell_angle_beta   55.91510239
_cell_angle_gamma   56.30552952
_symmetry_Int_Tables_number   1
_chemical_formula_structural   SrVAsF12
_chemical_formula_sum   'Sr1 V1 As1 F12'
_cell_volume   267.70085684
_cell_formula_units_Z   1
loop_
 _symmetry_equiv_pos_site_id
 _symmetry_equiv_pos_as_xyz
  1  'x, y, z'
loop_
 _atom_site_type_symbol
 _atom_site_label
 _atom_site_symmetry_multiplicity
 _atom_site_fract_x
 _atom_site_fract_y
 _atom_site_fract_z
 _atom_site_occupancy
  Sr  Sr0  1  0.746099  0.503960  0.501624  1
  V  V1  1  0.017427  0.984704  0.990335  1
  As  As2  1  0.486019  0.013381  0.006525  1
  F  F3  1  0.165525  0.109508  0.775535  1
  F  F4  1  0.655605  0.097402  0.802326  1
  F  F5  1  0.059916  0.793226  0.301480  1
  F  F6  1  0.548203  0.804850  0.303993  1
  F  F7  1  0.112666  0.684683  0.880416  1
  F  F8  1  0.602671  0.693325  0.902417  1
  F  F9  1  0.448548  0.198102  0.694230  1
  F  F10  1  0.940973  0.209299  0.699051  1
  F  F11  1  0.335748  0.901103  0.212651  1
  F  F12  1  0.845139  0.884320  0.208625  1
  F  F13  1  0.391998  0.317037  0.104276  1
  F  F14  1  0.893463  0.305102  0.116517  1
