# generated using pymatgen
data_Sr3Yb7(Mn2N7)2
_symmetry_space_group_name_H-M   'P 1'
_cell_length_a   6.01004622
_cell_length_b   8.59686951
_cell_length_c   8.73288035
_cell_angle_alpha   115.30504588
_cell_angle_beta   97.12449390
_cell_angle_gamma   90.02246127
_symmetry_Int_Tables_number   1
_chemical_formula_structural   Sr3Yb7(Mn2N7)2
_chemical_formula_sum   'Sr3 Yb7 Mn4 N14'
_cell_volume   404.04383239
_cell_formula_units_Z   1
loop_
 _symmetry_equiv_pos_site_id
 _symmetry_equiv_pos_as_xyz
  1  'x, y, z'
loop_
 _atom_site_type_symbol
 _atom_site_label
 _atom_site_symmetry_multiplicity
 _atom_site_fract_x
 _atom_site_fract_y
 _atom_site_fract_z
 _atom_site_occupancy
  Sr  Sr0  1  0.880091  0.838809  0.762858  1
  Sr  Sr1  1  0.117903  0.163039  0.237955  1
  Sr  Sr2  1  0.722993  0.009218  0.416233  1
  Yb  Yb3  1  0.836159  0.585371  0.318516  1
  Yb  Yb4  1  0.262658  0.979942  0.567449  1
  Yb  Yb5  1  0.718176  0.416622  0.852043  1
  Yb  Yb6  1  0.286946  0.580658  0.148331  1
  Yb  Yb7  1  0.408946  0.787929  0.930746  1
  Yb  Yb8  1  0.593712  0.211266  0.075000  1
  Yb  Yb9  1  0.162827  0.405440  0.683217  1
  Mn  Mn10  1  0.573748  0.373296  0.487451  1
  Mn  Mn11  1  0.412331  0.634169  0.517531  1
  Mn  Mn12  1  0.129368  0.219656  0.907445  1
  Mn  Mn13  1  0.884300  0.775855  0.089714  1
  N  N14  1  0.532335  0.566781  0.682357  1
  N  N15  1  0.452881  0.438346  0.322225  1
  N  N16  1  0.148186  0.692727  0.543628  1
  N  N17  1  0.840641  0.324611  0.454843  1
  N  N18  1  0.415272  0.209696  0.495766  1
  N  N19  1  0.570740  0.797549  0.513813  1
  N  N20  1  0.964942  0.155359  0.710388  1
  N  N21  1  0.064081  0.843181  0.282013  1
  N  N22  1  0.245170  0.045541  0.938669  1
  N  N23  1  0.761362  0.952838  0.063436  1
  N  N24  1  0.367326  0.334271  0.903748  1
  N  N25  1  0.969745  0.347539  0.070254  1
  N  N26  1  0.032180  0.645586  0.922207  1
  N  N27  1  0.644982  0.664707  0.102161  1
