# generated using pymatgen
data_Tb16MgCd3RuPt3
_symmetry_space_group_name_H-M   'P 1'
_cell_length_a   9.76569786
_cell_length_b   9.76569787
_cell_length_c   9.76569852
_cell_angle_alpha   59.61225924
_cell_angle_beta   59.61226563
_cell_angle_gamma   59.61226064
_symmetry_Int_Tables_number   1
_chemical_formula_structural   Tb16MgCd3RuPt3
_chemical_formula_sum   'Tb16 Mg1 Cd3 Ru1 Pt3'
_cell_volume   652.75595189
_cell_formula_units_Z   1
loop_
 _symmetry_equiv_pos_site_id
 _symmetry_equiv_pos_as_xyz
  1  'x, y, z'
loop_
 _atom_site_type_symbol
 _atom_site_label
 _atom_site_symmetry_multiplicity
 _atom_site_fract_x
 _atom_site_fract_y
 _atom_site_fract_z
 _atom_site_occupancy
  Tb  Tb0  1  0.351396  0.351396  0.351396  1
  Tb  Tb1  1  0.348357  0.348357  0.950502  1
  Tb  Tb2  1  0.348357  0.950502  0.348357  1
  Tb  Tb3  1  0.950502  0.348357  0.348357  1
  Tb  Tb4  1  0.814701  0.189240  0.189240  1
  Tb  Tb5  1  0.187684  0.810708  0.810708  1
  Tb  Tb6  1  0.189240  0.814701  0.189240  1
  Tb  Tb7  1  0.810708  0.187684  0.810708  1
  Tb  Tb8  1  0.189240  0.189240  0.814701  1
  Tb  Tb9  1  0.810708  0.810708  0.187684  1
  Tb  Tb10  1  0.936802  0.565901  0.565901  1
  Tb  Tb11  1  0.560669  0.936581  0.936581  1
  Tb  Tb12  1  0.565901  0.936802  0.565901  1
  Tb  Tb13  1  0.936581  0.560669  0.936581  1
  Tb  Tb14  1  0.565901  0.565901  0.936802  1
  Tb  Tb15  1  0.936581  0.936581  0.560669  1
  Mg  Mg16  1  0.577835  0.577835  0.577835  1
  Cd  Cd17  1  0.581114  0.581114  0.254379  1
  Cd  Cd18  1  0.581114  0.254379  0.581114  1
  Cd  Cd19  1  0.254379  0.581114  0.581114  1
  Ru  Ru20  1  0.143137  0.143137  0.143137  1
  Pt  Pt21  1  0.143525  0.143525  0.572048  1
  Pt  Pt22  1  0.143525  0.572048  0.143525  1
  Pt  Pt23  1  0.572048  0.143525  0.143525  1
