# generated using pymatgen
data_TbSb16
_symmetry_space_group_name_H-M   'P 1'
_cell_length_a   4.29393748
_cell_length_b   4.29393621
_cell_length_c   32.78605800
_cell_angle_alpha   86.24534471
_cell_angle_beta   86.24534582
_cell_angle_gamma   60.00000736
_symmetry_Int_Tables_number   1
_chemical_formula_structural   TbSb16
_chemical_formula_sum   'Tb1 Sb16'
_cell_volume   522.01869154
_cell_formula_units_Z   1
loop_
 _symmetry_equiv_pos_site_id
 _symmetry_equiv_pos_as_xyz
  1  'x, y, z'
loop_
 _atom_site_type_symbol
 _atom_site_label
 _atom_site_symmetry_multiplicity
 _atom_site_fract_x
 _atom_site_fract_y
 _atom_site_fract_z
 _atom_site_occupancy
  Tb  Tb0  1  0.000000  0.000000  0.000000  1
  Sb  Sb1  1  0.291971  0.291971  0.124088  1
  Sb  Sb2  1  0.708029  0.708029  0.875912  1
  Sb  Sb3  1  0.236200  0.236200  0.291397  1
  Sb  Sb4  1  0.763800  0.763800  0.708603  1
  Sb  Sb5  1  0.469233  0.469233  0.592301  1
  Sb  Sb6  1  0.530767  0.530767  0.407699  1
  Sb  Sb7  1  0.352848  0.352848  0.941456  1
  Sb  Sb8  1  0.647152  0.647152  0.058544  1
  Sb  Sb9  1  0.058348  0.058348  0.824957  1
  Sb  Sb10  1  0.941652  0.941652  0.175043  1
  Sb  Sb11  1  0.414147  0.414147  0.757560  1
  Sb  Sb12  1  0.585853  0.585853  0.242440  1
  Sb  Sb13  1  0.119907  0.119907  0.640278  1
  Sb  Sb14  1  0.880093  0.880093  0.359722  1
  Sb  Sb15  1  0.174618  0.174618  0.476145  1
  Sb  Sb16  1  0.825382  0.825382  0.523855  1
