# generated using pymatgen
data_Sc4Co16SiMo4P11
_symmetry_space_group_name_H-M   'P 1'
_cell_length_a   3.65637300
_cell_length_b   10.30248042
_cell_length_c   11.77523748
_cell_angle_alpha   89.96735618
_cell_angle_beta   90.00000000
_cell_angle_gamma   90.00000000
_symmetry_Int_Tables_number   1
_chemical_formula_structural   Sc4Co16SiMo4P11
_chemical_formula_sum   'Sc4 Co16 Si1 Mo4 P11'
_cell_volume   443.56972350
_cell_formula_units_Z   1
loop_
 _symmetry_equiv_pos_site_id
 _symmetry_equiv_pos_as_xyz
  1  'x, y, z'
loop_
 _atom_site_type_symbol
 _atom_site_label
 _atom_site_symmetry_multiplicity
 _atom_site_fract_x
 _atom_site_fract_y
 _atom_site_fract_z
 _atom_site_occupancy
  Sc  Sc0  1  0.250000  0.582538  0.705508  1
  Sc  Sc1  1  0.250000  0.917563  0.205090  1
  Sc  Sc2  1  0.750000  0.418086  0.296229  1
  Sc  Sc3  1  0.750000  0.082756  0.794775  1
  Co  Co4  1  0.250000  0.407534  0.486605  1
  Co  Co5  1  0.250000  0.091780  0.985778  1
  Co  Co6  1  0.750000  0.592594  0.513734  1
  Co  Co7  1  0.750000  0.907207  0.013829  1
  Co  Co8  1  0.250000  0.214760  0.178671  1
  Co  Co9  1  0.250000  0.278124  0.677914  1
  Co  Co10  1  0.750000  0.778457  0.821723  1
  Co  Co11  1  0.750000  0.722336  0.322777  1
  Co  Co12  1  0.250000  0.887671  0.701517  1
  Co  Co13  1  0.250000  0.617321  0.202413  1
  Co  Co14  1  0.750000  0.111237  0.299428  1
  Co  Co15  1  0.750000  0.387023  0.797488  1
  Co  Co16  1  0.250000  0.466270  0.929043  1
  Co  Co17  1  0.250000  0.034958  0.432720  1
  Co  Co18  1  0.750000  0.537340  0.066272  1
  Co  Co19  1  0.750000  0.965048  0.567973  1
  Si  Si20  1  0.250000  0.419848  0.118851  1
  Mo  Mo21  1  0.250000  0.710913  0.987520  1
  Mo  Mo22  1  0.250000  0.789398  0.487852  1
  Mo  Mo23  1  0.750000  0.289087  0.011752  1
  Mo  Mo24  1  0.750000  0.210697  0.512302  1
  P  P25  1  0.250000  0.079487  0.617964  1
  P  P26  1  0.750000  0.579174  0.881907  1
  P  P27  1  0.750000  0.920548  0.382368  1
  P  P28  1  0.250000  0.264795  0.863973  1
  P  P29  1  0.250000  0.235533  0.363130  1
  P  P30  1  0.750000  0.735272  0.136650  1
  P  P31  1  0.750000  0.764303  0.636360  1
  P  P32  1  0.250000  0.592715  0.388856  1
  P  P33  1  0.250000  0.907473  0.889107  1
  P  P34  1  0.750000  0.407552  0.610910  1
  P  P35  1  0.750000  0.092605  0.111012  1
