# generated using pymatgen
data_KLi2ScV2O8
_symmetry_space_group_name_H-M   'P 1'
_cell_length_a   5.21767281
_cell_length_b   8.90942346
_cell_length_c   8.90032400
_cell_angle_alpha   61.04528493
_cell_angle_beta   72.95561232
_cell_angle_gamma   73.00019085
_symmetry_Int_Tables_number   1
_chemical_formula_structural   KLi2ScV2O8
_chemical_formula_sum   'K2 Li4 Sc2 V4 O16'
_cell_volume   340.48185943
_cell_formula_units_Z   2
loop_
 _symmetry_equiv_pos_site_id
 _symmetry_equiv_pos_as_xyz
  1  'x, y, z'
loop_
 _atom_site_type_symbol
 _atom_site_label
 _atom_site_symmetry_multiplicity
 _atom_site_fract_x
 _atom_site_fract_y
 _atom_site_fract_z
 _atom_site_occupancy
  K  K0  1  0.749990  0.250000  0.249982  1
  K  K1  1  0.249991  0.749992  0.749992  1
  Li  Li2  1  0.623290  0.709786  0.043472  1
  Li  Li3  1  0.123347  0.209832  0.543395  1
  Li  Li4  1  0.376652  0.290153  0.956630  1
  Li  Li5  1  0.876701  0.790209  0.456518  1
  Sc  Sc6  1  0.499959  0.500073  0.499927  1
  Sc  Sc7  1  0.999952  0.999970  0.000142  1
  V  V8  1  0.126546  0.540141  0.206882  1
  V  V9  1  0.626586  0.040123  0.706794  1
  V  V10  1  0.873496  0.459871  0.793119  1
  V  V11  1  0.373533  0.959867  0.293096  1
  O  O12  1  0.243460  0.423509  0.090029  1
  O  O13  1  0.743465  0.923476  0.590011  1
  O  O14  1  0.756518  0.576525  0.909995  1
  O  O15  1  0.256504  0.076469  0.410031  1
  O  O16  1  0.771692  0.255695  0.920087  1
  O  O17  1  0.271809  0.755669  0.420193  1
  O  O18  1  0.230926  0.434193  0.742112  1
  O  O19  1  0.730790  0.934298  0.242028  1
  O  O20  1  0.733964  0.574641  0.601339  1
  O  O21  1  0.233858  0.074601  0.101352  1
  O  O22  1  0.228175  0.744363  0.079812  1
  O  O23  1  0.728355  0.244280  0.579892  1
  O  O24  1  0.769199  0.565734  0.257937  1
  O  O25  1  0.269113  0.065805  0.757869  1
  O  O26  1  0.266086  0.425370  0.398714  1
  O  O27  1  0.766040  0.925354  0.898648  1
