# generated using pymatgen
data_Dy2Y3Bi2Ru
_symmetry_space_group_name_H-M   'P 1'
_cell_length_a   8.00184200
_cell_length_b   9.02796600
_cell_length_c   12.50782100
_cell_angle_alpha   90.00000000
_cell_angle_beta   90.00092724
_cell_angle_gamma   90.00000000
_symmetry_Int_Tables_number   1
_chemical_formula_structural   Dy2Y3Bi2Ru
_chemical_formula_sum   'Dy8 Y12 Bi8 Ru4'
_cell_volume   903.56946069
_cell_formula_units_Z   4
loop_
 _symmetry_equiv_pos_site_id
 _symmetry_equiv_pos_as_xyz
  1  'x, y, z'
loop_
 _atom_site_type_symbol
 _atom_site_label
 _atom_site_symmetry_multiplicity
 _atom_site_fract_x
 _atom_site_fract_y
 _atom_site_fract_z
 _atom_site_occupancy
  Dy  Dy0  1  0.674946  0.039895  0.563876  1
  Dy  Dy1  1  0.325054  0.960105  0.436124  1
  Dy  Dy2  1  0.174949  0.960122  0.936115  1
  Dy  Dy3  1  0.325054  0.539895  0.436124  1
  Dy  Dy4  1  0.825051  0.039878  0.063885  1
  Dy  Dy5  1  0.674946  0.460105  0.563876  1
  Dy  Dy6  1  0.825051  0.460122  0.063885  1
  Dy  Dy7  1  0.174949  0.539878  0.936115  1
  Y  Y8  1  0.843150  0.750000  0.792961  1
  Y  Y9  1  0.156850  0.250000  0.207039  1
  Y  Y10  1  0.343168  0.250000  0.707008  1
  Y  Y11  1  0.656832  0.750000  0.292992  1
  Y  Y12  1  0.373526  0.750000  0.692823  1
  Y  Y13  1  0.626474  0.250000  0.307177  1
  Y  Y14  1  0.873509  0.250000  0.807166  1
  Y  Y15  1  0.126491  0.750000  0.192834  1
  Y  Y16  1  0.948550  0.750000  0.504083  1
  Y  Y17  1  0.051450  0.250000  0.495917  1
  Y  Y18  1  0.448550  0.250000  0.995926  1
  Y  Y19  1  0.551450  0.750000  0.004074  1
  Bi  Bi20  1  0.568996  0.493729  0.827413  1
  Bi  Bi21  1  0.431004  0.506271  0.172587  1
  Bi  Bi22  1  0.068981  0.506268  0.672580  1
  Bi  Bi23  1  0.431004  0.993729  0.172587  1
  Bi  Bi24  1  0.931019  0.493732  0.327420  1
  Bi  Bi25  1  0.568996  0.006271  0.827413  1
  Bi  Bi26  1  0.931019  0.006268  0.327420  1
  Bi  Bi27  1  0.068981  0.993732  0.672580  1
  Ru  Ru28  1  0.571185  0.750000  0.510631  1
  Ru  Ru29  1  0.428815  0.250000  0.489369  1
  Ru  Ru30  1  0.071142  0.250000  0.989389  1
  Ru  Ru31  1  0.928858  0.750000  0.010611  1
