# generated using pymatgen
data_Mg5ScNi2(BIr2)4
_symmetry_space_group_name_H-M   'P 1'
_cell_length_a   2.99407400
_cell_length_b   9.39349092
_cell_length_c   9.39383691
_cell_angle_alpha   90.46672792
_cell_angle_beta   90.00000000
_cell_angle_gamma   90.00000000
_symmetry_Int_Tables_number   1
_chemical_formula_structural   Mg5ScNi2(BIr2)4
_chemical_formula_sum   'Mg5 Sc1 Ni2 B4 Ir8'
_cell_volume   264.19108389
_cell_formula_units_Z   1
loop_
 _symmetry_equiv_pos_site_id
 _symmetry_equiv_pos_as_xyz
  1  'x, y, z'
loop_
 _atom_site_type_symbol
 _atom_site_label
 _atom_site_symmetry_multiplicity
 _atom_site_fract_x
 _atom_site_fract_y
 _atom_site_fract_z
 _atom_site_occupancy
  Mg  Mg0  1  0.000000  0.181276  0.681447  1
  Mg  Mg1  1  0.000000  0.818572  0.318717  1
  Mg  Mg2  1  0.000000  0.318437  0.181508  1
  Mg  Mg3  1  0.000000  0.000947  0.999851  1
  Mg  Mg4  1  0.000000  0.500136  0.499074  1
  Sc  Sc5  1  0.000000  0.679736  0.820282  1
  Ni  Ni6  1  0.500000  0.999790  0.500211  1
  Ni  Ni7  1  0.500000  0.499745  0.000265  1
  B  B8  1  0.000000  0.617455  0.117372  1
  B  B9  1  0.000000  0.382627  0.882558  1
  B  B10  1  0.000000  0.880466  0.619530  1
  B  B11  1  0.000000  0.121509  0.378489  1
  Ir  Ir12  1  0.500000  0.057073  0.228590  1
  Ir  Ir13  1  0.500000  0.940789  0.771725  1
  Ir  Ir14  1  0.500000  0.772689  0.060600  1
  Ir  Ir15  1  0.500000  0.439409  0.727307  1
  Ir  Ir16  1  0.500000  0.227542  0.937889  1
  Ir  Ir17  1  0.500000  0.562102  0.272472  1
  Ir  Ir18  1  0.500000  0.728276  0.559199  1
  Ir  Ir19  1  0.500000  0.271423  0.442914  1
