# generated using pymatgen
data_Yb16ErPa3Pt16
_symmetry_space_group_name_H-M   'P 1'
_cell_length_a   7.51686368
_cell_length_b   7.58015917
_cell_length_c   14.55792017
_cell_angle_alpha   90.13110860
_cell_angle_beta   89.98462652
_cell_angle_gamma   90.01648439
_symmetry_Int_Tables_number   1
_chemical_formula_structural   Yb16ErPa3Pt16
_chemical_formula_sum   'Yb16 Er1 Pa3 Pt16'
_cell_volume   829.49383539
_cell_formula_units_Z   1
loop_
 _symmetry_equiv_pos_site_id
 _symmetry_equiv_pos_as_xyz
  1  'x, y, z'
loop_
 _atom_site_type_symbol
 _atom_site_label
 _atom_site_symmetry_multiplicity
 _atom_site_fract_x
 _atom_site_fract_y
 _atom_site_fract_z
 _atom_site_occupancy
  Yb  Yb0  1  0.357675  0.835151  0.379169  1
  Yb  Yb1  1  0.858707  0.663066  0.121091  1
  Yb  Yb2  1  0.639099  0.165485  0.880004  1
  Yb  Yb3  1  0.140839  0.332547  0.620866  1
  Yb  Yb4  1  0.485694  0.672585  0.592560  1
  Yb  Yb5  1  0.984758  0.824834  0.906750  1
  Yb  Yb6  1  0.515675  0.325444  0.096384  1
  Yb  Yb7  1  0.013359  0.182256  0.405139  1
  Yb  Yb8  1  0.512718  0.322143  0.402724  1
  Yb  Yb9  1  0.004526  0.181932  0.098243  1
  Yb  Yb10  1  0.493421  0.683414  0.903289  1
  Yb  Yb11  1  0.992214  0.813724  0.593049  1
  Yb  Yb12  1  0.801632  0.511679  0.749374  1
  Yb  Yb13  1  0.300776  0.985302  0.750171  1
  Yb  Yb14  1  0.192060  0.489549  0.251393  1
  Yb  Yb15  1  0.701550  0.008239  0.252035  1
  Er  Er16  1  0.858674  0.659572  0.376867  1
  Pa  Pa17  1  0.643956  0.154757  0.623851  1
  Pa  Pa18  1  0.145344  0.344057  0.876828  1
  Pa  Pa19  1  0.353998  0.844531  0.123737  1
  Pt  Pt20  1  0.703420  0.967056  0.464351  1
  Pt  Pt21  1  0.207806  0.546309  0.036274  1
  Pt  Pt22  1  0.290422  0.048013  0.963804  1
  Pt  Pt23  1  0.795944  0.446089  0.541439  1
  Pt  Pt24  1  0.328030  0.035179  0.546248  1
  Pt  Pt25  1  0.832107  0.461328  0.954213  1
  Pt  Pt26  1  0.664963  0.957643  0.044668  1
  Pt  Pt27  1  0.178634  0.533662  0.456510  1
  Pt  Pt28  1  0.441541  0.370608  0.744437  1
  Pt  Pt29  1  0.942872  0.128723  0.758236  1
  Pt  Pt30  1  0.552592  0.628011  0.241191  1
  Pt  Pt31  1  0.066538  0.876089  0.247793  1
  Pt  Pt32  1  0.675803  0.871507  0.741705  1
  Pt  Pt33  1  0.172141  0.627342  0.757737  1
  Pt  Pt34  1  0.335035  0.133620  0.244435  1
  Pt  Pt35  1  0.815476  0.368555  0.253433  1
