# generated using pymatgen
data_K8Tb3GdF20
_symmetry_space_group_name_H-M   'P 1'
_cell_length_a   6.71498616
_cell_length_b   7.36113200
_cell_length_c   11.03983926
_cell_angle_alpha   90.00000000
_cell_angle_beta   90.02497704
_cell_angle_gamma   90.00000000
_symmetry_Int_Tables_number   1
_chemical_formula_structural   K8Tb3GdF20
_chemical_formula_sum   'K8 Tb3 Gd1 F20'
_cell_volume   545.69809336
_cell_formula_units_Z   1
loop_
 _symmetry_equiv_pos_site_id
 _symmetry_equiv_pos_as_xyz
  1  'x, y, z'
loop_
 _atom_site_type_symbol
 _atom_site_label
 _atom_site_symmetry_multiplicity
 _atom_site_fract_x
 _atom_site_fract_y
 _atom_site_fract_z
 _atom_site_occupancy
  K  K0  1  0.528231  0.497351  0.827935  1
  K  K1  1  0.471692  0.502318  0.172059  1
  K  K2  1  0.028269  0.502195  0.672328  1
  K  K3  1  0.471692  0.997682  0.172059  1
  K  K4  1  0.971884  0.497274  0.327692  1
  K  K5  1  0.528231  0.002649  0.827935  1
  K  K6  1  0.971884  0.002726  0.327692  1
  K  K7  1  0.028269  0.997805  0.672328  1
  Tb  Tb8  1  0.434723  0.250000  0.498333  1
  Tb  Tb9  1  0.064728  0.250000  0.998409  1
  Tb  Tb10  1  0.935229  0.750000  0.001643  1
  Gd  Gd11  1  0.564917  0.750000  0.501818  1
  F  F12  1  0.835191  0.750000  0.808442  1
  F  F13  1  0.164654  0.250000  0.191437  1
  F  F14  1  0.335102  0.250000  0.691516  1
  F  F15  1  0.666104  0.750000  0.306548  1
  F  F16  1  0.364456  0.750000  0.664764  1
  F  F17  1  0.633246  0.250000  0.337173  1
  F  F18  1  0.866841  0.250000  0.837215  1
  F  F19  1  0.133214  0.750000  0.162844  1
  F  F20  1  0.898244  0.750000  0.512729  1
  F  F21  1  0.105486  0.250000  0.487248  1
  F  F22  1  0.394071  0.250000  0.987100  1
  F  F23  1  0.605925  0.750000  0.012849  1
  F  F24  1  0.644115  0.036254  0.579243  1
  F  F25  1  0.354779  0.968833  0.420694  1
  F  F26  1  0.143121  0.966589  0.921703  1
  F  F27  1  0.354779  0.531167  0.420694  1
  F  F28  1  0.856843  0.033437  0.078310  1
  F  F29  1  0.644115  0.463746  0.579243  1
  F  F30  1  0.856843  0.466563  0.078310  1
  F  F31  1  0.143121  0.533411  0.921703  1
