# generated using pymatgen
data_DyTm3Si4OsRh3
_symmetry_space_group_name_H-M   'P 1'
_cell_length_a   4.26555300
_cell_length_b   6.86296603
_cell_length_c   7.27405241
_cell_angle_alpha   90.38421608
_cell_angle_beta   90.00000000
_cell_angle_gamma   90.00000000
_symmetry_Int_Tables_number   1
_chemical_formula_structural   DyTm3Si4OsRh3
_chemical_formula_sum   'Dy1 Tm3 Si4 Os1 Rh3'
_cell_volume   212.93833455
_cell_formula_units_Z   1
loop_
 _symmetry_equiv_pos_site_id
 _symmetry_equiv_pos_as_xyz
  1  'x, y, z'
loop_
 _atom_site_type_symbol
 _atom_site_label
 _atom_site_symmetry_multiplicity
 _atom_site_fract_x
 _atom_site_fract_y
 _atom_site_fract_z
 _atom_site_occupancy
  Dy  Dy0  1  0.250000  0.993026  0.311888  1
  Tm  Tm1  1  0.250000  0.497583  0.186192  1
  Tm  Tm2  1  0.750000  0.503570  0.813111  1
  Tm  Tm3  1  0.750000  0.004437  0.691743  1
  Si  Si4  1  0.250000  0.795009  0.885659  1
  Si  Si5  1  0.750000  0.204704  0.106220  1
  Si  Si6  1  0.750000  0.701783  0.401187  1
  Si  Si7  1  0.250000  0.300486  0.606684  1
  Os  Os8  1  0.250000  0.654850  0.567913  1
  Rh  Rh9  1  0.750000  0.343884  0.432909  1
  Rh  Rh10  1  0.750000  0.842164  0.066713  1
  Rh  Rh11  1  0.250000  0.158503  0.929782  1
