# generated using pymatgen
data_Ho4ErReOsC7
_symmetry_space_group_name_H-M   'P 1'
_cell_length_a   8.21682677
_cell_length_b   8.21556678
_cell_length_c   3.45438000
_cell_angle_alpha   90.00000000
_cell_angle_beta   90.00000000
_cell_angle_gamma   122.22864796
_symmetry_Int_Tables_number   1
_chemical_formula_structural   Ho4ErReOsC7
_chemical_formula_sum   'Ho4 Er1 Re1 Os1 C7'
_cell_volume   197.26246898
_cell_formula_units_Z   1
loop_
 _symmetry_equiv_pos_site_id
 _symmetry_equiv_pos_as_xyz
  1  'x, y, z'
loop_
 _atom_site_type_symbol
 _atom_site_label
 _atom_site_symmetry_multiplicity
 _atom_site_fract_x
 _atom_site_fract_y
 _atom_site_fract_z
 _atom_site_occupancy
  Ho  Ho0  1  0.500445  0.499127  0.000000  1
  Ho  Ho1  1  0.075594  0.336159  0.500000  1
  Ho  Ho2  1  0.922684  0.663026  0.500000  1
  Ho  Ho3  1  0.663649  0.924623  0.500000  1
  Er  Er4  1  0.337946  0.077820  0.500000  1
  Re  Re5  1  0.285048  0.715148  0.000000  1
  Os  Os6  1  0.713039  0.286819  0.000000  1
  C  C7  1  0.630210  0.369210  0.500000  1
  C  C8  1  0.374494  0.625521  0.500000  1
  C  C9  1  0.999600  0.000310  0.000000  1
  C  C10  1  0.171269  0.170832  0.000000  1
  C  C11  1  0.828660  0.829389  0.000000  1
  C  C12  1  0.999089  0.501073  0.000000  1
  C  C13  1  0.498274  0.000943  0.000000  1
