# generated using pymatgen
data_TbY3Al18(CoPt2)2
_symmetry_space_group_name_H-M   'P 1'
_cell_length_a   7.54936000
_cell_length_b   7.54945642
_cell_length_c   9.41011200
_cell_angle_alpha   90.00127748
_cell_angle_beta   90.00180425
_cell_angle_gamma   119.39300491
_symmetry_Int_Tables_number   1
_chemical_formula_structural   TbY3Al18(CoPt2)2
_chemical_formula_sum   'Tb1 Y3 Al18 Co2 Pt4'
_cell_volume   467.27789183
_cell_formula_units_Z   1
loop_
 _symmetry_equiv_pos_site_id
 _symmetry_equiv_pos_as_xyz
  1  'x, y, z'
loop_
 _atom_site_type_symbol
 _atom_site_label
 _atom_site_symmetry_multiplicity
 _atom_site_fract_x
 _atom_site_fract_y
 _atom_site_fract_z
 _atom_site_occupancy
  Tb  Tb0  1  0.993887  0.672963  0.250225  1
  Y  Y1  1  0.006109  0.326959  0.750224  1
  Y  Y2  1  0.672980  0.993906  0.249773  1
  Y  Y3  1  0.327009  0.006137  0.749775  1
  Al  Al4  1  0.136756  0.136737  0.250001  1
  Al  Al5  1  0.863309  0.863325  0.750001  1
  Al  Al6  1  0.340572  0.333464  0.551965  1
  Al  Al7  1  0.659372  0.666530  0.051922  1
  Al  Al8  1  0.333467  0.340571  0.948034  1
  Al  Al9  1  0.666466  0.659412  0.448088  1
  Al  Al10  1  0.340338  0.553604  0.242671  1
  Al  Al11  1  0.659642  0.446340  0.742676  1
  Al  Al12  1  0.553593  0.340331  0.257332  1
  Al  Al13  1  0.446355  0.659662  0.757325  1
  Al  Al14  1  0.008038  0.344379  0.074518  1
  Al  Al15  1  0.991955  0.655544  0.574582  1
  Al  Al16  1  0.344510  0.008090  0.425466  1
  Al  Al17  1  0.655557  0.991979  0.925429  1
  Al  Al18  1  0.010965  0.664550  0.925118  1
  Al  Al19  1  0.989024  0.335372  0.425181  1
  Al  Al20  1  0.664550  0.010969  0.574872  1
  Al  Al21  1  0.335530  0.989105  0.074830  1
  Co  Co22  1  0.329757  0.670281  0.999978  1
  Co  Co23  1  0.670245  0.329706  0.500033  1
  Pt  Pt24  1  0.000238  0.999819  0.999965  1
  Pt  Pt25  1  0.999766  0.000288  0.500032  1
  Pt  Pt26  1  0.671854  0.328081  0.999959  1
  Pt  Pt27  1  0.328158  0.671893  0.500026  1
