# generated using pymatgen
data_La7Ho(In4Au3)4
_symmetry_space_group_name_H-M   'P 1'
_cell_length_a   15.28633400
_cell_length_b   15.09544170
_cell_length_c   4.50092600
_cell_angle_alpha   90.00000000
_cell_angle_beta   90.00000000
_cell_angle_gamma   120.41920966
_symmetry_Int_Tables_number   1
_chemical_formula_structural   La7Ho(In4Au3)4
_chemical_formula_sum   'La7 Ho1 In16 Au12'
_cell_volume   895.63605671
_cell_formula_units_Z   1
loop_
 _symmetry_equiv_pos_site_id
 _symmetry_equiv_pos_as_xyz
  1  'x, y, z'
loop_
 _atom_site_type_symbol
 _atom_site_label
 _atom_site_symmetry_multiplicity
 _atom_site_fract_x
 _atom_site_fract_y
 _atom_site_fract_z
 _atom_site_occupancy
  La  La0  1  0.001355  0.452108  0.000000  1
  La  La1  1  0.549246  0.547892  0.000000  1
  La  La2  1  0.337630  0.672743  0.000000  1
  La  La3  1  0.664889  0.327257  0.000000  1
  La  La4  1  0.816076  0.000000  0.500000  1
  La  La5  1  0.001542  0.820218  0.500000  1
  La  La6  1  0.181324  0.179782  0.500000  1
  Ho  Ho7  1  0.448225  0.000000  0.000000  1
  In  In8  1  0.181233  0.377969  0.000000  1
  In  In9  1  0.627753  0.807568  0.000000  1
  In  In10  1  0.376546  0.176272  0.000000  1
  In  In11  1  0.200273  0.823728  0.000000  1
  In  In12  1  0.803265  0.622031  0.000000  1
  In  In13  1  0.820186  0.192432  0.000000  1
  In  In14  1  0.278933  0.000000  0.500000  1
  In  In15  1  0.998567  0.282597  0.500000  1
  In  In16  1  0.715969  0.717403  0.500000  1
  In  In17  1  0.351746  0.474787  0.500000  1
  In  In18  1  0.522951  0.877213  0.500000  1
  In  In19  1  0.476865  0.345138  0.500000  1
  In  In20  1  0.131727  0.654862  0.500000  1
  In  In21  1  0.876959  0.525213  0.500000  1
  In  In22  1  0.645738  0.122787  0.500000  1
  In  In23  1  0.999364  0.000000  0.000000  1
  Au  Au24  1  0.177378  0.496651  0.500000  1
  Au  Au25  1  0.507236  0.682536  0.500000  1
  Au  Au26  1  0.486519  0.159553  0.500000  1
  Au  Au27  1  0.326965  0.840447  0.500000  1
  Au  Au28  1  0.680728  0.503349  0.500000  1
  Au  Au29  1  0.824700  0.317464  0.500000  1
  Au  Au30  1  0.173826  0.000000  0.000000  1
  Au  Au31  1  0.002071  0.177190  0.000000  1
  Au  Au32  1  0.824881  0.822810  0.000000  1
  Au  Au33  1  0.645633  0.000000  0.000000  1
  Au  Au34  1  0.001990  0.662281  0.000000  1
  Au  Au35  1  0.339710  0.337719  0.000000  1
