# generated using pymatgen
data_SrEr3(Pt2O7)2
_symmetry_space_group_name_H-M   'P 1'
_cell_length_a   7.28525757
_cell_length_b   7.30805749
_cell_length_c   7.28525700
_cell_angle_alpha   60.10314774
_cell_angle_beta   59.99999803
_cell_angle_gamma   60.10314579
_symmetry_Int_Tables_number   1
_chemical_formula_structural   SrEr3(Pt2O7)2
_chemical_formula_sum   'Sr1 Er3 Pt4 O14'
_cell_volume   274.69583464
_cell_formula_units_Z   1
loop_
 _symmetry_equiv_pos_site_id
 _symmetry_equiv_pos_as_xyz
  1  'x, y, z'
loop_
 _atom_site_type_symbol
 _atom_site_label
 _atom_site_symmetry_multiplicity
 _atom_site_fract_x
 _atom_site_fract_y
 _atom_site_fract_z
 _atom_site_occupancy
  Sr  Sr0  1  0.625000  0.125000  0.625000  1
  Er  Er1  1  0.625000  0.625000  0.125000  1
  Er  Er2  1  0.625000  0.625000  0.625000  1
  Er  Er3  1  0.125000  0.625000  0.625000  1
  Pt  Pt4  1  0.625000  0.125000  0.125000  1
  Pt  Pt5  1  0.125000  0.125000  0.125000  1
  Pt  Pt6  1  0.125000  0.625000  0.125000  1
  Pt  Pt7  1  0.125000  0.125000  0.625000  1
  O  O8  1  0.035647  0.465491  0.463215  1
  O  O9  1  0.786785  0.784509  0.214353  1
  O  O10  1  0.790583  0.224010  0.194825  1
  O  O11  1  0.758160  0.725520  0.758160  1
  O  O12  1  0.035647  0.465491  0.035647  1
  O  O13  1  0.459417  0.025990  0.459417  1
  O  O14  1  0.055175  0.025990  0.459417  1
  O  O15  1  0.491840  0.524480  0.491840  1
  O  O16  1  0.194825  0.224010  0.790583  1
  O  O17  1  0.214353  0.784509  0.214353  1
  O  O18  1  0.790583  0.224010  0.790583  1
  O  O19  1  0.459417  0.025990  0.055175  1
  O  O20  1  0.463215  0.465491  0.035647  1
  O  O21  1  0.214353  0.784509  0.786785  1
