# generated using pymatgen
data_Ho8Ti9Nb2Si16Pd
_symmetry_space_group_name_H-M   'P 1'
_cell_length_a   7.04625897
_cell_length_b   7.04423865
_cell_length_c   12.87837938
_cell_angle_alpha   90.21305502
_cell_angle_beta   89.83258987
_cell_angle_gamma   89.63332406
_symmetry_Int_Tables_number   1
_chemical_formula_structural   Ho8Ti9Nb2Si16Pd
_chemical_formula_sum   'Ho8 Ti9 Nb2 Si16 Pd1'
_cell_volume   639.20490012
_cell_formula_units_Z   1
loop_
 _symmetry_equiv_pos_site_id
 _symmetry_equiv_pos_as_xyz
  1  'x, y, z'
loop_
 _atom_site_type_symbol
 _atom_site_label
 _atom_site_symmetry_multiplicity
 _atom_site_fract_x
 _atom_site_fract_y
 _atom_site_fract_z
 _atom_site_occupancy
  Ho  Ho0  1  0.341532  0.000544  0.467244  1
  Ho  Ho1  1  0.496757  0.841250  0.717623  1
  Ho  Ho2  1  0.501672  0.157941  0.214812  1
  Ho  Ho3  1  0.841382  0.497990  0.282326  1
  Ho  Ho4  1  0.157717  0.501968  0.785610  1
  Ho  Ho5  1  0.657346  0.000567  0.968192  1
  Ho  Ho6  1  0.001259  0.340740  0.532567  1
  Ho  Ho7  1  0.000327  0.657091  0.031613  1
  Ti  Ti8  1  0.825553  0.175654  0.751651  1
  Ti  Ti9  1  0.148377  0.005027  0.876181  1
  Ti  Ti10  1  0.492881  0.654474  0.124434  1
  Ti  Ti11  1  0.508209  0.350746  0.626560  1
  Ti  Ti12  1  0.654010  0.493502  0.876103  1
  Ti  Ti13  1  0.350376  0.508376  0.373009  1
  Ti  Ti14  1  0.849206  0.990620  0.374436  1
  Ti  Ti15  1  0.005430  0.147273  0.124289  1
  Ti  Ti16  1  0.991663  0.848242  0.625042  1
  Nb  Nb17  1  0.174762  0.826059  0.248325  1
  Nb  Nb18  1  0.672974  0.672902  0.500134  1
  Si  Si19  1  0.202119  0.132865  0.684715  1
  Si  Si20  1  0.373443  0.711121  0.931691  1
  Si  Si21  1  0.630614  0.294915  0.433670  1
  Si  Si22  1  0.710984  0.372944  0.068055  1
  Si  Si23  1  0.294495  0.629819  0.566800  1
  Si  Si24  1  0.796796  0.867380  0.182585  1
  Si  Si25  1  0.132601  0.203080  0.315879  1
  Si  Si26  1  0.867158  0.798515  0.816634  1
  Si  Si27  1  0.288591  0.947035  0.062118  1
  Si  Si28  1  0.547656  0.792665  0.313584  1
  Si  Si29  1  0.450139  0.209462  0.814435  1
  Si  Si30  1  0.792743  0.546416  0.686483  1
  Si  Si31  1  0.209369  0.449150  0.185499  1
  Si  Si32  1  0.708615  0.048580  0.565184  1
  Si  Si33  1  0.944845  0.286761  0.935919  1
  Si  Si34  1  0.048081  0.707331  0.436072  1
  Pd  Pd35  1  0.330320  0.330994  0.000528  1
