# generated using pymatgen
data_Er2Lu2ReB12Ir
_symmetry_space_group_name_H-M   'P 1'
_cell_length_a   3.62433700
_cell_length_b   9.06782932
_cell_length_c   11.45588421
_cell_angle_alpha   90.27044530
_cell_angle_beta   90.00000000
_cell_angle_gamma   90.00000000
_symmetry_Int_Tables_number   1
_chemical_formula_structural   Er2Lu2ReB12Ir
_chemical_formula_sum   'Er4 Lu4 Re2 B24 Ir2'
_cell_volume   376.49194338
_cell_formula_units_Z   2
loop_
 _symmetry_equiv_pos_site_id
 _symmetry_equiv_pos_as_xyz
  1  'x, y, z'
loop_
 _atom_site_type_symbol
 _atom_site_label
 _atom_site_symmetry_multiplicity
 _atom_site_fract_x
 _atom_site_fract_y
 _atom_site_fract_z
 _atom_site_occupancy
  Er  Er0  1  0.000000  0.316244  0.410014  1
  Er  Er1  1  0.000000  0.683756  0.589986  1
  Er  Er2  1  0.000000  0.825879  0.082226  1
  Er  Er3  1  0.000000  0.174121  0.917774  1
  Lu  Lu4  1  0.000000  0.946547  0.372494  1
  Lu  Lu5  1  0.000000  0.053453  0.627506  1
  Lu  Lu6  1  0.000000  0.441855  0.125753  1
  Lu  Lu7  1  0.000000  0.558145  0.874247  1
  Re  Re8  1  0.000000  0.138768  0.180628  1
  Re  Re9  1  0.000000  0.861232  0.819372  1
  B  B10  1  0.500000  0.554403  0.434313  1
  B  B11  1  0.500000  0.445597  0.565687  1
  B  B12  1  0.500000  0.053513  0.067048  1
  B  B13  1  0.500000  0.946487  0.932952  1
  B  B14  1  0.500000  0.750784  0.421301  1
  B  B15  1  0.500000  0.249216  0.578699  1
  B  B16  1  0.500000  0.249398  0.080483  1
  B  B17  1  0.500000  0.750602  0.919517  1
  B  B18  1  0.500000  0.792005  0.265608  1
  B  B19  1  0.500000  0.207995  0.734392  1
  B  B20  1  0.500000  0.293453  0.234722  1
  B  B21  1  0.500000  0.706547  0.765278  1
  B  B22  1  0.500000  0.631158  0.183343  1
  B  B23  1  0.500000  0.368842  0.816657  1
  B  B24  1  0.500000  0.131064  0.315563  1
  B  B25  1  0.500000  0.868936  0.684437  1
  B  B26  1  0.500000  0.981950  0.213508  1
  B  B27  1  0.500000  0.018050  0.786492  1
  B  B28  1  0.500000  0.481917  0.287012  1
  B  B29  1  0.500000  0.518083  0.712988  1
  B  B30  1  0.500000  0.604238  0.029181  1
  B  B31  1  0.500000  0.395762  0.970819  1
  B  B32  1  0.500000  0.104881  0.471687  1
  B  B33  1  0.500000  0.895119  0.528313  1
  Ir  Ir34  1  0.000000  0.637248  0.321560  1
  Ir  Ir35  1  0.000000  0.362752  0.678440  1
