# generated using pymatgen
data_La4DyMo3(P3Ir4)4
_symmetry_space_group_name_H-M   'P 1'
_cell_length_a   12.80705700
_cell_length_b   12.80705750
_cell_length_c   4.03193000
_cell_angle_alpha   90.00000000
_cell_angle_beta   90.00000000
_cell_angle_gamma   120.00000129
_symmetry_Int_Tables_number   1
_chemical_formula_structural   La4DyMo3(P3Ir4)4
_chemical_formula_sum   'La4 Dy1 Mo3 P12 Ir16'
_cell_volume   572.71994995
_cell_formula_units_Z   1
loop_
 _symmetry_equiv_pos_site_id
 _symmetry_equiv_pos_as_xyz
  1  'x, y, z'
loop_
 _atom_site_type_symbol
 _atom_site_label
 _atom_site_symmetry_multiplicity
 _atom_site_fract_x
 _atom_site_fract_y
 _atom_site_fract_z
 _atom_site_occupancy
  La  La0  1  0.333333  0.666667  0.500000  1
  La  La1  1  0.000151  0.813030  0.000000  1
  La  La2  1  0.186970  0.187121  0.000000  1
  La  La3  1  0.812879  0.999849  0.000000  1
  Dy  Dy4  1  0.666667  0.333333  0.500000  1
  Mo  Mo5  1  0.998522  0.451807  0.500000  1
  Mo  Mo6  1  0.548193  0.546715  0.500000  1
  Mo  Mo7  1  0.453285  0.001478  0.500000  1
  P  P8  1  0.000603  0.634967  0.500000  1
  P  P9  1  0.365033  0.365636  0.500000  1
  P  P10  1  0.634364  0.999397  0.500000  1
  P  P11  1  0.518467  0.684451  0.000000  1
  P  P12  1  0.315549  0.834016  0.000000  1
  P  P13  1  0.165984  0.481533  0.000000  1
  P  P14  1  0.484654  0.170093  0.000000  1
  P  P15  1  0.685439  0.515346  0.000000  1
  P  P16  1  0.829907  0.314561  0.000000  1
  P  P17  1  0.999030  0.179857  0.500000  1
  P  P18  1  0.820143  0.819173  0.500000  1
  P  P19  1  0.180827  0.000970  0.500000  1
  Ir  Ir20  1  0.511718  0.870900  0.000000  1
  Ir  Ir21  1  0.129100  0.640819  0.000000  1
  Ir  Ir22  1  0.359181  0.488282  0.000000  1
  Ir  Ir23  1  0.493366  0.358759  0.000000  1
  Ir  Ir24  1  0.865394  0.506634  0.000000  1
  Ir  Ir25  1  0.641241  0.134606  0.000000  1
  Ir  Ir26  1  0.998511  0.288041  0.000000  1
  Ir  Ir27  1  0.711959  0.710470  0.000000  1
  Ir  Ir28  1  0.289530  0.001489  0.000000  1
  Ir  Ir29  1  0.622674  0.799926  0.500000  1
  Ir  Ir30  1  0.200074  0.822748  0.500000  1
  Ir  Ir31  1  0.177252  0.377326  0.500000  1
  Ir  Ir32  1  0.379461  0.179810  0.500000  1
  Ir  Ir33  1  0.800349  0.620539  0.500000  1
  Ir  Ir34  1  0.820190  0.199651  0.500000  1
  Ir  Ir35  1  0.000000  0.000000  0.500000  1
