# generated using pymatgen
data_DyTmCdNi2
_symmetry_space_group_name_H-M   'P 1'
_cell_length_a   7.31318594
_cell_length_b   7.31318652
_cell_length_c   3.60335600
_cell_angle_alpha   90.00000000
_cell_angle_beta   90.00000000
_cell_angle_gamma   148.61883410
_symmetry_Int_Tables_number   1
_chemical_formula_structural   DyTmCdNi2
_chemical_formula_sum   'Dy1 Tm1 Cd1 Ni2'
_cell_volume   100.35343068
_cell_formula_units_Z   1
loop_
 _symmetry_equiv_pos_site_id
 _symmetry_equiv_pos_as_xyz
  1  'x, y, z'
loop_
 _atom_site_type_symbol
 _atom_site_label
 _atom_site_symmetry_multiplicity
 _atom_site_fract_x
 _atom_site_fract_y
 _atom_site_fract_z
 _atom_site_occupancy
  Dy  Dy0  1  0.360750  0.639250  0.500000  1
  Tm  Tm1  1  0.640394  0.359606  0.500000  1
  Cd  Cd2  1  0.001080  0.998920  0.000000  1
  Ni  Ni3  1  0.800491  0.199509  0.000000  1
  Ni  Ni4  1  0.197286  0.802714  0.000000  1
