# generated using pymatgen
data_Sc14Si8Ru7
_symmetry_space_group_name_H-M   'P 1'
_cell_length_a   8.95768778
_cell_length_b   8.95766957
_cell_length_c   8.95753100
_cell_angle_alpha   60.00063449
_cell_angle_beta   59.99949243
_cell_angle_gamma   59.99893260
_symmetry_Int_Tables_number   1
_chemical_formula_structural   Sc14Si8Ru7
_chemical_formula_sum   'Sc14 Si8 Ru7'
_cell_volume   508.23104985
_cell_formula_units_Z   1
loop_
 _symmetry_equiv_pos_site_id
 _symmetry_equiv_pos_as_xyz
  1  'x, y, z'
loop_
 _atom_site_type_symbol
 _atom_site_label
 _atom_site_symmetry_multiplicity
 _atom_site_fract_x
 _atom_site_fract_y
 _atom_site_fract_z
 _atom_site_occupancy
  Sc  Sc0  1  0.180381  0.819617  0.819619  1
  Sc  Sc1  1  0.819619  0.180383  0.180381  1
  Sc  Sc2  1  0.819614  0.180384  0.819617  1
  Sc  Sc3  1  0.819616  0.819613  0.180383  1
  Sc  Sc4  1  0.180386  0.819616  0.180383  1
  Sc  Sc5  1  0.180384  0.180387  0.819617  1
  Sc  Sc6  1  0.628148  0.628146  0.628144  1
  Sc  Sc7  1  0.628149  0.628144  0.115562  1
  Sc  Sc8  1  0.115560  0.628145  0.628147  1
  Sc  Sc9  1  0.628146  0.115562  0.628145  1
  Sc  Sc10  1  0.371852  0.371854  0.371856  1
  Sc  Sc11  1  0.371851  0.371856  0.884438  1
  Sc  Sc12  1  0.371854  0.884438  0.371855  1
  Sc  Sc13  1  0.884440  0.371855  0.371853  1
  Si  Si14  1  0.848091  0.848090  0.848092  1
  Si  Si15  1  0.848092  0.848089  0.455726  1
  Si  Si16  1  0.455729  0.848090  0.848091  1
  Si  Si17  1  0.848093  0.455725  0.848091  1
  Si  Si18  1  0.151909  0.151910  0.151908  1
  Si  Si19  1  0.151908  0.151911  0.544274  1
  Si  Si20  1  0.151907  0.544275  0.151909  1
  Si  Si21  1  0.544271  0.151910  0.151909  1
  Ru  Ru22  1  0.500000  0.500000  0.500000  1
  Ru  Ru23  1  0.000000  0.500000  0.500000  1
  Ru  Ru24  1  0.500000  0.000000  0.000000  1
  Ru  Ru25  1  0.500000  0.000000  0.500000  1
  Ru  Ru26  1  0.500000  0.500000  0.000000  1
  Ru  Ru27  1  0.000000  0.500000  0.000000  1
  Ru  Ru28  1  0.000000  0.000000  0.500000  1
