# generated using pymatgen
data_Nd4Mg(FeO4)3
_symmetry_space_group_name_H-M   'P 1'
_cell_length_a   5.50805760
_cell_length_b   5.66487146
_cell_length_c   7.82944137
_cell_angle_alpha   89.78103150
_cell_angle_beta   89.88233258
_cell_angle_gamma   89.99572131
_symmetry_Int_Tables_number   1
_chemical_formula_structural   Nd4Mg(FeO4)3
_chemical_formula_sum   'Nd4 Mg1 Fe3 O12'
_cell_volume   244.29536150
_cell_formula_units_Z   1
loop_
 _symmetry_equiv_pos_site_id
 _symmetry_equiv_pos_as_xyz
  1  'x, y, z'
loop_
 _atom_site_type_symbol
 _atom_site_label
 _atom_site_symmetry_multiplicity
 _atom_site_fract_x
 _atom_site_fract_y
 _atom_site_fract_z
 _atom_site_occupancy
  Nd  Nd0  1  0.489172  0.551477  0.255567  1
  Nd  Nd1  1  0.983253  0.944603  0.743990  1
  Nd  Nd2  1  0.510828  0.448523  0.744433  1
  Nd  Nd3  1  0.016747  0.055397  0.256010  1
  Mg  Mg4  1  0.000000  0.500000  0.500000  1
  Fe  Fe5  1  0.000000  0.500000  0.000000  1
  Fe  Fe6  1  0.500000  0.000000  0.000000  1
  Fe  Fe7  1  0.500000  0.000000  0.500000  1
  O  O8  1  0.593882  0.974157  0.246345  1
  O  O9  1  0.089843  0.525771  0.758862  1
  O  O10  1  0.406118  0.025843  0.753655  1
  O  O11  1  0.910157  0.474229  0.241138  1
  O  O12  1  0.211002  0.793812  0.052690  1
  O  O13  1  0.706695  0.709208  0.948338  1
  O  O14  1  0.788998  0.206188  0.947310  1
  O  O15  1  0.293305  0.290792  0.051662  1
  O  O16  1  0.299326  0.290987  0.453195  1
  O  O17  1  0.788434  0.200133  0.545356  1
  O  O18  1  0.700674  0.709013  0.546805  1
  O  O19  1  0.211566  0.799867  0.454644  1
