# generated using pymatgen
data_Th5Al2Os3
_symmetry_space_group_name_H-M   'P 1'
_cell_length_a   8.57837805
_cell_length_b   8.57750198
_cell_length_c   8.57872644
_cell_angle_alpha   109.47618230
_cell_angle_beta   109.46230404
_cell_angle_gamma   109.47632668
_symmetry_Int_Tables_number   1
_chemical_formula_structural   Th5Al2Os3
_chemical_formula_sum   'Th10 Al4 Os6'
_cell_volume   485.91550914
_cell_formula_units_Z   2
loop_
 _symmetry_equiv_pos_site_id
 _symmetry_equiv_pos_as_xyz
  1  'x, y, z'
loop_
 _atom_site_type_symbol
 _atom_site_label
 _atom_site_symmetry_multiplicity
 _atom_site_fract_x
 _atom_site_fract_y
 _atom_site_fract_z
 _atom_site_occupancy
  Th  Th0  1  0.781927  0.781937  0.781939  1
  Th  Th1  1  0.308013  0.557959  0.749998  1
  Th  Th2  1  0.750042  0.308056  0.558024  1
  Th  Th3  1  0.558058  0.750018  0.308059  1
  Th  Th4  1  0.718130  0.500023  0.000019  1
  Th  Th5  1  0.000031  0.718121  0.500015  1
  Th  Th6  1  0.500017  0.000002  0.718123  1
  Th  Th7  1  0.249967  0.191995  0.941946  1
  Th  Th8  1  0.942036  0.250012  0.192010  1
  Th  Th9  1  0.192044  0.942031  0.250056  1
  Al  Al10  1  0.394771  0.394774  0.394772  1
  Al  Al11  1  0.105215  0.499989  0.000018  1
  Al  Al12  1  0.999977  0.105238  0.499976  1
  Al  Al13  1  0.499993  0.000013  0.105216  1
  Os  Os14  1  0.873832  0.123810  0.749954  1
  Os  Os15  1  0.749924  0.873803  0.123745  1
  Os  Os16  1  0.123750  0.749969  0.873804  1
  Os  Os17  1  0.249963  0.626129  0.376161  1
  Os  Os18  1  0.376187  0.249944  0.626184  1
  Os  Os19  1  0.626120  0.376174  0.249981  1
