# generated using pymatgen
data_La20Si15Au
_symmetry_space_group_name_H-M   'P 1'
_cell_length_a   8.03325142
_cell_length_b   8.04320345
_cell_length_c   15.62366325
_cell_angle_alpha   90.07728310
_cell_angle_beta   89.61886004
_cell_angle_gamma   89.95565857
_symmetry_Int_Tables_number   1
_chemical_formula_structural   La20Si15Au
_chemical_formula_sum   'La20 Si15 Au1'
_cell_volume   1009.46936962
_cell_formula_units_Z   1
loop_
 _symmetry_equiv_pos_site_id
 _symmetry_equiv_pos_as_xyz
  1  'x, y, z'
loop_
 _atom_site_type_symbol
 _atom_site_label
 _atom_site_symmetry_multiplicity
 _atom_site_fract_x
 _atom_site_fract_y
 _atom_site_fract_z
 _atom_site_occupancy
  La  La0  1  0.377332  0.478148  0.372938  1
  La  La1  1  0.871055  0.024953  0.374036  1
  La  La2  1  0.978930  0.126123  0.123574  1
  La  La3  1  0.022138  0.875476  0.624131  1
  La  La4  1  0.626465  0.520275  0.873370  1
  La  La5  1  0.480751  0.373849  0.626992  1
  La  La6  1  0.520119  0.625093  0.126203  1
  La  La7  1  0.125182  0.979794  0.877641  1
  La  La8  1  0.990261  0.618965  0.053917  1
  La  La9  1  0.009076  0.373871  0.554918  1
  La  La10  1  0.620281  0.987926  0.946806  1
  La  La11  1  0.120287  0.509609  0.803513  1
  La  La12  1  0.875211  0.483912  0.300554  1
  La  La13  1  0.511433  0.121169  0.196590  1
  La  La14  1  0.491363  0.880276  0.696968  1
  La  La15  1  0.384355  0.015675  0.448590  1
  La  La16  1  0.690372  0.695333  0.499582  1
  La  La17  1  0.807561  0.191416  0.749920  1
  La  La18  1  0.191246  0.805775  0.250784  1
  La  La19  1  0.305407  0.308267  0.000225  1
  Si  Si20  1  0.919065  0.288718  0.940152  1
  Si  Si21  1  0.710947  0.080756  0.559667  1
  Si  Si22  1  0.212354  0.419850  0.190984  1
  Si  Si23  1  0.789505  0.580589  0.690105  1
  Si  Si24  1  0.418937  0.211330  0.809645  1
  Si  Si25  1  0.579761  0.788616  0.308917  1
  Si  Si26  1  0.289439  0.920186  0.059033  1
  Si  Si27  1  0.829055  0.805920  0.795213  1
  Si  Si28  1  0.170729  0.195618  0.295504  1
  Si  Si29  1  0.804318  0.829812  0.203892  1
  Si  Si30  1  0.312834  0.672376  0.549026  1
  Si  Si31  1  0.694792  0.329460  0.044860  1
  Si  Si32  1  0.669920  0.305354  0.455096  1
  Si  Si33  1  0.329182  0.694301  0.954914  1
  Si  Si34  1  0.195017  0.170635  0.703965  1
  Au  Au35  1  0.075320  0.710576  0.437773  1
