# generated using pymatgen
data_TaMnCr3Fe3P4
_symmetry_space_group_name_H-M   'P 1'
_cell_length_a   3.56979900
_cell_length_b   5.86427312
_cell_length_c   6.66428564
_cell_angle_alpha   90.26181741
_cell_angle_beta   90.00000000
_cell_angle_gamma   90.00000000
_symmetry_Int_Tables_number   1
_chemical_formula_structural   TaMnCr3Fe3P4
_chemical_formula_sum   'Ta1 Mn1 Cr3 Fe3 P4'
_cell_volume   139.51054058
_cell_formula_units_Z   1
loop_
 _symmetry_equiv_pos_site_id
 _symmetry_equiv_pos_as_xyz
  1  'x, y, z'
loop_
 _atom_site_type_symbol
 _atom_site_label
 _atom_site_symmetry_multiplicity
 _atom_site_fract_x
 _atom_site_fract_y
 _atom_site_fract_z
 _atom_site_occupancy
  Ta  Ta0  1  0.750000  0.471473  0.673818  1
  Mn  Mn1  1  0.250000  0.148437  0.555308  1
  Cr  Cr2  1  0.750000  0.977136  0.830503  1
  Cr  Cr3  1  0.250000  0.533028  0.324119  1
  Cr  Cr4  1  0.250000  0.018662  0.171555  1
  Fe  Fe5  1  0.750000  0.356921  0.063599  1
  Fe  Fe6  1  0.250000  0.647908  0.941811  1
  Fe  Fe7  1  0.750000  0.853649  0.438475  1
  P  P8  1  0.250000  0.780880  0.625451  1
  P  P9  1  0.750000  0.220903  0.361936  1
  P  P10  1  0.250000  0.257577  0.888792  1
  P  P11  1  0.750000  0.733423  0.124636  1
