# generated using pymatgen
data_CaNdThNi2Sn7
_symmetry_space_group_name_H-M   'P 1'
_cell_length_a   13.68546538
_cell_length_b   13.68546597
_cell_length_c   4.59212600
_cell_angle_alpha   90.00000000
_cell_angle_beta   90.00000000
_cell_angle_gamma   159.88884539
_symmetry_Int_Tables_number   1
_chemical_formula_structural   CaNdThNi2Sn7
_chemical_formula_sum   'Ca1 Nd1 Th1 Ni2 Sn7'
_cell_volume   295.72805732
_cell_formula_units_Z   1
loop_
 _symmetry_equiv_pos_site_id
 _symmetry_equiv_pos_as_xyz
  1  'x, y, z'
loop_
 _atom_site_type_symbol
 _atom_site_label
 _atom_site_symmetry_multiplicity
 _atom_site_fract_x
 _atom_site_fract_y
 _atom_site_fract_z
 _atom_site_occupancy
  Ca  Ca0  1  0.186488  0.813512  0.000000  1
  Nd  Nd1  1  0.813733  0.186267  0.000000  1
  Th  Th2  1  0.500483  0.499517  0.500000  1
  Ni  Ni3  1  0.372702  0.627298  0.500000  1
  Ni  Ni4  1  0.626865  0.373135  0.500000  1
  Sn  Sn5  1  0.000634  0.999366  0.000000  1
  Sn  Sn6  1  0.410937  0.589063  0.000000  1
  Sn  Sn7  1  0.588720  0.411280  0.000000  1
  Sn  Sn8  1  0.089662  0.910338  0.500000  1
  Sn  Sn9  1  0.909605  0.090395  0.500000  1
  Sn  Sn10  1  0.279703  0.720297  0.500000  1
  Sn  Sn11  1  0.720468  0.279532  0.500000  1
