# generated using pymatgen
data_Ba5Ho2MnAl2O13
_symmetry_space_group_name_H-M   'P 1'
_cell_length_a   5.92322700
_cell_length_b   5.92322634
_cell_length_c   24.79857600
_cell_angle_alpha   90.00000000
_cell_angle_beta   90.00000000
_cell_angle_gamma   120.00000929
_symmetry_Int_Tables_number   1
_chemical_formula_structural   Ba5Ho2MnAl2O13
_chemical_formula_sum   'Ba10 Ho4 Mn2 Al4 O26'
_cell_volume   753.48400773
_cell_formula_units_Z   2
loop_
 _symmetry_equiv_pos_site_id
 _symmetry_equiv_pos_as_xyz
  1  'x, y, z'
loop_
 _atom_site_type_symbol
 _atom_site_label
 _atom_site_symmetry_multiplicity
 _atom_site_fract_x
 _atom_site_fract_y
 _atom_site_fract_z
 _atom_site_occupancy
  Ba  Ba0  1  0.333333  0.666667  0.540837  1
  Ba  Ba1  1  0.666667  0.333333  0.459163  1
  Ba  Ba2  1  0.666667  0.333333  0.040837  1
  Ba  Ba3  1  0.333333  0.666667  0.959163  1
  Ba  Ba4  1  0.000000  0.000000  0.135308  1
  Ba  Ba5  1  0.000000  0.000000  0.864692  1
  Ba  Ba6  1  0.000000  0.000000  0.635308  1
  Ba  Ba7  1  0.000000  0.000000  0.364692  1
  Ba  Ba8  1  0.333333  0.666667  0.250000  1
  Ba  Ba9  1  0.666667  0.333333  0.750000  1
  Ho  Ho10  1  0.333333  0.666667  0.100013  1
  Ho  Ho11  1  0.666667  0.333333  0.899987  1
  Ho  Ho12  1  0.666667  0.333333  0.600013  1
  Ho  Ho13  1  0.333333  0.666667  0.399987  1
  Mn  Mn14  1  0.000000  0.000000  0.000000  1
  Mn  Mn15  1  0.000000  0.000000  0.500000  1
  Al  Al16  1  0.333333  0.666667  0.679895  1
  Al  Al17  1  0.666667  0.333333  0.320105  1
  Al  Al18  1  0.666667  0.333333  0.179895  1
  Al  Al19  1  0.333333  0.666667  0.820105  1
  O  O20  1  0.503637  0.007275  0.156449  1
  O  O21  1  0.496363  0.992725  0.843551  1
  O  O22  1  0.992725  0.496363  0.156449  1
  O  O23  1  0.496363  0.992725  0.656449  1
  O  O24  1  0.007275  0.503637  0.843551  1
  O  O25  1  0.503637  0.007275  0.343551  1
  O  O26  1  0.503637  0.496363  0.156449  1
  O  O27  1  0.007275  0.503637  0.656449  1
  O  O28  1  0.496363  0.503637  0.843551  1
  O  O29  1  0.992725  0.496363  0.343551  1
  O  O30  1  0.496363  0.503637  0.656449  1
  O  O31  1  0.503637  0.496363  0.343551  1
  O  O32  1  0.155749  0.311498  0.046787  1
  O  O33  1  0.844251  0.688502  0.953213  1
  O  O34  1  0.688502  0.844251  0.046787  1
  O  O35  1  0.844251  0.688502  0.546787  1
  O  O36  1  0.311498  0.155749  0.953213  1
  O  O37  1  0.155749  0.311498  0.453213  1
  O  O38  1  0.155749  0.844251  0.046787  1
  O  O39  1  0.311498  0.155749  0.546787  1
  O  O40  1  0.844251  0.155749  0.953213  1
  O  O41  1  0.688502  0.844251  0.453213  1
  O  O42  1  0.844251  0.155749  0.546787  1
  O  O43  1  0.155749  0.844251  0.453213  1
  O  O44  1  0.333333  0.666667  0.750000  1
  O  O45  1  0.666667  0.333333  0.250000  1
