# generated using pymatgen
data_TmZr2(Ni3As2)3
_symmetry_space_group_name_H-M   'P 1'
_cell_length_a   3.79921500
_cell_length_b   10.77217700
_cell_length_c   12.61904200
_cell_angle_alpha   90.00000000
_cell_angle_beta   90.00000000
_cell_angle_gamma   90.00000000
_symmetry_Int_Tables_number   1
_chemical_formula_structural   TmZr2(Ni3As2)3
_chemical_formula_sum   'Tm2 Zr4 Ni18 As12'
_cell_volume   516.44459655
_cell_formula_units_Z   2
loop_
 _symmetry_equiv_pos_site_id
 _symmetry_equiv_pos_as_xyz
  1  'x, y, z'
loop_
 _atom_site_type_symbol
 _atom_site_label
 _atom_site_symmetry_multiplicity
 _atom_site_fract_x
 _atom_site_fract_y
 _atom_site_fract_z
 _atom_site_occupancy
  Tm  Tm0  1  0.000000  0.500000  0.526230  1
  Tm  Tm1  1  0.500000  0.000000  0.473770  1
  Zr  Zr2  1  0.500000  0.821093  0.206480  1
  Zr  Zr3  1  0.500000  0.178907  0.206480  1
  Zr  Zr4  1  0.000000  0.678907  0.793520  1
  Zr  Zr5  1  0.000000  0.321093  0.793520  1
  Ni  Ni6  1  0.500000  0.500000  0.159552  1
  Ni  Ni7  1  0.000000  0.000000  0.840448  1
  Ni  Ni8  1  0.500000  0.500000  0.701049  1
  Ni  Ni9  1  0.000000  0.000000  0.298951  1
  Ni  Ni10  1  0.000000  0.500000  0.984039  1
  Ni  Ni11  1  0.500000  0.000000  0.015961  1
  Ni  Ni12  1  0.500000  0.331142  0.997079  1
  Ni  Ni13  1  0.500000  0.668858  0.997079  1
  Ni  Ni14  1  0.000000  0.168858  0.002921  1
  Ni  Ni15  1  0.000000  0.831142  0.002921  1
  Ni  Ni16  1  0.500000  0.300958  0.429531  1
  Ni  Ni17  1  0.500000  0.699042  0.429531  1
  Ni  Ni18  1  0.000000  0.199042  0.570469  1
  Ni  Ni19  1  0.000000  0.800958  0.570469  1
  Ni  Ni20  1  0.500000  0.877635  0.707947  1
  Ni  Ni21  1  0.500000  0.122365  0.707947  1
  Ni  Ni22  1  0.000000  0.622365  0.292053  1
  Ni  Ni23  1  0.000000  0.377635  0.292053  1
  As  As24  1  0.500000  0.500000  0.876968  1
  As  As25  1  0.000000  0.000000  0.123032  1
  As  As26  1  0.500000  0.500000  0.348601  1
  As  As27  1  0.000000  0.000000  0.651399  1
  As  As28  1  0.500000  0.314971  0.616878  1
  As  As29  1  0.500000  0.685029  0.616878  1
  As  As30  1  0.000000  0.185029  0.383122  1
  As  As31  1  0.000000  0.814971  0.383122  1
  As  As32  1  0.500000  0.844907  0.887333  1
  As  As33  1  0.500000  0.155093  0.887333  1
  As  As34  1  0.000000  0.655093  0.112667  1
  As  As35  1  0.000000  0.344907  0.112667  1
