# generated using pymatgen
data_Tb7Y3In8(CoPt)2
_symmetry_space_group_name_H-M   'P 1'
_cell_length_a   3.61199600
_cell_length_b   8.12084805
_cell_length_c   18.19697838
_cell_angle_alpha   89.95916075
_cell_angle_beta   90.00000000
_cell_angle_gamma   90.00000000
_symmetry_Int_Tables_number   1
_chemical_formula_structural   Tb7Y3In8(CoPt)2
_chemical_formula_sum   'Tb7 Y3 In8 Co2 Pt2'
_cell_volume   533.76219900
_cell_formula_units_Z   1
loop_
 _symmetry_equiv_pos_site_id
 _symmetry_equiv_pos_as_xyz
  1  'x, y, z'
loop_
 _atom_site_type_symbol
 _atom_site_label
 _atom_site_symmetry_multiplicity
 _atom_site_fract_x
 _atom_site_fract_y
 _atom_site_fract_z
 _atom_site_occupancy
  Tb  Tb0  1  0.000000  0.887023  0.590054  1
  Tb  Tb1  1  0.000000  0.382061  0.913579  1
  Tb  Tb2  1  0.000000  0.617951  0.086407  1
  Tb  Tb3  1  0.000000  0.233466  0.223721  1
  Tb  Tb4  1  0.000000  0.766324  0.776303  1
  Tb  Tb5  1  0.000000  0.243844  0.719700  1
  Tb  Tb6  1  0.000000  0.756158  0.280286  1
  Y  Y7  1  0.000000  0.113028  0.410360  1
  Y  Y8  1  0.000000  0.999993  0.999997  1
  Y  Y9  1  0.000000  0.500443  0.500108  1
  In  In10  1  0.500000  0.423698  0.351468  1
  In  In11  1  0.500000  0.575750  0.648643  1
  In  In12  1  0.500000  0.069917  0.847917  1
  In  In13  1  0.500000  0.930095  0.152101  1
  In  In14  1  0.500000  0.291270  0.067762  1
  In  In15  1  0.500000  0.708734  0.932206  1
  In  In16  1  0.500000  0.204993  0.568689  1
  In  In17  1  0.500000  0.795391  0.431178  1
  Co  Co18  1  0.500000  0.017655  0.305079  1
  Co  Co19  1  0.500000  0.982308  0.694454  1
  Pt  Pt20  1  0.500000  0.479083  0.802393  1
  Pt  Pt21  1  0.500000  0.520814  0.197595  1
