# generated using pymatgen
data_Tb5ErNiTe2
_symmetry_space_group_name_H-M   'P 1'
_cell_length_a   8.37129100
_cell_length_b   8.37197495
_cell_length_c   3.92494800
_cell_angle_alpha   90.00000000
_cell_angle_beta   90.00000000
_cell_angle_gamma   119.81022515
_symmetry_Int_Tables_number   1
_chemical_formula_structural   Tb5ErNiTe2
_chemical_formula_sum   'Tb5 Er1 Ni1 Te2'
_cell_volume   238.67790984
_cell_formula_units_Z   1
loop_
 _symmetry_equiv_pos_site_id
 _symmetry_equiv_pos_as_xyz
  1  'x, y, z'
loop_
 _atom_site_type_symbol
 _atom_site_label
 _atom_site_symmetry_multiplicity
 _atom_site_fract_x
 _atom_site_fract_y
 _atom_site_fract_z
 _atom_site_occupancy
  Tb  Tb0  1  0.238906  0.000353  0.000000  1
  Tb  Tb1  1  0.000368  0.238892  0.000000  1
  Tb  Tb2  1  0.597762  0.000140  0.500000  1
  Tb  Tb3  1  0.000161  0.597714  0.500000  1
  Tb  Tb4  1  0.404604  0.404589  0.500000  1
  Er  Er5  1  0.762657  0.762590  0.000000  1
  Ni  Ni6  1  0.994140  0.994342  0.500000  1
  Te  Te7  1  0.334754  0.666644  0.000000  1
  Te  Te8  1  0.666646  0.334735  0.000000  1
