# generated using pymatgen
data_RbDyBi2Se5
_symmetry_space_group_name_H-M   'P 1'
_cell_length_a   4.17188600
_cell_length_b   12.41539100
_cell_length_c   22.33690000
_cell_angle_alpha   90.00000000
_cell_angle_beta   90.00000000
_cell_angle_gamma   90.00000000
_symmetry_Int_Tables_number   1
_chemical_formula_structural   RbDyBi2Se5
_chemical_formula_sum   'Rb4 Dy4 Bi8 Se20'
_cell_volume   1156.95304600
_cell_formula_units_Z   4
loop_
 _symmetry_equiv_pos_site_id
 _symmetry_equiv_pos_as_xyz
  1  'x, y, z'
loop_
 _atom_site_type_symbol
 _atom_site_label
 _atom_site_symmetry_multiplicity
 _atom_site_fract_x
 _atom_site_fract_y
 _atom_site_fract_z
 _atom_site_occupancy
  Rb  Rb0  1  0.250000  0.489555  0.210757  1
  Rb  Rb1  1  0.750000  0.510445  0.789243  1
  Rb  Rb2  1  0.750000  0.989555  0.289243  1
  Rb  Rb3  1  0.250000  0.010445  0.710757  1
  Dy  Dy4  1  0.250000  0.363839  0.024085  1
  Dy  Dy5  1  0.750000  0.636161  0.975915  1
  Dy  Dy6  1  0.750000  0.863839  0.475915  1
  Dy  Dy7  1  0.250000  0.136161  0.524085  1
  Bi  Bi8  1  0.250000  0.802324  0.125821  1
  Bi  Bi9  1  0.750000  0.197676  0.874179  1
  Bi  Bi10  1  0.750000  0.302324  0.374179  1
  Bi  Bi11  1  0.250000  0.697676  0.625821  1
  Bi  Bi12  1  0.250000  0.596073  0.423785  1
  Bi  Bi13  1  0.750000  0.403927  0.576215  1
  Bi  Bi14  1  0.750000  0.096073  0.076215  1
  Bi  Bi15  1  0.250000  0.903927  0.923785  1
  Se  Se16  1  0.250000  0.811755  0.390372  1
  Se  Se17  1  0.750000  0.188245  0.609628  1
  Se  Se18  1  0.750000  0.311755  0.109628  1
  Se  Se19  1  0.250000  0.688245  0.890372  1
  Se  Se20  1  0.250000  0.247809  0.295668  1
  Se  Se21  1  0.750000  0.752191  0.704332  1
  Se  Se22  1  0.750000  0.747809  0.204332  1
  Se  Se23  1  0.250000  0.252191  0.795668  1
  Se  Se24  1  0.250000  0.355573  0.481131  1
  Se  Se25  1  0.750000  0.644427  0.518869  1
  Se  Se26  1  0.750000  0.855573  0.018869  1
  Se  Se27  1  0.250000  0.144427  0.981131  1
  Se  Se28  1  0.250000  0.025842  0.158749  1
  Se  Se29  1  0.750000  0.974158  0.841251  1
  Se  Se30  1  0.750000  0.525842  0.341251  1
  Se  Se31  1  0.250000  0.474158  0.658749  1
  Se  Se32  1  0.250000  0.582894  0.059876  1
  Se  Se33  1  0.750000  0.417106  0.940124  1
  Se  Se34  1  0.750000  0.082894  0.440124  1
  Se  Se35  1  0.250000  0.917106  0.559876  1
