# generated using pymatgen
data_Rb(YI3)2
_symmetry_space_group_name_H-M   'P 1'
_cell_length_a   8.77892800
_cell_length_b   8.77892729
_cell_length_c   14.49031100
_cell_angle_alpha   90.00000000
_cell_angle_beta   90.00000000
_cell_angle_gamma   119.99998761
_symmetry_Int_Tables_number   1
_chemical_formula_structural   Rb(YI3)2
_chemical_formula_sum   'Rb2 Y4 I12'
_cell_volume   967.14442302
_cell_formula_units_Z   2
loop_
 _symmetry_equiv_pos_site_id
 _symmetry_equiv_pos_as_xyz
  1  'x, y, z'
loop_
 _atom_site_type_symbol
 _atom_site_label
 _atom_site_symmetry_multiplicity
 _atom_site_fract_x
 _atom_site_fract_y
 _atom_site_fract_z
 _atom_site_occupancy
  Rb  Rb0  1  0.333333  0.666667  0.873108  1
  Rb  Rb1  1  0.666667  0.333333  0.373108  1
  Y  Y2  1  0.000000  0.000000  0.125726  1
  Y  Y3  1  0.000000  0.000000  0.375843  1
  Y  Y4  1  0.000000  0.000000  0.625726  1
  Y  Y5  1  0.000000  0.000000  0.875843  1
  I  I6  1  0.980489  0.707856  0.001710  1
  I  I7  1  0.269465  0.974806  0.249974  1
  I  I8  1  0.025194  0.294659  0.249974  1
  I  I9  1  0.292144  0.272634  0.001710  1
  I  I10  1  0.272634  0.292144  0.501710  1
  I  I11  1  0.727366  0.019511  0.001710  1
  I  I12  1  0.294659  0.025194  0.749974  1
  I  I13  1  0.705341  0.730535  0.249974  1
  I  I14  1  0.730535  0.705341  0.749974  1
  I  I15  1  0.019511  0.727366  0.501710  1
  I  I16  1  0.707856  0.980489  0.501710  1
  I  I17  1  0.974806  0.269465  0.749974  1
