# generated using pymatgen
data_HoZn2CdIr2
_symmetry_space_group_name_H-M   'P 1'
_cell_length_a   5.63780722
_cell_length_b   5.22674905
_cell_length_c   5.22675043
_cell_angle_alpha   59.15106016
_cell_angle_beta   57.36246346
_cell_angle_gamma   57.36246187
_symmetry_Int_Tables_number   1
_chemical_formula_structural   HoZn2CdIr2
_chemical_formula_sum   'Ho1 Zn2 Cd1 Ir2'
_cell_volume   103.73412722
_cell_formula_units_Z   1
loop_
 _symmetry_equiv_pos_site_id
 _symmetry_equiv_pos_as_xyz
  1  'x, y, z'
loop_
 _atom_site_type_symbol
 _atom_site_label
 _atom_site_symmetry_multiplicity
 _atom_site_fract_x
 _atom_site_fract_y
 _atom_site_fract_z
 _atom_site_occupancy
  Ho  Ho0  1  0.238033  0.261967  0.261967  1
  Zn  Zn1  1  0.628621  0.618603  0.124156  1
  Zn  Zn2  1  0.628621  0.124156  0.618603  1
  Cd  Cd3  1  0.000046  0.999954  0.999954  1
  Ir  Ir4  1  0.125024  0.622661  0.622661  1
  Ir  Ir5  1  0.629655  0.622661  0.622661  1
