# generated using pymatgen
data_LuTl(SbAu)2
_symmetry_space_group_name_H-M   'P 1'
_cell_length_a   4.51156700
_cell_length_b   4.51156720
_cell_length_c   18.04183800
_cell_angle_alpha   90.00000000
_cell_angle_beta   90.00000000
_cell_angle_gamma   120.00002052
_symmetry_Int_Tables_number   1
_chemical_formula_structural   LuTl(SbAu)2
_chemical_formula_sum   'Lu2 Tl2 Sb4 Au4'
_cell_volume   318.02858940
_cell_formula_units_Z   2
loop_
 _symmetry_equiv_pos_site_id
 _symmetry_equiv_pos_as_xyz
  1  'x, y, z'
loop_
 _atom_site_type_symbol
 _atom_site_label
 _atom_site_symmetry_multiplicity
 _atom_site_fract_x
 _atom_site_fract_y
 _atom_site_fract_z
 _atom_site_occupancy
  Lu  Lu0  1  0.000000  0.000000  0.250000  1
  Lu  Lu1  1  0.000000  0.000000  0.750000  1
  Tl  Tl2  1  0.000000  0.000000  0.500000  1
  Tl  Tl3  1  0.000000  0.000000  0.000000  1
  Sb  Sb4  1  0.333333  0.666667  0.376218  1
  Sb  Sb5  1  0.666667  0.333333  0.623782  1
  Sb  Sb6  1  0.666667  0.333333  0.876218  1
  Sb  Sb7  1  0.333333  0.666667  0.123782  1
  Au  Au8  1  0.666667  0.333333  0.331963  1
  Au  Au9  1  0.333333  0.666667  0.668037  1
  Au  Au10  1  0.333333  0.666667  0.831963  1
  Au  Au11  1  0.666667  0.333333  0.168037  1
