# generated using pymatgen
data_NdTm2V(Co4P3)2
_symmetry_space_group_name_H-M   'P 1'
_cell_length_a   3.68474200
_cell_length_b   10.52900700
_cell_length_c   12.22362900
_cell_angle_alpha   90.00000000
_cell_angle_beta   90.00000000
_cell_angle_gamma   90.00000000
_symmetry_Int_Tables_number   1
_chemical_formula_structural   NdTm2V(Co4P3)2
_chemical_formula_sum   'Nd2 Tm4 V2 Co16 P12'
_cell_volume   474.23615321
_cell_formula_units_Z   2
loop_
 _symmetry_equiv_pos_site_id
 _symmetry_equiv_pos_as_xyz
  1  'x, y, z'
loop_
 _atom_site_type_symbol
 _atom_site_label
 _atom_site_symmetry_multiplicity
 _atom_site_fract_x
 _atom_site_fract_y
 _atom_site_fract_z
 _atom_site_occupancy
  Nd  Nd0  1  0.000000  0.500000  0.523967  1
  Nd  Nd1  1  0.500000  0.000000  0.476033  1
  Tm  Tm2  1  0.500000  0.818872  0.203053  1
  Tm  Tm3  1  0.500000  0.181128  0.203053  1
  Tm  Tm4  1  0.000000  0.681128  0.796947  1
  Tm  Tm5  1  0.000000  0.318872  0.796947  1
  V  V6  1  0.500000  0.500000  0.151789  1
  V  V7  1  0.000000  0.000000  0.848211  1
  Co  Co8  1  0.500000  0.500000  0.705868  1
  Co  Co9  1  0.000000  0.000000  0.294132  1
  Co  Co10  1  0.000000  0.500000  0.986535  1
  Co  Co11  1  0.500000  0.000000  0.013465  1
  Co  Co12  1  0.500000  0.332283  0.992951  1
  Co  Co13  1  0.500000  0.667717  0.992951  1
  Co  Co14  1  0.000000  0.167717  0.007049  1
  Co  Co15  1  0.000000  0.832283  0.007049  1
  Co  Co16  1  0.500000  0.295248  0.429544  1
  Co  Co17  1  0.500000  0.704752  0.429544  1
  Co  Co18  1  0.000000  0.204752  0.570456  1
  Co  Co19  1  0.000000  0.795248  0.570456  1
  Co  Co20  1  0.500000  0.878500  0.710857  1
  Co  Co21  1  0.500000  0.121500  0.710857  1
  Co  Co22  1  0.000000  0.621500  0.289143  1
  Co  Co23  1  0.000000  0.378500  0.289143  1
  P  P24  1  0.500000  0.500000  0.882666  1
  P  P25  1  0.000000  0.000000  0.117334  1
  P  P26  1  0.500000  0.500000  0.342756  1
  P  P27  1  0.000000  0.000000  0.657244  1
  P  P28  1  0.500000  0.308632  0.618611  1
  P  P29  1  0.500000  0.691368  0.618611  1
  P  P30  1  0.000000  0.191368  0.381389  1
  P  P31  1  0.000000  0.808632  0.381389  1
  P  P32  1  0.500000  0.845146  0.892402  1
  P  P33  1  0.500000  0.154854  0.892402  1
  P  P34  1  0.000000  0.654854  0.107598  1
  P  P35  1  0.000000  0.345146  0.107598  1
