# generated using pymatgen
data_Sr6SbOsO12
_symmetry_space_group_name_H-M   'P 1'
_cell_length_a   6.15388825
_cell_length_b   5.91505949
_cell_length_c   10.35765700
_cell_angle_alpha   54.81693098
_cell_angle_beta   89.77312113
_cell_angle_gamma   89.79532880
_symmetry_Int_Tables_number   1
_chemical_formula_structural   Sr6SbOsO12
_chemical_formula_sum   'Sr6 Sb1 Os1 O12'
_cell_volume   308.14553293
_cell_formula_units_Z   1
loop_
 _symmetry_equiv_pos_site_id
 _symmetry_equiv_pos_as_xyz
  1  'x, y, z'
loop_
 _atom_site_type_symbol
 _atom_site_label
 _atom_site_symmetry_multiplicity
 _atom_site_fract_x
 _atom_site_fract_y
 _atom_site_fract_z
 _atom_site_occupancy
  Sr  Sr0  1  0.500000  0.500000  0.500000  1
  Sr  Sr1  1  0.952782  0.723878  0.262459  1
  Sr  Sr2  1  0.446053  0.260250  0.256496  1
  Sr  Sr3  1  0.000000  0.500000  0.000000  1
  Sr  Sr4  1  0.553947  0.739750  0.743504  1
  Sr  Sr5  1  0.047218  0.276122  0.737541  1
  Sb  Sb6  1  0.000000  0.000000  0.500000  1
  Os  Os7  1  0.500000  0.000000  0.000000  1
  O  O8  1  0.458925  0.116030  0.788916  1
  O  O9  1  0.239635  0.774937  0.061494  1
  O  O10  1  0.185602  0.321413  0.451085  1
  O  O11  1  0.669604  0.690533  0.044367  1
  O  O12  1  0.731179  0.246300  0.430696  1
  O  O13  1  0.948451  0.885347  0.724286  1
  O  O14  1  0.051549  0.114653  0.275714  1
  O  O15  1  0.268821  0.753700  0.569304  1
  O  O16  1  0.330396  0.309467  0.955633  1
  O  O17  1  0.814398  0.678587  0.548915  1
  O  O18  1  0.760365  0.225063  0.938506  1
  O  O19  1  0.541075  0.883970  0.211084  1
