# generated using pymatgen
data_Th8Ni3IrOs4
_symmetry_space_group_name_H-M   'P 1'
_cell_length_a   4.25511700
_cell_length_b   5.85103216
_cell_length_c   14.63004351
_cell_angle_alpha   90.02132461
_cell_angle_beta   90.00000000
_cell_angle_gamma   90.00000000
_symmetry_Int_Tables_number   1
_chemical_formula_structural   Th8Ni3IrOs4
_chemical_formula_sum   'Th8 Ni3 Ir1 Os4'
_cell_volume   364.24162804
_cell_formula_units_Z   1
loop_
 _symmetry_equiv_pos_site_id
 _symmetry_equiv_pos_as_xyz
  1  'x, y, z'
loop_
 _atom_site_type_symbol
 _atom_site_label
 _atom_site_symmetry_multiplicity
 _atom_site_fract_x
 _atom_site_fract_y
 _atom_site_fract_z
 _atom_site_occupancy
  Th  Th0  1  0.250000  0.545195  0.286609  1
  Th  Th1  1  0.750000  0.458772  0.717628  1
  Th  Th2  1  0.250000  0.956806  0.785703  1
  Th  Th3  1  0.250000  0.752057  0.536402  1
  Th  Th4  1  0.250000  0.745242  0.032299  1
  Th  Th5  1  0.750000  0.258094  0.963574  1
  Th  Th6  1  0.750000  0.045537  0.214539  1
  Th  Th7  1  0.750000  0.242699  0.462968  1
  Ni  Ni8  1  0.750000  0.766181  0.902130  1
  Ni  Ni9  1  0.250000  0.232106  0.097303  1
  Ni  Ni10  1  0.250000  0.255056  0.603253  1
  Ir  Ir11  1  0.750000  0.547317  0.140912  1
  Os  Os12  1  0.250000  0.057653  0.347167  1
  Os  Os13  1  0.750000  0.726923  0.404115  1
  Os  Os14  1  0.250000  0.449947  0.854929  1
  Os  Os15  1  0.750000  0.960416  0.650471  1
