# generated using pymatgen
data_Np2Pa3O10
_symmetry_space_group_name_H-M   'P 1'
_cell_length_a   6.68338507
_cell_length_b   6.68338642
_cell_length_c   8.61626057
_cell_angle_alpha   49.82354563
_cell_angle_beta   49.82353374
_cell_angle_gamma   48.18067976
_symmetry_Int_Tables_number   1
_chemical_formula_structural   Np2Pa3O10
_chemical_formula_sum   'Np2 Pa3 O10'
_cell_volume   202.93285440
_cell_formula_units_Z   1
loop_
 _symmetry_equiv_pos_site_id
 _symmetry_equiv_pos_as_xyz
  1  'x, y, z'
loop_
 _atom_site_type_symbol
 _atom_site_label
 _atom_site_symmetry_multiplicity
 _atom_site_fract_x
 _atom_site_fract_y
 _atom_site_fract_z
 _atom_site_occupancy
  Np  Np0  1  0.300989  0.300989  0.098074  1
  Np  Np1  1  0.699011  0.699011  0.901926  1
  Pa  Pa2  1  0.098112  0.098112  0.702294  1
  Pa  Pa3  1  0.500000  0.500000  0.500000  1
  Pa  Pa4  1  0.901888  0.901888  0.297706  1
  O  O5  1  0.656491  0.155698  0.789874  1
  O  O6  1  0.155698  0.656491  0.789874  1
  O  O7  1  0.454534  0.945128  0.404083  1
  O  O8  1  0.945128  0.454534  0.404083  1
  O  O9  1  0.844302  0.343509  0.210126  1
  O  O10  1  0.240964  0.759036  0.000000  1
  O  O11  1  0.343509  0.844302  0.210126  1
  O  O12  1  0.759036  0.240964  0.000000  1
  O  O13  1  0.054872  0.545466  0.595917  1
  O  O14  1  0.545466  0.054872  0.595917  1
