# generated using pymatgen
data_La2Tb2DyIr2
_symmetry_space_group_name_H-M   'P 1'
_cell_length_a   6.60645097
_cell_length_b   7.24850471
_cell_length_c   8.88677206
_cell_angle_alpha   96.84624973
_cell_angle_beta   111.82058110
_cell_angle_gamma   89.99998989
_symmetry_Int_Tables_number   1
_chemical_formula_structural   La2Tb2DyIr2
_chemical_formula_sum   'La4 Tb4 Dy2 Ir4'
_cell_volume   391.79905075
_cell_formula_units_Z   2
loop_
 _symmetry_equiv_pos_site_id
 _symmetry_equiv_pos_as_xyz
  1  'x, y, z'
loop_
 _atom_site_type_symbol
 _atom_site_label
 _atom_site_symmetry_multiplicity
 _atom_site_fract_x
 _atom_site_fract_y
 _atom_site_fract_z
 _atom_site_occupancy
  La  La0  1  0.785070  0.082734  0.807823  1
  La  La1  1  0.977247  0.417266  0.192177  1
  La  La2  1  0.214930  0.917266  0.192177  1
  La  La3  1  0.022753  0.582734  0.807823  1
  Tb  Tb4  1  0.208805  0.183553  0.566235  1
  Tb  Tb5  1  0.642569  0.316447  0.433765  1
  Tb  Tb6  1  0.791195  0.816447  0.433765  1
  Tb  Tb7  1  0.357431  0.683553  0.566235  1
  Dy  Dy8  1  0.430109  0.250000  0.000000  1
  Dy  Dy9  1  0.569891  0.750000  0.000000  1
  Ir  Ir10  1  0.590026  0.424024  0.773913  1
  Ir  Ir11  1  0.816112  0.075976  0.226087  1
  Ir  Ir12  1  0.409974  0.575976  0.226087  1
  Ir  Ir13  1  0.183888  0.924024  0.773913  1
