# generated using pymatgen
data_Dy5BiPbO12
_symmetry_space_group_name_H-M   'P 1'
_cell_length_a   6.49251813
_cell_length_b   6.59207349
_cell_length_c   6.55268000
_cell_angle_alpha   99.49926021
_cell_angle_beta   99.21263668
_cell_angle_gamma   98.57094617
_symmetry_Int_Tables_number   1
_chemical_formula_structural   Dy5BiPbO12
_chemical_formula_sum   'Dy5 Bi1 Pb1 O12'
_cell_volume   268.56507922
_cell_formula_units_Z   1
loop_
 _symmetry_equiv_pos_site_id
 _symmetry_equiv_pos_as_xyz
  1  'x, y, z'
loop_
 _atom_site_type_symbol
 _atom_site_label
 _atom_site_symmetry_multiplicity
 _atom_site_fract_x
 _atom_site_fract_y
 _atom_site_fract_z
 _atom_site_occupancy
  Dy  Dy0  1  0.390448  0.857780  0.689390  1
  Dy  Dy1  1  0.690406  0.392615  0.866309  1
  Dy  Dy2  1  0.314635  0.612261  0.142805  1
  Dy  Dy3  1  0.606846  0.140286  0.305701  1
  Dy  Dy4  1  0.853954  0.689313  0.389099  1
  Bi  Bi5  1  0.001504  0.998258  0.996478  1
  Pb  Pb6  1  0.143676  0.321186  0.604250  1
  O  O7  1  0.075424  0.313077  0.943459  1
  O  O8  1  0.045753  0.910761  0.684268  1
  O  O9  1  0.416026  0.570726  0.821467  1
  O  O10  1  0.178472  0.578740  0.426574  1
  O  O11  1  0.683041  0.053101  0.929859  1
  O  O12  1  0.419347  0.183578  0.585901  1
  O  O13  1  0.567154  0.828847  0.416236  1
  O  O14  1  0.317536  0.948955  0.070888  1
  O  O15  1  0.828774  0.405793  0.572216  1
  O  O16  1  0.587854  0.433113  0.183490  1
  O  O17  1  0.954110  0.074810  0.318647  1
  O  O18  1  0.925040  0.686801  0.052964  1
