# generated using pymatgen
data_AcCe(SnPd)2
_symmetry_space_group_name_H-M   'P 1'
_cell_length_a   7.94433300
_cell_length_b   7.94433208
_cell_length_c   8.17035400
_cell_angle_alpha   90.00000000
_cell_angle_beta   90.00000000
_cell_angle_gamma   119.99999133
_symmetry_Int_Tables_number   1
_chemical_formula_structural   AcCe(SnPd)2
_chemical_formula_sum   'Ac3 Ce3 Sn6 Pd6'
_cell_volume   446.56673933
_cell_formula_units_Z   3
loop_
 _symmetry_equiv_pos_site_id
 _symmetry_equiv_pos_as_xyz
  1  'x, y, z'
loop_
 _atom_site_type_symbol
 _atom_site_label
 _atom_site_symmetry_multiplicity
 _atom_site_fract_x
 _atom_site_fract_y
 _atom_site_fract_z
 _atom_site_occupancy
  Ac  Ac0  1  0.411457  0.999714  0.750000  1
  Ac  Ac1  1  0.588257  0.588543  0.750000  1
  Ac  Ac2  1  0.000286  0.411743  0.750000  1
  Ce  Ce3  1  0.407828  0.000488  0.250000  1
  Ce  Ce4  1  0.592660  0.592172  0.250000  1
  Ce  Ce5  1  0.999512  0.407340  0.250000  1
  Sn  Sn6  1  0.751759  0.999961  0.010328  1
  Sn  Sn7  1  0.248203  0.248241  0.489672  1
  Sn  Sn8  1  0.000039  0.751797  0.489672  1
  Sn  Sn9  1  0.000039  0.751797  0.010328  1
  Sn  Sn10  1  0.248203  0.248241  0.010328  1
  Sn  Sn11  1  0.751759  0.999961  0.489672  1
  Pd  Pd12  1  0.333333  0.666667  0.018791  1
  Pd  Pd13  1  0.333333  0.666667  0.481209  1
  Pd  Pd14  1  0.666667  0.333333  0.017843  1
  Pd  Pd15  1  0.666667  0.333333  0.482157  1
  Pd  Pd16  1  0.000000  0.000000  0.250000  1
  Pd  Pd17  1  0.000000  0.000000  0.750000  1
