# generated using pymatgen
data_YEr5Ti2(Al11Ru4)2
_symmetry_space_group_name_H-M   'P 1'
_cell_length_a   8.84265800
_cell_length_b   8.83867914
_cell_length_c   9.52572405
_cell_angle_alpha   89.98989140
_cell_angle_beta   90.00039932
_cell_angle_gamma   120.01416277
_symmetry_Int_Tables_number   1
_chemical_formula_structural   YEr5Ti2(Al11Ru4)2
_chemical_formula_sum   'Y1 Er5 Ti2 Al22 Ru8'
_cell_volume   644.66904774
_cell_formula_units_Z   1
loop_
 _symmetry_equiv_pos_site_id
 _symmetry_equiv_pos_as_xyz
  1  'x, y, z'
loop_
 _atom_site_type_symbol
 _atom_site_label
 _atom_site_symmetry_multiplicity
 _atom_site_fract_x
 _atom_site_fract_y
 _atom_site_fract_z
 _atom_site_occupancy
  Y  Y0  1  0.193895  0.387786  0.250499  1
  Er  Er1  1  0.805265  0.610568  0.749399  1
  Er  Er2  1  0.610923  0.805589  0.250526  1
  Er  Er3  1  0.389489  0.194743  0.749467  1
  Er  Er4  1  0.194667  0.805582  0.250516  1
  Er  Er5  1  0.805247  0.194745  0.749470  1
  Ti  Ti6  1  0.333552  0.667057  0.996385  1
  Ti  Ti7  1  0.666631  0.333341  0.003044  1
  Al  Al8  1  0.666755  0.333509  0.518176  1
  Al  Al9  1  0.333459  0.666920  0.482350  1
  Al  Al10  1  0.161404  0.322806  0.578092  1
  Al  Al11  1  0.838624  0.677244  0.422730  1
  Al  Al12  1  0.677350  0.838672  0.577626  1
  Al  Al13  1  0.840845  0.681686  0.077991  1
  Al  Al14  1  0.323060  0.161216  0.422923  1
  Al  Al15  1  0.159206  0.318419  0.921153  1
  Al  Al16  1  0.161325  0.838669  0.577625  1
  Al  Al17  1  0.318548  0.158954  0.077796  1
  Al  Al18  1  0.838161  0.161215  0.422926  1
  Al  Al19  1  0.681831  0.840850  0.921672  1
  Al  Al20  1  0.840403  0.158957  0.077793  1
  Al  Al21  1  0.159017  0.840840  0.921669  1
  Al  Al22  1  0.560622  0.121243  0.252411  1
  Al  Al23  1  0.439431  0.878862  0.747612  1
  Al  Al24  1  0.878384  0.439593  0.252422  1
  Al  Al25  1  0.121172  0.560718  0.747628  1
  Al  Al26  1  0.561209  0.439593  0.252428  1
  Al  Al27  1  0.439539  0.560718  0.747625  1
  Al  Al28  1  0.999194  0.998383  0.250490  1
  Al  Al29  1  0.000026  0.000048  0.749526  1
  Ru  Ru30  1  0.500002  0.999972  0.000024  1
  Ru  Ru31  1  0.999592  0.500102  0.999570  1
  Ru  Ru32  1  0.500087  0.000162  0.500133  1
  Ru  Ru33  1  0.500504  0.500130  0.999590  1
  Ru  Ru34  1  0.999843  0.500198  0.500340  1
  Ru  Ru35  1  0.500368  0.500224  0.500364  1
  Ru  Ru36  1  0.000177  0.000340  0.000195  1
  Ru  Ru37  1  0.000193  0.000345  0.499814  1
