# generated using pymatgen
data_Rb3Sc(BrO3)6
_symmetry_space_group_name_H-M   'P 1'
_cell_length_a   7.27135932
_cell_length_b   7.15029123
_cell_length_c   10.79393605
_cell_angle_alpha   87.32925871
_cell_angle_beta   108.11190352
_cell_angle_gamma   106.13559344
_symmetry_Int_Tables_number   1
_chemical_formula_structural   Rb3Sc(BrO3)6
_chemical_formula_sum   'Rb3 Sc1 Br6 O18'
_cell_volume   511.89581977
_cell_formula_units_Z   1
loop_
 _symmetry_equiv_pos_site_id
 _symmetry_equiv_pos_as_xyz
  1  'x, y, z'
loop_
 _atom_site_type_symbol
 _atom_site_label
 _atom_site_symmetry_multiplicity
 _atom_site_fract_x
 _atom_site_fract_y
 _atom_site_fract_z
 _atom_site_occupancy
  Rb  Rb0  1  0.000000  0.000000  0.000000  1
  Rb  Rb1  1  0.828541  0.031896  0.601804  1
  Rb  Rb2  1  0.171459  0.968104  0.398196  1
  Sc  Sc3  1  0.500000  0.500000  0.000000  1
  Br  Br4  1  0.995206  0.468491  0.186265  1
  Br  Br5  1  0.004794  0.531509  0.813735  1
  Br  Br6  1  0.554155  0.932778  0.188191  1
  Br  Br7  1  0.445845  0.067222  0.811809  1
  Br  Br8  1  0.447327  0.577262  0.652523  1
  Br  Br9  1  0.552673  0.422738  0.347477  1
  O  O10  1  0.818689  0.536382  0.054167  1
  O  O11  1  0.181311  0.463618  0.945833  1
  O  O12  1  0.957117  0.549339  0.315987  1
  O  O13  1  0.042883  0.450661  0.684013  1
  O  O14  1  0.918545  0.224492  0.182862  1
  O  O15  1  0.081455  0.775508  0.817138  1
  O  O16  1  0.569348  0.802363  0.061098  1
  O  O17  1  0.430652  0.197637  0.938902  1
  O  O18  1  0.313696  0.851880  0.186148  1
  O  O19  1  0.686304  0.148120  0.813852  1
  O  O20  1  0.690642  0.847791  0.322088  1
  O  O21  1  0.309358  0.152209  0.677912  1
  O  O22  1  0.525736  0.608504  0.821723  1
  O  O23  1  0.474264  0.391496  0.178277  1
  O  O24  1  0.662423  0.582502  0.625226  1
  O  O25  1  0.337577  0.417498  0.374774  1
  O  O26  1  0.410023  0.793092  0.605696  1
  O  O27  1  0.589977  0.206908  0.394304  1
