# generated using pymatgen
data_YbHoTiSi3Ir4
_symmetry_space_group_name_H-M   'P 1'
_cell_length_a   4.12009900
_cell_length_b   4.03105000
_cell_length_c   10.42282400
_cell_angle_alpha   90.00000000
_cell_angle_beta   90.00000000
_cell_angle_gamma   90.00000000
_symmetry_Int_Tables_number   1
_chemical_formula_structural   YbHoTiSi3Ir4
_chemical_formula_sum   'Yb1 Ho1 Ti1 Si3 Ir4'
_cell_volume   173.10564918
_cell_formula_units_Z   1
loop_
 _symmetry_equiv_pos_site_id
 _symmetry_equiv_pos_as_xyz
  1  'x, y, z'
loop_
 _atom_site_type_symbol
 _atom_site_label
 _atom_site_symmetry_multiplicity
 _atom_site_fract_x
 _atom_site_fract_y
 _atom_site_fract_z
 _atom_site_occupancy
  Yb  Yb0  1  0.000000  0.500000  0.240690  1
  Ho  Ho1  1  0.500000  0.000000  0.758063  1
  Ti  Ti2  1  0.000000  0.000000  0.500365  1
  Si  Si3  1  0.500000  0.500000  0.502438  1
  Si  Si4  1  0.000000  0.500000  0.874066  1
  Si  Si5  1  0.500000  0.000000  0.124085  1
  Ir  Ir6  1  0.000000  0.000000  0.999196  1
  Ir  Ir7  1  0.500000  0.500000  0.998720  1
  Ir  Ir8  1  0.000000  0.500000  0.643565  1
  Ir  Ir9  1  0.500000  0.000000  0.358811  1
