# generated using pymatgen
data_Yb10CdPd4Pb
_symmetry_space_group_name_H-M   'P 1'
_cell_length_a   9.00265037
_cell_length_b   9.00264920
_cell_length_c   9.00264967
_cell_angle_alpha   127.86011687
_cell_angle_beta   127.86011443
_cell_angle_gamma   76.85174015
_symmetry_Int_Tables_number   1
_chemical_formula_structural   Yb10CdPd4Pb
_chemical_formula_sum   'Yb10 Cd1 Pd4 Pb1'
_cell_volume   441.58701082
_cell_formula_units_Z   1
loop_
 _symmetry_equiv_pos_site_id
 _symmetry_equiv_pos_as_xyz
  1  'x, y, z'
loop_
 _atom_site_type_symbol
 _atom_site_label
 _atom_site_symmetry_multiplicity
 _atom_site_fract_x
 _atom_site_fract_y
 _atom_site_fract_z
 _atom_site_occupancy
  Yb  Yb0  1  0.498061  0.498061  0.000000  1
  Yb  Yb1  1  0.001939  0.001939  0.000000  1
  Yb  Yb2  1  0.531587  0.032959  0.831097  1
  Yb  Yb3  1  0.201863  0.700491  0.168903  1
  Yb  Yb4  1  0.032959  0.201863  0.501372  1
  Yb  Yb5  1  0.700491  0.531587  0.498628  1
  Yb  Yb6  1  0.467041  0.968413  0.168903  1
  Yb  Yb7  1  0.799509  0.298137  0.831097  1
  Yb  Yb8  1  0.968413  0.799509  0.501372  1
  Yb  Yb9  1  0.298137  0.467041  0.498628  1
  Cd  Cd10  1  0.750000  0.750000  0.000000  1
  Pd  Pd11  1  0.129631  0.629631  0.759263  1
  Pd  Pd12  1  0.870369  0.370369  0.240737  1
  Pd  Pd13  1  0.629631  0.870369  0.500000  1
  Pd  Pd14  1  0.370369  0.129631  0.500000  1
  Pb  Pb15  1  0.250000  0.250000  0.000000  1
