# generated using pymatgen
data_Na4As2PtO9
_symmetry_space_group_name_H-M   'P 1'
_cell_length_a   7.38678949
_cell_length_b   7.83754282
_cell_length_c   8.82855064
_cell_angle_alpha   90.27068340
_cell_angle_beta   114.73025445
_cell_angle_gamma   89.99999862
_symmetry_Int_Tables_number   1
_chemical_formula_structural   Na4As2PtO9
_chemical_formula_sum   'Na8 As4 Pt2 O18'
_cell_volume   464.23991356
_cell_formula_units_Z   2
loop_
 _symmetry_equiv_pos_site_id
 _symmetry_equiv_pos_as_xyz
  1  'x, y, z'
loop_
 _atom_site_type_symbol
 _atom_site_label
 _atom_site_symmetry_multiplicity
 _atom_site_fract_x
 _atom_site_fract_y
 _atom_site_fract_z
 _atom_site_occupancy
  Na  Na0  1  0.254791  0.000000  0.000000  1
  Na  Na1  1  0.745210  0.000000  0.000000  1
  Na  Na2  1  0.107223  0.238658  0.214447  1
  Na  Na3  1  0.629177  0.725738  0.258354  1
  Na  Na4  1  0.000000  0.500000  0.500000  1
  Na  Na5  1  0.500000  0.500000  0.500000  1
  Na  Na6  1  0.370823  0.274262  0.741646  1
  Na  Na7  1  0.892776  0.761341  0.785554  1
  As  As8  1  0.613547  0.235967  0.227096  1
  As  As9  1  0.130216  0.727737  0.260432  1
  As  As10  1  0.869784  0.272262  0.739568  1
  As  As11  1  0.386452  0.764032  0.772905  1
  Pt  Pt12  1  0.000000  0.000000  0.499999  1
  Pt  Pt13  1  0.500000  0.000000  0.499999  1
  O  O14  1  0.508227  0.217440  0.016455  1
  O  O15  1  0.036227  0.825799  0.072455  1
  O  O16  1  0.137413  0.513006  0.274827  1
  O  O17  1  0.441482  0.118365  0.278285  1
  O  O18  1  0.836803  0.118365  0.278285  1
  O  O19  1  0.658437  0.432136  0.316876  1
  O  O20  1  0.385727  0.780370  0.371050  1
  O  O21  1  0.985322  0.780370  0.371050  1
  O  O22  1  0.239203  0.110075  0.478406  1
  O  O23  1  0.760797  0.889924  0.521593  1
  O  O24  1  0.014677  0.219629  0.628949  1
  O  O25  1  0.614272  0.219629  0.628949  1
  O  O26  1  0.341563  0.567865  0.683124  1
  O  O27  1  0.163197  0.881636  0.721715  1
  O  O28  1  0.558517  0.881636  0.721715  1
  O  O29  1  0.862586  0.486994  0.725172  1
  O  O30  1  0.963773  0.174201  0.927546  1
  O  O31  1  0.491773  0.782560  0.983545  1
