# generated using pymatgen
data_Ho2TmLu(Al3Rh)6
_symmetry_space_group_name_H-M   'P 1'
_cell_length_a   7.53637775
_cell_length_b   7.53788029
_cell_length_c   9.43199400
_cell_angle_alpha   90.00000000
_cell_angle_beta   90.00000000
_cell_angle_gamma   119.29403049
_symmetry_Int_Tables_number   1
_chemical_formula_structural   Ho2TmLu(Al3Rh)6
_chemical_formula_sum   'Ho2 Tm1 Lu1 Al18 Rh6'
_cell_volume   467.29569878
_cell_formula_units_Z   1
loop_
 _symmetry_equiv_pos_site_id
 _symmetry_equiv_pos_as_xyz
  1  'x, y, z'
loop_
 _atom_site_type_symbol
 _atom_site_label
 _atom_site_symmetry_multiplicity
 _atom_site_fract_x
 _atom_site_fract_y
 _atom_site_fract_z
 _atom_site_occupancy
  Ho  Ho0  1  0.005432  0.327519  0.750000  1
  Ho  Ho1  1  0.327599  0.005502  0.750000  1
  Tm  Tm2  1  0.994193  0.672568  0.250000  1
  Lu  Lu3  1  0.672679  0.994323  0.250000  1
  Al  Al4  1  0.127947  0.128124  0.250000  1
  Al  Al5  1  0.871164  0.871360  0.750000  1
  Al  Al6  1  0.000315  0.335807  0.076324  1
  Al  Al7  1  0.999010  0.664101  0.925166  1
  Al  Al8  1  0.999010  0.664101  0.574834  1
  Al  Al9  1  0.336404  0.000538  0.423631  1
  Al  Al10  1  0.000315  0.335807  0.423676  1
  Al  Al11  1  0.664193  0.999159  0.574293  1
  Al  Al12  1  0.664193  0.999159  0.925707  1
  Al  Al13  1  0.336404  0.000538  0.076369  1
  Al  Al14  1  0.332883  0.332854  0.549133  1
  Al  Al15  1  0.667409  0.667675  0.449073  1
  Al  Al16  1  0.667409  0.667675  0.050927  1
  Al  Al17  1  0.332883  0.332854  0.950867  1
  Al  Al18  1  0.340257  0.551243  0.250000  1
  Al  Al19  1  0.660184  0.449264  0.750000  1
  Al  Al20  1  0.550912  0.339662  0.250000  1
  Al  Al21  1  0.449324  0.660368  0.750000  1
  Rh  Rh22  1  0.672525  0.327879  0.000408  1
  Rh  Rh23  1  0.327823  0.672433  0.000364  1
  Rh  Rh24  1  0.327823  0.672433  0.499636  1
  Rh  Rh25  1  0.672525  0.327879  0.499592  1
  Rh  Rh26  1  0.999592  0.999586  0.000575  1
  Rh  Rh27  1  0.999592  0.999586  0.499425  1
