# generated using pymatgen
data_Dy3ErLu16(CoSb2)4
_symmetry_space_group_name_H-M   'P 1'
_cell_length_a   7.69815971
_cell_length_b   8.70886300
_cell_length_c   11.95564611
_cell_angle_alpha   90.00000000
_cell_angle_beta   90.04922107
_cell_angle_gamma   90.00000000
_symmetry_Int_Tables_number   1
_chemical_formula_structural   Dy3ErLu16(CoSb2)4
_chemical_formula_sum   'Dy3 Er1 Lu16 Co4 Sb8'
_cell_volume   801.53273980
_cell_formula_units_Z   1
loop_
 _symmetry_equiv_pos_site_id
 _symmetry_equiv_pos_as_xyz
  1  'x, y, z'
loop_
 _atom_site_type_symbol
 _atom_site_label
 _atom_site_symmetry_multiplicity
 _atom_site_fract_x
 _atom_site_fract_y
 _atom_site_fract_z
 _atom_site_occupancy
  Dy  Dy0  1  0.877587  0.750000  0.807782  1
  Dy  Dy1  1  0.377557  0.250000  0.692100  1
  Dy  Dy2  1  0.122393  0.250000  0.192102  1
  Er  Er3  1  0.621535  0.750000  0.308676  1
  Lu  Lu4  1  0.155921  0.750000  0.204208  1
  Lu  Lu5  1  0.344357  0.750000  0.704091  1
  Lu  Lu6  1  0.844340  0.250000  0.795919  1
  Lu  Lu7  1  0.655624  0.250000  0.295895  1
  Lu  Lu8  1  0.446312  0.750000  0.997772  1
  Lu  Lu9  1  0.053665  0.750000  0.497722  1
  Lu  Lu10  1  0.553683  0.250000  0.002306  1
  Lu  Lu11  1  0.945825  0.250000  0.502186  1
  Lu  Lu12  1  0.824090  0.537274  0.065396  1
  Lu  Lu13  1  0.675819  0.962123  0.564981  1
  Lu  Lu14  1  0.175845  0.037540  0.934674  1
  Lu  Lu15  1  0.324667  0.463532  0.434496  1
  Lu  Lu16  1  0.175845  0.462460  0.934674  1
  Lu  Lu17  1  0.324667  0.036468  0.434496  1
  Lu  Lu18  1  0.824090  0.962726  0.065396  1
  Lu  Lu19  1  0.675819  0.537877  0.564981  1
  Co  Co20  1  0.432245  0.750000  0.491377  1
  Co  Co21  1  0.068167  0.750000  0.991817  1
  Co  Co22  1  0.568091  0.250000  0.508111  1
  Co  Co23  1  0.931764  0.250000  0.008250  1
  Sb  Sb24  1  0.930326  0.509019  0.328985  1
  Sb  Sb25  1  0.568948  0.991576  0.829124  1
  Sb  Sb26  1  0.068858  0.008540  0.670965  1
  Sb  Sb27  1  0.431913  0.492162  0.171223  1
  Sb  Sb28  1  0.068858  0.491460  0.670965  1
  Sb  Sb29  1  0.431913  0.007838  0.171223  1
  Sb  Sb30  1  0.930326  0.990981  0.328985  1
  Sb  Sb31  1  0.568948  0.508424  0.829124  1
