# generated using pymatgen
data_SrTcP2Os
_symmetry_space_group_name_H-M   'P 1'
_cell_length_a   6.20601687
_cell_length_b   6.20601719
_cell_length_c   6.20601683
_cell_angle_alpha   141.03663552
_cell_angle_beta   141.03663344
_cell_angle_gamma   56.28264483
_symmetry_Int_Tables_number   1
_chemical_formula_structural   SrTcP2Os
_chemical_formula_sum   'Sr1 Tc1 P2 Os1'
_cell_volume   93.77098644
_cell_formula_units_Z   1
loop_
 _symmetry_equiv_pos_site_id
 _symmetry_equiv_pos_as_xyz
  1  'x, y, z'
loop_
 _atom_site_type_symbol
 _atom_site_label
 _atom_site_symmetry_multiplicity
 _atom_site_fract_x
 _atom_site_fract_y
 _atom_site_fract_z
 _atom_site_occupancy
  Sr  Sr0  1  0.000000  0.000000  0.000000  1
  Tc  Tc1  1  0.750000  0.250000  0.500000  1
  P  P2  1  0.351421  0.351421  0.000000  1
  P  P3  1  0.648579  0.648579  0.000000  1
  Os  Os4  1  0.250000  0.750000  0.500000  1
