# generated using pymatgen
data_Mg2MnAl3Pt10
_symmetry_space_group_name_H-M   'P 1'
_cell_length_a   4.06122200
_cell_length_b   5.50398384
_cell_length_c   10.86076302
_cell_angle_alpha   89.45118977
_cell_angle_beta   90.00000000
_cell_angle_gamma   90.00000000
_symmetry_Int_Tables_number   1
_chemical_formula_structural   Mg2MnAl3Pt10
_chemical_formula_sum   'Mg2 Mn1 Al3 Pt10'
_cell_volume   242.75841577
_cell_formula_units_Z   1
loop_
 _symmetry_equiv_pos_site_id
 _symmetry_equiv_pos_as_xyz
  1  'x, y, z'
loop_
 _atom_site_type_symbol
 _atom_site_label
 _atom_site_symmetry_multiplicity
 _atom_site_fract_x
 _atom_site_fract_y
 _atom_site_fract_z
 _atom_site_occupancy
  Mg  Mg0  1  0.500000  0.191614  0.638613  1
  Mg  Mg1  1  0.500000  0.814897  0.362472  1
  Mn  Mn2  1  0.500000  0.689344  0.861619  1
  Al  Al3  1  0.500000  0.318543  0.141444  1
  Al  Al4  1  0.000000  0.499715  0.500349  1
  Al  Al5  1  0.000000  0.981893  0.995871  1
  Pt  Pt6  1  0.500000  0.303861  0.387936  1
  Pt  Pt7  1  0.500000  0.697367  0.610088  1
  Pt  Pt8  1  0.500000  0.795701  0.106455  1
  Pt  Pt9  1  0.500000  0.195911  0.897425  1
  Pt  Pt10  1  0.000000  0.446218  0.744605  1
  Pt  Pt11  1  0.000000  0.565994  0.260333  1
  Pt  Pt12  1  0.000000  0.943003  0.759507  1
  Pt  Pt13  1  0.000000  0.069695  0.231105  1
  Pt  Pt14  1  0.000000  0.484599  0.004250  1
  Pt  Pt15  1  0.000000  0.001645  0.497927  1
