# generated using pymatgen
data_YbTh3Os8
_symmetry_space_group_name_H-M   'P 1'
_cell_length_a   5.40709400
_cell_length_b   5.40709420
_cell_length_c   8.94440200
_cell_angle_alpha   90.00000000
_cell_angle_beta   90.00000000
_cell_angle_gamma   119.99999875
_symmetry_Int_Tables_number   1
_chemical_formula_structural   YbTh3Os8
_chemical_formula_sum   'Yb1 Th3 Os8'
_cell_volume   226.46954257
_cell_formula_units_Z   1
loop_
 _symmetry_equiv_pos_site_id
 _symmetry_equiv_pos_as_xyz
  1  'x, y, z'
loop_
 _atom_site_type_symbol
 _atom_site_label
 _atom_site_symmetry_multiplicity
 _atom_site_fract_x
 _atom_site_fract_y
 _atom_site_fract_z
 _atom_site_occupancy
  Yb  Yb0  1  0.333333  0.666667  0.064780  1
  Th  Th1  1  0.333333  0.666667  0.422621  1
  Th  Th2  1  0.666667  0.333333  0.570597  1
  Th  Th3  1  0.666667  0.333333  0.937325  1
  Os  Os4  1  0.000000  0.000000  0.500563  1
  Os  Os5  1  0.000000  0.000000  0.003144  1
  Os  Os6  1  0.829246  0.170754  0.247635  1
  Os  Os7  1  0.829246  0.658491  0.247635  1
  Os  Os8  1  0.341509  0.170754  0.247635  1
  Os  Os9  1  0.171654  0.828346  0.752689  1
  Os  Os10  1  0.171654  0.343308  0.752689  1
  Os  Os11  1  0.656692  0.828346  0.752689  1
