# generated using pymatgen
data_Yb3Tm(B4Ru)4
_symmetry_space_group_name_H-M   'P 1'
_cell_length_a   3.53279300
_cell_length_b   5.93591609
_cell_length_c   11.49564818
_cell_angle_alpha   89.97971699
_cell_angle_beta   90.00000000
_cell_angle_gamma   90.00000000
_symmetry_Int_Tables_number   1
_chemical_formula_structural   Yb3Tm(B4Ru)4
_chemical_formula_sum   'Yb3 Tm1 B16 Ru4'
_cell_volume   241.06789810
_cell_formula_units_Z   1
loop_
 _symmetry_equiv_pos_site_id
 _symmetry_equiv_pos_as_xyz
  1  'x, y, z'
loop_
 _atom_site_type_symbol
 _atom_site_label
 _atom_site_symmetry_multiplicity
 _atom_site_fract_x
 _atom_site_fract_y
 _atom_site_fract_z
 _atom_site_occupancy
  Yb  Yb0  1  0.500000  0.369518  0.849347  1
  Yb  Yb1  1  0.500000  0.129254  0.350237  1
  Yb  Yb2  1  0.500000  0.870350  0.650634  1
  Tm  Tm3  1  0.500000  0.629195  0.150244  1
  B  B4  1  0.000000  0.975211  0.192430  1
  B  B5  1  0.000000  0.024025  0.808007  1
  B  B6  1  0.000000  0.477147  0.307546  1
  B  B7  1  0.000000  0.523366  0.691952  1
  B  B8  1  0.000000  0.787826  0.314741  1
  B  B9  1  0.000000  0.212973  0.684836  1
  B  B10  1  0.000000  0.288563  0.185263  1
  B  B11  1  0.000000  0.713464  0.814408  1
  B  B12  1  0.000000  0.865019  0.468513  1
  B  B13  1  0.000000  0.135082  0.531138  1
  B  B14  1  0.000000  0.364720  0.031032  1
  B  B15  1  0.000000  0.635172  0.969379  1
  B  B16  1  0.000000  0.887745  0.047459  1
  B  B17  1  0.000000  0.113155  0.952617  1
  B  B18  1  0.000000  0.386821  0.452594  1
  B  B19  1  0.000000  0.613053  0.546776  1
  Ru  Ru20  1  0.500000  0.635029  0.410859  1
  Ru  Ru21  1  0.500000  0.364338  0.587989  1
  Ru  Ru22  1  0.500000  0.137646  0.090514  1
  Ru  Ru23  1  0.500000  0.861328  0.911487  1
