# generated using pymatgen
data_KPu3F12
_symmetry_space_group_name_H-M   'P 1'
_cell_length_a   6.94141901
_cell_length_b   6.94141929
_cell_length_c   6.94141861
_cell_angle_alpha   108.57644771
_cell_angle_beta   108.57645544
_cell_angle_gamma   111.27597571
_symmetry_Int_Tables_number   1
_chemical_formula_structural   KPu3F12
_chemical_formula_sum   'K1 Pu3 F12'
_cell_volume   257.27550129
_cell_formula_units_Z   1
loop_
 _symmetry_equiv_pos_site_id
 _symmetry_equiv_pos_as_xyz
  1  'x, y, z'
loop_
 _atom_site_type_symbol
 _atom_site_label
 _atom_site_symmetry_multiplicity
 _atom_site_fract_x
 _atom_site_fract_y
 _atom_site_fract_z
 _atom_site_occupancy
  K  K0  1  0.000000  0.000000  0.000000  1
  Pu  Pu1  1  0.250000  0.750000  0.500000  1
  Pu  Pu2  1  0.500000  0.500000  0.000000  1
  Pu  Pu3  1  0.750000  0.250000  0.500000  1
  F  F4  1  0.553317  0.341673  0.245439  1
  F  F5  1  0.307877  0.553317  0.211643  1
  F  F6  1  0.341673  0.096234  0.788357  1
  F  F7  1  0.096234  0.307877  0.754561  1
  F  F8  1  0.342807  0.018774  0.361581  1
  F  F9  1  0.981226  0.342807  0.324033  1
  F  F10  1  0.018774  0.657193  0.675967  1
  F  F11  1  0.657193  0.981226  0.638419  1
  F  F12  1  0.903766  0.692123  0.245439  1
  F  F13  1  0.658327  0.903766  0.211643  1
  F  F14  1  0.692123  0.446683  0.788357  1
  F  F15  1  0.446683  0.658327  0.754561  1
