# generated using pymatgen
data_Tb17Y3Sn11Bi5
_symmetry_space_group_name_H-M   'P 1'
_cell_length_a   8.22100898
_cell_length_b   8.22805826
_cell_length_c   15.62689127
_cell_angle_alpha   90.10931711
_cell_angle_beta   90.37063455
_cell_angle_gamma   89.89014012
_symmetry_Int_Tables_number   1
_chemical_formula_structural   Tb17Y3Sn11Bi5
_chemical_formula_sum   'Tb17 Y3 Sn11 Bi5'
_cell_volume   1057.02292389
_cell_formula_units_Z   1
loop_
 _symmetry_equiv_pos_site_id
 _symmetry_equiv_pos_as_xyz
  1  'x, y, z'
loop_
 _atom_site_type_symbol
 _atom_site_label
 _atom_site_symmetry_multiplicity
 _atom_site_fract_x
 _atom_site_fract_y
 _atom_site_fract_z
 _atom_site_occupancy
  Tb  Tb0  1  0.391539  0.838388  0.877635  1
  Tb  Tb1  1  0.891759  0.660977  0.621651  1
  Tb  Tb2  1  0.608373  0.159636  0.377736  1
  Tb  Tb3  1  0.105396  0.338024  0.121764  1
  Tb  Tb4  1  0.610774  0.164874  0.122331  1
  Tb  Tb5  1  0.114932  0.336260  0.380240  1
  Tb  Tb6  1  0.383517  0.837798  0.620585  1
  Tb  Tb7  1  0.888115  0.658349  0.879009  1
  Tb  Tb8  1  0.562470  0.335713  0.889438  1
  Tb  Tb9  1  0.060503  0.172543  0.608383  1
  Tb  Tb10  1  0.440327  0.672433  0.392128  1
  Tb  Tb11  1  0.940631  0.824630  0.111836  1
  Tb  Tb12  1  0.449361  0.664163  0.110674  1
  Tb  Tb13  1  0.958181  0.829216  0.393194  1
  Tb  Tb14  1  0.541081  0.330298  0.606117  1
  Tb  Tb15  1  0.053617  0.173566  0.889207  1
  Tb  Tb16  1  0.221520  0.501296  0.745841  1
  Y  Y17  1  0.721828  0.000950  0.748749  1
  Y  Y18  1  0.778298  0.498611  0.248178  1
  Y  Y19  1  0.278463  0.999169  0.253741  1
  Sn  Sn20  1  0.224931  0.526027  0.543871  1
  Sn  Sn21  1  0.274917  0.024939  0.456166  1
  Sn  Sn22  1  0.770439  0.479088  0.044918  1
  Sn  Sn23  1  0.587011  0.628571  0.748734  1
  Sn  Sn24  1  0.085610  0.873731  0.751812  1
  Sn  Sn25  1  0.411878  0.372313  0.249982  1
  Sn  Sn26  1  0.913442  0.125819  0.250987  1
  Sn  Sn27  1  0.359645  0.144083  0.751070  1
  Sn  Sn28  1  0.857510  0.356916  0.747989  1
  Sn  Sn29  1  0.642251  0.855714  0.251159  1
  Sn  Sn30  1  0.142170  0.641198  0.250311  1
  Bi  Bi31  1  0.266529  0.015032  0.045620  1
  Bi  Bi32  1  0.768974  0.479280  0.455108  1
  Bi  Bi33  1  0.730453  0.980151  0.544173  1
  Bi  Bi34  1  0.232120  0.518186  0.954741  1
  Bi  Bi35  1  0.731434  0.982061  0.954920  1
