# generated using pymatgen
data_Ho6Al16IrOs6
_symmetry_space_group_name_H-M   'P 1'
_cell_length_a   8.93307981
_cell_length_b   8.93307946
_cell_length_c   8.93307900
_cell_angle_alpha   59.99999802
_cell_angle_beta   59.99999931
_cell_angle_gamma   60.00000466
_symmetry_Int_Tables_number   1
_chemical_formula_structural   Ho6Al16IrOs6
_chemical_formula_sum   'Ho6 Al16 Ir1 Os6'
_cell_volume   504.06738162
_cell_formula_units_Z   1
loop_
 _symmetry_equiv_pos_site_id
 _symmetry_equiv_pos_as_xyz
  1  'x, y, z'
loop_
 _atom_site_type_symbol
 _atom_site_label
 _atom_site_symmetry_multiplicity
 _atom_site_fract_x
 _atom_site_fract_y
 _atom_site_fract_z
 _atom_site_occupancy
  Ho  Ho0  1  0.212316  0.787684  0.787684  1
  Ho  Ho1  1  0.787684  0.212316  0.212316  1
  Ho  Ho2  1  0.787684  0.212316  0.787684  1
  Ho  Ho3  1  0.787684  0.787684  0.212316  1
  Ho  Ho4  1  0.212316  0.787684  0.212316  1
  Ho  Ho5  1  0.212316  0.212316  0.787684  1
  Al  Al6  1  0.833319  0.833319  0.833319  1
  Al  Al7  1  0.833319  0.833319  0.500045  1
  Al  Al8  1  0.500045  0.833319  0.833319  1
  Al  Al9  1  0.833319  0.500045  0.833319  1
  Al  Al10  1  0.166681  0.166681  0.166681  1
  Al  Al11  1  0.166681  0.166681  0.499955  1
  Al  Al12  1  0.166681  0.499955  0.166681  1
  Al  Al13  1  0.499955  0.166681  0.166681  1
  Al  Al14  1  0.622181  0.622181  0.622181  1
  Al  Al15  1  0.622181  0.622181  0.133456  1
  Al  Al16  1  0.133456  0.622181  0.622181  1
  Al  Al17  1  0.622181  0.133456  0.622181  1
  Al  Al18  1  0.377819  0.377819  0.377819  1
  Al  Al19  1  0.377819  0.377819  0.866544  1
  Al  Al20  1  0.377819  0.866544  0.377819  1
  Al  Al21  1  0.866544  0.377819  0.377819  1
  Ir  Ir22  1  0.500000  0.500000  0.500000  1
  Os  Os23  1  0.000000  0.500000  0.500000  1
  Os  Os24  1  0.500000  0.000000  0.000000  1
  Os  Os25  1  0.500000  0.000000  0.500000  1
  Os  Os26  1  0.500000  0.500000  0.000000  1
  Os  Os27  1  0.000000  0.500000  0.000000  1
  Os  Os28  1  0.000000  0.000000  0.500000  1
