# generated using pymatgen
data_Nd2PaGa6(CuNi2)3
_symmetry_space_group_name_H-M   'P 1'
_cell_length_a   8.80097700
_cell_length_b   8.80097618
_cell_length_c   4.22820800
_cell_angle_alpha   90.00000000
_cell_angle_beta   90.00000000
_cell_angle_gamma   119.99999933
_symmetry_Int_Tables_number   1
_chemical_formula_structural   Nd2PaGa6(CuNi2)3
_chemical_formula_sum   'Nd2 Pa1 Ga6 Cu3 Ni6'
_cell_volume   283.62774346
_cell_formula_units_Z   1
loop_
 _symmetry_equiv_pos_site_id
 _symmetry_equiv_pos_as_xyz
  1  'x, y, z'
loop_
 _atom_site_type_symbol
 _atom_site_label
 _atom_site_symmetry_multiplicity
 _atom_site_fract_x
 _atom_site_fract_y
 _atom_site_fract_z
 _atom_site_occupancy
  Nd  Nd0  1  0.333333  0.666667  0.500000  1
  Nd  Nd1  1  0.666667  0.333333  0.500000  1
  Pa  Pa2  1  0.000000  0.000000  0.000000  1
  Ga  Ga3  1  0.485173  0.000000  0.000000  1
  Ga  Ga4  1  0.000000  0.485173  0.000000  1
  Ga  Ga5  1  0.514827  0.514827  0.000000  1
  Ga  Ga6  1  0.720966  0.000000  0.500000  1
  Ga  Ga7  1  0.000000  0.720966  0.500000  1
  Ga  Ga8  1  0.279034  0.279034  0.500000  1
  Cu  Cu9  1  0.290359  0.000000  0.500000  1
  Cu  Cu10  1  0.000000  0.290359  0.500000  1
  Cu  Cu11  1  0.709641  0.709641  0.500000  1
  Ni  Ni12  1  0.188097  0.357520  0.000000  1
  Ni  Ni13  1  0.642480  0.830578  0.000000  1
  Ni  Ni14  1  0.169422  0.811903  0.000000  1
  Ni  Ni15  1  0.830578  0.642480  0.000000  1
  Ni  Ni16  1  0.811903  0.169422  0.000000  1
  Ni  Ni17  1  0.357520  0.188097  0.000000  1
