# generated using pymatgen
data_Ti11Nb8Si16W
_symmetry_space_group_name_H-M   'P 1'
_cell_length_a   6.47587502
_cell_length_b   6.59735946
_cell_length_c   12.82893400
_cell_angle_alpha   90.00000000
_cell_angle_beta   90.00000000
_cell_angle_gamma   90.08461806
_symmetry_Int_Tables_number   1
_chemical_formula_structural   Ti11Nb8Si16W
_chemical_formula_sum   'Ti11 Nb8 Si16 W1'
_cell_volume   548.09861326
_cell_formula_units_Z   1
loop_
 _symmetry_equiv_pos_site_id
 _symmetry_equiv_pos_as_xyz
  1  'x, y, z'
loop_
 _atom_site_type_symbol
 _atom_site_label
 _atom_site_symmetry_multiplicity
 _atom_site_fract_x
 _atom_site_fract_y
 _atom_site_fract_z
 _atom_site_occupancy
  Ti  Ti0  1  0.662484  0.170743  0.624602  1
  Ti  Ti1  1  0.162933  0.328984  0.875123  1
  Ti  Ti2  1  0.336288  0.829549  0.125020  1
  Ti  Ti3  1  0.838073  0.670363  0.375037  1
  Ti  Ti4  1  0.336288  0.829549  0.374980  1
  Ti  Ti5  1  0.838073  0.670363  0.124963  1
  Ti  Ti6  1  0.662484  0.170743  0.875398  1
  Ti  Ti7  1  0.162933  0.328984  0.624877  1
  Ti  Ti8  1  0.836301  0.494130  0.750000  1
  Ti  Ti9  1  0.336318  0.007114  0.750000  1
  Ti  Ti10  1  0.162699  0.507019  0.250000  1
  Nb  Nb11  1  0.495109  0.675278  0.592340  1
  Nb  Nb12  1  0.994115  0.824720  0.907395  1
  Nb  Nb13  1  0.505282  0.326586  0.091253  1
  Nb  Nb14  1  0.007475  0.173955  0.408691  1
  Nb  Nb15  1  0.505282  0.326586  0.408747  1
  Nb  Nb16  1  0.007475  0.173955  0.091309  1
  Nb  Nb17  1  0.495109  0.675278  0.907660  1
  Nb  Nb18  1  0.994115  0.824720  0.592605  1
  Si  Si19  1  0.673568  0.962907  0.462258  1
  Si  Si20  1  0.173574  0.536958  0.036830  1
  Si  Si21  1  0.325423  0.037547  0.962882  1
  Si  Si22  1  0.826049  0.463123  0.537799  1
  Si  Si23  1  0.325423  0.037547  0.537118  1
  Si  Si24  1  0.826049  0.463123  0.962201  1
  Si  Si25  1  0.673568  0.962907  0.037742  1
  Si  Si26  1  0.173574  0.536958  0.463170  1
  Si  Si27  1  0.462841  0.389235  0.750000  1
  Si  Si28  1  0.961991  0.110963  0.750000  1
  Si  Si29  1  0.536143  0.608765  0.250000  1
  Si  Si30  1  0.037864  0.889499  0.250000  1
  Si  Si31  1  0.700220  0.857617  0.750000  1
  Si  Si32  1  0.201006  0.642427  0.750000  1
  Si  Si33  1  0.299823  0.145678  0.250000  1
  Si  Si34  1  0.801204  0.354815  0.250000  1
  W  W35  1  0.662846  0.991310  0.250000  1
