# generated using pymatgen
data_DyHo15Cd4Co3Ru
_symmetry_space_group_name_H-M   'P 1'
_cell_length_a   9.47951494
_cell_length_b   9.47295913
_cell_length_c   9.46602700
_cell_angle_alpha   60.02420765
_cell_angle_beta   60.04705987
_cell_angle_gamma   60.06666457
_symmetry_Int_Tables_number   1
_chemical_formula_structural   DyHo15Cd4Co3Ru
_chemical_formula_sum   'Dy1 Ho15 Cd4 Co3 Ru1'
_cell_volume   601.69548324
_cell_formula_units_Z   1
loop_
 _symmetry_equiv_pos_site_id
 _symmetry_equiv_pos_as_xyz
  1  'x, y, z'
loop_
 _atom_site_type_symbol
 _atom_site_label
 _atom_site_symmetry_multiplicity
 _atom_site_fract_x
 _atom_site_fract_y
 _atom_site_fract_z
 _atom_site_occupancy
  Dy  Dy0  1  0.937557  0.937061  0.562691  1
  Ho  Ho1  1  0.815124  0.188881  0.187668  1
  Ho  Ho2  1  0.937682  0.562290  0.562434  1
  Ho  Ho3  1  0.937682  0.562290  0.937594  1
  Ho  Ho4  1  0.814914  0.808410  0.188338  1
  Ho  Ho5  1  0.341882  0.349083  0.349268  1
  Ho  Ho6  1  0.563209  0.938945  0.939449  1
  Ho  Ho7  1  0.563209  0.938945  0.558398  1
  Ho  Ho8  1  0.188664  0.811848  0.811516  1
  Ho  Ho9  1  0.188464  0.188627  0.811455  1
  Ho  Ho10  1  0.341882  0.349083  0.959769  1
  Ho  Ho11  1  0.341913  0.960210  0.348939  1
  Ho  Ho12  1  0.815124  0.188881  0.808327  1
  Ho  Ho13  1  0.563239  0.558327  0.939218  1
  Ho  Ho14  1  0.188664  0.811848  0.187972  1
  Ho  Ho15  1  0.963050  0.345379  0.345786  1
  Cd  Cd16  1  0.580940  0.580455  0.258168  1
  Cd  Cd17  1  0.258012  0.580545  0.580721  1
  Cd  Cd18  1  0.580940  0.580455  0.580438  1
  Cd  Cd19  1  0.580599  0.258784  0.580309  1
  Co  Co20  1  0.140028  0.140535  0.140978  1
  Co  Co21  1  0.139688  0.578253  0.141030  1
  Co  Co22  1  0.140028  0.140535  0.578460  1
  Ru  Ru23  1  0.577508  0.140335  0.141079  1
