# generated using pymatgen
data_Sc3Mn2Al7Si5Ru
_symmetry_space_group_name_H-M   'P 1'
_cell_length_a   8.38702500
_cell_length_b   8.38143214
_cell_length_c   9.00562329
_cell_angle_alpha   90.08463707
_cell_angle_beta   90.00000000
_cell_angle_gamma   120.02208023
_symmetry_Int_Tables_number   1
_chemical_formula_structural   Sc3Mn2Al7Si5Ru
_chemical_formula_sum   'Sc6 Mn4 Al14 Si10 Ru2'
_cell_volume   548.11700416
_cell_formula_units_Z   2
loop_
 _symmetry_equiv_pos_site_id
 _symmetry_equiv_pos_as_xyz
  1  'x, y, z'
loop_
 _atom_site_type_symbol
 _atom_site_label
 _atom_site_symmetry_multiplicity
 _atom_site_fract_x
 _atom_site_fract_y
 _atom_site_fract_z
 _atom_site_occupancy
  Sc  Sc0  1  0.201437  0.802029  0.246737  1
  Sc  Sc1  1  0.200236  0.400471  0.247637  1
  Sc  Sc2  1  0.600592  0.802029  0.246737  1
  Sc  Sc3  1  0.798563  0.197971  0.753263  1
  Sc  Sc4  1  0.799764  0.599529  0.752363  1
  Sc  Sc5  1  0.399408  0.197971  0.753263  1
  Mn  Mn6  1  0.500000  0.000000  0.500000  1
  Mn  Mn7  1  0.500000  0.500000  0.000000  1
  Mn  Mn8  1  0.500000  0.000000  0.000000  1
  Mn  Mn9  1  0.000000  0.500000  0.000000  1
  Al  Al10  1  0.163560  0.836844  0.921399  1
  Al  Al11  1  0.162432  0.324863  0.922064  1
  Al  Al12  1  0.673284  0.836844  0.921399  1
  Al  Al13  1  0.836440  0.163156  0.078601  1
  Al  Al14  1  0.837568  0.675137  0.077936  1
  Al  Al15  1  0.326716  0.163156  0.078601  1
  Al  Al16  1  0.834729  0.158300  0.419183  1
  Al  Al17  1  0.840171  0.680342  0.418669  1
  Al  Al18  1  0.323572  0.158300  0.419183  1
  Al  Al19  1  0.165271  0.841700  0.580817  1
  Al  Al20  1  0.159829  0.319658  0.581331  1
  Al  Al21  1  0.676428  0.841700  0.580817  1
  Al  Al22  1  0.000131  0.000261  0.249930  1
  Al  Al23  1  0.999869  0.999739  0.750070  1
  Si  Si24  1  0.562941  0.438236  0.243785  1
  Si  Si25  1  0.560107  0.120215  0.249645  1
  Si  Si26  1  0.875295  0.438236  0.243785  1
  Si  Si27  1  0.437059  0.561764  0.756215  1
  Si  Si28  1  0.439893  0.879785  0.750355  1
  Si  Si29  1  0.124705  0.561764  0.756215  1
  Si  Si30  1  0.337601  0.675204  0.455455  1
  Si  Si31  1  0.662399  0.324796  0.544545  1
  Si  Si32  1  0.666680  0.333359  0.960526  1
  Si  Si33  1  0.333320  0.666641  0.039474  1
  Ru  Ru34  1  0.500000  0.500000  0.500000  1
  Ru  Ru35  1  0.000000  0.500000  0.500000  1
