# generated using pymatgen
data_CePu4Re2C7
_symmetry_space_group_name_H-M   'P 1'
_cell_length_a   8.48350152
_cell_length_b   8.39769226
_cell_length_c   3.45220300
_cell_angle_alpha   90.00000000
_cell_angle_beta   90.00000000
_cell_angle_gamma   125.24010650
_symmetry_Int_Tables_number   1
_chemical_formula_structural   CePu4Re2C7
_chemical_formula_sum   'Ce1 Pu4 Re2 C7'
_cell_volume   200.87037354
_cell_formula_units_Z   1
loop_
 _symmetry_equiv_pos_site_id
 _symmetry_equiv_pos_as_xyz
  1  'x, y, z'
loop_
 _atom_site_type_symbol
 _atom_site_label
 _atom_site_symmetry_multiplicity
 _atom_site_fract_x
 _atom_site_fract_y
 _atom_site_fract_z
 _atom_site_occupancy
  Ce  Ce0  1  0.948297  0.690306  0.500000  1
  Pu  Pu1  1  0.322546  0.058940  0.500000  1
  Pu  Pu2  1  0.676369  0.938929  0.500000  1
  Pu  Pu3  1  0.060129  0.317713  0.500000  1
  Pu  Pu4  1  0.499654  0.497094  0.000000  1
  Re  Re5  1  0.289404  0.708687  0.000000  1
  Re  Re6  1  0.711341  0.291922  0.000000  1
  C  C7  1  0.175209  0.174389  0.000000  1
  C  C8  1  0.818695  0.829630  0.000000  1
  C  C9  1  0.997488  0.001477  0.000000  1
  C  C10  1  0.372643  0.624681  0.500000  1
  C  C11  1  0.627594  0.371347  0.500000  1
  C  C12  1  0.499435  0.999261  0.000000  1
  C  C13  1  0.001196  0.495623  0.000000  1
