# generated using pymatgen
data_Pr2AsP3Rh7
_symmetry_space_group_name_H-M   'P 1'
_cell_length_a   4.02294700
_cell_length_b   9.81214900
_cell_length_c   10.95304600
_cell_angle_alpha   90.00000000
_cell_angle_beta   90.00000000
_cell_angle_gamma   90.00000000
_symmetry_Int_Tables_number   1
_chemical_formula_structural   Pr2AsP3Rh7
_chemical_formula_sum   'Pr4 As2 P6 Rh14'
_cell_volume   432.35785850
_cell_formula_units_Z   2
loop_
 _symmetry_equiv_pos_site_id
 _symmetry_equiv_pos_as_xyz
  1  'x, y, z'
loop_
 _atom_site_type_symbol
 _atom_site_label
 _atom_site_symmetry_multiplicity
 _atom_site_fract_x
 _atom_site_fract_y
 _atom_site_fract_z
 _atom_site_occupancy
  Pr  Pr0  1  0.000000  0.554245  0.004396  1
  Pr  Pr1  1  0.500000  0.445755  0.504396  1
  Pr  Pr2  1  0.000000  0.940852  0.781868  1
  Pr  Pr3  1  0.500000  0.059148  0.281868  1
  As  As4  1  0.000000  0.524202  0.727145  1
  As  As5  1  0.500000  0.475798  0.227145  1
  P  P6  1  0.000000  0.821976  0.285123  1
  P  P7  1  0.500000  0.178024  0.785123  1
  P  P8  1  0.000000  0.153518  0.095472  1
  P  P9  1  0.500000  0.846482  0.595472  1
  P  P10  1  0.000000  0.185552  0.461937  1
  P  P11  1  0.500000  0.814448  0.961937  1
  Rh  Rh12  1  0.000000  0.592576  0.306258  1
  Rh  Rh13  1  0.500000  0.407424  0.806258  1
  Rh  Rh14  1  0.000000  0.300490  0.270240  1
  Rh  Rh15  1  0.500000  0.699510  0.770240  1
  Rh  Rh16  1  0.000000  0.239182  0.904616  1
  Rh  Rh17  1  0.500000  0.760818  0.404616  1
  Rh  Rh18  1  0.000000  0.906857  0.085473  1
  Rh  Rh19  1  0.500000  0.093143  0.585473  1
  Rh  Rh20  1  0.000000  0.944114  0.473516  1
  Rh  Rh21  1  0.500000  0.055886  0.973516  1
  Rh  Rh22  1  0.000000  0.271394  0.659857  1
  Rh  Rh23  1  0.500000  0.728606  0.159857  1
  Rh  Rh24  1  0.000000  0.695635  0.575298  1
  Rh  Rh25  1  0.500000  0.304365  0.075298  1
