# generated using pymatgen
data_Ce4MnFeSiB6
_symmetry_space_group_name_H-M   'P 1'
_cell_length_a   5.27223436
_cell_length_b   5.27223306
_cell_length_c   7.81176944
_cell_angle_alpha   70.27813343
_cell_angle_beta   70.27813867
_cell_angle_gamma   59.99999501
_symmetry_Int_Tables_number   1
_chemical_formula_structural   Ce4MnFeSiB6
_chemical_formula_sum   'Ce4 Mn1 Fe1 Si1 B6'
_cell_volume   173.18479204
_cell_formula_units_Z   1
loop_
 _symmetry_equiv_pos_site_id
 _symmetry_equiv_pos_as_xyz
  1  'x, y, z'
loop_
 _atom_site_type_symbol
 _atom_site_label
 _atom_site_symmetry_multiplicity
 _atom_site_fract_x
 _atom_site_fract_y
 _atom_site_fract_z
 _atom_site_occupancy
  Ce  Ce0  1  0.261528  0.261528  0.215417  1
  Ce  Ce1  1  0.738126  0.738126  0.785623  1
  Ce  Ce2  1  0.404679  0.404679  0.785965  1
  Ce  Ce3  1  0.595491  0.595491  0.213526  1
  Mn  Mn4  1  0.111137  0.111137  0.666589  1
  Fe  Fe5  1  0.889445  0.889445  0.331666  1
  Si  Si6  1  0.999628  0.999628  0.001117  1
  B  B7  1  0.168056  0.831675  0.500016  1
  B  B8  1  0.831675  0.500253  0.500016  1
  B  B9  1  0.500253  0.168056  0.500016  1
  B  B10  1  0.168056  0.500253  0.500016  1
  B  B11  1  0.500253  0.831675  0.500016  1
  B  B12  1  0.831675  0.168056  0.500016  1
