# generated using pymatgen
data_Ho3Lu5Ti5Si16Mo7
_symmetry_space_group_name_H-M   'P 1'
_cell_length_a   6.89781031
_cell_length_b   6.89076029
_cell_length_c   12.74320913
_cell_angle_alpha   89.87345344
_cell_angle_beta   90.03916582
_cell_angle_gamma   89.96044214
_symmetry_Int_Tables_number   1
_chemical_formula_structural   Ho3Lu5Ti5Si16Mo7
_chemical_formula_sum   'Ho3 Lu5 Ti5 Si16 Mo7'
_cell_volume   605.69771445
_cell_formula_units_Z   1
loop_
 _symmetry_equiv_pos_site_id
 _symmetry_equiv_pos_as_xyz
  1  'x, y, z'
loop_
 _atom_site_type_symbol
 _atom_site_label
 _atom_site_symmetry_multiplicity
 _atom_site_fract_x
 _atom_site_fract_y
 _atom_site_fract_z
 _atom_site_occupancy
  Ho  Ho0  1  0.658659  0.996914  0.968383  1
  Ho  Ho1  1  0.003312  0.340690  0.531718  1
  Ho  Ho2  1  0.996020  0.659896  0.031193  1
  Lu  Lu3  1  0.342437  0.002895  0.467405  1
  Lu  Lu4  1  0.497502  0.841826  0.718700  1
  Lu  Lu5  1  0.501765  0.158874  0.218970  1
  Lu  Lu6  1  0.841130  0.496902  0.280752  1
  Lu  Lu7  1  0.158622  0.501691  0.782493  1
  Ti  Ti8  1  0.329029  0.329351  0.999563  1
  Ti  Ti9  1  0.170308  0.828891  0.250353  1
  Ti  Ti10  1  0.827486  0.171856  0.750225  1
  Ti  Ti11  1  0.670404  0.668661  0.499259  1
  Ti  Ti12  1  0.995240  0.842012  0.625679  1
  Si  Si13  1  0.202608  0.130707  0.683419  1
  Si  Si14  1  0.369607  0.700685  0.932497  1
  Si  Si15  1  0.631542  0.299609  0.432451  1
  Si  Si16  1  0.698943  0.368686  0.067709  1
  Si  Si17  1  0.301183  0.632742  0.566534  1
  Si  Si18  1  0.798731  0.869534  0.183852  1
  Si  Si19  1  0.130379  0.200047  0.317066  1
  Si  Si20  1  0.870657  0.799154  0.815788  1
  Si  Si21  1  0.290023  0.958681  0.063631  1
  Si  Si22  1  0.541480  0.790723  0.313103  1
  Si  Si23  1  0.456954  0.209945  0.812468  1
  Si  Si24  1  0.790473  0.543956  0.687757  1
  Si  Si25  1  0.209849  0.457275  0.187123  1
  Si  Si26  1  0.708395  0.042364  0.563721  1
  Si  Si27  1  0.958208  0.290336  0.936597  1
  Si  Si28  1  0.044089  0.710469  0.436663  1
  Mo  Mo29  1  0.159862  0.007192  0.874965  1
  Mo  Mo30  1  0.493160  0.657347  0.124748  1
  Mo  Mo31  1  0.506150  0.342344  0.623434  1
  Mo  Mo32  1  0.656032  0.492158  0.877156  1
  Mo  Mo33  1  0.343968  0.504078  0.374468  1
  Mo  Mo34  1  0.840293  0.992694  0.373304  1
  Mo  Mo35  1  0.005500  0.158816  0.126852  1
