# generated using pymatgen
data_Tb7DyIn2NiRh
_symmetry_space_group_name_H-M   'P 1'
_cell_length_a   9.65164171
_cell_length_b   9.64845774
_cell_length_c   9.65109802
_cell_angle_alpha   60.01236720
_cell_angle_beta   60.16920740
_cell_angle_gamma   60.01236445
_symmetry_Int_Tables_number   1
_chemical_formula_structural   Tb7DyIn2NiRh
_chemical_formula_sum   'Tb14 Dy2 In4 Ni2 Rh2'
_cell_volume   636.43560621
_cell_formula_units_Z   2
loop_
 _symmetry_equiv_pos_site_id
 _symmetry_equiv_pos_as_xyz
  1  'x, y, z'
loop_
 _atom_site_type_symbol
 _atom_site_label
 _atom_site_symmetry_multiplicity
 _atom_site_fract_x
 _atom_site_fract_y
 _atom_site_fract_z
 _atom_site_occupancy
  Tb  Tb0  1  0.187888  0.191004  0.809788  1
  Tb  Tb1  1  0.652385  0.045569  0.652352  1
  Tb  Tb2  1  0.061895  0.062345  0.436519  1
  Tb  Tb3  1  0.436603  0.439264  0.061866  1
  Tb  Tb4  1  0.652407  0.649747  0.652191  1
  Tb  Tb5  1  0.809783  0.190843  0.187899  1
  Tb  Tb6  1  0.187730  0.811278  0.809957  1
  Tb  Tb7  1  0.047403  0.650066  0.652511  1
  Tb  Tb8  1  0.436660  0.062250  0.061940  1
  Tb  Tb9  1  0.438062  0.061998  0.437855  1
  Tb  Tb10  1  0.062016  0.438024  0.062144  1
  Tb  Tb11  1  0.652573  0.650081  0.047483  1
  Tb  Tb12  1  0.189888  0.809915  0.190088  1
  Tb  Tb13  1  0.061829  0.439350  0.436466  1
  Dy  Dy14  1  0.809798  0.811293  0.187989  1
  Dy  Dy15  1  0.810556  0.189270  0.810728  1
  In  In16  1  0.417717  0.417710  0.417687  1
  In  In17  1  0.418126  0.417621  0.746660  1
  In  In18  1  0.417776  0.746916  0.417666  1
  In  In19  1  0.746697  0.417654  0.418080  1
  Ni  Ni20  1  0.858321  0.426820  0.858279  1
  Ni  Ni21  1  0.858293  0.856577  0.858486  1
  Rh  Rh22  1  0.858659  0.857188  0.426704  1
  Rh  Rh23  1  0.426937  0.857217  0.858662  1
