# generated using pymatgen
data_Ho12CdPt7
_symmetry_space_group_name_H-M   'P 1'
_cell_length_a   10.91300144
_cell_length_b   10.91300149
_cell_length_c   10.91300200
_cell_angle_alpha   96.63195943
_cell_angle_beta   116.24780999
_cell_angle_gamma   116.24780412
_symmetry_Int_Tables_number   1
_chemical_formula_structural   Ho12CdPt7
_chemical_formula_sum   'Ho24 Cd2 Pt14'
_cell_volume   964.12848014
_cell_formula_units_Z   2
loop_
 _symmetry_equiv_pos_site_id
 _symmetry_equiv_pos_as_xyz
  1  'x, y, z'
loop_
 _atom_site_type_symbol
 _atom_site_label
 _atom_site_symmetry_multiplicity
 _atom_site_fract_x
 _atom_site_fract_y
 _atom_site_fract_z
 _atom_site_occupancy
  Ho  Ho0  1  0.133044  0.851597  0.571429  1
  Ho  Ho1  1  0.133044  0.561616  0.281445  1
  Ho  Ho2  1  0.866956  0.148403  0.428571  1
  Ho  Ho3  1  0.719832  0.938384  0.071429  1
  Ho  Ho4  1  0.719832  0.281445  0.148403  1
  Ho  Ho5  1  0.280168  0.428571  0.561616  1
  Ho  Ho6  1  0.719832  0.648403  0.781446  1
  Ho  Ho7  1  0.133044  0.781446  0.061616  1
  Ho  Ho8  1  0.866956  0.928571  0.648403  1
  Ho  Ho9  1  0.866956  0.438384  0.718554  1
  Ho  Ho10  1  0.853618  0.676809  0.176809  1
  Ho  Ho11  1  0.280168  0.061616  0.928571  1
  Ho  Ho12  1  0.280168  0.718554  0.851597  1
  Ho  Ho13  1  0.719832  0.571429  0.438384  1
  Ho  Ho14  1  0.500000  0.633508  0.133508  1
  Ho  Ho15  1  0.500000  0.133508  0.633508  1
  Ho  Ho16  1  0.500000  0.866492  0.366492  1
  Ho  Ho17  1  0.500000  0.366492  0.866492  1
  Ho  Ho18  1  0.500000  0.176809  0.323191  1
  Ho  Ho19  1  0.866956  0.218554  0.938384  1
  Ho  Ho20  1  0.500000  0.823191  0.676809  1
  Ho  Ho21  1  0.146382  0.323191  0.823191  1
  Ho  Ho22  1  0.280168  0.351597  0.218554  1
  Ho  Ho23  1  0.133044  0.071429  0.351597  1
  Cd  Cd24  1  0.000000  0.500000  0.500000  1
  Cd  Cd25  1  0.000000  0.000000  0.000000  1
  Pt  Pt26  1  0.500000  0.020658  0.863586  1
  Pt  Pt27  1  0.500000  0.979342  0.136414  1
  Pt  Pt28  1  0.500000  0.636414  0.479342  1
  Pt  Pt29  1  0.157072  0.520658  0.020658  1
  Pt  Pt30  1  0.157072  0.136414  0.636414  1
  Pt  Pt31  1  0.842928  0.479342  0.979342  1
  Pt  Pt32  1  0.756186  0.128093  0.628093  1
  Pt  Pt33  1  0.500000  0.628093  0.871907  1
  Pt  Pt34  1  0.500000  0.371907  0.128093  1
  Pt  Pt35  1  0.243814  0.871907  0.371907  1
  Pt  Pt36  1  0.000000  0.250000  0.250000  1
  Pt  Pt37  1  0.000000  0.750000  0.750000  1
  Pt  Pt38  1  0.500000  0.363586  0.520658  1
  Pt  Pt39  1  0.842928  0.863586  0.363586  1
