# generated using pymatgen
data_Sr3Ca(Sn2Pd)4
_symmetry_space_group_name_H-M   'P 1'
_cell_length_a   9.00572527
_cell_length_b   9.00572420
_cell_length_c   9.81490300
_cell_angle_alpha   90.00000000
_cell_angle_beta   90.00000000
_cell_angle_gamma   148.87228345
_symmetry_Int_Tables_number   1
_chemical_formula_structural   Sr3Ca(Sn2Pd)4
_chemical_formula_sum   'Sr3 Ca1 Sn8 Pd4'
_cell_volume   411.49993787
_cell_formula_units_Z   1
loop_
 _symmetry_equiv_pos_site_id
 _symmetry_equiv_pos_as_xyz
  1  'x, y, z'
loop_
 _atom_site_type_symbol
 _atom_site_label
 _atom_site_symmetry_multiplicity
 _atom_site_fract_x
 _atom_site_fract_y
 _atom_site_fract_z
 _atom_site_occupancy
  Sr  Sr0  1  0.500076  0.499924  0.498958  1
  Sr  Sr1  1  0.500076  0.499924  0.001042  1
  Sr  Sr2  1  0.700788  0.299212  0.750000  1
  Ca  Ca3  1  0.299708  0.700292  0.250000  1
  Sn  Sn4  1  0.907283  0.092717  0.750000  1
  Sn  Sn5  1  0.923953  0.076047  0.250000  1
  Sn  Sn6  1  0.091523  0.908477  0.250000  1
  Sn  Sn7  1  0.072926  0.927074  0.750000  1
  Sn  Sn8  1  0.696719  0.303281  0.402573  1
  Sn  Sn9  1  0.304628  0.695372  0.592545  1
  Sn  Sn10  1  0.304628  0.695372  0.907455  1
  Sn  Sn11  1  0.696719  0.303281  0.097427  1
  Pd  Pd12  1  0.150640  0.849360  0.503667  1
  Pd  Pd13  1  0.849846  0.150154  0.006383  1
  Pd  Pd14  1  0.150640  0.849360  0.996333  1
  Pd  Pd15  1  0.849846  0.150154  0.493617  1
