# generated using pymatgen
data_Nd16Cd2Hg2IrOs3
_symmetry_space_group_name_H-M   'P 1'
_cell_length_a   9.90887708
_cell_length_b   9.94510620
_cell_length_c   9.97055700
_cell_angle_alpha   59.91530522
_cell_angle_beta   59.79387029
_cell_angle_gamma   59.78281150
_symmetry_Int_Tables_number   1
_chemical_formula_structural   Nd16Cd2Hg2IrOs3
_chemical_formula_sum   'Nd16 Cd2 Hg2 Ir1 Os3'
_cell_volume   692.09303207
_cell_formula_units_Z   1
loop_
 _symmetry_equiv_pos_site_id
 _symmetry_equiv_pos_as_xyz
  1  'x, y, z'
loop_
 _atom_site_type_symbol
 _atom_site_label
 _atom_site_symmetry_multiplicity
 _atom_site_fract_x
 _atom_site_fract_y
 _atom_site_fract_z
 _atom_site_occupancy
  Nd  Nd0  1  0.345781  0.347216  0.347846  1
  Nd  Nd1  1  0.345781  0.347216  0.959156  1
  Nd  Nd2  1  0.346075  0.957630  0.348147  1
  Nd  Nd3  1  0.959910  0.346295  0.346898  1
  Nd  Nd4  1  0.809943  0.191511  0.191127  1
  Nd  Nd5  1  0.191104  0.808792  0.809026  1
  Nd  Nd6  1  0.191104  0.808792  0.191076  1
  Nd  Nd7  1  0.809943  0.191511  0.807419  1
  Nd  Nd8  1  0.190580  0.190670  0.809374  1
  Nd  Nd9  1  0.809574  0.806634  0.191896  1
  Nd  Nd10  1  0.938961  0.560219  0.559682  1
  Nd  Nd11  1  0.558669  0.938847  0.940537  1
  Nd  Nd12  1  0.558669  0.938847  0.561948  1
  Nd  Nd13  1  0.938961  0.560219  0.941138  1
  Nd  Nd14  1  0.558191  0.562367  0.939722  1
  Nd  Nd15  1  0.939941  0.940537  0.559761  1
  Cd  Cd16  1  0.578552  0.261499  0.579974  1
  Cd  Cd17  1  0.261332  0.578814  0.579926  1
  Hg  Hg18  1  0.581973  0.582114  0.584262  1
  Hg  Hg19  1  0.581973  0.582114  0.251650  1
  Ir  Ir20  1  0.581053  0.139436  0.139755  1
  Os  Os21  1  0.140593  0.137641  0.137987  1
  Os  Os22  1  0.140593  0.137641  0.583780  1
  Os  Os23  1  0.140739  0.583437  0.137912  1
