# generated using pymatgen
data_Er3Tm6LuIn8
_symmetry_space_group_name_H-M   'P 1'
_cell_length_a   9.18136920
_cell_length_b   9.18661932
_cell_length_c   6.58836000
_cell_angle_alpha   89.99969577
_cell_angle_beta   89.99862041
_cell_angle_gamma   119.94773191
_symmetry_Int_Tables_number   1
_chemical_formula_structural   Er3Tm6LuIn8
_chemical_formula_sum   'Er3 Tm6 Lu1 In8'
_cell_volume   481.50369282
_cell_formula_units_Z   1
loop_
 _symmetry_equiv_pos_site_id
 _symmetry_equiv_pos_as_xyz
  1  'x, y, z'
loop_
 _atom_site_type_symbol
 _atom_site_label
 _atom_site_symmetry_multiplicity
 _atom_site_fract_x
 _atom_site_fract_y
 _atom_site_fract_z
 _atom_site_occupancy
  Er  Er0  1  0.290205  0.000078  0.749891  1
  Er  Er1  1  0.709861  0.999988  0.250108  1
  Er  Er2  1  0.000134  0.289907  0.749908  1
  Tm  Tm3  1  0.666668  0.333871  0.499919  1
  Tm  Tm4  1  0.666665  0.333874  0.000074  1
  Tm  Tm5  1  0.333336  0.666339  0.000066  1
  Tm  Tm6  1  0.999951  0.709780  0.250109  1
  Tm  Tm7  1  0.710025  0.710142  0.749911  1
  Tm  Tm8  1  0.289814  0.290087  0.250082  1
  Lu  Lu9  1  0.333337  0.666353  0.499937  1
  In  In10  1  0.000021  0.999781  0.499800  1
  In  In11  1  0.000022  0.999782  0.000201  1
  In  In12  1  0.627623  0.999428  0.749890  1
  In  In13  1  0.371822  0.999883  0.250131  1
  In  In14  1  0.999770  0.627713  0.749868  1
  In  In15  1  0.000541  0.372755  0.250108  1
  In  In16  1  0.372650  0.372875  0.749890  1
  In  In17  1  0.627556  0.627360  0.250107  1
