# generated using pymatgen
data_K3Sc(AsS2)6
_symmetry_space_group_name_H-M   'P 1'
_cell_length_a   9.43275300
_cell_length_b   9.43275385
_cell_length_c   7.91798300
_cell_angle_alpha   90.00000000
_cell_angle_beta   90.00000000
_cell_angle_gamma   119.99999957
_symmetry_Int_Tables_number   1
_chemical_formula_structural   K3Sc(AsS2)6
_chemical_formula_sum   'K3 Sc1 As6 S12'
_cell_volume   610.12969514
_cell_formula_units_Z   1
loop_
 _symmetry_equiv_pos_site_id
 _symmetry_equiv_pos_as_xyz
  1  'x, y, z'
loop_
 _atom_site_type_symbol
 _atom_site_label
 _atom_site_symmetry_multiplicity
 _atom_site_fract_x
 _atom_site_fract_y
 _atom_site_fract_z
 _atom_site_occupancy
  K  K0  1  0.000000  0.000000  0.000000  1
  K  K1  1  0.333333  0.666667  0.855507  1
  K  K2  1  0.666667  0.333333  0.144493  1
  Sc  Sc3  1  0.000000  0.000000  0.500000  1
  As  As4  1  0.282870  0.834110  0.383708  1
  As  As5  1  0.165890  0.448760  0.383708  1
  As  As6  1  0.551240  0.717130  0.383708  1
  As  As7  1  0.717130  0.165890  0.616292  1
  As  As8  1  0.834110  0.551240  0.616292  1
  As  As9  1  0.448760  0.282870  0.616292  1
  S  S10  1  0.240563  0.036538  0.304150  1
  S  S11  1  0.963462  0.204026  0.304150  1
  S  S12  1  0.795974  0.759437  0.304150  1
  S  S13  1  0.759437  0.963462  0.695850  1
  S  S14  1  0.036538  0.795974  0.695850  1
  S  S15  1  0.204026  0.240563  0.695850  1
  S  S16  1  0.518825  0.906726  0.223450  1
  S  S17  1  0.093274  0.612098  0.223450  1
  S  S18  1  0.387902  0.481175  0.223450  1
  S  S19  1  0.481175  0.093274  0.776550  1
  S  S20  1  0.906726  0.387902  0.776550  1
  S  S21  1  0.612098  0.518825  0.776550  1
