# generated using pymatgen
data_TbSm2CBr5
_symmetry_space_group_name_H-M   'P 1'
_cell_length_a   7.46087971
_cell_length_b   9.01829296
_cell_length_c   9.12073767
_cell_angle_alpha   107.24385900
_cell_angle_beta   96.40407286
_cell_angle_gamma   104.52134115
_symmetry_Int_Tables_number   1
_chemical_formula_structural   TbSm2CBr5
_chemical_formula_sum   'Tb2 Sm4 C2 Br10'
_cell_volume   555.79202454
_cell_formula_units_Z   2
loop_
 _symmetry_equiv_pos_site_id
 _symmetry_equiv_pos_as_xyz
  1  'x, y, z'
loop_
 _atom_site_type_symbol
 _atom_site_label
 _atom_site_symmetry_multiplicity
 _atom_site_fract_x
 _atom_site_fract_y
 _atom_site_fract_z
 _atom_site_occupancy
  Tb  Tb0  1  0.617866  0.857790  0.809081  1
  Tb  Tb1  1  0.382134  0.142210  0.190919  1
  Sm  Sm2  1  0.887156  0.956233  0.230050  1
  Sm  Sm3  1  0.112844  0.043767  0.769950  1
  Sm  Sm4  1  0.030801  0.723955  0.918688  1
  Sm  Sm5  1  0.969199  0.276045  0.081312  1
  C  C6  1  0.906593  0.968094  0.955391  1
  C  C7  1  0.093407  0.031906  0.044609  1
  Br  Br8  1  0.749685  0.915838  0.542244  1
  Br  Br9  1  0.250315  0.084162  0.457756  1
  Br  Br10  1  0.459419  0.817610  0.087182  1
  Br  Br11  1  0.540581  0.182390  0.912818  1
  Br  Br12  1  0.803075  0.262715  0.352439  1
  Br  Br13  1  0.196925  0.737285  0.647561  1
  Br  Br14  1  0.909568  0.628160  0.176236  1
  Br  Br15  1  0.090432  0.371840  0.823764  1
  Br  Br16  1  0.657273  0.546405  0.725402  1
  Br  Br17  1  0.342727  0.453595  0.274598  1
