# generated using pymatgen
data_Ti4AlMo2Rh
_symmetry_space_group_name_H-M   'P 1'
_cell_length_a   6.32261800
_cell_length_b   4.42605100
_cell_length_c   8.94006400
_cell_angle_alpha   90.00000000
_cell_angle_beta   90.00000000
_cell_angle_gamma   90.00000000
_symmetry_Int_Tables_number   1
_chemical_formula_structural   Ti4AlMo2Rh
_chemical_formula_sum   'Ti8 Al2 Mo4 Rh2'
_cell_volume   250.18080470
_cell_formula_units_Z   2
loop_
 _symmetry_equiv_pos_site_id
 _symmetry_equiv_pos_as_xyz
  1  'x, y, z'
loop_
 _atom_site_type_symbol
 _atom_site_label
 _atom_site_symmetry_multiplicity
 _atom_site_fract_x
 _atom_site_fract_y
 _atom_site_fract_z
 _atom_site_occupancy
  Ti  Ti0  1  0.508107  0.750000  0.118256  1
  Ti  Ti1  1  0.991982  0.750000  0.118296  1
  Ti  Ti2  1  0.491981  0.249999  0.381704  1
  Ti  Ti3  1  0.008107  0.249999  0.381743  1
  Ti  Ti4  1  0.003402  0.750000  0.628951  1
  Ti  Ti5  1  0.496489  0.750000  0.628947  1
  Ti  Ti6  1  0.996488  0.249999  0.871053  1
  Ti  Ti7  1  0.503401  0.249999  0.871049  1
  Al  Al8  1  0.250071  0.249999  0.124117  1
  Al  Al9  1  0.750070  0.750000  0.375883  1
  Mo  Mo10  1  0.749996  0.249999  0.129924  1
  Mo  Mo11  1  0.249997  0.750000  0.370076  1
  Mo  Mo12  1  0.750007  0.249999  0.618465  1
  Mo  Mo13  1  0.250007  0.750000  0.881536  1
  Rh  Rh14  1  0.249948  0.249999  0.627668  1
  Rh  Rh15  1  0.749948  0.750000  0.872332  1
