# generated using pymatgen
data_La3Pd2Pt7
_symmetry_space_group_name_H-M   'P 1'
_cell_length_a   9.50573066
_cell_length_b   9.50573031
_cell_length_c   9.50573000
_cell_angle_alpha   33.82937619
_cell_angle_beta   33.82937939
_cell_angle_gamma   33.82938174
_symmetry_Int_Tables_number   1
_chemical_formula_structural   La3Pd2Pt7
_chemical_formula_sum   'La3 Pd2 Pt7'
_cell_volume   237.23055962
_cell_formula_units_Z   1
loop_
 _symmetry_equiv_pos_site_id
 _symmetry_equiv_pos_as_xyz
  1  'x, y, z'
loop_
 _atom_site_type_symbol
 _atom_site_label
 _atom_site_symmetry_multiplicity
 _atom_site_fract_x
 _atom_site_fract_y
 _atom_site_fract_z
 _atom_site_occupancy
  La  La0  1  0.360305  0.360305  0.360305  1
  La  La1  1  0.500000  0.500000  0.500000  1
  La  La2  1  0.639695  0.639695  0.639695  1
  Pd  Pd3  1  0.167120  0.167120  0.167120  1
  Pd  Pd4  1  0.832880  0.832880  0.832880  1
  Pt  Pt5  1  0.000000  0.000000  0.000000  1
  Pt  Pt6  1  0.581425  0.086229  0.086231  1
  Pt  Pt7  1  0.086229  0.581425  0.086231  1
  Pt  Pt8  1  0.913770  0.913770  0.418575  1
  Pt  Pt9  1  0.086230  0.086230  0.581425  1
  Pt  Pt10  1  0.913771  0.418575  0.913769  1
  Pt  Pt11  1  0.418575  0.913771  0.913769  1
