# generated using pymatgen
data_BaVOF5
_symmetry_space_group_name_H-M   'P 1'
_cell_length_a   5.09668300
_cell_length_b   9.93678200
_cell_length_c   10.25542500
_cell_angle_alpha   90.00000000
_cell_angle_beta   90.00000000
_cell_angle_gamma   90.00000000
_symmetry_Int_Tables_number   1
_chemical_formula_structural   BaVOF5
_chemical_formula_sum   'Ba4 V4 O4 F20'
_cell_volume   519.38218302
_cell_formula_units_Z   4
loop_
 _symmetry_equiv_pos_site_id
 _symmetry_equiv_pos_as_xyz
  1  'x, y, z'
loop_
 _atom_site_type_symbol
 _atom_site_label
 _atom_site_symmetry_multiplicity
 _atom_site_fract_x
 _atom_site_fract_y
 _atom_site_fract_z
 _atom_site_occupancy
  Ba  Ba0  1  0.484307  0.000000  0.750000  1
  Ba  Ba1  1  0.515693  0.500000  0.250000  1
  Ba  Ba2  1  0.515693  0.000000  0.250000  1
  Ba  Ba3  1  0.484307  0.500000  0.750000  1
  V  V4  1  0.109984  0.250000  0.446371  1
  V  V5  1  0.890016  0.750000  0.553629  1
  V  V6  1  0.109984  0.750000  0.053629  1
  V  V7  1  0.890016  0.250000  0.946371  1
  O  O8  1  0.867804  0.250000  0.547585  1
  O  O9  1  0.132196  0.750000  0.452415  1
  O  O10  1  0.867804  0.750000  0.952415  1
  O  O11  1  0.132196  0.250000  0.047585  1
  F  F12  1  0.571052  0.750000  0.686764  1
  F  F13  1  0.428948  0.250000  0.313236  1
  F  F14  1  0.571052  0.250000  0.813236  1
  F  F15  1  0.428948  0.750000  0.186764  1
  F  F16  1  0.009903  0.115939  0.831879  1
  F  F17  1  0.990097  0.615939  0.168121  1
  F  F18  1  0.009903  0.884061  0.668121  1
  F  F19  1  0.990097  0.384061  0.331879  1
  F  F20  1  0.990097  0.884061  0.168121  1
  F  F21  1  0.009903  0.384061  0.831879  1
  F  F22  1  0.990097  0.115939  0.331879  1
  F  F23  1  0.009903  0.615939  0.668121  1
  F  F24  1  0.315765  0.116087  0.524939  1
  F  F25  1  0.684235  0.616087  0.475061  1
  F  F26  1  0.315765  0.883913  0.975061  1
  F  F27  1  0.684235  0.383913  0.024939  1
  F  F28  1  0.684235  0.883913  0.475061  1
  F  F29  1  0.315765  0.383913  0.524939  1
  F  F30  1  0.684235  0.116087  0.024939  1
  F  F31  1  0.315765  0.616087  0.975061  1
