# generated using pymatgen
data_Sr6CdRh2PbO12
_symmetry_space_group_name_H-M   'P 1'
_cell_length_a   6.86608962
_cell_length_b   6.86608611
_cell_length_c   6.86608177
_cell_angle_alpha   89.77070737
_cell_angle_beta   89.77065098
_cell_angle_gamma   89.77058693
_symmetry_Int_Tables_number   1
_chemical_formula_structural   Sr6CdRh2PbO12
_chemical_formula_sum   'Sr6 Cd1 Rh2 Pb1 O12'
_cell_volume   323.68104952
_cell_formula_units_Z   1
loop_
 _symmetry_equiv_pos_site_id
 _symmetry_equiv_pos_as_xyz
  1  'x, y, z'
loop_
 _atom_site_type_symbol
 _atom_site_label
 _atom_site_symmetry_multiplicity
 _atom_site_fract_x
 _atom_site_fract_y
 _atom_site_fract_z
 _atom_site_occupancy
  Sr  Sr0  1  0.888776  0.611202  0.250028  1
  Sr  Sr1  1  0.121636  0.378403  0.750008  1
  Sr  Sr2  1  0.250028  0.888776  0.611201  1
  Sr  Sr3  1  0.611202  0.250029  0.888775  1
  Sr  Sr4  1  0.378403  0.750007  0.121636  1
  Sr  Sr5  1  0.750007  0.121637  0.378403  1
  Cd  Cd6  1  0.249989  0.249989  0.249989  1
  Rh  Rh7  1  0.001642  0.001642  0.001642  1
  Rh  Rh8  1  0.498362  0.498360  0.498360  1
  Pb  Pb9  1  0.749969  0.749968  0.749970  1
  O  O10  1  0.453089  0.588483  0.783551  1
  O  O11  1  0.588482  0.783550  0.453090  1
  O  O12  1  0.949288  0.287405  0.083634  1
  O  O13  1  0.550740  0.416326  0.212462  1
  O  O14  1  0.212462  0.550741  0.416327  1
  O  O15  1  0.046793  0.716676  0.911542  1
  O  O16  1  0.783549  0.453090  0.588483  1
  O  O17  1  0.716675  0.911541  0.046792  1
  O  O18  1  0.083635  0.949288  0.287405  1
  O  O19  1  0.911543  0.046791  0.716675  1
  O  O20  1  0.416326  0.212462  0.550739  1
  O  O21  1  0.287405  0.083635  0.949288  1
