# generated using pymatgen
data_Tb9HoSn5Bi
_symmetry_space_group_name_H-M   'P 1'
_cell_length_a   9.05684201
_cell_length_b   9.05685767
_cell_length_c   6.55317800
_cell_angle_alpha   90.00150494
_cell_angle_beta   89.99687238
_cell_angle_gamma   119.99253879
_symmetry_Int_Tables_number   1
_chemical_formula_structural   Tb9HoSn5Bi
_chemical_formula_sum   'Tb9 Ho1 Sn5 Bi1'
_cell_volume   465.55348055
_cell_formula_units_Z   1
loop_
 _symmetry_equiv_pos_site_id
 _symmetry_equiv_pos_as_xyz
  1  'x, y, z'
loop_
 _atom_site_type_symbol
 _atom_site_label
 _atom_site_symmetry_multiplicity
 _atom_site_fract_x
 _atom_site_fract_y
 _atom_site_fract_z
 _atom_site_occupancy
  Tb  Tb0  1  0.332637  0.669871  0.001673  1
  Tb  Tb1  1  0.332632  0.669877  0.498327  1
  Tb  Tb2  1  0.669886  0.332638  0.498326  1
  Tb  Tb3  1  0.763445  0.763409  0.750032  1
  Tb  Tb4  1  0.238185  0.994668  0.750033  1
  Tb  Tb5  1  0.994598  0.238151  0.750032  1
  Tb  Tb6  1  0.238938  0.238904  0.249974  1
  Tb  Tb7  1  0.760093  0.000367  0.249972  1
  Tb  Tb8  1  0.000279  0.760042  0.249961  1
  Ho  Ho9  1  0.669942  0.332632  0.001707  1
  Sn  Sn10  1  0.604800  0.999812  0.750133  1
  Sn  Sn11  1  0.999422  0.604617  0.750139  1
  Sn  Sn12  1  0.606080  0.605913  0.249864  1
  Sn  Sn13  1  0.394696  0.001523  0.249862  1
  Sn  Sn14  1  0.001166  0.394520  0.249858  1
  Bi  Bi15  1  0.393201  0.393055  0.750106  1
