# generated using pymatgen
data_CaPr6SiBr12
_symmetry_space_group_name_H-M   'P 1'
_cell_length_a   9.59260899
_cell_length_b   9.52514042
_cell_length_c   9.58850296
_cell_angle_alpha   106.48645228
_cell_angle_beta   107.54513746
_cell_angle_gamma   107.14771148
_symmetry_Int_Tables_number   1
_chemical_formula_structural   CaPr6SiBr12
_chemical_formula_sum   'Ca1 Pr6 Si1 Br12'
_cell_volume   728.39142856
_cell_formula_units_Z   1
loop_
 _symmetry_equiv_pos_site_id
 _symmetry_equiv_pos_as_xyz
  1  'x, y, z'
loop_
 _atom_site_type_symbol
 _atom_site_label
 _atom_site_symmetry_multiplicity
 _atom_site_fract_x
 _atom_site_fract_y
 _atom_site_fract_z
 _atom_site_occupancy
  Ca  Ca0  1  0.500000  0.500000  0.500000  1
  Pr  Pr1  1  0.319802  0.105877  0.024613  1
  Pr  Pr2  1  0.024482  0.320413  0.107770  1
  Pr  Pr3  1  0.104775  0.026804  0.320636  1
  Pr  Pr4  1  0.895225  0.973196  0.679365  1
  Pr  Pr5  1  0.975518  0.679588  0.892231  1
  Pr  Pr6  1  0.680199  0.894123  0.975388  1
  Si  Si7  1  0.000000  0.000000  0.000000  1
  Br  Br8  1  0.681686  0.224199  0.070179  1
  Br  Br9  1  0.376335  0.457998  0.164188  1
  Br  Br10  1  0.071211  0.683769  0.223993  1
  Br  Br11  1  0.775026  0.927733  0.317364  1
  Br  Br12  1  0.456877  0.163891  0.377221  1
  Br  Br13  1  0.166470  0.378892  0.459413  1
  Br  Br14  1  0.833530  0.621109  0.540587  1
  Br  Br15  1  0.543123  0.836110  0.622779  1
  Br  Br16  1  0.224975  0.072268  0.682636  1
  Br  Br17  1  0.928789  0.316231  0.776008  1
  Br  Br18  1  0.623666  0.542002  0.835812  1
  Br  Br19  1  0.318315  0.775801  0.929821  1
