# generated using pymatgen
data_Sc3CoNiSn3Pt
_symmetry_space_group_name_H-M   'P 1'
_cell_length_a   7.37926100
_cell_length_b   7.37926083
_cell_length_c   6.99351500
_cell_angle_alpha   90.00000000
_cell_angle_beta   90.00000000
_cell_angle_gamma   120.00000525
_symmetry_Int_Tables_number   1
_chemical_formula_structural   Sc3CoNiSn3Pt
_chemical_formula_sum   'Sc6 Co2 Ni2 Sn6 Pt2'
_cell_volume   329.80091180
_cell_formula_units_Z   2
loop_
 _symmetry_equiv_pos_site_id
 _symmetry_equiv_pos_as_xyz
  1  'x, y, z'
loop_
 _atom_site_type_symbol
 _atom_site_label
 _atom_site_symmetry_multiplicity
 _atom_site_fract_x
 _atom_site_fract_y
 _atom_site_fract_z
 _atom_site_occupancy
  Sc  Sc0  1  0.396451  0.005731  0.250659  1
  Sc  Sc1  1  0.609280  0.603549  0.250659  1
  Sc  Sc2  1  0.994269  0.390720  0.250659  1
  Sc  Sc3  1  0.390720  0.994269  0.750659  1
  Sc  Sc4  1  0.603549  0.609280  0.750659  1
  Sc  Sc5  1  0.005731  0.396451  0.750659  1
  Co  Co6  1  0.000000  0.000000  0.750461  1
  Co  Co7  1  0.000000  0.000000  0.250461  1
  Ni  Ni8  1  0.666667  0.333333  0.987266  1
  Ni  Ni9  1  0.333333  0.666667  0.487266  1
  Sn  Sn10  1  0.269397  0.259893  0.000128  1
  Sn  Sn11  1  0.990496  0.730603  0.000128  1
  Sn  Sn12  1  0.009504  0.740107  0.500128  1
  Sn  Sn13  1  0.730603  0.990496  0.500128  1
  Sn  Sn14  1  0.259893  0.269397  0.500128  1
  Sn  Sn15  1  0.740107  0.009504  0.000128  1
  Pt  Pt16  1  0.333333  0.666667  0.009912  1
  Pt  Pt17  1  0.666667  0.333333  0.509912  1
