# generated using pymatgen
data_Nd3Ho(CuPt)2
_symmetry_space_group_name_H-M   'P 1'
_cell_length_a   4.50911900
_cell_length_b   5.69181369
_cell_length_c   7.35387339
_cell_angle_alpha   89.34713474
_cell_angle_beta   90.00000000
_cell_angle_gamma   90.00000000
_symmetry_Int_Tables_number   1
_chemical_formula_structural   Nd3Ho(CuPt)2
_chemical_formula_sum   'Nd3 Ho1 Cu2 Pt2'
_cell_volume   188.72538794
_cell_formula_units_Z   1
loop_
 _symmetry_equiv_pos_site_id
 _symmetry_equiv_pos_as_xyz
  1  'x, y, z'
loop_
 _atom_site_type_symbol
 _atom_site_label
 _atom_site_symmetry_multiplicity
 _atom_site_fract_x
 _atom_site_fract_y
 _atom_site_fract_z
 _atom_site_occupancy
  Nd  Nd0  1  0.000000  0.115618  0.684188  1
  Nd  Nd1  1  0.000000  0.882363  0.181666  1
  Nd  Nd2  1  0.500000  0.392229  0.315309  1
  Ho  Ho3  1  0.500000  0.605758  0.815029  1
  Cu  Cu4  1  0.500000  0.881858  0.468329  1
  Cu  Cu5  1  0.500000  0.114968  0.960051  1
  Pt  Pt6  1  0.000000  0.618486  0.546489  1
  Pt  Pt7  1  0.000000  0.388719  0.028941  1
