# generated using pymatgen
data_Ce2FeCoRu2
_symmetry_space_group_name_H-M   'P 1'
_cell_length_a   5.17700898
_cell_length_b   5.17700883
_cell_length_c   4.79226458
_cell_angle_alpha   65.85821676
_cell_angle_beta   65.85822104
_cell_angle_gamma   65.04220696
_symmetry_Int_Tables_number   1
_chemical_formula_structural   Ce2FeCoRu2
_chemical_formula_sum   'Ce2 Fe1 Co1 Ru2'
_cell_volume   101.82977787
_cell_formula_units_Z   1
loop_
 _symmetry_equiv_pos_site_id
 _symmetry_equiv_pos_as_xyz
  1  'x, y, z'
loop_
 _atom_site_type_symbol
 _atom_site_label
 _atom_site_symmetry_multiplicity
 _atom_site_fract_x
 _atom_site_fract_y
 _atom_site_fract_z
 _atom_site_occupancy
  Ce  Ce0  1  0.630134  0.630134  0.626524  1
  Ce  Ce1  1  0.369866  0.369866  0.373476  1
  Fe  Fe2  1  0.000000  0.000000  0.000000  1
  Co  Co3  1  0.000000  0.000000  0.500000  1
  Ru  Ru4  1  0.000000  0.500000  0.000000  1
  Ru  Ru5  1  0.500000  0.000000  0.000000  1
