# generated using pymatgen
data_Eu4Br6N
_symmetry_space_group_name_H-M   'P 1'
_cell_length_a   9.92494400
_cell_length_b   9.92494482
_cell_length_c   7.49824300
_cell_angle_alpha   90.00000000
_cell_angle_beta   90.00000000
_cell_angle_gamma   120.00000395
_symmetry_Int_Tables_number   1
_chemical_formula_structural   Eu4Br6N
_chemical_formula_sum   'Eu8 Br12 N2'
_cell_volume   639.65572449
_cell_formula_units_Z   2
loop_
 _symmetry_equiv_pos_site_id
 _symmetry_equiv_pos_as_xyz
  1  'x, y, z'
loop_
 _atom_site_type_symbol
 _atom_site_label
 _atom_site_symmetry_multiplicity
 _atom_site_fract_x
 _atom_site_fract_y
 _atom_site_fract_z
 _atom_site_occupancy
  Eu  Eu0  1  0.410504  0.205251  0.502934  1
  Eu  Eu1  1  0.589496  0.794749  0.002934  1
  Eu  Eu2  1  0.333333  0.666667  0.412041  1
  Eu  Eu3  1  0.205251  0.794749  0.002934  1
  Eu  Eu4  1  0.666667  0.333333  0.912041  1
  Eu  Eu5  1  0.794749  0.589496  0.502934  1
  Eu  Eu6  1  0.794749  0.205251  0.502934  1
  Eu  Eu7  1  0.205251  0.410504  0.002934  1
  Br  Br8  1  0.536331  0.463669  0.205278  1
  Br  Br9  1  0.718993  0.859497  0.383497  1
  Br  Br10  1  0.927337  0.463669  0.205278  1
  Br  Br11  1  0.140503  0.281007  0.383497  1
  Br  Br12  1  0.072663  0.536331  0.705278  1
  Br  Br13  1  0.536331  0.072663  0.205278  1
  Br  Br14  1  0.281007  0.140503  0.883497  1
  Br  Br15  1  0.140503  0.859497  0.383497  1
  Br  Br16  1  0.463669  0.536331  0.705278  1
  Br  Br17  1  0.463669  0.927337  0.705278  1
  Br  Br18  1  0.859497  0.140503  0.883497  1
  Br  Br19  1  0.859497  0.718993  0.883497  1
  N  N20  1  0.333333  0.666667  0.101933  1
  N  N21  1  0.666667  0.333333  0.601933  1
