# generated using pymatgen
data_TbYMg(P3Pd10)2
_symmetry_space_group_name_H-M   'P 1'
_cell_length_a   8.66188348
_cell_length_b   8.66188586
_cell_length_c   8.66202800
_cell_angle_alpha   59.99946480
_cell_angle_beta   59.99945573
_cell_angle_gamma   60.00292637
_symmetry_Int_Tables_number   1
_chemical_formula_structural   TbYMg(P3Pd10)2
_chemical_formula_sum   'Tb1 Y1 Mg1 P6 Pd20'
_cell_volume   459.55282496
_cell_formula_units_Z   1
loop_
 _symmetry_equiv_pos_site_id
 _symmetry_equiv_pos_as_xyz
  1  'x, y, z'
loop_
 _atom_site_type_symbol
 _atom_site_label
 _atom_site_symmetry_multiplicity
 _atom_site_fract_x
 _atom_site_fract_y
 _atom_site_fract_z
 _atom_site_occupancy
  Tb  Tb0  1  0.749997  0.749995  0.750004  1
  Y  Y1  1  0.250003  0.250005  0.249996  1
  Mg  Mg2  1  0.000000  0.000000  0.000000  1
  P  P3  1  0.737419  0.262581  0.262579  1
  P  P4  1  0.262581  0.737419  0.737421  1
  P  P5  1  0.262581  0.737419  0.262579  1
  P  P6  1  0.737419  0.262581  0.737421  1
  P  P7  1  0.262593  0.262593  0.737407  1
  P  P8  1  0.737407  0.737407  0.262593  1
  Pd  Pd9  1  0.384812  0.384815  0.384779  1
  Pd  Pd10  1  0.615178  0.615175  0.615212  1
  Pd  Pd11  1  0.384812  0.384815  0.845595  1
  Pd  Pd12  1  0.384778  0.845605  0.384808  1
  Pd  Pd13  1  0.615178  0.615175  0.154434  1
  Pd  Pd14  1  0.615212  0.154424  0.615183  1
  Pd  Pd15  1  0.845605  0.384780  0.384808  1
  Pd  Pd16  1  0.154424  0.615210  0.615183  1
  Pd  Pd17  1  0.343849  0.999988  0.000039  1
  Pd  Pd18  1  0.656121  0.000042  0.999992  1
  Pd  Pd19  1  0.999987  0.343851  0.656124  1
  Pd  Pd20  1  0.000043  0.656119  0.343845  1
  Pd  Pd21  1  0.999987  0.343851  0.000038  1
  Pd  Pd22  1  0.656121  0.000042  0.343845  1
  Pd  Pd23  1  0.000043  0.656119  0.999993  1
  Pd  Pd24  1  0.343849  0.999988  0.656124  1
  Pd  Pd25  1  0.000015  0.000015  0.343935  1
  Pd  Pd26  1  0.000015  0.000015  0.656034  1
  Pd  Pd27  1  0.656042  0.343931  0.000014  1
  Pd  Pd28  1  0.343928  0.656039  0.000016  1
