# generated using pymatgen
data_Tb5HoCo4(P6Ir7)2
_symmetry_space_group_name_H-M   'P 1'
_cell_length_a   3.89875500
_cell_length_b   11.05432413
_cell_length_c   12.74344115
_cell_angle_alpha   89.98230860
_cell_angle_beta   90.00000000
_cell_angle_gamma   90.00000000
_symmetry_Int_Tables_number   1
_chemical_formula_structural   Tb5HoCo4(P6Ir7)2
_chemical_formula_sum   'Tb5 Ho1 Co4 P12 Ir14'
_cell_volume   549.21809379
_cell_formula_units_Z   1
loop_
 _symmetry_equiv_pos_site_id
 _symmetry_equiv_pos_as_xyz
  1  'x, y, z'
loop_
 _atom_site_type_symbol
 _atom_site_label
 _atom_site_symmetry_multiplicity
 _atom_site_fract_x
 _atom_site_fract_y
 _atom_site_fract_z
 _atom_site_occupancy
  Tb  Tb0  1  0.000000  0.500003  0.522637  1
  Tb  Tb1  1  0.500000  0.999994  0.477377  1
  Tb  Tb2  1  0.500000  0.821020  0.198873  1
  Tb  Tb3  1  0.000000  0.684981  0.801297  1
  Tb  Tb4  1  0.000000  0.315011  0.801292  1
  Ho  Ho5  1  0.500000  0.179159  0.198936  1
  Co  Co6  1  0.000000  0.499916  0.986506  1
  Co  Co7  1  0.500000  0.000222  0.016018  1
  Co  Co8  1  0.000000  0.159048  0.003631  1
  Co  Co9  1  0.000000  0.841064  0.003384  1
  P  P10  1  0.500000  0.315577  0.619878  1
  P  P11  1  0.500000  0.684401  0.619918  1
  P  P12  1  0.000000  0.183891  0.379430  1
  P  P13  1  0.000000  0.816283  0.379765  1
  P  P14  1  0.500000  0.499936  0.883719  1
  P  P15  1  0.000000  0.000435  0.111203  1
  P  P16  1  0.500000  0.851419  0.900699  1
  P  P17  1  0.500000  0.148582  0.900582  1
  P  P18  1  0.000000  0.659598  0.101438  1
  P  P19  1  0.000000  0.339789  0.101717  1
  P  P20  1  0.500000  0.500082  0.353870  1
  P  P21  1  0.000000  0.999990  0.646661  1
  Ir  Ir22  1  0.500000  0.294073  0.428634  1
  Ir  Ir23  1  0.500000  0.705830  0.428871  1
  Ir  Ir24  1  0.000000  0.204246  0.570447  1
  Ir  Ir25  1  0.000000  0.795794  0.570458  1
  Ir  Ir26  1  0.500000  0.871956  0.716525  1
  Ir  Ir27  1  0.500000  0.128070  0.716515  1
  Ir  Ir28  1  0.000000  0.628968  0.283308  1
  Ir  Ir29  1  0.000000  0.370219  0.282852  1
  Ir  Ir30  1  0.500000  0.332717  0.996469  1
  Ir  Ir31  1  0.500000  0.667048  0.996131  1
  Ir  Ir32  1  0.500000  0.500056  0.171509  1
  Ir  Ir33  1  0.000000  0.000024  0.830996  1
  Ir  Ir34  1  0.500000  0.499976  0.704807  1
  Ir  Ir35  1  0.000000  0.000623  0.293648  1
