# generated using pymatgen
data_TbEr11GaCo4Sn
_symmetry_space_group_name_H-M   'P 1'
_cell_length_a   8.26773516
_cell_length_b   8.26773437
_cell_length_c   8.26966140
_cell_angle_alpha   112.04666193
_cell_angle_beta   109.32627117
_cell_angle_gamma   107.06921852
_symmetry_Int_Tables_number   1
_chemical_formula_structural   TbEr11GaCo4Sn
_chemical_formula_sum   'Tb1 Er11 Ga1 Co4 Sn1'
_cell_volume   434.37838886
_cell_formula_units_Z   1
loop_
 _symmetry_equiv_pos_site_id
 _symmetry_equiv_pos_as_xyz
  1  'x, y, z'
loop_
 _atom_site_type_symbol
 _atom_site_label
 _atom_site_symmetry_multiplicity
 _atom_site_fract_x
 _atom_site_fract_y
 _atom_site_fract_z
 _atom_site_occupancy
  Tb  Tb0  1  0.819042  0.781166  0.600207  1
  Er  Er1  1  0.031772  0.732910  0.298072  1
  Er  Er2  1  0.968657  0.267982  0.701618  1
  Er  Er3  1  0.565161  0.266300  0.298072  1
  Er  Er4  1  0.433637  0.732961  0.701618  1
  Er  Er5  1  0.674809  0.860937  0.185215  1
  Er  Er6  1  0.324276  0.510406  0.185215  1
  Er  Er7  1  0.325793  0.139969  0.814718  1
  Er  Er8  1  0.674750  0.488924  0.814718  1
  Er  Er9  1  0.180405  0.218732  0.399139  1
  Er  Er10  1  0.819709  0.219083  0.038792  1
  Er  Er11  1  0.180929  0.781036  0.961965  1
  Ga  Ga12  1  0.000316  0.498939  0.499255  1
  Co  Co13  1  0.659275  0.499176  0.158451  1
  Co  Co14  1  0.340189  0.499941  0.840130  1
  Co  Co15  1  0.885783  0.885943  0.001413  1
  Co  Co16  1  0.115470  0.115630  0.001413  1
  Sn  Sn17  1  0.500028  0.999964  0.499992  1
