# generated using pymatgen
data_Na6InAs3
_symmetry_space_group_name_H-M   'P 1'
_cell_length_a   8.45949716
_cell_length_b   8.53108494
_cell_length_c   16.48363167
_cell_angle_alpha   94.56890512
_cell_angle_beta   95.36324894
_cell_angle_gamma   119.47060220
_symmetry_Int_Tables_number   1
_chemical_formula_structural   Na6InAs3
_chemical_formula_sum   'Na24 In4 As12'
_cell_volume   1020.25326217
_cell_formula_units_Z   4
loop_
 _symmetry_equiv_pos_site_id
 _symmetry_equiv_pos_as_xyz
  1  'x, y, z'
loop_
 _atom_site_type_symbol
 _atom_site_label
 _atom_site_symmetry_multiplicity
 _atom_site_fract_x
 _atom_site_fract_y
 _atom_site_fract_z
 _atom_site_occupancy
  Na  Na0  1  0.020954  0.829164  0.070667  1
  Na  Na1  1  0.152080  0.982279  0.422429  1
  Na  Na2  1  0.071168  0.559972  0.191394  1
  Na  Na3  1  0.068075  0.255706  0.301085  1
  Na  Na4  1  0.292076  0.794032  0.551189  1
  Na  Na5  1  0.229117  0.429794  0.695781  1
  Na  Na6  1  0.437150  0.935270  0.303158  1
  Na  Na7  1  0.166384  0.359360  0.505804  1
  Na  Na8  1  0.326920  0.520463  0.065681  1
  Na  Na9  1  0.272964  0.132311  0.802772  1
  Na  Na10  1  0.672375  0.832686  0.996101  1
  Na  Na11  1  0.621193  0.755962  0.796489  1
  Na  Na12  1  0.387141  0.240378  0.199796  1
  Na  Na13  1  0.328280  0.168670  0.001621  1
  Na  Na14  1  0.722730  0.873237  0.194731  1
  Na  Na15  1  0.673900  0.481212  0.933436  1
  Na  Na16  1  0.860614  0.666981  0.504815  1
  Na  Na17  1  0.568221  0.075604  0.704207  1
  Na  Na18  1  0.775841  0.584523  0.302769  1
  Na  Na19  1  0.950153  0.744553  0.697416  1
  Na  Na20  1  0.777004  0.271542  0.434434  1
  Na  Na21  1  0.931030  0.440823  0.808997  1
  Na  Na22  1  0.840256  0.023752  0.570581  1
  Na  Na23  1  0.979665  0.172075  0.928494  1
  In  In24  1  0.290600  0.794439  0.926856  1
  In  In25  1  0.482500  0.654887  0.421971  1
  In  In26  1  0.526111  0.338352  0.572167  1
  In  In27  1  0.711250  0.208073  0.072518  1
  As  As28  1  0.985799  0.815499  0.882163  1
  As  As29  1  0.142081  0.620098  0.379518  1
  As  As30  1  0.399854  0.900184  0.105940  1
  As  As31  1  0.310996  0.492745  0.880760  1
  As  As32  1  0.219002  0.074293  0.618118  1
  As  As33  1  0.549650  0.674497  0.603643  1
  As  As34  1  0.461762  0.322879  0.392332  1
  As  As35  1  0.780514  0.932600  0.378141  1
  As  As36  1  0.691260  0.510352  0.117787  1
  As  As37  1  0.600709  0.101875  0.893281  1
  As  As38  1  0.859368  0.375506  0.619939  1
  As  As39  1  0.016351  0.186068  0.116099  1
