# generated using pymatgen
data_Lu4Be3Os5
_symmetry_space_group_name_H-M   'P 1'
_cell_length_a   5.08392072
_cell_length_b   5.18158454
_cell_length_c   8.62523100
_cell_angle_alpha   90.00000000
_cell_angle_beta   90.00000000
_cell_angle_gamma   120.63753099
_symmetry_Int_Tables_number   1
_chemical_formula_structural   Lu4Be3Os5
_chemical_formula_sum   'Lu4 Be3 Os5'
_cell_volume   195.49548637
_cell_formula_units_Z   1
loop_
 _symmetry_equiv_pos_site_id
 _symmetry_equiv_pos_as_xyz
  1  'x, y, z'
loop_
 _atom_site_type_symbol
 _atom_site_label
 _atom_site_symmetry_multiplicity
 _atom_site_fract_x
 _atom_site_fract_y
 _atom_site_fract_z
 _atom_site_occupancy
  Lu  Lu0  1  0.326851  0.663426  0.437597  1
  Lu  Lu1  1  0.651340  0.325670  0.562752  1
  Lu  Lu2  1  0.651340  0.325670  0.937248  1
  Lu  Lu3  1  0.326851  0.663426  0.062403  1
  Be  Be4  1  0.189904  0.338438  0.750000  1
  Be  Be5  1  0.189904  0.851467  0.750000  1
  Be  Be6  1  0.336845  0.168422  0.250000  1
  Os  Os7  1  0.834386  0.658087  0.250000  1
  Os  Os8  1  0.674120  0.837061  0.750000  1
  Os  Os9  1  0.992036  0.996018  0.992264  1
  Os  Os10  1  0.834386  0.176298  0.250000  1
  Os  Os11  1  0.992036  0.996018  0.507736  1
