# generated using pymatgen
data_Li2NdHoSi3
_symmetry_space_group_name_H-M   'P 1'
_cell_length_a   9.33128705
_cell_length_b   9.33128662
_cell_length_c   6.78687000
_cell_angle_alpha   90.00000000
_cell_angle_beta   90.00000000
_cell_angle_gamma   153.21117305
_symmetry_Int_Tables_number   1
_chemical_formula_structural   Li2NdHoSi3
_chemical_formula_sum   'Li4 Nd2 Ho2 Si6'
_cell_volume   266.34436511
_cell_formula_units_Z   2
loop_
 _symmetry_equiv_pos_site_id
 _symmetry_equiv_pos_as_xyz
  1  'x, y, z'
loop_
 _atom_site_type_symbol
 _atom_site_label
 _atom_site_symmetry_multiplicity
 _atom_site_fract_x
 _atom_site_fract_y
 _atom_site_fract_z
 _atom_site_occupancy
  Li  Li0  1  0.190187  0.809813  0.060016  1
  Li  Li1  1  0.190187  0.809813  0.439984  1
  Li  Li2  1  0.809813  0.190187  0.939984  1
  Li  Li3  1  0.809813  0.190187  0.560016  1
  Nd  Nd4  1  0.553641  0.446359  0.250000  1
  Nd  Nd5  1  0.446359  0.553641  0.750000  1
  Ho  Ho6  1  0.343888  0.656112  0.250000  1
  Ho  Ho7  1  0.656112  0.343888  0.750000  1
  Si  Si8  1  0.723415  0.276585  0.250000  1
  Si  Si9  1  0.276585  0.723415  0.750000  1
  Si  Si10  1  0.059607  0.940393  0.925238  1
  Si  Si11  1  0.940393  0.059607  0.074762  1
  Si  Si12  1  0.940393  0.059607  0.425238  1
  Si  Si13  1  0.059607  0.940393  0.574762  1
