# generated using pymatgen
data_LaPr3(Pd2O7)2
_symmetry_space_group_name_H-M   'P 1'
_cell_length_a   7.46612990
_cell_length_b   7.46613038
_cell_length_c   7.46612929
_cell_angle_alpha   60.06223011
_cell_angle_beta   60.06222815
_cell_angle_gamma   60.06223530
_symmetry_Int_Tables_number   1
_chemical_formula_structural   LaPr3(Pd2O7)2
_chemical_formula_sum   'La1 Pr3 Pd4 O14'
_cell_volume   294.70242502
_cell_formula_units_Z   1
loop_
 _symmetry_equiv_pos_site_id
 _symmetry_equiv_pos_as_xyz
  1  'x, y, z'
loop_
 _atom_site_type_symbol
 _atom_site_label
 _atom_site_symmetry_multiplicity
 _atom_site_fract_x
 _atom_site_fract_y
 _atom_site_fract_z
 _atom_site_occupancy
  La  La0  1  0.125000  0.125000  0.125000  1
  Pr  Pr1  1  0.625000  0.125000  0.125000  1
  Pr  Pr2  1  0.125000  0.625000  0.125000  1
  Pr  Pr3  1  0.125000  0.125000  0.625000  1
  Pd  Pd4  1  0.625000  0.625000  0.125000  1
  Pd  Pd5  1  0.625000  0.625000  0.625000  1
  Pd  Pd6  1  0.625000  0.125000  0.625000  1
  Pd  Pd7  1  0.125000  0.625000  0.625000  1
  O  O8  1  0.705917  0.292019  0.292019  1
  O  O9  1  0.708712  0.708712  0.291531  1
  O  O10  1  0.292019  0.705917  0.292019  1
  O  O11  1  0.000033  0.000033  0.000033  1
  O  O12  1  0.708712  0.291531  0.708712  1
  O  O13  1  0.958469  0.541288  0.541288  1
  O  O14  1  0.291531  0.708712  0.708712  1
  O  O15  1  0.541288  0.958469  0.541288  1
  O  O16  1  0.249967  0.249967  0.249967  1
  O  O17  1  0.957981  0.544083  0.957981  1
  O  O18  1  0.541288  0.541288  0.958469  1
  O  O19  1  0.957981  0.957981  0.544083  1
  O  O20  1  0.544083  0.957981  0.957981  1
  O  O21  1  0.292019  0.292019  0.705917  1
