# generated using pymatgen
data_Dy6Ho2Sc12Si15Sn
_symmetry_space_group_name_H-M   'P 1'
_cell_length_a   7.12713821
_cell_length_b   7.41471162
_cell_length_c   14.06450516
_cell_angle_alpha   89.99529418
_cell_angle_beta   89.58198870
_cell_angle_gamma   90.02715333
_symmetry_Int_Tables_number   1
_chemical_formula_structural   Dy6Ho2Sc12Si15Sn
_chemical_formula_sum   'Dy6 Ho2 Sc12 Si15 Sn1'
_cell_volume   743.22839481
_cell_formula_units_Z   1
loop_
 _symmetry_equiv_pos_site_id
 _symmetry_equiv_pos_as_xyz
  1  'x, y, z'
loop_
 _atom_site_type_symbol
 _atom_site_label
 _atom_site_symmetry_multiplicity
 _atom_site_fract_x
 _atom_site_fract_y
 _atom_site_fract_z
 _atom_site_occupancy
  Dy  Dy0  1  0.011665  0.175975  0.096493  1
  Dy  Dy1  1  0.988225  0.824696  0.904423  1
  Dy  Dy2  1  0.488994  0.676045  0.904364  1
  Dy  Dy3  1  0.989067  0.830379  0.598382  1
  Dy  Dy4  1  0.510977  0.323919  0.096745  1
  Dy  Dy5  1  0.005840  0.169626  0.399110  1
  Ho  Ho6  1  0.513102  0.320306  0.399496  1
  Ho  Ho7  1  0.501173  0.684480  0.600025  1
  Sc  Sc8  1  0.162562  0.502409  0.755092  1
  Sc  Sc9  1  0.837019  0.497518  0.249158  1
  Sc  Sc10  1  0.337314  0.002750  0.249336  1
  Sc  Sc11  1  0.664098  0.997263  0.751763  1
  Sc  Sc12  1  0.343265  0.162520  0.630838  1
  Sc  Sc13  1  0.663903  0.825039  0.372612  1
  Sc  Sc14  1  0.163475  0.683373  0.369251  1
  Sc  Sc15  1  0.667732  0.823003  0.124135  1
  Sc  Sc16  1  0.823139  0.323700  0.626632  1
  Sc  Sc17  1  0.330685  0.175873  0.875552  1
  Sc  Sc18  1  0.831251  0.323388  0.875610  1
  Sc  Sc19  1  0.168668  0.676722  0.124994  1
  Si  Si20  1  0.035030  0.118497  0.751247  1
  Si  Si21  1  0.963103  0.885191  0.246813  1
  Si  Si22  1  0.465291  0.615259  0.248557  1
  Si  Si23  1  0.533120  0.385635  0.752209  1
  Si  Si24  1  0.286729  0.869882  0.752432  1
  Si  Si25  1  0.712189  0.126851  0.247478  1
  Si  Si26  1  0.212000  0.372545  0.249117  1
  Si  Si27  1  0.789525  0.628209  0.751596  1
  Si  Si28  1  0.829966  0.538944  0.458653  1
  Si  Si29  1  0.338247  0.964008  0.460316  1
  Si  Si30  1  0.842022  0.534623  0.039444  1
  Si  Si31  1  0.662291  0.037186  0.537858  1
  Si  Si32  1  0.157133  0.464812  0.961579  1
  Si  Si33  1  0.657179  0.035281  0.960801  1
  Si  Si34  1  0.341538  0.965305  0.039757  1
  Sn  Sn35  1  0.172483  0.458791  0.538131  1
