# generated using pymatgen
data_Y5In4AgRh
_symmetry_space_group_name_H-M   'P 1'
_cell_length_a   3.62207900
_cell_length_b   8.22037594
_cell_length_c   18.43021700
_cell_angle_alpha   89.87700083
_cell_angle_beta   90.00000000
_cell_angle_gamma   90.00000000
_symmetry_Int_Tables_number   1
_chemical_formula_structural   Y5In4AgRh
_chemical_formula_sum   'Y10 In8 Ag2 Rh2'
_cell_volume   548.75570191
_cell_formula_units_Z   2
loop_
 _symmetry_equiv_pos_site_id
 _symmetry_equiv_pos_as_xyz
  1  'x, y, z'
loop_
 _atom_site_type_symbol
 _atom_site_label
 _atom_site_symmetry_multiplicity
 _atom_site_fract_x
 _atom_site_fract_y
 _atom_site_fract_z
 _atom_site_occupancy
  Y  Y0  1  0.000000  0.500000  0.500000  1
  Y  Y1  1  0.000000  0.000000  0.000000  1
  Y  Y2  1  0.000000  0.719939  0.277212  1
  Y  Y3  1  0.000000  0.280061  0.722788  1
  Y  Y4  1  0.000000  0.736519  0.782549  1
  Y  Y5  1  0.000000  0.263481  0.217451  1
  Y  Y6  1  0.000000  0.616420  0.084835  1
  Y  Y7  1  0.000000  0.383580  0.915165  1
  Y  Y8  1  0.000000  0.877274  0.578186  1
  Y  Y9  1  0.000000  0.122726  0.421814  1
  In  In10  1  0.500000  0.708060  0.932186  1
  In  In11  1  0.500000  0.291940  0.067814  1
  In  In12  1  0.500000  0.790905  0.430563  1
  In  In13  1  0.500000  0.209095  0.569437  1
  In  In14  1  0.500000  0.577847  0.648797  1
  In  In15  1  0.500000  0.422153  0.351203  1
  In  In16  1  0.500000  0.922367  0.149002  1
  In  In17  1  0.500000  0.077633  0.850998  1
  Ag  Ag18  1  0.500000  0.977468  0.698624  1
  Ag  Ag19  1  0.500000  0.022532  0.301376  1
  Rh  Rh20  1  0.500000  0.523388  0.194640  1
  Rh  Rh21  1  0.500000  0.476612  0.805360  1
