# generated using pymatgen
data_Y4Sc6Sn5Bi3
_symmetry_space_group_name_H-M   'P 1'
_cell_length_a   7.91583200
_cell_length_b   7.91829205
_cell_length_c   14.94930142
_cell_angle_alpha   90.14167003
_cell_angle_beta   90.00000000
_cell_angle_gamma   90.00000000
_symmetry_Int_Tables_number   1
_chemical_formula_structural   Y4Sc6Sn5Bi3
_chemical_formula_sum   'Y8 Sc12 Sn10 Bi6'
_cell_volume   937.01739961
_cell_formula_units_Z   2
loop_
 _symmetry_equiv_pos_site_id
 _symmetry_equiv_pos_as_xyz
  1  'x, y, z'
loop_
 _atom_site_type_symbol
 _atom_site_label
 _atom_site_symmetry_multiplicity
 _atom_site_fract_x
 _atom_site_fract_y
 _atom_site_fract_z
 _atom_site_occupancy
  Y  Y0  1  0.532574  0.326520  0.900445  1
  Y  Y1  1  0.032574  0.173480  0.599555  1
  Y  Y2  1  0.470248  0.680956  0.398742  1
  Y  Y3  1  0.970248  0.819044  0.101258  1
  Y  Y4  1  0.478244  0.673016  0.099717  1
  Y  Y5  1  0.978244  0.826984  0.400283  1
  Y  Y6  1  0.525329  0.319946  0.599576  1
  Y  Y7  1  0.025329  0.180054  0.900424  1
  Sc  Sc8  1  0.361585  0.843730  0.871433  1
  Sc  Sc9  1  0.861585  0.656270  0.628567  1
  Sc  Sc10  1  0.632674  0.156489  0.371072  1
  Sc  Sc11  1  0.132674  0.343511  0.128928  1
  Sc  Sc12  1  0.641052  0.161727  0.127758  1
  Sc  Sc13  1  0.141052  0.338273  0.372242  1
  Sc  Sc14  1  0.359691  0.846485  0.627851  1
  Sc  Sc15  1  0.859691  0.653515  0.872149  1
  Sc  Sc16  1  0.190251  0.504260  0.749775  1
  Sc  Sc17  1  0.690251  0.995740  0.750225  1
  Sc  Sc18  1  0.809853  0.495354  0.246889  1
  Sc  Sc19  1  0.309853  0.004646  0.253111  1
  Sn  Sn20  1  0.296566  0.042857  0.457541  1
  Sn  Sn21  1  0.796566  0.457143  0.042459  1
  Sn  Sn22  1  0.554281  0.628174  0.749013  1
  Sn  Sn23  1  0.054281  0.871826  0.750987  1
  Sn  Sn24  1  0.443630  0.372728  0.249367  1
  Sn  Sn25  1  0.943630  0.127272  0.250633  1
  Sn  Sn26  1  0.332572  0.150268  0.751481  1
  Sn  Sn27  1  0.832572  0.349732  0.748519  1
  Sn  Sn28  1  0.669085  0.851970  0.249707  1
  Sn  Sn29  1  0.169085  0.648030  0.250293  1
  Bi  Bi30  1  0.293035  0.041483  0.044142  1
  Bi  Bi31  1  0.793035  0.458517  0.455858  1
  Bi  Bi32  1  0.703614  0.956942  0.542151  1
  Bi  Bi33  1  0.203614  0.543058  0.957849  1
  Bi  Bi34  1  0.705715  0.957047  0.957032  1
  Bi  Bi35  1  0.205715  0.542953  0.542968  1
