# generated using pymatgen
data_Li4YbY3Si8
_symmetry_space_group_name_H-M   'P 1'
_cell_length_a   3.79295900
_cell_length_b   7.72237651
_cell_length_c   10.25512713
_cell_angle_alpha   89.55274521
_cell_angle_beta   90.00000000
_cell_angle_gamma   90.00000000
_symmetry_Int_Tables_number   1
_chemical_formula_structural   Li4YbY3Si8
_chemical_formula_sum   'Li4 Yb1 Y3 Si8'
_cell_volume   300.37026428
_cell_formula_units_Z   1
loop_
 _symmetry_equiv_pos_site_id
 _symmetry_equiv_pos_as_xyz
  1  'x, y, z'
loop_
 _atom_site_type_symbol
 _atom_site_label
 _atom_site_symmetry_multiplicity
 _atom_site_fract_x
 _atom_site_fract_y
 _atom_site_fract_z
 _atom_site_occupancy
  Li  Li0  1  0.250000  0.994966  0.393369  1
  Li  Li1  1  0.750000  0.011418  0.608009  1
  Li  Li2  1  0.250000  0.488491  0.109783  1
  Li  Li3  1  0.750000  0.509261  0.893015  1
  Yb  Yb4  1  0.750000  0.361705  0.364499  1
  Y  Y5  1  0.250000  0.132960  0.863651  1
  Y  Y6  1  0.750000  0.865308  0.133675  1
  Y  Y7  1  0.250000  0.634854  0.634954  1
  Si  Si8  1  0.750000  0.261504  0.064623  1
  Si  Si9  1  0.250000  0.733719  0.932280  1
  Si  Si10  1  0.750000  0.771839  0.431671  1
  Si  Si11  1  0.250000  0.237132  0.570875  1
  Si  Si12  1  0.750000  0.840000  0.818062  1
  Si  Si13  1  0.250000  0.154880  0.175907  1
  Si  Si14  1  0.750000  0.341653  0.683237  1
  Si  Si15  1  0.250000  0.660308  0.322388  1
