# generated using pymatgen
data_Y8Nb12Si15Ge
_symmetry_space_group_name_H-M   'P 1'
_cell_length_a   6.89409066
_cell_length_b   7.09340378
_cell_length_c   13.47149093
_cell_angle_alpha   90.04600162
_cell_angle_beta   89.92539114
_cell_angle_gamma   90.02751762
_symmetry_Int_Tables_number   1
_chemical_formula_structural   Y8Nb12Si15Ge
_chemical_formula_sum   'Y8 Nb12 Si15 Ge1'
_cell_volume   658.78966486
_cell_formula_units_Z   1
loop_
 _symmetry_equiv_pos_site_id
 _symmetry_equiv_pos_as_xyz
  1  'x, y, z'
loop_
 _atom_site_type_symbol
 _atom_site_label
 _atom_site_symmetry_multiplicity
 _atom_site_fract_x
 _atom_site_fract_y
 _atom_site_fract_z
 _atom_site_occupancy
  Y  Y0  1  0.503410  0.328945  0.095965  1
  Y  Y1  1  0.002269  0.170667  0.403629  1
  Y  Y2  1  0.499913  0.673236  0.596708  1
  Y  Y3  1  0.996543  0.828674  0.904486  1
  Y  Y4  1  0.496450  0.670999  0.904334  1
  Y  Y5  1  0.996529  0.829626  0.596160  1
  Y  Y6  1  0.503890  0.327482  0.403141  1
  Y  Y7  1  0.003318  0.171526  0.095711  1
  Nb  Nb8  1  0.664228  0.008892  0.750200  1
  Nb  Nb9  1  0.164231  0.490333  0.751910  1
  Nb  Nb10  1  0.335392  0.991182  0.249746  1
  Nb  Nb11  1  0.835699  0.509129  0.249845  1
  Nb  Nb12  1  0.836174  0.324084  0.625883  1
  Nb  Nb13  1  0.337785  0.175341  0.874825  1
  Nb  Nb14  1  0.162176  0.675596  0.125237  1
  Nb  Nb15  1  0.661735  0.824959  0.374116  1
  Nb  Nb16  1  0.160472  0.678042  0.372908  1
  Nb  Nb17  1  0.661270  0.824236  0.125207  1
  Nb  Nb18  1  0.837727  0.324290  0.874820  1
  Nb  Nb19  1  0.340461  0.171785  0.626724  1
  Si  Si20  1  0.797184  0.624591  0.750250  1
  Si  Si21  1  0.295956  0.874253  0.750627  1
  Si  Si22  1  0.203293  0.375370  0.249701  1
  Si  Si23  1  0.703454  0.124652  0.249502  1
  Si  Si24  1  0.542903  0.375733  0.750402  1
  Si  Si25  1  0.042835  0.124523  0.750110  1
  Si  Si26  1  0.456712  0.624375  0.249899  1
  Si  Si27  1  0.956132  0.876117  0.248987  1
  Si  Si28  1  0.663149  0.037639  0.540110  1
  Si  Si29  1  0.162257  0.462867  0.959548  1
  Si  Si30  1  0.337238  0.963122  0.040552  1
  Si  Si31  1  0.833582  0.537951  0.458687  1
  Si  Si32  1  0.336986  0.962472  0.459579  1
  Si  Si33  1  0.837705  0.537084  0.040752  1
  Si  Si34  1  0.662405  0.037049  0.959510  1
  Ge  Ge35  1  0.168536  0.463178  0.540228  1
