# generated using pymatgen
data_YbEr2Th(B6Os)2
_symmetry_space_group_name_H-M   'P 1'
_cell_length_a   3.67975000
_cell_length_b   9.18493034
_cell_length_c   11.58195621
_cell_angle_alpha   89.69819021
_cell_angle_beta   90.00000000
_cell_angle_gamma   90.00000000
_symmetry_Int_Tables_number   1
_chemical_formula_structural   YbEr2Th(B6Os)2
_chemical_formula_sum   'Yb2 Er4 Th2 B24 Os4'
_cell_volume   391.44439052
_cell_formula_units_Z   2
loop_
 _symmetry_equiv_pos_site_id
 _symmetry_equiv_pos_as_xyz
  1  'x, y, z'
loop_
 _atom_site_type_symbol
 _atom_site_label
 _atom_site_symmetry_multiplicity
 _atom_site_fract_x
 _atom_site_fract_y
 _atom_site_fract_z
 _atom_site_occupancy
  Yb  Yb0  1  0.000000  0.324626  0.415252  1
  Yb  Yb1  1  0.000000  0.675374  0.584748  1
  Er  Er2  1  0.000000  0.942996  0.374705  1
  Er  Er3  1  0.000000  0.057004  0.625295  1
  Er  Er4  1  0.000000  0.444290  0.129213  1
  Er  Er5  1  0.000000  0.555710  0.870787  1
  Th  Th6  1  0.000000  0.820150  0.087513  1
  Th  Th7  1  0.000000  0.179850  0.912487  1
  B  B8  1  0.500000  0.554390  0.432890  1
  B  B9  1  0.500000  0.445610  0.567110  1
  B  B10  1  0.500000  0.056548  0.070697  1
  B  B11  1  0.500000  0.943452  0.929303  1
  B  B12  1  0.500000  0.747114  0.420145  1
  B  B13  1  0.500000  0.252886  0.579855  1
  B  B14  1  0.500000  0.250640  0.083908  1
  B  B15  1  0.500000  0.749360  0.916092  1
  B  B16  1  0.500000  0.789558  0.269148  1
  B  B17  1  0.500000  0.210442  0.730852  1
  B  B18  1  0.500000  0.291151  0.236425  1
  B  B19  1  0.500000  0.708849  0.763575  1
  B  B20  1  0.500000  0.629513  0.187313  1
  B  B21  1  0.500000  0.370487  0.812687  1
  B  B22  1  0.500000  0.131874  0.316750  1
  B  B23  1  0.500000  0.868126  0.683250  1
  B  B24  1  0.500000  0.986032  0.216278  1
  B  B25  1  0.500000  0.013968  0.783722  1
  B  B26  1  0.500000  0.482919  0.289261  1
  B  B27  1  0.500000  0.517081  0.710739  1
  B  B28  1  0.500000  0.602490  0.027998  1
  B  B29  1  0.500000  0.397510  0.972002  1
  B  B30  1  0.500000  0.103892  0.471394  1
  B  B31  1  0.500000  0.896108  0.528606  1
  Os  Os32  1  0.000000  0.639457  0.319519  1
  Os  Os33  1  0.000000  0.360543  0.680481  1
  Os  Os34  1  0.000000  0.138146  0.179605  1
  Os  Os35  1  0.000000  0.861854  0.820395  1
