# generated using pymatgen
data_Ho3Mg3IrAu2
_symmetry_space_group_name_H-M   'P 1'
_cell_length_a   7.63703600
_cell_length_b   7.63703584
_cell_length_c   3.94792900
_cell_angle_alpha   90.00000000
_cell_angle_beta   90.00000000
_cell_angle_gamma   120.00000070
_symmetry_Int_Tables_number   1
_chemical_formula_structural   Ho3Mg3IrAu2
_chemical_formula_sum   'Ho3 Mg3 Ir1 Au2'
_cell_volume   199.41123758
_cell_formula_units_Z   1
loop_
 _symmetry_equiv_pos_site_id
 _symmetry_equiv_pos_as_xyz
  1  'x, y, z'
loop_
 _atom_site_type_symbol
 _atom_site_label
 _atom_site_symmetry_multiplicity
 _atom_site_fract_x
 _atom_site_fract_y
 _atom_site_fract_z
 _atom_site_occupancy
  Ho  Ho0  1  0.426160  0.024524  0.000000  1
  Ho  Ho1  1  0.975476  0.401636  0.000000  1
  Ho  Ho2  1  0.598364  0.573840  0.000000  1
  Mg  Mg3  1  0.997920  0.745991  0.500000  1
  Mg  Mg4  1  0.748072  0.002080  0.500000  1
  Mg  Mg5  1  0.254009  0.251928  0.500000  1
  Ir  Ir6  1  0.666667  0.333333  0.500000  1
  Au  Au7  1  0.000000  0.000000  0.000000  1
  Au  Au8  1  0.333333  0.666667  0.500000  1
