# generated using pymatgen
data_YbEu2(HoGe2)2
_symmetry_space_group_name_H-M   'P 1'
_cell_length_a   7.57023800
_cell_length_b   7.94797800
_cell_length_c   14.98342700
_cell_angle_alpha   90.00000000
_cell_angle_beta   90.00000000
_cell_angle_gamma   90.00000000
_symmetry_Int_Tables_number   1
_chemical_formula_structural   YbEu2(HoGe2)2
_chemical_formula_sum   'Yb4 Eu8 Ho8 Ge16'
_cell_volume   901.52411051
_cell_formula_units_Z   4
loop_
 _symmetry_equiv_pos_site_id
 _symmetry_equiv_pos_as_xyz
  1  'x, y, z'
loop_
 _atom_site_type_symbol
 _atom_site_label
 _atom_site_symmetry_multiplicity
 _atom_site_fract_x
 _atom_site_fract_y
 _atom_site_fract_z
 _atom_site_occupancy
  Yb  Yb0  1  0.345433  0.015274  0.750000  1
  Yb  Yb1  1  0.845433  0.484726  0.750000  1
  Yb  Yb2  1  0.154567  0.515274  0.250000  1
  Yb  Yb3  1  0.654567  0.984726  0.250000  1
  Eu  Eu4  1  0.979467  0.818646  0.403511  1
  Eu  Eu5  1  0.479467  0.681354  0.096489  1
  Eu  Eu6  1  0.520533  0.318646  0.596489  1
  Eu  Eu7  1  0.020533  0.181354  0.903511  1
  Eu  Eu8  1  0.020533  0.181354  0.596489  1
  Eu  Eu9  1  0.520533  0.318646  0.903511  1
  Eu  Eu10  1  0.479467  0.681354  0.403511  1
  Eu  Eu11  1  0.979467  0.818646  0.096489  1
  Ho  Ho12  1  0.320708  0.174646  0.121536  1
  Ho  Ho13  1  0.820708  0.325354  0.378464  1
  Ho  Ho14  1  0.179292  0.674646  0.878464  1
  Ho  Ho15  1  0.679292  0.825354  0.621536  1
  Ho  Ho16  1  0.320708  0.174646  0.378464  1
  Ho  Ho17  1  0.820708  0.325354  0.121536  1
  Ho  Ho18  1  0.179292  0.674646  0.621536  1
  Ho  Ho19  1  0.679292  0.825354  0.878464  1
  Ge  Ge20  1  0.846554  0.535044  0.539530  1
  Ge  Ge21  1  0.346554  0.964956  0.960470  1
  Ge  Ge22  1  0.653446  0.035044  0.460470  1
  Ge  Ge23  1  0.153446  0.464956  0.039530  1
  Ge  Ge24  1  0.153446  0.464956  0.460470  1
  Ge  Ge25  1  0.653446  0.035044  0.039530  1
  Ge  Ge26  1  0.346554  0.964956  0.539530  1
  Ge  Ge27  1  0.846554  0.535044  0.960470  1
  Ge  Ge28  1  0.974500  0.882539  0.750000  1
  Ge  Ge29  1  0.474500  0.617461  0.750000  1
  Ge  Ge30  1  0.525500  0.382539  0.250000  1
  Ge  Ge31  1  0.025500  0.117461  0.250000  1
  Ge  Ge32  1  0.231549  0.386442  0.750000  1
  Ge  Ge33  1  0.731549  0.113558  0.750000  1
  Ge  Ge34  1  0.268451  0.886442  0.250000  1
  Ge  Ge35  1  0.768451  0.613558  0.250000  1
