# generated using pymatgen
data_Sm3Pa7O20
_symmetry_space_group_name_H-M   'P 1'
_cell_length_a   6.69610125
_cell_length_b   7.73423588
_cell_length_c   8.64640203
_cell_angle_alpha   103.03964022
_cell_angle_beta   97.31304605
_cell_angle_gamma   106.77208716
_symmetry_Int_Tables_number   1
_chemical_formula_structural   Sm3Pa7O20
_chemical_formula_sum   'Sm3 Pa7 O20'
_cell_volume   408.70425756
_cell_formula_units_Z   1
loop_
 _symmetry_equiv_pos_site_id
 _symmetry_equiv_pos_as_xyz
  1  'x, y, z'
loop_
 _atom_site_type_symbol
 _atom_site_label
 _atom_site_symmetry_multiplicity
 _atom_site_fract_x
 _atom_site_fract_y
 _atom_site_fract_z
 _atom_site_occupancy
  Sm  Sm0  1  0.396504  0.297664  0.798794  1
  Sm  Sm1  1  0.200679  0.901161  0.400006  1
  Sm  Sm2  1  0.002505  0.000736  0.000983  1
  Pa  Pa3  1  0.800562  0.601375  0.601560  1
  Pa  Pa4  1  0.597243  0.198239  0.197743  1
  Pa  Pa5  1  0.999487  0.499976  0.999990  1
  Pa  Pa6  1  0.799783  0.100296  0.602114  1
  Pa  Pa7  1  0.401196  0.801782  0.799829  1
  Pa  Pa8  1  0.199399  0.398586  0.400042  1
  Pa  Pa9  1  0.603245  0.700827  0.198805  1
  O  O10  1  0.845148  0.326163  0.449244  1
  O  O11  1  0.643717  0.922849  0.051496  1
  O  O12  1  0.942713  0.763964  0.146910  1
  O  O13  1  0.451823  0.531003  0.645486  1
  O  O14  1  0.841037  0.821586  0.452131  1
  O  O15  1  0.652584  0.425960  0.055368  1
  O  O16  1  0.755890  0.379261  0.747610  1
  O  O17  1  0.261114  0.137838  0.253899  1
  O  O18  1  0.946606  0.281890  0.155735  1
  O  O19  1  0.459801  0.019957  0.651797  1
  O  O20  1  0.561527  0.977099  0.347800  1
  O  O21  1  0.051527  0.717832  0.845377  1
  O  O22  1  0.747040  0.870621  0.745853  1
  O  O23  1  0.350206  0.583340  0.953890  1
  O  O24  1  0.255055  0.616979  0.246762  1
  O  O25  1  0.552908  0.476644  0.351010  1
  O  O26  1  0.136574  0.179470  0.546120  1
  O  O27  1  0.038689  0.230340  0.849299  1
  O  O28  1  0.358867  0.069107  0.951861  1
  O  O29  1  0.146570  0.667455  0.552486  1
