# generated using pymatgen
data_Tb16CdHg3OsRh3
_symmetry_space_group_name_H-M   'P 1'
_cell_length_a   9.62785531
_cell_length_b   9.62785534
_cell_length_c   9.68443872
_cell_angle_alpha   60.10134588
_cell_angle_beta   60.10134723
_cell_angle_gamma   59.88953506
_symmetry_Int_Tables_number   1
_chemical_formula_structural   Tb16CdHg3OsRh3
_chemical_formula_sum   'Tb16 Cd1 Hg3 Os1 Rh3'
_cell_volume   635.20976620
_cell_formula_units_Z   1
loop_
 _symmetry_equiv_pos_site_id
 _symmetry_equiv_pos_as_xyz
  1  'x, y, z'
loop_
 _atom_site_type_symbol
 _atom_site_label
 _atom_site_symmetry_multiplicity
 _atom_site_fract_x
 _atom_site_fract_y
 _atom_site_fract_z
 _atom_site_occupancy
  Tb  Tb0  1  0.299030  0.900143  0.899240  1
  Tb  Tb1  1  0.693312  0.309361  0.685329  1
  Tb  Tb2  1  0.312737  0.687929  0.312256  1
  Tb  Tb3  1  0.062563  0.438538  0.440787  1
  Tb  Tb4  1  0.687929  0.312737  0.312256  1
  Tb  Tb5  1  0.438538  0.062563  0.440787  1
  Tb  Tb6  1  0.441427  0.060059  0.058420  1
  Tb  Tb7  1  0.899747  0.899747  0.900331  1
  Tb  Tb8  1  0.060059  0.441427  0.058420  1
  Tb  Tb9  1  0.900143  0.299030  0.899240  1
  Tb  Tb10  1  0.309361  0.693312  0.685329  1
  Tb  Tb11  1  0.898080  0.898080  0.302323  1
  Tb  Tb12  1  0.440537  0.440537  0.060027  1
  Tb  Tb13  1  0.310804  0.310804  0.687270  1
  Tb  Tb14  1  0.686907  0.686907  0.311112  1
  Tb  Tb15  1  0.059833  0.059833  0.441416  1
  Cd  Cd16  1  0.670193  0.670193  0.669383  1
  Hg  Hg17  1  0.006050  0.664272  0.663591  1
  Hg  Hg18  1  0.664272  0.006050  0.663591  1
  Hg  Hg19  1  0.664020  0.664020  0.006364  1
  Os  Os20  1  0.105944  0.105944  0.675199  1
  Rh  Rh21  1  0.105798  0.674744  0.108563  1
  Rh  Rh22  1  0.107971  0.107971  0.110203  1
  Rh  Rh23  1  0.674744  0.105798  0.108563  1
