# generated using pymatgen
data_PrSm7Sc12Si15Pt
_symmetry_space_group_name_H-M   'P 1'
_cell_length_a   7.17708600
_cell_length_b   7.52683296
_cell_length_c   14.12243611
_cell_angle_alpha   90.05088265
_cell_angle_beta   90.03647876
_cell_angle_gamma   90.22806522
_symmetry_Int_Tables_number   1
_chemical_formula_structural   PrSm7Sc12Si15Pt
_chemical_formula_sum   'Pr1 Sm7 Sc12 Si15 Pt1'
_cell_volume   762.89777075
_cell_formula_units_Z   1
loop_
 _symmetry_equiv_pos_site_id
 _symmetry_equiv_pos_as_xyz
  1  'x, y, z'
loop_
 _atom_site_type_symbol
 _atom_site_label
 _atom_site_symmetry_multiplicity
 _atom_site_fract_x
 _atom_site_fract_y
 _atom_site_fract_z
 _atom_site_occupancy
  Pr  Pr0  1  0.011916  0.175429  0.096214  1
  Sm  Sm1  1  0.990300  0.823131  0.904137  1
  Sm  Sm2  1  0.488684  0.675266  0.903508  1
  Sm  Sm3  1  0.990198  0.823229  0.595487  1
  Sm  Sm4  1  0.511385  0.324858  0.097008  1
  Sm  Sm5  1  0.012279  0.176740  0.402840  1
  Sm  Sm6  1  0.511616  0.324714  0.403361  1
  Sm  Sm7  1  0.488017  0.675387  0.596079  1
  Sc  Sc8  1  0.157682  0.499598  0.750047  1
  Sc  Sc9  1  0.839193  0.499574  0.250208  1
  Sc  Sc10  1  0.339541  0.002159  0.250251  1
  Sc  Sc11  1  0.665996  0.001313  0.750101  1
  Sc  Sc12  1  0.323408  0.173164  0.625532  1
  Sc  Sc13  1  0.671644  0.826038  0.373732  1
  Sc  Sc14  1  0.171722  0.676401  0.373948  1
  Sc  Sc15  1  0.671746  0.825731  0.126571  1
  Sc  Sc16  1  0.829446  0.323435  0.625533  1
  Sc  Sc17  1  0.324077  0.173254  0.874286  1
  Sc  Sc18  1  0.828984  0.323941  0.874321  1
  Sc  Sc19  1  0.171671  0.676109  0.126339  1
  Si  Si20  1  0.968902  0.878107  0.250731  1
  Si  Si21  1  0.468530  0.619300  0.250226  1
  Si  Si22  1  0.530857  0.383612  0.749900  1
  Si  Si23  1  0.287666  0.874093  0.749917  1
  Si  Si24  1  0.710574  0.124340  0.251076  1
  Si  Si25  1  0.213020  0.377965  0.250876  1
  Si  Si26  1  0.781601  0.621863  0.749894  1
  Si  Si27  1  0.155558  0.465492  0.538216  1
  Si  Si28  1  0.846091  0.536474  0.460443  1
  Si  Si29  1  0.347932  0.964303  0.460357  1
  Si  Si30  1  0.844892  0.538474  0.038990  1
  Si  Si31  1  0.655028  0.034906  0.538941  1
  Si  Si32  1  0.156334  0.467484  0.961070  1
  Si  Si33  1  0.654465  0.034779  0.960796  1
  Si  Si34  1  0.350164  0.962735  0.039079  1
  Pt  Pt35  1  0.028882  0.116603  0.749985  1
