# generated using pymatgen
data_RbMn6(CoO8)2
_symmetry_space_group_name_H-M   'P 1'
_cell_length_a   5.79669124
_cell_length_b   7.10936771
_cell_length_c   7.16678000
_cell_angle_alpha   87.83395426
_cell_angle_beta   78.28717372
_cell_angle_gamma   78.22826812
_symmetry_Int_Tables_number   1
_chemical_formula_structural   RbMn6(CoO8)2
_chemical_formula_sum   'Rb1 Mn6 Co2 O16'
_cell_volume   283.11446943
_cell_formula_units_Z   1
loop_
 _symmetry_equiv_pos_site_id
 _symmetry_equiv_pos_as_xyz
  1  'x, y, z'
loop_
 _atom_site_type_symbol
 _atom_site_label
 _atom_site_symmetry_multiplicity
 _atom_site_fract_x
 _atom_site_fract_y
 _atom_site_fract_z
 _atom_site_occupancy
  Rb  Rb0  1  0.007609  0.993696  0.999201  1
  Mn  Mn1  1  0.171453  0.815989  0.510206  1
  Mn  Mn2  1  0.673184  0.815480  0.514122  1
  Mn  Mn3  1  0.338768  0.186218  0.479428  1
  Mn  Mn4  1  0.836135  0.188007  0.481722  1
  Mn  Mn5  1  0.425755  0.485969  0.824255  1
  Mn  Mn6  1  0.926815  0.489025  0.823635  1
  Co  Co7  1  0.579260  0.513205  0.184640  1
  Co  Co8  1  0.080923  0.511117  0.181385  1
  O  O9  1  0.830101  0.637966  0.054555  1
  O  O10  1  0.331575  0.637561  0.053927  1
  O  O11  1  0.983514  0.704673  0.376270  1
  O  O12  1  0.485831  0.702117  0.374812  1
  O  O13  1  0.857405  0.953019  0.638304  1
  O  O14  1  0.355719  0.952911  0.636382  1
  O  O15  1  0.340879  0.376747  0.288042  1
  O  O16  1  0.837138  0.373031  0.285962  1
  O  O17  1  0.167854  0.631805  0.716417  1
  O  O18  1  0.668629  0.626921  0.712779  1
  O  O19  1  0.152788  0.048763  0.355021  1
  O  O20  1  0.654344  0.047263  0.356526  1
  O  O21  1  0.025481  0.295332  0.622081  1
  O  O22  1  0.524433  0.295682  0.621180  1
  O  O23  1  0.175937  0.357215  0.952683  1
  O  O24  1  0.675566  0.360285  0.956467  1
