# generated using pymatgen
data_Tb15Hf4ThIr12
_symmetry_space_group_name_H-M   'P 1'
_cell_length_a   10.91327720
_cell_length_b   10.89096906
_cell_length_c   6.27435017
_cell_angle_alpha   90.13836470
_cell_angle_beta   89.62377984
_cell_angle_gamma   90.07114012
_symmetry_Int_Tables_number   1
_chemical_formula_structural   Tb15Hf4ThIr12
_chemical_formula_sum   'Tb15 Hf4 Th1 Ir12'
_cell_volume   745.72638344
_cell_formula_units_Z   1
loop_
 _symmetry_equiv_pos_site_id
 _symmetry_equiv_pos_as_xyz
  1  'x, y, z'
loop_
 _atom_site_type_symbol
 _atom_site_label
 _atom_site_symmetry_multiplicity
 _atom_site_fract_x
 _atom_site_fract_y
 _atom_site_fract_z
 _atom_site_occupancy
  Tb  Tb0  1  0.289035  0.911285  0.874672  1
  Tb  Tb1  1  0.710459  0.085847  0.875389  1
  Tb  Tb2  1  0.710713  0.913879  0.374514  1
  Tb  Tb3  1  0.585208  0.789226  0.875695  1
  Tb  Tb4  1  0.590491  0.212220  0.375610  1
  Tb  Tb5  1  0.415554  0.784759  0.374750  1
  Tb  Tb6  1  0.415854  0.212758  0.874302  1
  Tb  Tb7  1  0.210707  0.414478  0.623868  1
  Tb  Tb8  1  0.211204  0.584561  0.123788  1
  Tb  Tb9  1  0.788918  0.415440  0.124152  1
  Tb  Tb10  1  0.788872  0.585560  0.623934  1
  Tb  Tb11  1  0.914888  0.711057  0.124655  1
  Tb  Tb12  1  0.914027  0.289697  0.623692  1
  Tb  Tb13  1  0.084889  0.710605  0.623905  1
  Tb  Tb14  1  0.082811  0.289665  0.121797  1
  Hf  Hf15  1  0.996260  0.998785  0.501466  1
  Hf  Hf16  1  0.999582  0.000207  0.000314  1
  Hf  Hf17  1  0.500460  0.499947  0.002214  1
  Hf  Hf18  1  0.500726  0.499348  0.502045  1
  Th  Th19  1  0.289388  0.086519  0.376676  1
  Ir  Ir20  1  0.857807  0.142207  0.249292  1
  Ir  Ir21  1  0.857457  0.857961  0.751981  1
  Ir  Ir22  1  0.142633  0.142002  0.743429  1
  Ir  Ir23  1  0.143967  0.860834  0.252815  1
  Ir  Ir24  1  0.642705  0.359391  0.750382  1
  Ir  Ir25  1  0.642027  0.642052  0.250154  1
  Ir  Ir26  1  0.358748  0.356275  0.253283  1
  Ir  Ir27  1  0.358614  0.641234  0.751981  1
  Ir  Ir28  1  0.497352  0.001050  0.121231  1
  Ir  Ir29  1  0.498689  0.999965  0.617510  1
  Ir  Ir30  1  0.999989  0.500242  0.880632  1
  Ir  Ir31  1  0.999967  0.500943  0.379874  1
