# generated using pymatgen
data_Li2Pr8Y10Si15As
_symmetry_space_group_name_H-M   'P 1'
_cell_length_a   7.43008734
_cell_length_b   7.80380308
_cell_length_c   14.90457000
_cell_angle_alpha   90.00000000
_cell_angle_beta   90.00000000
_cell_angle_gamma   90.19474545
_symmetry_Int_Tables_number   1
_chemical_formula_structural   Li2Pr8Y10Si15As
_chemical_formula_sum   'Li2 Pr8 Y10 Si15 As1'
_cell_volume   864.20577370
_cell_formula_units_Z   1
loop_
 _symmetry_equiv_pos_site_id
 _symmetry_equiv_pos_as_xyz
  1  'x, y, z'
loop_
 _atom_site_type_symbol
 _atom_site_label
 _atom_site_symmetry_multiplicity
 _atom_site_fract_x
 _atom_site_fract_y
 _atom_site_fract_z
 _atom_site_occupancy
  Li  Li0  1  0.660875  0.989093  0.750000  1
  Li  Li1  1  0.844018  0.490572  0.250000  1
  Pr  Pr2  1  0.016255  0.188676  0.398952  1
  Pr  Pr3  1  0.526598  0.324571  0.398336  1
  Pr  Pr4  1  0.487199  0.684362  0.900501  1
  Pr  Pr5  1  0.487199  0.684362  0.599499  1
  Pr  Pr6  1  0.972445  0.825730  0.602172  1
  Pr  Pr7  1  0.972445  0.825730  0.897828  1
  Pr  Pr8  1  0.526598  0.324571  0.101664  1
  Pr  Pr9  1  0.016255  0.188676  0.101048  1
  Y  Y10  1  0.332396  0.173956  0.624571  1
  Y  Y11  1  0.679362  0.810676  0.374620  1
  Y  Y12  1  0.166627  0.674097  0.375519  1
  Y  Y13  1  0.819279  0.311098  0.875094  1
  Y  Y14  1  0.819279  0.311098  0.624906  1
  Y  Y15  1  0.344845  0.008910  0.250000  1
  Y  Y16  1  0.332396  0.173956  0.875429  1
  Y  Y17  1  0.166627  0.674097  0.124481  1
  Y  Y18  1  0.679362  0.810676  0.125380  1
  Y  Y19  1  0.153323  0.504322  0.750000  1
  Si  Si20  1  0.464003  0.606551  0.250000  1
  Si  Si21  1  0.029669  0.117950  0.750000  1
  Si  Si22  1  0.527552  0.398894  0.750000  1
  Si  Si23  1  0.148519  0.470821  0.541635  1
  Si  Si24  1  0.971214  0.900152  0.250000  1
  Si  Si25  1  0.724896  0.112084  0.250000  1
  Si  Si26  1  0.849826  0.536000  0.028996  1
  Si  Si27  1  0.350863  0.969515  0.040659  1
  Si  Si28  1  0.148519  0.470821  0.958365  1
  Si  Si29  1  0.648559  0.033126  0.530198  1
  Si  Si30  1  0.350863  0.969515  0.459341  1
  Si  Si31  1  0.849826  0.536000  0.471004  1
  Si  Si32  1  0.776008  0.612469  0.750000  1
  Si  Si33  1  0.228928  0.380470  0.250000  1
  Si  Si34  1  0.648559  0.033126  0.969802  1
  As  As35  1  0.278816  0.873274  0.750000  1
