# generated using pymatgen
data_Pr3Y3Al6V4O24
_symmetry_space_group_name_H-M   'P 1'
_cell_length_a   10.80608460
_cell_length_b   10.80608462
_cell_length_c   10.80608389
_cell_angle_alpha   108.94478350
_cell_angle_beta   109.62368637
_cell_angle_gamma   109.84654823
_symmetry_Int_Tables_number   1
_chemical_formula_structural   Pr3Y3Al6V4O24
_chemical_formula_sum   'Pr6 Y6 Al12 V8 O48'
_cell_volume   971.30147344
_cell_formula_units_Z   2
loop_
 _symmetry_equiv_pos_site_id
 _symmetry_equiv_pos_as_xyz
  1  'x, y, z'
loop_
 _atom_site_type_symbol
 _atom_site_label
 _atom_site_symmetry_multiplicity
 _atom_site_fract_x
 _atom_site_fract_y
 _atom_site_fract_z
 _atom_site_occupancy
  Pr  Pr0  1  0.250000  0.374462  0.124462  1
  Pr  Pr1  1  0.750000  0.625197  0.875197  1
  Pr  Pr2  1  0.750000  0.125538  0.375538  1
  Pr  Pr3  1  0.125134  0.250000  0.375134  1
  Pr  Pr4  1  0.374866  0.750000  0.124866  1
  Pr  Pr5  1  0.250000  0.874803  0.624803  1
  Y  Y6  1  0.875149  0.750000  0.625149  1
  Y  Y7  1  0.624851  0.250000  0.874851  1
  Y  Y8  1  0.375604  0.125604  0.250000  1
  Y  Y9  1  0.624754  0.874754  0.750000  1
  Y  Y10  1  0.124396  0.374396  0.750000  1
  Y  Y11  1  0.875246  0.625246  0.250000  1
  Al  Al12  1  0.250000  0.625281  0.375281  1
  Al  Al13  1  0.750000  0.375032  0.625032  1
  Al  Al14  1  0.750000  0.874719  0.124719  1
  Al  Al15  1  0.377718  0.250000  0.627718  1
  Al  Al16  1  0.628010  0.750000  0.378010  1
  Al  Al17  1  0.250000  0.124968  0.874968  1
  Al  Al18  1  0.122282  0.750000  0.872282  1
  Al  Al19  1  0.871990  0.250000  0.121990  1
  Al  Al20  1  0.625044  0.375044  0.250000  1
  Al  Al21  1  0.375070  0.625070  0.750000  1
  Al  Al22  1  0.874956  0.124956  0.750000  1
  Al  Al23  1  0.124930  0.874930  0.250000  1
  V  V24  1  0.998898  0.999569  0.997464  1
  V  V25  1  0.502105  0.001433  0.502536  1
  V  V26  1  0.997895  0.500431  0.499329  1
  V  V27  1  0.499343  0.001384  0.998844  1
  V  V28  1  0.501102  0.498567  0.000671  1
  V  V29  1  0.502540  0.500499  0.501156  1
  V  V30  1  0.000657  0.999501  0.502041  1
  V  V31  1  0.997460  0.498616  0.997959  1
  O  O32  1  0.480735  0.375863  0.296456  1
  O  O33  1  0.519344  0.623340  0.704141  1
  O  O34  1  0.579406  0.184279  0.203544  1
  O  O35  1  0.920594  0.124137  0.604872  1
  O  O36  1  0.295149  0.482195  0.382439  1
  O  O37  1  0.317249  0.921670  0.298735  1
  O  O38  1  0.419198  0.815203  0.795859  1
  O  O39  1  0.080802  0.876660  0.396004  1
  O  O40  1  0.711346  0.522186  0.618943  1
  O  O41  1  0.684725  0.082524  0.706578  1
  O  O42  1  0.019265  0.315721  0.895128  1
  O  O43  1  0.204851  0.587290  0.187046  1
  O  O44  1  0.122935  0.018514  0.201265  1
  O  O45  1  0.980656  0.684797  0.103996  1
  O  O46  1  0.788654  0.407597  0.810840  1
  O  O47  1  0.875946  0.978147  0.793422  1
  O  O48  1  0.599756  0.912710  0.117561  1
  O  O49  1  0.182751  0.481486  0.604421  1
  O  O50  1  0.403243  0.092403  0.881057  1
  O  O51  1  0.815275  0.521853  0.397799  1
  O  O52  1  0.900244  0.017805  0.312954  1
  O  O53  1  0.377065  0.578330  0.895579  1
  O  O54  1  0.096757  0.977814  0.689160  1
  O  O55  1  0.624054  0.417476  0.102201  1
  O  O56  1  0.383382  0.293903  0.482200  1
  O  O57  1  0.588199  0.899171  0.383888  1
  O  O58  1  0.625971  0.707167  0.524536  1
  O  O59  1  0.420305  0.103515  0.625483  1
  O  O60  1  0.116618  0.598818  0.910521  1
  O  O61  1  0.015283  0.204311  0.116112  1
  O  O62  1  0.874029  0.398565  0.081196  1
  O  O63  1  0.978032  0.794822  0.874517  1
  O  O64  1  0.311703  0.901182  0.017800  1
  O  O65  1  0.911801  0.295689  0.310972  1
  O  O66  1  0.682631  0.101435  0.975464  1
  O  O67  1  0.079695  0.705178  0.683210  1
  O  O68  1  0.188297  0.206097  0.589479  1
  O  O69  1  0.484717  0.600829  0.189028  1
  O  O70  1  0.817369  0.792833  0.418804  1
  O  O71  1  0.521968  0.396485  0.816790  1
  O  O72  1  0.289986  0.311750  0.909506  1
  O  O73  1  0.710136  0.688442  0.091549  1
  O  O74  1  0.210014  0.119519  0.021764  1
  O  O75  1  0.789864  0.881413  0.978305  1
  O  O76  1  0.902244  0.380481  0.590494  1
  O  O77  1  0.096893  0.618587  0.408451  1
  O  O78  1  0.597756  0.188250  0.478236  1
  O  O79  1  0.403107  0.811558  0.521695  1
