# generated using pymatgen
data_Ho3In4PtRh
_symmetry_space_group_name_H-M   'P 1'
_cell_length_a   7.87933100
_cell_length_b   7.87933141
_cell_length_c   3.81988900
_cell_angle_alpha   90.00000000
_cell_angle_beta   90.00000000
_cell_angle_gamma   120.00000246
_symmetry_Int_Tables_number   1
_chemical_formula_structural   Ho3In4PtRh
_chemical_formula_sum   'Ho3 In4 Pt1 Rh1'
_cell_volume   205.38091146
_cell_formula_units_Z   1
loop_
 _symmetry_equiv_pos_site_id
 _symmetry_equiv_pos_as_xyz
  1  'x, y, z'
loop_
 _atom_site_type_symbol
 _atom_site_label
 _atom_site_symmetry_multiplicity
 _atom_site_fract_x
 _atom_site_fract_y
 _atom_site_fract_z
 _atom_site_occupancy
  Ho  Ho0  1  0.383160  0.411720  0.000000  1
  Ho  Ho1  1  0.028559  0.616839  0.000000  1
  Ho  Ho2  1  0.588280  0.971442  0.000000  1
  In  In3  1  0.998699  0.253716  0.500000  1
  In  In4  1  0.666666  0.333334  0.500000  1
  In  In5  1  0.746285  0.744983  0.500000  1
  In  In6  1  0.255017  0.001302  0.500000  1
  Pt  Pt7  1  0.333333  0.666666  0.500000  1
  Rh  Rh8  1  0.000000  0.000000  0.000000  1
