# generated using pymatgen
data_Ba4FeSbO8
_symmetry_space_group_name_H-M   'P 1'
_cell_length_a   7.29806080
_cell_length_b   7.29806146
_cell_length_c   5.85327300
_cell_angle_alpha   90.00000000
_cell_angle_beta   90.00000000
_cell_angle_gamma   132.72585480
_symmetry_Int_Tables_number   1
_chemical_formula_structural   Ba4FeSbO8
_chemical_formula_sum   'Ba4 Fe1 Sb1 O8'
_cell_volume   229.01805537
_cell_formula_units_Z   1
loop_
 _symmetry_equiv_pos_site_id
 _symmetry_equiv_pos_as_xyz
  1  'x, y, z'
loop_
 _atom_site_type_symbol
 _atom_site_label
 _atom_site_symmetry_multiplicity
 _atom_site_fract_x
 _atom_site_fract_y
 _atom_site_fract_z
 _atom_site_occupancy
  Ba  Ba0  1  0.354013  0.645987  0.000000  1
  Ba  Ba1  1  0.855924  0.144076  0.500000  1
  Ba  Ba2  1  0.144076  0.855924  0.500000  1
  Ba  Ba3  1  0.645987  0.354013  0.000000  1
  Fe  Fe4  1  0.000000  0.000000  0.000000  1
  Sb  Sb5  1  0.500000  0.500000  0.500000  1
  O  O6  1  0.254460  0.254460  0.743537  1
  O  O7  1  0.745540  0.745540  0.256463  1
  O  O8  1  0.745540  0.745540  0.743537  1
  O  O9  1  0.254460  0.254460  0.256463  1
  O  O10  1  0.151273  0.848727  0.000000  1
  O  O11  1  0.652216  0.347784  0.500000  1
  O  O12  1  0.347784  0.652216  0.500000  1
  O  O13  1  0.848727  0.151273  0.000000  1
