# generated using pymatgen
data_Ce2InPdAu
_symmetry_space_group_name_H-M   'P 1'
_cell_length_a   8.01084100
_cell_length_b   8.01202700
_cell_length_c   3.84713800
_cell_angle_alpha   90.00000000
_cell_angle_beta   90.00000000
_cell_angle_gamma   90.00000000
_symmetry_Int_Tables_number   1
_chemical_formula_structural   Ce2InPdAu
_chemical_formula_sum   'Ce4 In2 Pd2 Au2'
_cell_volume   246.92114442
_cell_formula_units_Z   2
loop_
 _symmetry_equiv_pos_site_id
 _symmetry_equiv_pos_as_xyz
  1  'x, y, z'
loop_
 _atom_site_type_symbol
 _atom_site_label
 _atom_site_symmetry_multiplicity
 _atom_site_fract_x
 _atom_site_fract_y
 _atom_site_fract_z
 _atom_site_occupancy
  Ce  Ce0  1  0.324734  0.816794  0.500000  1
  Ce  Ce1  1  0.824734  0.683206  0.500000  1
  Ce  Ce2  1  0.176046  0.334393  0.500000  1
  Ce  Ce3  1  0.676046  0.165607  0.500000  1
  In  In4  1  0.999164  0.995154  0.000000  1
  In  In5  1  0.499164  0.504846  0.000000  1
  Pd  Pd6  1  0.128482  0.631525  0.000000  1
  Pd  Pd7  1  0.628482  0.868475  0.000000  1
  Au  Au8  1  0.371574  0.122132  0.000000  1
  Au  Au9  1  0.871574  0.377868  0.000000  1
