# generated using pymatgen
data_LaYZn5Si
_symmetry_space_group_name_H-M   'P 1'
_cell_length_a   8.32762117
_cell_length_b   8.32762085
_cell_length_c   8.83712900
_cell_angle_alpha   90.00000000
_cell_angle_beta   90.00000000
_cell_angle_gamma   149.42477086
_symmetry_Int_Tables_number   1
_chemical_formula_structural   LaYZn5Si
_chemical_formula_sum   'La2 Y2 Zn10 Si2'
_cell_volume   311.73716072
_cell_formula_units_Z   2
loop_
 _symmetry_equiv_pos_site_id
 _symmetry_equiv_pos_as_xyz
  1  'x, y, z'
loop_
 _atom_site_type_symbol
 _atom_site_label
 _atom_site_symmetry_multiplicity
 _atom_site_fract_x
 _atom_site_fract_y
 _atom_site_fract_z
 _atom_site_occupancy
  La  La0  1  0.000000  0.000000  0.500000  1
  La  La1  1  0.000000  0.000000  0.000000  1
  Y  Y2  1  0.201293  0.798707  0.250000  1
  Y  Y3  1  0.798707  0.201293  0.750000  1
  Zn  Zn4  1  0.812292  0.187708  0.391757  1
  Zn  Zn5  1  0.187708  0.812292  0.608243  1
  Zn  Zn6  1  0.812292  0.187708  0.108243  1
  Zn  Zn7  1  0.187708  0.812292  0.891757  1
  Zn  Zn8  1  0.652924  0.347076  0.475011  1
  Zn  Zn9  1  0.347076  0.652924  0.524989  1
  Zn  Zn10  1  0.652924  0.347076  0.024989  1
  Zn  Zn11  1  0.347076  0.652924  0.975011  1
  Zn  Zn12  1  0.403157  0.596843  0.250000  1
  Zn  Zn13  1  0.596843  0.403157  0.750000  1
  Si  Si14  1  0.559725  0.440275  0.250000  1
  Si  Si15  1  0.440275  0.559725  0.750000  1
