# generated using pymatgen
data_Dy3Ho8TmNi4
_symmetry_space_group_name_H-M   'P 1'
_cell_length_a   6.33252295
_cell_length_b   6.80891128
_cell_length_c   9.51182919
_cell_angle_alpha   89.99291741
_cell_angle_beta   89.94306555
_cell_angle_gamma   90.02922867
_symmetry_Int_Tables_number   1
_chemical_formula_structural   Dy3Ho8TmNi4
_chemical_formula_sum   'Dy3 Ho8 Tm1 Ni4'
_cell_volume   410.12686315
_cell_formula_units_Z   1
loop_
 _symmetry_equiv_pos_site_id
 _symmetry_equiv_pos_as_xyz
  1  'x, y, z'
loop_
 _atom_site_type_symbol
 _atom_site_label
 _atom_site_symmetry_multiplicity
 _atom_site_fract_x
 _atom_site_fract_y
 _atom_site_fract_z
 _atom_site_occupancy
  Dy  Dy0  1  0.860428  0.533253  0.249378  1
  Dy  Dy1  1  0.639136  0.032710  0.249803  1
  Dy  Dy2  1  0.140110  0.467620  0.750402  1
  Ho  Ho3  1  0.179035  0.177674  0.433974  1
  Ho  Ho4  1  0.678764  0.322157  0.566259  1
  Ho  Ho5  1  0.820659  0.821850  0.934291  1
  Ho  Ho6  1  0.678208  0.322095  0.933957  1
  Ho  Ho7  1  0.820806  0.822247  0.566176  1
  Ho  Ho8  1  0.321401  0.678068  0.433204  1
  Ho  Ho9  1  0.179468  0.177653  0.066050  1
  Ho  Ho10  1  0.359661  0.966648  0.750232  1
  Tm  Tm11  1  0.321580  0.677871  0.066865  1
  Ni  Ni12  1  0.055599  0.890360  0.249508  1
  Ni  Ni13  1  0.444981  0.391971  0.249480  1
  Ni  Ni14  1  0.946062  0.108504  0.750020  1
  Ni  Ni15  1  0.554101  0.609319  0.750401  1
