# generated using pymatgen
data_Dy6Sn6Ir5Pt
_symmetry_space_group_name_H-M   'P 1'
_cell_length_a   7.52959600
_cell_length_b   7.52959614
_cell_length_c   7.87170200
_cell_angle_alpha   90.00000000
_cell_angle_beta   90.00000000
_cell_angle_gamma   120.00000817
_symmetry_Int_Tables_number   1
_chemical_formula_structural   Dy6Sn6Ir5Pt
_chemical_formula_sum   'Dy6 Sn6 Ir5 Pt1'
_cell_volume   386.49385929
_cell_formula_units_Z   1
loop_
 _symmetry_equiv_pos_site_id
 _symmetry_equiv_pos_as_xyz
  1  'x, y, z'
loop_
 _atom_site_type_symbol
 _atom_site_label
 _atom_site_symmetry_multiplicity
 _atom_site_fract_x
 _atom_site_fract_y
 _atom_site_fract_z
 _atom_site_occupancy
  Dy  Dy0  1  0.403365  0.997792  0.247961  1
  Dy  Dy1  1  0.594428  0.596635  0.247961  1
  Dy  Dy2  1  0.002208  0.405572  0.247961  1
  Dy  Dy3  1  0.401677  0.994569  0.752017  1
  Dy  Dy4  1  0.592893  0.598323  0.752017  1
  Dy  Dy5  1  0.005431  0.407107  0.752017  1
  Sn  Sn6  1  0.261357  0.259603  0.999909  1
  Sn  Sn7  1  0.998244  0.738643  0.999909  1
  Sn  Sn8  1  0.003263  0.743247  0.499868  1
  Sn  Sn9  1  0.739983  0.996737  0.499868  1
  Sn  Sn10  1  0.256753  0.260017  0.499868  1
  Sn  Sn11  1  0.740397  0.001756  0.999909  1
  Ir  Ir12  1  0.000000  0.000000  0.750147  1
  Ir  Ir13  1  0.000000  0.000000  0.249569  1
  Ir  Ir14  1  0.666667  0.333333  0.997653  1
  Ir  Ir15  1  0.333333  0.666667  0.497536  1
  Ir  Ir16  1  0.333333  0.666667  0.002456  1
  Pt  Pt17  1  0.666667  0.333333  0.503372  1
