# generated using pymatgen
data_Na12Li8Ti(VP4)3
_symmetry_space_group_name_H-M   'P 1'
_cell_length_a   9.28239127
_cell_length_b   9.28239315
_cell_length_c   13.28960558
_cell_angle_alpha   90.02714129
_cell_angle_beta   90.02714102
_cell_angle_gamma   142.86538578
_symmetry_Int_Tables_number   1
_chemical_formula_structural   Na12Li8Ti(VP4)3
_chemical_formula_sum   'Na12 Li8 Ti1 V3 P12'
_cell_volume   691.26604284
_cell_formula_units_Z   1
loop_
 _symmetry_equiv_pos_site_id
 _symmetry_equiv_pos_as_xyz
  1  'x, y, z'
loop_
 _atom_site_type_symbol
 _atom_site_label
 _atom_site_symmetry_multiplicity
 _atom_site_fract_x
 _atom_site_fract_y
 _atom_site_fract_z
 _atom_site_occupancy
  Na  Na0  1  0.099405  0.439115  0.676275  1
  Na  Na1  1  0.727309  0.725984  0.681586  1
  Na  Na2  1  0.223956  0.224068  0.820316  1
  Na  Na3  1  0.775932  0.776044  0.179684  1
  Na  Na4  1  0.936027  0.600896  0.825549  1
  Na  Na5  1  0.560885  0.900595  0.323725  1
  Na  Na6  1  0.399104  0.063973  0.174451  1
  Na  Na7  1  0.064126  0.398924  0.173685  1
  Na  Na8  1  0.897318  0.558101  0.322997  1
  Na  Na9  1  0.441899  0.102682  0.677003  1
  Na  Na10  1  0.601076  0.935875  0.826315  1
  Na  Na11  1  0.274016  0.272691  0.318414  1
  Li  Li12  1  0.918144  0.081856  0.000000  1
  Li  Li13  1  0.582540  0.417460  0.500000  1
  Li  Li14  1  0.081995  0.918005  0.000000  1
  Li  Li15  1  0.417842  0.582158  0.500000  1
  Li  Li16  1  0.752497  0.247503  0.000000  1
  Li  Li17  1  0.746107  0.253893  0.500000  1
  Li  Li18  1  0.247312  0.752688  0.000000  1
  Li  Li19  1  0.253182  0.746818  0.500000  1
  Ti  Ti20  1  0.085731  0.914269  0.500000  1
  V  V21  1  0.416838  0.583162  0.000000  1
  V  V22  1  0.913685  0.086315  0.500000  1
  V  V23  1  0.583244  0.416756  0.000000  1
  P  P24  1  0.880102  0.562428  0.101332  1
  P  P25  1  0.437572  0.119898  0.898668  1
  P  P26  1  0.619401  0.938170  0.601997  1
  P  P27  1  0.933682  0.608824  0.606159  1
  P  P28  1  0.120002  0.437475  0.898535  1
  P  P29  1  0.562525  0.879998  0.101465  1
  P  P30  1  0.391176  0.066318  0.393841  1
  P  P31  1  0.221591  0.227973  0.597348  1
  P  P32  1  0.722523  0.722598  0.903835  1
  P  P33  1  0.277402  0.277477  0.096165  1
  P  P34  1  0.061830  0.380599  0.398003  1
  P  P35  1  0.772027  0.778409  0.402652  1
