# generated using pymatgen
data_Tb11YCo4BiRu
_symmetry_space_group_name_H-M   'P 1'
_cell_length_a   8.37062164
_cell_length_b   8.37062239
_cell_length_c   8.35882253
_cell_angle_alpha   111.12385594
_cell_angle_beta   110.46572755
_cell_angle_gamma   106.91596249
_symmetry_Int_Tables_number   1
_chemical_formula_structural   Tb11YCo4BiRu
_chemical_formula_sum   'Tb11 Y1 Co4 Bi1 Ru1'
_cell_volume   449.82303504
_cell_formula_units_Z   1
loop_
 _symmetry_equiv_pos_site_id
 _symmetry_equiv_pos_as_xyz
  1  'x, y, z'
loop_
 _atom_site_type_symbol
 _atom_site_label
 _atom_site_symmetry_multiplicity
 _atom_site_fract_x
 _atom_site_fract_y
 _atom_site_fract_z
 _atom_site_occupancy
  Tb  Tb0  1  0.183328  0.289452  0.472780  1
  Tb  Tb1  1  0.182775  0.710258  0.893034  1
  Tb  Tb2  1  0.817002  0.289740  0.106741  1
  Tb  Tb3  1  0.688301  0.379008  0.690555  1
  Tb  Tb4  1  0.311674  0.620976  0.309451  1
  Tb  Tb5  1  0.688474  0.997776  0.309451  1
  Tb  Tb6  1  0.311546  0.002253  0.690555  1
  Tb  Tb7  1  0.597395  0.791960  0.805331  1
  Tb  Tb8  1  0.402565  0.207950  0.194519  1
  Tb  Tb9  1  0.986570  0.791955  0.194519  1
  Tb  Tb10  1  0.013370  0.207935  0.805331  1
  Y  Y11  1  0.815822  0.711195  0.527017  1
  Co  Co12  1  0.622018  0.999842  0.621860  1
  Co  Co13  1  0.377998  0.000007  0.378005  1
  Co  Co14  1  0.111272  0.610518  0.500149  1
  Co  Co15  1  0.889631  0.388877  0.500149  1
  Bi  Bi16  1  0.500210  0.500155  0.000365  1
  Ru  Ru17  1  0.000048  0.000140  0.000188  1
