# generated using pymatgen
data_Ac8ZnSn8Pd7
_symmetry_space_group_name_H-M   'P 1'
_cell_length_a   9.62877200
_cell_length_b   9.63461940
_cell_length_c   8.06027400
_cell_angle_alpha   89.99449320
_cell_angle_beta   90.00000000
_cell_angle_gamma   119.97991855
_symmetry_Int_Tables_number   1
_chemical_formula_structural   Ac8ZnSn8Pd7
_chemical_formula_sum   'Ac8 Zn1 Sn8 Pd7'
_cell_volume   647.69977554
_cell_formula_units_Z   1
loop_
 _symmetry_equiv_pos_site_id
 _symmetry_equiv_pos_as_xyz
  1  'x, y, z'
loop_
 _atom_site_type_symbol
 _atom_site_label
 _atom_site_symmetry_multiplicity
 _atom_site_fract_x
 _atom_site_fract_y
 _atom_site_fract_z
 _atom_site_occupancy
  Ac  Ac0  1  0.522525  0.045052  0.497420  1
  Ac  Ac1  1  0.524789  0.483272  0.504463  1
  Ac  Ac2  1  0.958482  0.483272  0.504463  1
  Ac  Ac3  1  0.478974  0.957947  0.002061  1
  Ac  Ac4  1  0.486160  0.524447  0.995324  1
  Ac  Ac5  1  0.038288  0.524447  0.995324  1
  Ac  Ac6  1  0.993742  0.987485  0.478690  1
  Ac  Ac7  1  0.995306  0.990613  0.968110  1
  Zn  Zn8  1  0.168402  0.336805  0.300210  1
  Sn  Sn9  1  0.165231  0.330463  0.699059  1
  Sn  Sn10  1  0.173365  0.835385  0.705257  1
  Sn  Sn11  1  0.662019  0.835385  0.705257  1
  Sn  Sn12  1  0.832558  0.665114  0.210085  1
  Sn  Sn13  1  0.835524  0.168242  0.203496  1
  Sn  Sn14  1  0.332719  0.168242  0.203496  1
  Sn  Sn15  1  0.334559  0.669119  0.327458  1
  Sn  Sn16  1  0.665893  0.331783  0.828507  1
  Pd  Pd17  1  0.167865  0.832895  0.280335  1
  Pd  Pd18  1  0.665031  0.832895  0.280335  1
  Pd  Pd19  1  0.832258  0.664516  0.770426  1
  Pd  Pd20  1  0.833398  0.168765  0.787752  1
  Pd  Pd21  1  0.335366  0.168765  0.787752  1
  Pd  Pd22  1  0.331182  0.662367  0.700701  1
  Pd  Pd23  1  0.666364  0.332729  0.205992  1
