# generated using pymatgen
data_LaPr4Nd2Dy9(CdPt)4
_symmetry_space_group_name_H-M   'P 1'
_cell_length_a   9.82400480
_cell_length_b   9.82598923
_cell_length_c   9.82599004
_cell_angle_alpha   60.35554443
_cell_angle_beta   60.31188456
_cell_angle_gamma   60.31188305
_symmetry_Int_Tables_number   1
_chemical_formula_structural   LaPr4Nd2Dy9(CdPt)4
_chemical_formula_sum   'La1 Pr4 Nd2 Dy9 Cd4 Pt4'
_cell_volume   675.65005151
_cell_formula_units_Z   1
loop_
 _symmetry_equiv_pos_site_id
 _symmetry_equiv_pos_as_xyz
  1  'x, y, z'
loop_
 _atom_site_type_symbol
 _atom_site_label
 _atom_site_symmetry_multiplicity
 _atom_site_fract_x
 _atom_site_fract_y
 _atom_site_fract_z
 _atom_site_occupancy
  La  La0  1  0.350178  0.349749  0.349749  1
  Pr  Pr1  1  0.562419  0.939348  0.563985  1
  Pr  Pr2  1  0.937517  0.561319  0.936636  1
  Pr  Pr3  1  0.562419  0.563985  0.939348  1
  Pr  Pr4  1  0.937517  0.936636  0.561319  1
  Nd  Nd5  1  0.939543  0.561711  0.561711  1
  Nd  Nd6  1  0.560436  0.938761  0.938761  1
  Dy  Dy7  1  0.350622  0.350624  0.946768  1
  Dy  Dy8  1  0.350622  0.946768  0.350624  1
  Dy  Dy9  1  0.946791  0.350448  0.350448  1
  Dy  Dy10  1  0.815136  0.186454  0.186454  1
  Dy  Dy11  1  0.188338  0.811683  0.811683  1
  Dy  Dy12  1  0.186556  0.815020  0.186718  1
  Dy  Dy13  1  0.811745  0.188503  0.811516  1
  Dy  Dy14  1  0.186556  0.186718  0.815020  1
  Dy  Dy15  1  0.811745  0.811516  0.188503  1
  Cd  Cd16  1  0.580821  0.580171  0.580171  1
  Cd  Cd17  1  0.582076  0.582496  0.260994  1
  Cd  Cd18  1  0.582076  0.260994  0.582496  1
  Cd  Cd19  1  0.261097  0.581924  0.581924  1
  Pt  Pt20  1  0.143467  0.142853  0.142853  1
  Pt  Pt21  1  0.138861  0.139161  0.574486  1
  Pt  Pt22  1  0.138861  0.574486  0.139161  1
  Pt  Pt23  1  0.574597  0.138666  0.138666  1
