# generated using pymatgen
data_Hf2Be4Ru5
_symmetry_space_group_name_H-M   'P 1'
_cell_length_a   3.21598800
_cell_length_b   8.63325600
_cell_length_c   10.13985323
_cell_angle_alpha   89.98760208
_cell_angle_beta   90.00000000
_cell_angle_gamma   90.00000000
_symmetry_Int_Tables_number   1
_chemical_formula_structural   Hf2Be4Ru5
_chemical_formula_sum   'Hf4 Be8 Ru10'
_cell_volume   281.52741803
_cell_formula_units_Z   2
loop_
 _symmetry_equiv_pos_site_id
 _symmetry_equiv_pos_as_xyz
  1  'x, y, z'
loop_
 _atom_site_type_symbol
 _atom_site_label
 _atom_site_symmetry_multiplicity
 _atom_site_fract_x
 _atom_site_fract_y
 _atom_site_fract_z
 _atom_site_occupancy
  Hf  Hf0  1  0.500000  0.842797  0.181062  1
  Hf  Hf1  1  0.500000  0.157203  0.818938  1
  Hf  Hf2  1  0.500000  0.657217  0.681085  1
  Hf  Hf3  1  0.500000  0.342783  0.318915  1
  Be  Be4  1  0.500000  0.964294  0.594353  1
  Be  Be5  1  0.500000  0.035706  0.405647  1
  Be  Be6  1  0.500000  0.842046  0.903565  1
  Be  Be7  1  0.500000  0.157954  0.096435  1
  Be  Be8  1  0.500000  0.657996  0.403615  1
  Be  Be9  1  0.500000  0.342004  0.596385  1
  Be  Be10  1  0.500000  0.464275  0.905652  1
  Be  Be11  1  0.500000  0.535725  0.094348  1
  Ru  Ru12  1  0.000000  0.658908  0.953332  1
  Ru  Ru13  1  0.000000  0.341092  0.046668  1
  Ru  Ru14  1  0.000000  0.841165  0.453262  1
  Ru  Ru15  1  0.000000  0.158835  0.546738  1
  Ru  Ru16  1  0.000000  0.000000  0.000000  1
  Ru  Ru17  1  0.000000  0.401270  0.757958  1
  Ru  Ru18  1  0.000000  0.598730  0.242042  1
  Ru  Ru19  1  0.000000  0.500000  0.500000  1
  Ru  Ru20  1  0.000000  0.901224  0.742039  1
  Ru  Ru21  1  0.000000  0.098776  0.257961  1
