# generated using pymatgen
data_SrErTh2(Ga3Ir)6
_symmetry_space_group_name_H-M   'P 1'
_cell_length_a   7.66973691
_cell_length_b   7.68355299
_cell_length_c   9.56426800
_cell_angle_alpha   90.00000000
_cell_angle_beta   90.00000000
_cell_angle_gamma   119.71770090
_symmetry_Int_Tables_number   1
_chemical_formula_structural   SrErTh2(Ga3Ir)6
_chemical_formula_sum   'Sr1 Er1 Th2 Ga18 Ir6'
_cell_volume   489.50070282
_cell_formula_units_Z   1
loop_
 _symmetry_equiv_pos_site_id
 _symmetry_equiv_pos_as_xyz
  1  'x, y, z'
loop_
 _atom_site_type_symbol
 _atom_site_label
 _atom_site_symmetry_multiplicity
 _atom_site_fract_x
 _atom_site_fract_y
 _atom_site_fract_z
 _atom_site_occupancy
  Sr  Sr0  1  0.996439  0.670025  0.750000  1
  Er  Er1  1  0.328941  0.001984  0.250000  1
  Th  Th2  1  0.001995  0.330683  0.250000  1
  Th  Th3  1  0.669337  0.996890  0.750000  1
  Ga  Ga4  1  0.132245  0.130515  0.750000  1
  Ga  Ga5  1  0.871812  0.869374  0.250000  1
  Ga  Ga6  1  0.005823  0.338990  0.579546  1
  Ga  Ga7  1  0.002014  0.671391  0.419540  1
  Ga  Ga8  1  0.002014  0.671391  0.080460  1
  Ga  Ga9  1  0.331417  0.001093  0.926286  1
  Ga  Ga10  1  0.005823  0.338990  0.920454  1
  Ga  Ga11  1  0.658533  0.996046  0.083536  1
  Ga  Ga12  1  0.658533  0.996046  0.416464  1
  Ga  Ga13  1  0.331417  0.001093  0.573714  1
  Ga  Ga14  1  0.335882  0.330622  0.065453  1
  Ga  Ga15  1  0.666334  0.662880  0.942810  1
  Ga  Ga16  1  0.666334  0.662880  0.557190  1
  Ga  Ga17  1  0.335882  0.330622  0.434547  1
  Ga  Ga18  1  0.341656  0.543814  0.750000  1
  Ga  Ga19  1  0.658301  0.452592  0.250000  1
  Ga  Ga20  1  0.542479  0.336628  0.750000  1
  Ga  Ga21  1  0.456865  0.662244  0.250000  1
  Ir  Ir22  1  0.671638  0.326191  0.497565  1
  Ir  Ir23  1  0.330701  0.671092  0.497385  1
  Ir  Ir24  1  0.330701  0.671092  0.002615  1
  Ir  Ir25  1  0.671638  0.326191  0.002435  1
  Ir  Ir26  1  0.997623  0.004324  0.497565  1
  Ir  Ir27  1  0.997623  0.004324  0.002435  1
