# generated using pymatgen
data_CrSe27
_symmetry_space_group_name_H-M   'P 1'
_cell_length_a   16.71758571
_cell_length_b   16.71759401
_cell_length_c   16.71758309
_cell_angle_alpha   118.56533139
_cell_angle_beta   118.56528714
_cell_angle_gamma   118.56532989
_symmetry_Int_Tables_number   1
_chemical_formula_structural   CrSe27
_chemical_formula_sum   'Cr1 Se27'
_cell_volume   1443.38048577
_cell_formula_units_Z   1
loop_
 _symmetry_equiv_pos_site_id
 _symmetry_equiv_pos_as_xyz
  1  'x, y, z'
loop_
 _atom_site_type_symbol
 _atom_site_label
 _atom_site_symmetry_multiplicity
 _atom_site_fract_x
 _atom_site_fract_y
 _atom_site_fract_z
 _atom_site_occupancy
  Cr  Cr0  1  0.877867  0.877871  0.877871  1
  Se  Se1  1  0.799845  0.520050  0.520050  1
  Se  Se2  1  0.520050  0.520050  0.799845  1
  Se  Se3  1  0.520050  0.799845  0.520050  1
  Se  Se4  1  0.243374  0.376314  0.632876  1
  Se  Se5  1  0.350983  0.954898  0.350983  1
  Se  Se6  1  0.350983  0.350983  0.954898  1
  Se  Se7  1  0.954898  0.350983  0.350983  1
  Se  Se8  1  0.124808  0.742218  0.257573  1
  Se  Se9  1  0.257573  0.124808  0.742219  1
  Se  Se10  1  0.742219  0.257573  0.124808  1
  Se  Se11  1  0.742219  0.124808  0.257573  1
  Se  Se12  1  0.257573  0.742219  0.124808  1
  Se  Se13  1  0.124808  0.257573  0.742218  1
  Se  Se14  1  0.347243  0.882844  0.534637  1
  Se  Se15  1  0.534637  0.347243  0.882844  1
  Se  Se16  1  0.882844  0.534637  0.347243  1
  Se  Se17  1  0.882844  0.347243  0.534637  1
  Se  Se18  1  0.534637  0.882844  0.347243  1
  Se  Se19  1  0.347243  0.534637  0.882844  1
  Se  Se20  1  0.243374  0.632876  0.376314  1
  Se  Se21  1  0.376314  0.243374  0.632876  1
  Se  Se22  1  0.632876  0.376314  0.243374  1
  Se  Se23  1  0.632876  0.243374  0.376314  1
  Se  Se24  1  0.376314  0.632876  0.243374  1
  Se  Se25  1  0.870855  0.997994  0.997994  1
  Se  Se26  1  0.997994  0.997994  0.870855  1
  Se  Se27  1  0.997994  0.870855  0.997994  1
