# generated using pymatgen
data_Nd2CuHgRh
_symmetry_space_group_name_H-M   'P 1'
_cell_length_a   7.62672600
_cell_length_b   7.74044800
_cell_length_c   3.91203700
_cell_angle_alpha   90.00000000
_cell_angle_beta   90.00000000
_cell_angle_gamma   90.00000000
_symmetry_Int_Tables_number   1
_chemical_formula_structural   Nd2CuHgRh
_chemical_formula_sum   'Nd4 Cu2 Hg2 Rh2'
_cell_volume   230.94427203
_cell_formula_units_Z   2
loop_
 _symmetry_equiv_pos_site_id
 _symmetry_equiv_pos_as_xyz
  1  'x, y, z'
loop_
 _atom_site_type_symbol
 _atom_site_label
 _atom_site_symmetry_multiplicity
 _atom_site_fract_x
 _atom_site_fract_y
 _atom_site_fract_z
 _atom_site_occupancy
  Nd  Nd0  1  0.823619  0.686139  0.500000  1
  Nd  Nd1  1  0.323619  0.813861  0.500000  1
  Nd  Nd2  1  0.679343  0.159305  0.500000  1
  Nd  Nd3  1  0.179343  0.340695  0.500000  1
  Cu  Cu4  1  0.872540  0.382676  0.000000  1
  Cu  Cu5  1  0.372540  0.117324  0.000000  1
  Hg  Hg6  1  0.005464  0.008651  0.000000  1
  Hg  Hg7  1  0.505464  0.491349  0.000000  1
  Rh  Rh8  1  0.619033  0.883422  0.000000  1
  Rh  Rh9  1  0.119033  0.616578  0.000000  1
