# generated using pymatgen
data_Nd2PaAs3
_symmetry_space_group_name_H-M   'P 1'
_cell_length_a   7.27081360
_cell_length_b   7.27081397
_cell_length_c   7.27081421
_cell_angle_alpha   146.30156714
_cell_angle_beta   131.81292096
_cell_angle_gamma   60.08796177
_symmetry_Int_Tables_number   1
_chemical_formula_structural   Nd2PaAs3
_chemical_formula_sum   'Nd2 Pa1 As3'
_cell_volume   157.48118919
_cell_formula_units_Z   1
loop_
 _symmetry_equiv_pos_site_id
 _symmetry_equiv_pos_as_xyz
  1  'x, y, z'
loop_
 _atom_site_type_symbol
 _atom_site_label
 _atom_site_symmetry_multiplicity
 _atom_site_fract_x
 _atom_site_fract_y
 _atom_site_fract_z
 _atom_site_occupancy
  Nd  Nd0  1  0.668406  0.668406  0.000000  1
  Nd  Nd1  1  0.331594  0.331594  0.000000  1
  Pa  Pa2  1  0.000000  0.000000  0.000000  1
  As  As3  1  0.500000  0.000000  0.500000  1
  As  As4  1  0.157099  0.657099  0.500000  1
  As  As5  1  0.842901  0.342901  0.500000  1
