# generated using pymatgen
data_Er7Tm3(Tl2Sb)2
_symmetry_space_group_name_H-M   'P 1'
_cell_length_a   8.81445100
_cell_length_b   8.83502009
_cell_length_c   6.62253300
_cell_angle_alpha   89.99695850
_cell_angle_beta   90.00138454
_cell_angle_gamma   120.07691218
_symmetry_Int_Tables_number   1
_chemical_formula_structural   Er7Tm3(Tl2Sb)2
_chemical_formula_sum   'Er7 Tm3 Tl4 Sb2'
_cell_volume   446.29339882
_cell_formula_units_Z   1
loop_
 _symmetry_equiv_pos_site_id
 _symmetry_equiv_pos_as_xyz
  1  'x, y, z'
loop_
 _atom_site_type_symbol
 _atom_site_label
 _atom_site_symmetry_multiplicity
 _atom_site_fract_x
 _atom_site_fract_y
 _atom_site_fract_z
 _atom_site_occupancy
  Er  Er0  1  0.994162  0.759098  0.749871  1
  Er  Er1  1  0.994157  0.235069  0.250130  1
  Er  Er2  1  0.765322  0.764472  0.250132  1
  Er  Er3  1  0.765323  0.000852  0.749865  1
  Er  Er4  1  0.237488  0.242813  0.749826  1
  Er  Er5  1  0.237482  0.994668  0.250172  1
  Er  Er6  1  0.334583  0.667291  0.000000  1
  Tm  Tm7  1  0.334621  0.667311  0.500000  1
  Tm  Tm8  1  0.675063  0.337532  0.000000  1
  Tm  Tm9  1  0.674703  0.337352  0.500001  1
  Tl  Tl10  1  0.001097  0.601587  0.250167  1
  Tl  Tl11  1  0.001103  0.399513  0.749840  1
  Tl  Tl12  1  0.598892  0.601513  0.749802  1
  Tl  Tl13  1  0.598898  0.997380  0.250192  1
  Sb  Sb14  1  0.393557  0.003260  0.749557  1
  Sb  Sb15  1  0.393550  0.390291  0.250447  1
