# generated using pymatgen
data_Tb4Er8Tc3Ir
_symmetry_space_group_name_H-M   'P 1'
_cell_length_a   6.28064801
_cell_length_b   7.38819877
_cell_length_c   9.08486400
_cell_angle_alpha   90.00000000
_cell_angle_beta   90.00000000
_cell_angle_gamma   89.96302276
_symmetry_Int_Tables_number   1
_chemical_formula_structural   Tb4Er8Tc3Ir
_chemical_formula_sum   'Tb4 Er8 Tc3 Ir1'
_cell_volume   421.56191180
_cell_formula_units_Z   1
loop_
 _symmetry_equiv_pos_site_id
 _symmetry_equiv_pos_as_xyz
  1  'x, y, z'
loop_
 _atom_site_type_symbol
 _atom_site_label
 _atom_site_symmetry_multiplicity
 _atom_site_fract_x
 _atom_site_fract_y
 _atom_site_fract_z
 _atom_site_occupancy
  Tb  Tb0  1  0.875675  0.542401  0.250000  1
  Tb  Tb1  1  0.623868  0.039085  0.250000  1
  Tb  Tb2  1  0.129915  0.457216  0.750000  1
  Tb  Tb3  1  0.371898  0.959757  0.750000  1
  Er  Er4  1  0.334427  0.676539  0.064351  1
  Er  Er5  1  0.161757  0.176782  0.436407  1
  Er  Er6  1  0.663226  0.322454  0.561272  1
  Er  Er7  1  0.836667  0.824490  0.937695  1
  Er  Er8  1  0.663226  0.322454  0.938728  1
  Er  Er9  1  0.836667  0.824490  0.562305  1
  Er  Er10  1  0.334427  0.676539  0.435649  1
  Er  Er11  1  0.161757  0.176782  0.063593  1
  Tc  Tc12  1  0.039313  0.884015  0.250000  1
  Tc  Tc13  1  0.462275  0.386643  0.250000  1
  Tc  Tc14  1  0.959830  0.115766  0.750000  1
  Ir  Ir15  1  0.545074  0.614589  0.750000  1
