# generated using pymatgen
data_Ho6Al24Os5Pt3
_symmetry_space_group_name_H-M   'P 1'
_cell_length_a   8.80348138
_cell_length_b   8.82578093
_cell_length_c   9.53843605
_cell_angle_alpha   90.14193094
_cell_angle_beta   89.61951316
_cell_angle_gamma   119.53648659
_symmetry_Int_Tables_number   1
_chemical_formula_structural   Ho6Al24Os5Pt3
_chemical_formula_sum   'Ho6 Al24 Os5 Pt3'
_cell_volume   644.78540005
_cell_formula_units_Z   1
loop_
 _symmetry_equiv_pos_site_id
 _symmetry_equiv_pos_as_xyz
  1  'x, y, z'
loop_
 _atom_site_type_symbol
 _atom_site_label
 _atom_site_symmetry_multiplicity
 _atom_site_fract_x
 _atom_site_fract_y
 _atom_site_fract_z
 _atom_site_occupancy
  Ho  Ho0  1  0.188317  0.384354  0.251015  1
  Ho  Ho1  1  0.811683  0.615646  0.748985  1
  Ho  Ho2  1  0.612829  0.813461  0.252105  1
  Ho  Ho3  1  0.387171  0.186539  0.747895  1
  Ho  Ho4  1  0.195658  0.808418  0.251660  1
  Ho  Ho5  1  0.804342  0.191582  0.748340  1
  Al  Al6  1  0.335293  0.671430  0.029296  1
  Al  Al7  1  0.664707  0.328570  0.970704  1
  Al  Al8  1  0.669213  0.331465  0.527861  1
  Al  Al9  1  0.330787  0.668535  0.472139  1
  Al  Al10  1  0.158088  0.325590  0.575205  1
  Al  Al11  1  0.841912  0.674410  0.424795  1
  Al  Al12  1  0.673581  0.840967  0.575847  1
  Al  Al13  1  0.836773  0.676330  0.078264  1
  Al  Al14  1  0.326419  0.159033  0.424153  1
  Al  Al15  1  0.163227  0.323670  0.921736  1
  Al  Al16  1  0.163581  0.835109  0.576837  1
  Al  Al17  1  0.325275  0.158418  0.076855  1
  Al  Al18  1  0.836419  0.164891  0.423163  1
  Al  Al19  1  0.674725  0.841582  0.923145  1
  Al  Al20  1  0.831675  0.158912  0.078316  1
  Al  Al21  1  0.168325  0.841088  0.921684  1
  Al  Al22  1  0.560389  0.124553  0.249963  1
  Al  Al23  1  0.439611  0.875447  0.750037  1
  Al  Al24  1  0.874112  0.437826  0.252530  1
  Al  Al25  1  0.125888  0.562174  0.747470  1
  Al  Al26  1  0.562524  0.436604  0.249792  1
  Al  Al27  1  0.437476  0.563396  0.750208  1
  Al  Al28  1  0.998732  0.002591  0.250150  1
  Al  Al29  1  0.001268  0.997409  0.749850  1
  Os  Os30  1  0.500000  0.000000  0.000000  1
  Os  Os31  1  0.500000  0.000000  0.500000  1
  Os  Os32  1  0.000000  0.500000  0.500000  1
  Os  Os33  1  0.000000  0.000000  0.000000  1
  Os  Os34  1  0.000000  0.000000  0.500000  1
  Pt  Pt35  1  0.000000  0.500000  0.000000  1
  Pt  Pt36  1  0.500000  0.500000  0.000000  1
  Pt  Pt37  1  0.500000  0.500000  0.500000  1
