# generated using pymatgen
data_Lu4(Ga8Pt3)3
_symmetry_space_group_name_H-M   'P 1'
_cell_length_a   7.46633281
_cell_length_b   7.59440766
_cell_length_c   13.34112318
_cell_angle_alpha   84.77336013
_cell_angle_beta   79.70061773
_cell_angle_gamma   60.06398989
_symmetry_Int_Tables_number   1
_chemical_formula_structural   Lu4(Ga8Pt3)3
_chemical_formula_sum   'Lu4 Ga24 Pt9'
_cell_volume   644.98276529
_cell_formula_units_Z   1
loop_
 _symmetry_equiv_pos_site_id
 _symmetry_equiv_pos_as_xyz
  1  'x, y, z'
loop_
 _atom_site_type_symbol
 _atom_site_label
 _atom_site_symmetry_multiplicity
 _atom_site_fract_x
 _atom_site_fract_y
 _atom_site_fract_z
 _atom_site_occupancy
  Lu  Lu0  1  0.392539  0.171711  0.811369  1
  Lu  Lu1  1  0.607461  0.828289  0.188631  1
  Lu  Lu2  1  0.733679  0.497151  0.811776  1
  Lu  Lu3  1  0.266321  0.502849  0.188224  1
  Ga  Ga4  1  0.683809  0.834730  0.937063  1
  Ga  Ga5  1  0.316191  0.165270  0.062937  1
  Ga  Ga6  1  0.143982  0.833124  0.559320  1
  Ga  Ga7  1  0.856018  0.166876  0.440680  1
  Ga  Ga8  1  0.477486  0.165502  0.555978  1
  Ga  Ga9  1  0.522514  0.834498  0.444022  1
  Ga  Ga10  1  0.222708  0.165116  0.320530  1
  Ga  Ga11  1  0.777292  0.834884  0.679470  1
  Ga  Ga12  1  0.436709  0.503861  0.677944  1
  Ga  Ga13  1  0.563291  0.496139  0.322056  1
  Ga  Ga14  1  0.105778  0.164240  0.678555  1
  Ga  Ga15  1  0.894222  0.835760  0.321445  1
  Ga  Ga16  1  0.359132  0.497912  0.937564  1
  Ga  Ga17  1  0.640868  0.502088  0.062436  1
  Ga  Ga18  1  0.021592  0.170634  0.941106  1
  Ga  Ga19  1  0.978408  0.829366  0.058894  1
  Ga  Ga20  1  0.188048  0.500959  0.443723  1
  Ga  Ga21  1  0.811952  0.499041  0.556277  1
  Ga  Ga22  1  0.730729  0.165168  0.181517  1
  Ga  Ga23  1  0.269271  0.834832  0.818483  1
  Ga  Ga24  1  0.060982  0.630236  0.817575  1
  Ga  Ga25  1  0.939018  0.369764  0.182425  1
  Ga  Ga26  1  0.855903  0.039487  0.817313  1
  Ga  Ga27  1  0.144097  0.960513  0.182687  1
  Pt  Pt28  1  0.115783  0.495419  0.640376  1
  Pt  Pt29  1  0.884217  0.504581  0.359624  1
  Pt  Pt30  1  0.661520  0.169098  0.997839  1
  Pt  Pt31  1  0.338480  0.830902  0.002161  1
  Pt  Pt32  1  0.541729  0.167771  0.359519  1
  Pt  Pt33  1  0.458271  0.832229  0.640481  1
  Pt  Pt34  1  0.778424  0.172089  0.638242  1
  Pt  Pt35  1  0.221576  0.827911  0.361758  1
  Pt  Pt36  1  0.000000  0.500000  0.000000  1
