# generated using pymatgen
data_Ba5Nb2I2O9
_symmetry_space_group_name_H-M   'P 1'
_cell_length_a   6.08186900
_cell_length_b   6.08186870
_cell_length_c   27.00301600
_cell_angle_alpha   90.00000000
_cell_angle_beta   90.00000000
_cell_angle_gamma   119.99999619
_symmetry_Int_Tables_number   1
_chemical_formula_structural   Ba5Nb2I2O9
_chemical_formula_sum   'Ba10 Nb4 I4 O18'
_cell_volume   865.00182489
_cell_formula_units_Z   2
loop_
 _symmetry_equiv_pos_site_id
 _symmetry_equiv_pos_as_xyz
  1  'x, y, z'
loop_
 _atom_site_type_symbol
 _atom_site_label
 _atom_site_symmetry_multiplicity
 _atom_site_fract_x
 _atom_site_fract_y
 _atom_site_fract_z
 _atom_site_occupancy
  Ba  Ba0  1  0.333333  0.666667  0.906912  1
  Ba  Ba1  1  0.666667  0.333333  0.406912  1
  Ba  Ba2  1  0.666667  0.333333  0.093088  1
  Ba  Ba3  1  0.333333  0.666667  0.178943  1
  Ba  Ba4  1  0.666667  0.333333  0.678943  1
  Ba  Ba5  1  0.333333  0.666667  0.321057  1
  Ba  Ba6  1  0.666667  0.333333  0.821057  1
  Ba  Ba7  1  0.666667  0.333333  0.250000  1
  Ba  Ba8  1  0.333333  0.666667  0.593088  1
  Ba  Ba9  1  0.333333  0.666667  0.750000  1
  Nb  Nb10  1  0.000000  0.000000  0.806796  1
  Nb  Nb11  1  0.000000  0.000000  0.306796  1
  Nb  Nb12  1  0.000000  0.000000  0.693204  1
  Nb  Nb13  1  0.000000  0.000000  0.193204  1
  I  I14  1  0.333333  0.666667  0.452366  1
  I  I15  1  0.333333  0.666667  0.047634  1
  I  I16  1  0.666667  0.333333  0.547634  1
  I  I17  1  0.666667  0.333333  0.952366  1
  O  O18  1  0.162635  0.837365  0.661782  1
  O  O19  1  0.674731  0.837365  0.838218  1
  O  O20  1  0.162635  0.325269  0.661782  1
  O  O21  1  0.850639  0.149361  0.750000  1
  O  O22  1  0.298722  0.149361  0.750000  1
  O  O23  1  0.149361  0.298722  0.250000  1
  O  O24  1  0.149361  0.850639  0.250000  1
  O  O25  1  0.701278  0.850639  0.250000  1
  O  O26  1  0.837365  0.162635  0.338218  1
  O  O27  1  0.325269  0.162635  0.161782  1
  O  O28  1  0.850639  0.701278  0.750000  1
  O  O29  1  0.837365  0.674731  0.161782  1
  O  O30  1  0.325269  0.162635  0.338218  1
  O  O31  1  0.837365  0.162635  0.161782  1
  O  O32  1  0.162635  0.325269  0.838218  1
  O  O33  1  0.837365  0.674731  0.338218  1
  O  O34  1  0.674731  0.837365  0.661782  1
  O  O35  1  0.162635  0.837365  0.838218  1
