# generated using pymatgen
data_Tb10Si16Hg
_symmetry_space_group_name_H-M   'P 1'
_cell_length_a   11.17896346
_cell_length_b   11.16617944
_cell_length_c   11.17896213
_cell_angle_alpha   144.78767414
_cell_angle_beta   136.29310636
_cell_angle_gamma   57.34442427
_symmetry_Int_Tables_number   1
_chemical_formula_structural   Tb10Si16Hg
_chemical_formula_sum   'Tb10 Si16 Hg1'
_cell_volume   551.38666785
_cell_formula_units_Z   1
loop_
 _symmetry_equiv_pos_site_id
 _symmetry_equiv_pos_as_xyz
  1  'x, y, z'
loop_
 _atom_site_type_symbol
 _atom_site_label
 _atom_site_symmetry_multiplicity
 _atom_site_fract_x
 _atom_site_fract_y
 _atom_site_fract_z
 _atom_site_occupancy
  Tb  Tb0  1  0.054965  0.568451  0.027210  1
  Tb  Tb1  1  0.353543  0.369300  0.520525  1
  Tb  Tb2  1  0.157208  0.165331  0.522871  1
  Tb  Tb3  1  0.449701  0.963317  0.013819  1
  Tb  Tb4  1  0.642460  0.165331  0.008124  1
  Tb  Tb5  1  0.949496  0.963317  0.513614  1
  Tb  Tb6  1  0.848776  0.369300  0.015758  1
  Tb  Tb7  1  0.541241  0.568451  0.513486  1
  Tb  Tb8  1  0.255286  0.766213  0.015334  1
  Tb  Tb9  1  0.750880  0.766213  0.510927  1
  Si  Si10  1  0.115760  0.074748  0.958986  1
  Si  Si11  1  0.797512  0.156993  0.359480  1
  Si  Si12  1  0.300179  0.900658  0.600479  1
  Si  Si13  1  0.399804  0.501062  0.101258  1
  Si  Si14  1  0.876197  0.860290  0.984093  1
  Si  Si15  1  0.104568  0.711624  0.607055  1
  Si  Si16  1  0.199414  0.587649  0.388234  1
  Si  Si17  1  0.701320  0.295722  0.594402  1
  Si  Si18  1  0.004152  0.430197  0.426047  1
  Si  Si19  1  0.714030  0.666159  0.952127  1
  Si  Si20  1  0.601682  0.702999  0.101317  1
  Si  Si21  1  0.997606  0.077954  0.080348  1
  Si  Si22  1  0.501288  0.399208  0.897920  1
  Si  Si23  1  0.286357  0.242241  0.955884  1
  Si  Si24  1  0.587150  0.041967  0.454815  1
  Si  Si25  1  0.413903  0.866855  0.452953  1
  Hg  Hg26  1  0.895520  0.507372  0.611852  1
