# generated using pymatgen
data_Ti2In(PO4)3
_symmetry_space_group_name_H-M   'P 1'
_cell_length_a   8.48269925
_cell_length_b   8.48556965
_cell_length_c   9.26036042
_cell_angle_alpha   90.00963099
_cell_angle_beta   117.26684232
_cell_angle_gamma   120.00381794
_symmetry_Int_Tables_number   1
_chemical_formula_structural   Ti2In(PO4)3
_chemical_formula_sum   'Ti4 In2 P6 O24'
_cell_volume   489.81348465
_cell_formula_units_Z   2
loop_
 _symmetry_equiv_pos_site_id
 _symmetry_equiv_pos_as_xyz
  1  'x, y, z'
loop_
 _atom_site_type_symbol
 _atom_site_label
 _atom_site_symmetry_multiplicity
 _atom_site_fract_x
 _atom_site_fract_y
 _atom_site_fract_z
 _atom_site_occupancy
  Ti  Ti0  1  0.704931  0.348461  0.047725  1
  Ti  Ti1  1  0.307467  0.149787  0.451082  1
  Ti  Ti2  1  0.307850  0.650067  0.951511  1
  Ti  Ti3  1  0.705058  0.848308  0.548048  1
  In  In4  1  0.010819  0.503722  0.499443  1
  In  In5  1  0.005279  0.993609  0.999203  1
  P  P6  1  0.506581  0.032004  0.249572  1
  P  P7  1  0.788770  0.531150  0.749075  1
  P  P8  1  0.224209  0.249153  0.749987  1
  P  P9  1  0.788382  0.749151  0.249325  1
  P  P10  1  0.223951  0.466571  0.249741  1
  P  P11  1  0.507253  0.966955  0.750254  1
  O  O12  1  0.662331  0.008323  0.405286  1
  O  O13  1  0.372986  0.069646  0.296740  1
  O  O14  1  0.005152  0.068677  0.701755  1
  O  O15  1  0.611221  0.352522  0.592378  1
  O  O16  1  0.250948  0.490449  0.095606  1
  O  O17  1  0.641551  0.202492  0.202768  1
  O  O18  1  0.400990  0.245828  0.905571  1
  O  O19  1  0.007063  0.567354  0.798064  1
  O  O20  1  0.248268  0.250680  0.594293  1
  O  O21  1  0.780428  0.702854  0.702058  1
  O  O22  1  0.665447  0.146661  0.905928  1
  O  O23  1  0.236762  0.431213  0.798353  1
  O  O24  1  0.776208  0.567409  0.200448  1
  O  O25  1  0.348663  0.852975  0.093117  1
  O  O26  1  0.231263  0.294384  0.296134  1
  O  O27  1  0.763796  0.746517  0.404688  1
  O  O28  1  0.006251  0.431785  0.201033  1
  O  O29  1  0.612781  0.753706  0.093919  1
  O  O30  1  0.372182  0.796812  0.797436  1
  O  O31  1  0.763029  0.508736  0.903898  1
  O  O32  1  0.401803  0.644484  0.407353  1
  O  O33  1  0.008212  0.929293  0.298504  1
  O  O34  1  0.639878  0.927911  0.702937  1
  O  O35  1  0.350842  0.989447  0.593968  1
