# generated using pymatgen
data_Pr2NdIn3Rh2Pb
_symmetry_space_group_name_H-M   'P 1'
_cell_length_a   7.98997264
_cell_length_b   8.00731525
_cell_length_c   4.06128900
_cell_angle_alpha   90.00000000
_cell_angle_beta   90.00000000
_cell_angle_gamma   120.07610644
_symmetry_Int_Tables_number   1
_chemical_formula_structural   Pr2NdIn3Rh2Pb
_chemical_formula_sum   'Pr2 Nd1 In3 Rh2 Pb1'
_cell_volume   224.85014618
_cell_formula_units_Z   1
loop_
 _symmetry_equiv_pos_site_id
 _symmetry_equiv_pos_as_xyz
  1  'x, y, z'
loop_
 _atom_site_type_symbol
 _atom_site_label
 _atom_site_symmetry_multiplicity
 _atom_site_fract_x
 _atom_site_fract_y
 _atom_site_fract_z
 _atom_site_occupancy
  Pr  Pr0  1  0.608240  0.028158  0.500000  1
  Pr  Pr1  1  0.420875  0.391917  0.500000  1
  Nd  Nd2  1  0.970237  0.579565  0.500000  1
  In  In3  1  0.248725  0.011827  0.000000  1
  In  In4  1  0.763627  0.749484  0.000000  1
  In  In5  1  0.988169  0.238114  0.000000  1
  Rh  Rh6  1  0.999554  0.999156  0.500000  1
  Rh  Rh7  1  0.669308  0.335663  0.000000  1
  Pb  Pb8  1  0.331265  0.666116  0.000000  1
