# generated using pymatgen
data_Y15Er2(TmBi4)3
_symmetry_space_group_name_H-M   'P 1'
_cell_length_a   8.24918524
_cell_length_b   9.52340830
_cell_length_c   12.07845067
_cell_angle_alpha   90.00081803
_cell_angle_beta   90.06980474
_cell_angle_gamma   90.01552027
_symmetry_Int_Tables_number   1
_chemical_formula_structural   Y15Er2(TmBi4)3
_chemical_formula_sum   'Y15 Er2 Tm3 Bi12'
_cell_volume   948.88668358
_cell_formula_units_Z   1
loop_
 _symmetry_equiv_pos_site_id
 _symmetry_equiv_pos_as_xyz
  1  'x, y, z'
loop_
 _atom_site_type_symbol
 _atom_site_label
 _atom_site_symmetry_multiplicity
 _atom_site_fract_x
 _atom_site_fract_y
 _atom_site_fract_z
 _atom_site_occupancy
  Y  Y0  1  0.186317  0.750032  0.718870  1
  Y  Y1  1  0.686318  0.750023  0.781269  1
  Y  Y2  1  0.813776  0.250091  0.281031  1
  Y  Y3  1  0.313636  0.250324  0.218407  1
  Y  Y4  1  0.806837  0.062960  0.559964  1
  Y  Y5  1  0.692923  0.936749  0.059528  1
  Y  Y6  1  0.193469  0.563058  0.440140  1
  Y  Y7  1  0.693490  0.562973  0.059727  1
  Y  Y8  1  0.193366  0.936953  0.440141  1
  Y  Y9  1  0.306461  0.063175  0.940348  1
  Y  Y10  1  0.806770  0.437125  0.559905  1
  Y  Y11  1  0.354856  0.750279  0.215465  1
  Y  Y12  1  0.854540  0.750127  0.284429  1
  Y  Y13  1  0.644950  0.250526  0.784767  1
  Y  Y14  1  0.145923  0.250649  0.715938  1
  Er  Er15  1  0.474086  0.250068  0.488715  1
  Er  Er16  1  0.306218  0.434589  0.940274  1
  Tm  Tm17  1  0.025642  0.750022  0.988821  1
  Tm  Tm18  1  0.525622  0.750113  0.511308  1
  Tm  Tm19  1  0.975044  0.250431  0.011161  1
  Bi  Bi20  1  0.433787  0.003511  0.672633  1
  Bi  Bi21  1  0.934135  0.496525  0.827925  1
  Bi  Bi22  1  0.566405  0.504057  0.327322  1
  Bi  Bi23  1  0.066371  0.996360  0.172143  1
  Bi  Bi24  1  0.566517  0.996182  0.327387  1
  Bi  Bi25  1  0.066421  0.503941  0.171980  1
  Bi  Bi26  1  0.433624  0.496724  0.672707  1
  Bi  Bi27  1  0.933755  0.003881  0.827903  1
  Bi  Bi28  1  0.407374  0.748354  0.957838  1
  Bi  Bi29  1  0.908096  0.749978  0.541857  1
  Bi  Bi30  1  0.591834  0.250243  0.041842  1
  Bi  Bi31  1  0.091439  0.249977  0.458254  1
