# generated using pymatgen
data_CeNd7CdHgIr2
_symmetry_space_group_name_H-M   'P 1'
_cell_length_a   9.91684518
_cell_length_b   9.91684577
_cell_length_c   9.99795200
_cell_angle_alpha   59.72908223
_cell_angle_beta   59.72908026
_cell_angle_gamma   59.71169907
_symmetry_Int_Tables_number   1
_chemical_formula_structural   CeNd7CdHgIr2
_chemical_formula_sum   'Ce2 Nd14 Cd2 Hg2 Ir4'
_cell_volume   690.88400000
_cell_formula_units_Z   2
loop_
 _symmetry_equiv_pos_site_id
 _symmetry_equiv_pos_as_xyz
  1  'x, y, z'
loop_
 _atom_site_type_symbol
 _atom_site_label
 _atom_site_symmetry_multiplicity
 _atom_site_fract_x
 _atom_site_fract_y
 _atom_site_fract_z
 _atom_site_occupancy
  Ce  Ce0  1  0.344505  0.344505  0.345800  1
  Ce  Ce1  1  0.344505  0.344505  0.965190  1
  Nd  Nd2  1  0.350848  0.948043  0.350554  1
  Nd  Nd3  1  0.948043  0.350848  0.350554  1
  Nd  Nd4  1  0.809621  0.189637  0.191398  1
  Nd  Nd5  1  0.189637  0.809621  0.809344  1
  Nd  Nd6  1  0.189637  0.809621  0.191398  1
  Nd  Nd7  1  0.809621  0.189637  0.809344  1
  Nd  Nd8  1  0.189777  0.189777  0.810223  1
  Nd  Nd9  1  0.807604  0.807604  0.192396  1
  Nd  Nd10  1  0.941795  0.559506  0.562034  1
  Nd  Nd11  1  0.559506  0.941795  0.936666  1
  Nd  Nd12  1  0.559506  0.941795  0.562034  1
  Nd  Nd13  1  0.941795  0.559506  0.936666  1
  Nd  Nd14  1  0.560015  0.560015  0.939985  1
  Nd  Nd15  1  0.937953  0.937953  0.562047  1
  Cd  Cd16  1  0.576739  0.261876  0.580691  1
  Cd  Cd17  1  0.261876  0.576739  0.580691  1
  Hg  Hg18  1  0.582041  0.582041  0.587289  1
  Hg  Hg19  1  0.582041  0.582041  0.248629  1
  Ir  Ir20  1  0.146893  0.146893  0.136190  1
  Ir  Ir21  1  0.146893  0.146893  0.570023  1
  Ir  Ir22  1  0.151337  0.567811  0.140425  1
  Ir  Ir23  1  0.567811  0.151337  0.140425  1
