# generated using pymatgen
data_Ho9Er7(In3Fe)2
_symmetry_space_group_name_H-M   'P 1'
_cell_length_a   10.29527000
_cell_length_b   10.29601811
_cell_length_c   7.07553100
_cell_angle_alpha   90.00046188
_cell_angle_beta   89.99894817
_cell_angle_gamma   120.00168321
_symmetry_Int_Tables_number   1
_chemical_formula_structural   Ho9Er7(In3Fe)2
_chemical_formula_sum   'Ho9 Er7 In6 Fe2'
_cell_volume   649.51523433
_cell_formula_units_Z   1
loop_
 _symmetry_equiv_pos_site_id
 _symmetry_equiv_pos_as_xyz
  1  'x, y, z'
loop_
 _atom_site_type_symbol
 _atom_site_label
 _atom_site_symmetry_multiplicity
 _atom_site_fract_x
 _atom_site_fract_y
 _atom_site_fract_z
 _atom_site_occupancy
  Ho  Ho0  1  0.333353  0.666667  0.678645  1
  Ho  Ho1  1  0.536397  0.072749  0.787659  1
  Ho  Ho2  1  0.927222  0.463595  0.787668  1
  Ho  Ho3  1  0.536370  0.463630  0.787692  1
  Ho  Ho4  1  0.463746  0.927536  0.286921  1
  Ho  Ho5  1  0.072473  0.536240  0.286911  1
  Ho  Ho6  1  0.463765  0.536224  0.286902  1
  Ho  Ho7  1  0.999971  0.000020  0.774178  1
  Ho  Ho8  1  0.000029  0.999988  0.274781  1
  Er  Er9  1  0.820777  0.641584  0.491079  1
  Er  Er10  1  0.358388  0.179210  0.491097  1
  Er  Er11  1  0.820795  0.179214  0.491064  1
  Er  Er12  1  0.178376  0.356777  0.991036  1
  Er  Er13  1  0.643180  0.821606  0.991020  1
  Er  Er14  1  0.178401  0.821568  0.991001  1
  Er  Er15  1  0.666670  0.333353  0.179237  1
  In  In16  1  0.836556  0.673134  0.038526  1
  In  In17  1  0.326912  0.163427  0.038498  1
  In  In18  1  0.836533  0.163423  0.038576  1
  In  In19  1  0.162526  0.325057  0.538081  1
  In  In20  1  0.675052  0.837522  0.537938  1
  In  In21  1  0.162509  0.837493  0.538057  1
  Fe  Fe22  1  0.666642  0.333314  0.560841  1
  Fe  Fe23  1  0.333357  0.666664  0.058669  1
