# generated using pymatgen
data_Ce2FeCo(SiPt)2
_symmetry_space_group_name_H-M   'P 1'
_cell_length_a   9.27737406
_cell_length_b   9.27737501
_cell_length_c   3.98335200
_cell_angle_alpha   90.00000000
_cell_angle_beta   90.00000000
_cell_angle_gamma   155.58699565
_symmetry_Int_Tables_number   1
_chemical_formula_structural   Ce2FeCo(SiPt)2
_chemical_formula_sum   'Ce2 Fe1 Co1 Si2 Pt2'
_cell_volume   141.70199057
_cell_formula_units_Z   1
loop_
 _symmetry_equiv_pos_site_id
 _symmetry_equiv_pos_as_xyz
  1  'x, y, z'
loop_
 _atom_site_type_symbol
 _atom_site_label
 _atom_site_symmetry_multiplicity
 _atom_site_fract_x
 _atom_site_fract_y
 _atom_site_fract_z
 _atom_site_occupancy
  Ce  Ce0  1  0.613191  0.386809  0.250000  1
  Ce  Ce1  1  0.386654  0.613346  0.750000  1
  Fe  Fe2  1  0.750384  0.249616  0.750000  1
  Co  Co3  1  0.249791  0.750209  0.250000  1
  Si  Si4  1  0.812265  0.187735  0.250000  1
  Si  Si5  1  0.187746  0.812254  0.750000  1
  Pt  Pt6  1  0.947528  0.052472  0.250000  1
  Pt  Pt7  1  0.052441  0.947559  0.750000  1
