# generated using pymatgen
data_Pr9ScSi5Hg
_symmetry_space_group_name_H-M   'P 1'
_cell_length_a   7.67584800
_cell_length_b   7.67584845
_cell_length_c   9.25209103
_cell_angle_alpha   114.50778684
_cell_angle_beta   114.50778706
_cell_angle_gamma   90.00000578
_symmetry_Int_Tables_number   1
_chemical_formula_structural   Pr9ScSi5Hg
_chemical_formula_sum   'Pr9 Sc1 Si5 Hg1'
_cell_volume   441.46490429
_cell_formula_units_Z   1
loop_
 _symmetry_equiv_pos_site_id
 _symmetry_equiv_pos_as_xyz
  1  'x, y, z'
loop_
 _atom_site_type_symbol
 _atom_site_label
 _atom_site_symmetry_multiplicity
 _atom_site_fract_x
 _atom_site_fract_y
 _atom_site_fract_z
 _atom_site_occupancy
  Pr  Pr0  1  0.971601  0.971601  0.943202  1
  Pr  Pr1  1  0.971746  0.827317  0.281777  1
  Pr  Pr2  1  0.310031  0.454458  0.281777  1
  Pr  Pr3  1  0.827317  0.310031  0.281777  1
  Pr  Pr4  1  0.454458  0.971746  0.281777  1
  Pr  Pr5  1  0.049291  0.199880  0.721006  1
  Pr  Pr6  1  0.671716  0.521126  0.721006  1
  Pr  Pr7  1  0.199880  0.671716  0.721006  1
  Pr  Pr8  1  0.521126  0.049291  0.721006  1
  Sc  Sc9  1  0.513110  0.513110  0.026221  1
  Si  Si10  1  0.252333  0.252333  0.504666  1
  Si  Si11  1  0.615982  0.879771  0.005816  1
  Si  Si12  1  0.389834  0.126045  0.005816  1
  Si  Si13  1  0.879771  0.389834  0.005816  1
  Si  Si14  1  0.126045  0.615982  0.005816  1
  Hg  Hg15  1  0.745758  0.745758  0.491515  1
