# generated using pymatgen
data_HoEr2(LuIn2)2
_symmetry_space_group_name_H-M   'P 1'
_cell_length_a   9.17270300
_cell_length_b   9.17644749
_cell_length_c   6.60380500
_cell_angle_alpha   90.00000000
_cell_angle_beta   90.00000000
_cell_angle_gamma   119.98650619
_symmetry_Int_Tables_number   1
_chemical_formula_structural   HoEr2(LuIn2)2
_chemical_formula_sum   'Ho2 Er4 Lu4 In8'
_cell_volume   481.45513614
_cell_formula_units_Z   2
loop_
 _symmetry_equiv_pos_site_id
 _symmetry_equiv_pos_as_xyz
  1  'x, y, z'
loop_
 _atom_site_type_symbol
 _atom_site_label
 _atom_site_symmetry_multiplicity
 _atom_site_fract_x
 _atom_site_fract_y
 _atom_site_fract_z
 _atom_site_occupancy
  Ho  Ho0  1  0.289836  0.000000  0.750000  1
  Ho  Ho1  1  0.710164  0.000000  0.250000  1
  Er  Er2  1  0.999935  0.289741  0.750000  1
  Er  Er3  1  0.000065  0.710259  0.250000  1
  Er  Er4  1  0.710195  0.710259  0.750000  1
  Er  Er5  1  0.289805  0.289741  0.250000  1
  Lu  Lu6  1  0.333228  0.666458  0.500000  1
  Lu  Lu7  1  0.666772  0.333542  0.500000  1
  Lu  Lu8  1  0.666772  0.333542  0.000000  1
  Lu  Lu9  1  0.333228  0.666458  0.000000  1
  In  In10  1  0.000000  0.000000  0.500000  1
  In  In11  1  0.000000  0.000000  0.000000  1
  In  In12  1  0.628242  0.000000  0.750000  1
  In  In13  1  0.371758  0.000000  0.250000  1
  In  In14  1  0.999739  0.627716  0.750000  1
  In  In15  1  0.000261  0.372284  0.250000  1
  In  In16  1  0.372023  0.372284  0.750000  1
  In  In17  1  0.627977  0.627716  0.250000  1
