# generated using pymatgen
data_Pr3Nd5AlZn7Rh8
_symmetry_space_group_name_H-M   'P 1'
_cell_length_a   4.02746800
_cell_length_b   7.37235905
_cell_length_c   16.64777770
_cell_angle_alpha   90.03594804
_cell_angle_beta   90.00000000
_cell_angle_gamma   90.00000000
_symmetry_Int_Tables_number   1
_chemical_formula_structural   Pr3Nd5AlZn7Rh8
_chemical_formula_sum   'Pr3 Nd5 Al1 Zn7 Rh8'
_cell_volume   494.30472225
_cell_formula_units_Z   1
loop_
 _symmetry_equiv_pos_site_id
 _symmetry_equiv_pos_as_xyz
  1  'x, y, z'
loop_
 _atom_site_type_symbol
 _atom_site_label
 _atom_site_symmetry_multiplicity
 _atom_site_fract_x
 _atom_site_fract_y
 _atom_site_fract_z
 _atom_site_occupancy
  Pr  Pr0  1  0.750000  0.333031  0.437045  1
  Pr  Pr1  1  0.750000  0.950851  0.283622  1
  Pr  Pr2  1  0.750000  0.831369  0.060674  1
  Nd  Nd3  1  0.250000  0.169389  0.940104  1
  Nd  Nd4  1  0.250000  0.664322  0.560733  1
  Nd  Nd5  1  0.750000  0.451884  0.215421  1
  Nd  Nd6  1  0.250000  0.048329  0.719019  1
  Nd  Nd7  1  0.250000  0.549616  0.784078  1
  Al  Al8  1  0.750000  0.003274  0.560808  1
  Zn  Zn9  1  0.250000  0.626305  0.349084  1
  Zn  Zn10  1  0.750000  0.375086  0.652535  1
  Zn  Zn11  1  0.250000  0.498511  0.059885  1
  Zn  Zn12  1  0.750000  0.500725  0.940415  1
  Zn  Zn13  1  0.250000  0.997508  0.438310  1
  Zn  Zn14  1  0.250000  0.124520  0.150913  1
  Zn  Zn15  1  0.750000  0.875486  0.849685  1
  Rh  Rh16  1  0.750000  0.760264  0.437795  1
  Rh  Rh17  1  0.250000  0.246568  0.313229  1
  Rh  Rh18  1  0.750000  0.256658  0.813383  1
  Rh  Rh19  1  0.750000  0.763424  0.681574  1
  Rh  Rh20  1  0.250000  0.228335  0.565076  1
  Rh  Rh21  1  0.250000  0.744646  0.187007  1
  Rh  Rh22  1  0.750000  0.254890  0.065440  1
  Rh  Rh23  1  0.250000  0.745006  0.934166  1
