# generated using pymatgen
data_La5Y5(GaO4)6
_symmetry_space_group_name_H-M   'P 1'
_cell_length_a   11.41643180
_cell_length_b   11.41643113
_cell_length_c   11.40045486
_cell_angle_alpha   109.36530137
_cell_angle_beta   109.36529846
_cell_angle_gamma   109.73974980
_symmetry_Int_Tables_number   1
_chemical_formula_structural   La5Y5(GaO4)6
_chemical_formula_sum   'La10 Y10 Ga12 O48'
_cell_volume   1143.01568336
_cell_formula_units_Z   2
loop_
 _symmetry_equiv_pos_site_id
 _symmetry_equiv_pos_as_xyz
  1  'x, y, z'
loop_
 _atom_site_type_symbol
 _atom_site_label
 _atom_site_symmetry_multiplicity
 _atom_site_fract_x
 _atom_site_fract_y
 _atom_site_fract_z
 _atom_site_occupancy
  La  La0  1  0.249617  0.375524  0.123761  1
  La  La1  1  0.750383  0.624476  0.876239  1
  La  La2  1  0.751764  0.125856  0.376239  1
  La  La3  1  0.124476  0.250383  0.376239  1
  La  La4  1  0.374144  0.748236  0.123761  1
  La  La5  1  0.248236  0.874144  0.623761  1
  La  La6  1  0.875524  0.749617  0.623761  1
  La  La7  1  0.625856  0.251764  0.876239  1
  La  La8  1  0.375000  0.125000  0.250000  1
  La  La9  1  0.625000  0.875000  0.750000  1
  Y  Y10  1  0.125000  0.375000  0.750000  1
  Y  Y11  1  0.875000  0.625000  0.250000  1
  Y  Y12  1  0.000000  0.000000  0.000000  1
  Y  Y13  1  0.500000  0.000000  0.500000  1
  Y  Y14  1  0.000000  0.500000  0.500000  1
  Y  Y15  1  0.500000  0.000000  0.000000  1
  Y  Y16  1  0.500000  0.500000  0.000000  1
  Y  Y17  1  0.500000  0.500000  0.500000  1
  Y  Y18  1  0.000000  0.000000  0.500000  1
  Y  Y19  1  0.000000  0.500000  0.000000  1
  Ga  Ga20  1  0.247651  0.624549  0.373747  1
  Ga  Ga21  1  0.752349  0.375451  0.626253  1
  Ga  Ga22  1  0.750802  0.873904  0.126253  1
  Ga  Ga23  1  0.373904  0.250802  0.626253  1
  Ga  Ga24  1  0.626096  0.749198  0.373747  1
  Ga  Ga25  1  0.249198  0.126096  0.873747  1
  Ga  Ga26  1  0.124549  0.747651  0.873747  1
  Ga  Ga27  1  0.875451  0.252349  0.126253  1
  Ga  Ga28  1  0.627695  0.377695  0.250000  1
  Ga  Ga29  1  0.372305  0.622305  0.750000  1
  Ga  Ga30  1  0.877695  0.127695  0.750000  1
  Ga  Ga31  1  0.122305  0.872305  0.250000  1
  O  O32  1  0.475550  0.374088  0.284350  1
  O  O33  1  0.524450  0.625912  0.715650  1
  O  O34  1  0.589738  0.191200  0.215650  1
  O  O35  1  0.920057  0.135168  0.605052  1
  O  O36  1  0.283414  0.474422  0.374031  1
  O  O37  1  0.308800  0.910262  0.284350  1
  O  O38  1  0.410262  0.808800  0.784350  1
  O  O39  1  0.079943  0.864832  0.394948  1
  O  O40  1  0.716586  0.525578  0.625969  1
  O  O41  1  0.691200  0.089738  0.715650  1
  O  O42  1  0.030116  0.315004  0.894948  1
  O  O43  1  0.215926  0.588558  0.189002  1
  O  O44  1  0.125912  0.024450  0.215650  1
  O  O45  1  0.969884  0.684996  0.105052  1
  O  O46  1  0.784074  0.411442  0.810998  1
  O  O47  1  0.874088  0.975550  0.784350  1
  O  O48  1  0.600392  0.909383  0.125969  1
  O  O49  1  0.184996  0.469884  0.605052  1
  O  O50  1  0.399608  0.090617  0.874031  1
  O  O51  1  0.815004  0.530116  0.394948  1
  O  O52  1  0.899557  0.026925  0.310998  1
  O  O53  1  0.364832  0.579943  0.894948  1
  O  O54  1  0.100443  0.973075  0.689002  1
  O  O55  1  0.635168  0.420057  0.105052  1
  O  O56  1  0.371851  0.283898  0.473850  1
  O  O57  1  0.590617  0.899608  0.374031  1
  O  O58  1  0.628149  0.716102  0.526150  1
  O  O59  1  0.409383  0.100392  0.625969  1
  O  O60  1  0.126566  0.596836  0.907264  1
  O  O61  1  0.025578  0.216586  0.125969  1
  O  O62  1  0.873434  0.403164  0.092736  1
  O  O63  1  0.974422  0.783414  0.874031  1
  O  O64  1  0.310049  0.898001  0.026150  1
  O  O65  1  0.911442  0.284074  0.310998  1
  O  O66  1  0.689951  0.101999  0.973850  1
  O  O67  1  0.088558  0.715926  0.689002  1
  O  O68  1  0.189572  0.219301  0.592736  1
  O  O69  1  0.473075  0.600443  0.189002  1
  O  O70  1  0.810428  0.780699  0.407264  1
  O  O71  1  0.526925  0.399557  0.810998  1
  O  O72  1  0.280699  0.310428  0.907264  1
  O  O73  1  0.719301  0.689572  0.092736  1
  O  O74  1  0.216102  0.128149  0.026150  1
  O  O75  1  0.783898  0.871851  0.973850  1
  O  O76  1  0.903164  0.373434  0.592736  1
  O  O77  1  0.096836  0.626566  0.407264  1
  O  O78  1  0.601999  0.189951  0.473850  1
  O  O79  1  0.398001  0.810049  0.526150  1
