# generated using pymatgen
data_UTa2I15
_symmetry_space_group_name_H-M   'P 1'
_cell_length_a   15.89027740
_cell_length_b   15.88922299
_cell_length_c   7.44668637
_cell_angle_alpha   89.28277615
_cell_angle_beta   89.33852005
_cell_angle_gamma   85.38782636
_symmetry_Int_Tables_number   1
_chemical_formula_structural   UTa2I15
_chemical_formula_sum   'U2 Ta4 I30'
_cell_volume   1873.83044041
_cell_formula_units_Z   2
loop_
 _symmetry_equiv_pos_site_id
 _symmetry_equiv_pos_as_xyz
  1  'x, y, z'
loop_
 _atom_site_type_symbol
 _atom_site_label
 _atom_site_symmetry_multiplicity
 _atom_site_fract_x
 _atom_site_fract_y
 _atom_site_fract_z
 _atom_site_occupancy
  U  U0  1  0.602642  0.397408  0.500054  1
  U  U1  1  0.269385  0.064167  0.021848  1
  Ta  Ta2  1  0.390354  0.610212  0.499680  1
  Ta  Ta3  1  0.056880  0.276220  0.020890  1
  Ta  Ta4  1  0.727549  0.938792  0.978697  1
  Ta  Ta5  1  0.938317  0.728126  0.978695  1
  I  I6  1  0.111883  0.121578  0.807483  1
  I  I7  1  0.880564  0.880065  0.180529  1
  I  I8  1  0.304040  0.921683  0.790133  1
  I  I9  1  0.927968  0.302793  0.799821  1
  I  I10  1  0.703158  0.067167  0.203230  1
  I  I11  1  0.067501  0.703038  0.203815  1
  I  I12  1  0.165940  0.966349  0.253847  1
  I  I13  1  0.977968  0.168815  0.237265  1
  I  I14  1  0.832866  0.022113  0.761140  1
  I  I15  1  0.023213  0.831921  0.760740  1
  I  I16  1  0.411611  0.029210  0.253205  1
  I  I17  1  0.030150  0.406086  0.240392  1
  I  I18  1  0.598955  0.963344  0.754748  1
  I  I19  1  0.963276  0.598838  0.754351  1
  I  I20  1  0.211821  0.221478  0.235917  1
  I  I21  1  0.786435  0.786071  0.776402  1
  I  I22  1  0.499702  0.299786  0.277422  1
  I  I23  1  0.310887  0.502140  0.292705  1
  I  I24  1  0.497923  0.688764  0.707415  1
  I  I25  1  0.700336  0.500914  0.722581  1
  I  I26  1  0.366954  0.167254  0.789957  1
  I  I27  1  0.165347  0.355611  0.805791  1
  I  I28  1  0.644620  0.833095  0.196190  1
  I  I29  1  0.834196  0.643406  0.196236  1
  I  I30  1  0.745284  0.362624  0.263895  1
  I  I31  1  0.363667  0.739467  0.274218  1
  I  I32  1  0.260678  0.636655  0.725262  1
  I  I33  1  0.638010  0.254922  0.735870  1
  I  I34  1  0.544963  0.555146  0.280846  1
  I  I35  1  0.444957  0.454737  0.718728  1
