# generated using pymatgen
data_KRb11Cr4O16
_symmetry_space_group_name_H-M   'P 1'
_cell_length_a   8.80194316
_cell_length_b   8.80668474
_cell_length_c   10.78926900
_cell_angle_alpha   114.04730074
_cell_angle_beta   114.05316125
_cell_angle_gamma   90.02366468
_symmetry_Int_Tables_number   1
_chemical_formula_structural   KRb11Cr4O16
_chemical_formula_sum   'K1 Rb11 Cr4 O16'
_cell_volume   683.39248862
_cell_formula_units_Z   1
loop_
 _symmetry_equiv_pos_site_id
 _symmetry_equiv_pos_as_xyz
  1  'x, y, z'
loop_
 _atom_site_type_symbol
 _atom_site_label
 _atom_site_symmetry_multiplicity
 _atom_site_fract_x
 _atom_site_fract_y
 _atom_site_fract_z
 _atom_site_occupancy
  K  K0  1  0.000180  0.000023  0.000309  1
  Rb  Rb1  1  0.274280  0.274356  0.548658  1
  Rb  Rb2  1  0.500381  0.999894  0.999924  1
  Rb  Rb3  1  0.249988  0.749948  0.499996  1
  Rb  Rb4  1  0.894811  0.894649  0.243962  1
  Rb  Rb5  1  0.105190  0.650806  0.756078  1
  Rb  Rb6  1  0.725813  0.725707  0.451437  1
  Rb  Rb7  1  0.000209  0.500002  0.000097  1
  Rb  Rb8  1  0.650770  0.105331  0.755969  1
  Rb  Rb9  1  0.349327  0.349250  0.244055  1
  Rb  Rb10  1  0.749986  0.249984  0.499943  1
  Rb  Rb11  1  0.500021  0.499926  0.999973  1
  Cr  Cr12  1  0.856769  0.400379  0.256974  1
  Cr  Cr13  1  0.143162  0.143502  0.742963  1
  Cr  Cr14  1  0.599697  0.599743  0.743051  1
  Cr  Cr15  1  0.400264  0.856444  0.256946  1
  O  O16  1  0.440165  0.999238  0.439311  1
  O  O17  1  0.764107  0.764589  0.888410  1
  O  O18  1  0.653688  0.351341  0.236635  1
  O  O19  1  0.351901  0.653570  0.237002  1
  O  O20  1  0.999317  0.440590  0.439518  1
  O  O21  1  0.583162  0.885323  0.236916  1
  O  O22  1  0.346233  0.114890  0.763370  1
  O  O23  1  0.235204  0.874628  0.111110  1
  O  O24  1  0.559723  0.559470  0.560475  1
  O  O25  1  0.123562  0.124368  0.888335  1
  O  O26  1  0.648593  0.417074  0.763365  1
  O  O27  1  0.000812  0.001209  0.560401  1
  O  O28  1  0.885191  0.583264  0.236941  1
  O  O29  1  0.875878  0.235744  0.111527  1
  O  O30  1  0.114774  0.346425  0.763143  1
  O  O31  1  0.416841  0.648324  0.763207  1
