# generated using pymatgen
data_NdDy15Cd4Ni3Ir
_symmetry_space_group_name_H-M   'P 1'
_cell_length_a   9.60489446
_cell_length_b   9.60489397
_cell_length_c   9.61783562
_cell_angle_alpha   59.78894452
_cell_angle_beta   59.78895040
_cell_angle_gamma   59.74277571
_symmetry_Int_Tables_number   1
_chemical_formula_structural   NdDy15Cd4Ni3Ir
_chemical_formula_sum   'Nd1 Dy15 Cd4 Ni3 Ir1'
_cell_volume   624.17840523
_cell_formula_units_Z   1
loop_
 _symmetry_equiv_pos_site_id
 _symmetry_equiv_pos_as_xyz
  1  'x, y, z'
loop_
 _atom_site_type_symbol
 _atom_site_label
 _atom_site_symmetry_multiplicity
 _atom_site_fract_x
 _atom_site_fract_y
 _atom_site_fract_z
 _atom_site_occupancy
  Nd  Nd0  1  0.186278  0.186278  0.812111  1
  Dy  Dy1  1  0.596724  0.596724  0.597090  1
  Dy  Dy2  1  0.601886  0.601886  0.203714  1
  Dy  Dy3  1  0.602490  0.203706  0.600170  1
  Dy  Dy4  1  0.203706  0.602490  0.600170  1
  Dy  Dy5  1  0.058599  0.440103  0.437559  1
  Dy  Dy6  1  0.438125  0.060621  0.061872  1
  Dy  Dy7  1  0.440103  0.058599  0.437559  1
  Dy  Dy8  1  0.060621  0.438125  0.061872  1
  Dy  Dy9  1  0.438838  0.438838  0.058932  1
  Dy  Dy10  1  0.061585  0.061585  0.435651  1
  Dy  Dy11  1  0.185591  0.813427  0.816274  1
  Dy  Dy12  1  0.807583  0.188219  0.189354  1
  Dy  Dy13  1  0.813427  0.185591  0.816274  1
  Dy  Dy14  1  0.188219  0.807583  0.189354  1
  Dy  Dy15  1  0.816538  0.816538  0.185930  1
  Cd  Cd16  1  0.831130  0.831130  0.830399  1
  Cd  Cd17  1  0.830309  0.830309  0.505782  1
  Cd  Cd18  1  0.827357  0.507886  0.830463  1
  Cd  Cd19  1  0.507886  0.827357  0.830463  1
  Ni  Ni20  1  0.392560  0.392560  0.825009  1
  Ni  Ni21  1  0.391762  0.824333  0.391916  1
  Ni  Ni22  1  0.824333  0.391762  0.391916  1
  Ir  Ir23  1  0.394355  0.394355  0.390172  1
