# generated using pymatgen
data_Sc6Ta4Al12Fe7
_symmetry_space_group_name_H-M   'P 1'
_cell_length_a   8.65179453
_cell_length_b   8.65179470
_cell_length_c   8.65179500
_cell_angle_alpha   60.00000266
_cell_angle_beta   60.00000201
_cell_angle_gamma   60.00000199
_symmetry_Int_Tables_number   1
_chemical_formula_structural   Sc6Ta4Al12Fe7
_chemical_formula_sum   'Sc6 Ta4 Al12 Fe7'
_cell_volume   457.93479807
_cell_formula_units_Z   1
loop_
 _symmetry_equiv_pos_site_id
 _symmetry_equiv_pos_as_xyz
  1  'x, y, z'
loop_
 _atom_site_type_symbol
 _atom_site_label
 _atom_site_symmetry_multiplicity
 _atom_site_fract_x
 _atom_site_fract_y
 _atom_site_fract_z
 _atom_site_occupancy
  Sc  Sc0  1  0.706454  0.706454  0.293546  1
  Sc  Sc1  1  0.293546  0.706454  0.293546  1
  Sc  Sc2  1  0.706454  0.293546  0.293546  1
  Sc  Sc3  1  0.293546  0.293546  0.706454  1
  Sc  Sc4  1  0.706454  0.293546  0.706454  1
  Sc  Sc5  1  0.293546  0.706454  0.706454  1
  Ta  Ta6  1  0.880593  0.880593  0.358220  1
  Ta  Ta7  1  0.880593  0.358220  0.880593  1
  Ta  Ta8  1  0.358220  0.880593  0.880593  1
  Ta  Ta9  1  0.880593  0.880593  0.880593  1
  Al  Al10  1  0.120273  0.120273  0.639181  1
  Al  Al11  1  0.120273  0.639181  0.120273  1
  Al  Al12  1  0.639181  0.120273  0.120273  1
  Al  Al13  1  0.120273  0.120273  0.120273  1
  Al  Al14  1  0.664111  0.664111  0.007668  1
  Al  Al15  1  0.664111  0.007668  0.664111  1
  Al  Al16  1  0.007668  0.664111  0.664111  1
  Al  Al17  1  0.664111  0.664111  0.664111  1
  Al  Al18  1  0.333827  0.333827  0.998520  1
  Al  Al19  1  0.333827  0.998520  0.333827  1
  Al  Al20  1  0.998520  0.333827  0.333827  1
  Al  Al21  1  0.333827  0.333827  0.333827  1
  Fe  Fe22  1  0.000000  0.000000  0.000000  1
  Fe  Fe23  1  0.994650  0.994650  0.505350  1
  Fe  Fe24  1  0.505350  0.994650  0.505350  1
  Fe  Fe25  1  0.994650  0.505350  0.505350  1
  Fe  Fe26  1  0.505350  0.505350  0.994650  1
  Fe  Fe27  1  0.994650  0.505350  0.994650  1
  Fe  Fe28  1  0.505350  0.994650  0.994650  1
