# generated using pymatgen
data_Pr3CoSn6
_symmetry_space_group_name_H-M   'P 1'
_cell_length_a   8.71191508
_cell_length_b   8.71191556
_cell_length_c   13.44100600
_cell_angle_alpha   90.00000000
_cell_angle_beta   90.00000000
_cell_angle_gamma   148.84634867
_symmetry_Int_Tables_number   1
_chemical_formula_structural   Pr3CoSn6
_chemical_formula_sum   'Pr6 Co2 Sn12'
_cell_volume   527.75316541
_cell_formula_units_Z   2
loop_
 _symmetry_equiv_pos_site_id
 _symmetry_equiv_pos_as_xyz
  1  'x, y, z'
loop_
 _atom_site_type_symbol
 _atom_site_label
 _atom_site_symmetry_multiplicity
 _atom_site_fract_x
 _atom_site_fract_y
 _atom_site_fract_z
 _atom_site_occupancy
  Pr  Pr0  1  0.899415  0.100585  0.091850  1
  Pr  Pr1  1  0.100585  0.899415  0.591850  1
  Pr  Pr2  1  0.899033  0.100967  0.750000  1
  Pr  Pr3  1  0.100585  0.899415  0.908150  1
  Pr  Pr4  1  0.100967  0.899033  0.250000  1
  Pr  Pr5  1  0.899415  0.100585  0.408150  1
  Co  Co6  1  0.298629  0.701371  0.250000  1
  Co  Co7  1  0.701371  0.298629  0.750000  1
  Sn  Sn8  1  0.753442  0.246558  0.571703  1
  Sn  Sn9  1  0.430206  0.569794  0.577663  1
  Sn  Sn10  1  0.569794  0.430206  0.422337  1
  Sn  Sn11  1  0.736921  0.263079  0.250000  1
  Sn  Sn12  1  0.263079  0.736921  0.750000  1
  Sn  Sn13  1  0.246558  0.753442  0.071703  1
  Sn  Sn14  1  0.246558  0.753442  0.428297  1
  Sn  Sn15  1  0.569794  0.430206  0.077663  1
  Sn  Sn16  1  0.451819  0.548181  0.250000  1
  Sn  Sn17  1  0.548181  0.451819  0.750000  1
  Sn  Sn18  1  0.753442  0.246558  0.928297  1
  Sn  Sn19  1  0.430206  0.569794  0.922337  1
