# generated using pymatgen
data_LaTbSb2PtRh
_symmetry_space_group_name_H-M   'P 1'
_cell_length_a   4.54482100
_cell_length_b   7.87778610
_cell_length_c   7.91298141
_cell_angle_alpha   87.69284386
_cell_angle_beta   90.00000000
_cell_angle_gamma   90.00000000
_symmetry_Int_Tables_number   1
_chemical_formula_structural   LaTbSb2PtRh
_chemical_formula_sum   'La2 Tb2 Sb4 Pt2 Rh2'
_cell_volume   283.07982595
_cell_formula_units_Z   2
loop_
 _symmetry_equiv_pos_site_id
 _symmetry_equiv_pos_as_xyz
  1  'x, y, z'
loop_
 _atom_site_type_symbol
 _atom_site_label
 _atom_site_symmetry_multiplicity
 _atom_site_fract_x
 _atom_site_fract_y
 _atom_site_fract_z
 _atom_site_occupancy
  La  La0  1  0.750000  0.990256  0.732135  1
  La  La1  1  0.250000  0.009744  0.267865  1
  Tb  Tb2  1  0.250000  0.493197  0.204433  1
  Tb  Tb3  1  0.750000  0.506803  0.795567  1
  Sb  Sb4  1  0.250000  0.721850  0.580258  1
  Sb  Sb5  1  0.750000  0.278150  0.419742  1
  Sb  Sb6  1  0.750000  0.773741  0.110756  1
  Sb  Sb7  1  0.250000  0.226259  0.889244  1
  Pt  Pt8  1  0.250000  0.750365  0.921501  1
  Pt  Pt9  1  0.750000  0.249635  0.078499  1
  Rh  Rh10  1  0.750000  0.628296  0.434042  1
  Rh  Rh11  1  0.250000  0.371704  0.565958  1
