# generated using pymatgen
data_CaHo3Sc2(Si3Ru)8
_symmetry_space_group_name_H-M   'P 1'
_cell_length_a   10.07677756
_cell_length_b   10.07677782
_cell_length_c   8.09677800
_cell_angle_alpha   89.90899161
_cell_angle_beta   90.09100028
_cell_angle_gamma   132.61952002
_symmetry_Int_Tables_number   1
_chemical_formula_structural   CaHo3Sc2(Si3Ru)8
_chemical_formula_sum   'Ca1 Ho3 Sc2 Si24 Ru8'
_cell_volume   604.99798860
_cell_formula_units_Z   1
loop_
 _symmetry_equiv_pos_site_id
 _symmetry_equiv_pos_as_xyz
  1  'x, y, z'
loop_
 _atom_site_type_symbol
 _atom_site_label
 _atom_site_symmetry_multiplicity
 _atom_site_fract_x
 _atom_site_fract_y
 _atom_site_fract_z
 _atom_site_occupancy
  Ca  Ca0  1  0.501766  0.001766  0.750000  1
  Ho  Ho1  1  0.998891  0.498891  0.250000  1
  Ho  Ho2  1  0.497338  0.997338  0.250000  1
  Ho  Ho3  1  0.002512  0.502512  0.750000  1
  Sc  Sc4  1  0.500221  0.500451  0.500671  1
  Sc  Sc5  1  0.000451  0.000221  0.999329  1
  Si  Si6  1  0.794600  0.204205  0.499953  1
  Si  Si7  1  0.295223  0.705410  0.999197  1
  Si  Si8  1  0.205410  0.795223  0.500803  1
  Si  Si9  1  0.704205  0.294600  0.000047  1
  Si  Si10  1  0.331879  0.333101  0.832038  1
  Si  Si11  1  0.667420  0.669721  0.167890  1
  Si  Si12  1  0.169721  0.167420  0.332110  1
  Si  Si13  1  0.833101  0.831879  0.667962  1
  Si  Si14  1  0.118975  0.886567  0.729528  1
  Si  Si15  1  0.110443  0.878744  0.270967  1
  Si  Si16  1  0.610815  0.379461  0.229779  1
  Si  Si17  1  0.623189  0.391425  0.770253  1
  Si  Si18  1  0.879461  0.110815  0.270221  1
  Si  Si19  1  0.891425  0.123189  0.729747  1
  Si  Si20  1  0.386567  0.618975  0.770472  1
  Si  Si21  1  0.378744  0.610443  0.229033  1
  Si  Si22  1  0.345399  0.113694  0.502132  1
  Si  Si23  1  0.886031  0.654857  0.495291  1
  Si  Si24  1  0.385632  0.153944  0.006665  1
  Si  Si25  1  0.844492  0.614176  0.995628  1
  Si  Si26  1  0.653944  0.885632  0.493335  1
  Si  Si27  1  0.114176  0.344492  0.504372  1
  Si  Si28  1  0.613694  0.845399  0.997868  1
  Si  Si29  1  0.154857  0.386031  0.004709  1
  Ru  Ru30  1  0.670070  0.332111  0.499138  1
  Ru  Ru31  1  0.166514  0.829437  0.001782  1
  Ru  Ru32  1  0.329437  0.666514  0.498218  1
  Ru  Ru33  1  0.832111  0.170070  0.000862  1
  Ru  Ru34  1  0.127792  0.127143  0.627656  1
  Ru  Ru35  1  0.872923  0.873425  0.372732  1
  Ru  Ru36  1  0.373425  0.372923  0.127268  1
  Ru  Ru37  1  0.627143  0.627792  0.872344  1
