# generated using pymatgen
data_La4In3Ag
_symmetry_space_group_name_H-M   'P 1'
_cell_length_a   3.83432300
_cell_length_b   3.83432300
_cell_length_c   16.49610700
_cell_angle_alpha   90.00000000
_cell_angle_beta   90.00000000
_cell_angle_gamma   90.00000000
_symmetry_Int_Tables_number   1
_chemical_formula_structural   La4In3Ag
_chemical_formula_sum   'La4 In3 Ag1'
_cell_volume   242.52630731
_cell_formula_units_Z   1
loop_
 _symmetry_equiv_pos_site_id
 _symmetry_equiv_pos_as_xyz
  1  'x, y, z'
loop_
 _atom_site_type_symbol
 _atom_site_label
 _atom_site_symmetry_multiplicity
 _atom_site_fract_x
 _atom_site_fract_y
 _atom_site_fract_z
 _atom_site_occupancy
  La  La0  1  0.500000  0.500000  0.117976  1
  La  La1  1  0.500000  0.500000  0.371486  1
  La  La2  1  0.500000  0.500000  0.628514  1
  La  La3  1  0.500000  0.500000  0.882024  1
  In  In4  1  0.000000  0.000000  0.241374  1
  In  In5  1  0.000000  0.000000  0.500000  1
  In  In6  1  0.000000  0.000000  0.758626  1
  Ag  Ag7  1  0.000000  0.000000  0.000000  1
