# generated using pymatgen
data_Dy4Er8Co4NiSn
_symmetry_space_group_name_H-M   'P 1'
_cell_length_a   8.24291405
_cell_length_b   8.24291408
_cell_length_c   8.24291342
_cell_angle_alpha   106.83083826
_cell_angle_beta   110.60028182
_cell_angle_gamma   111.01466348
_symmetry_Int_Tables_number   1
_chemical_formula_structural   Dy4Er8Co4NiSn
_chemical_formula_sum   'Dy4 Er8 Co4 Ni1 Sn1'
_cell_volume   430.45338248
_cell_formula_units_Z   1
loop_
 _symmetry_equiv_pos_site_id
 _symmetry_equiv_pos_as_xyz
  1  'x, y, z'
loop_
 _atom_site_type_symbol
 _atom_site_label
 _atom_site_symmetry_multiplicity
 _atom_site_fract_x
 _atom_site_fract_y
 _atom_site_fract_z
 _atom_site_occupancy
  Dy  Dy0  1  0.196261  0.211702  0.407964  1
  Dy  Dy1  1  0.803739  0.788298  0.592036  1
  Dy  Dy2  1  0.196261  0.788298  0.984558  1
  Dy  Dy3  1  0.803739  0.211702  0.015442  1
  Er  Er4  1  0.476325  0.291387  0.184938  1
  Er  Er5  1  0.106448  0.291387  0.815062  1
  Er  Er6  1  0.893552  0.708613  0.184938  1
  Er  Er7  1  0.523675  0.708613  0.815062  1
  Er  Er8  1  0.305767  0.620351  0.314583  1
  Er  Er9  1  0.305767  0.991185  0.685417  1
  Er  Er10  1  0.694233  0.379649  0.685417  1
  Er  Er11  1  0.694233  0.008815  0.314583  1
  Co  Co12  1  0.500000  0.612497  0.112497  1
  Co  Co13  1  0.500000  0.387503  0.887503  1
  Co  Co14  1  0.376710  0.000000  0.376710  1
  Co  Co15  1  0.623290  0.000000  0.623290  1
  Ni  Ni16  1  0.000000  0.000000  0.000000  1
  Sn  Sn17  1  0.000000  0.500000  0.500000  1
