# generated using pymatgen
data_Pr2AlGa3PtAu3
_symmetry_space_group_name_H-M   'P 1'
_cell_length_a   4.43159200
_cell_length_b   4.48899900
_cell_length_c   10.37253500
_cell_angle_alpha   90.00000000
_cell_angle_beta   90.00000000
_cell_angle_gamma   90.00000000
_symmetry_Int_Tables_number   1
_chemical_formula_structural   Pr2AlGa3PtAu3
_chemical_formula_sum   'Pr2 Al1 Ga3 Pt1 Au3'
_cell_volume   206.34511282
_cell_formula_units_Z   1
loop_
 _symmetry_equiv_pos_site_id
 _symmetry_equiv_pos_as_xyz
  1  'x, y, z'
loop_
 _atom_site_type_symbol
 _atom_site_label
 _atom_site_symmetry_multiplicity
 _atom_site_fract_x
 _atom_site_fract_y
 _atom_site_fract_z
 _atom_site_occupancy
  Pr  Pr0  1  0.000000  0.500000  0.252386  1
  Pr  Pr1  1  0.500000  0.000000  0.749309  1
  Al  Al2  1  0.500000  0.500000  0.504551  1
  Ga  Ga3  1  0.000000  0.000000  0.508843  1
  Ga  Ga4  1  0.000000  0.500000  0.859681  1
  Ga  Ga5  1  0.500000  0.000000  0.132152  1
  Pt  Pt6  1  0.000000  0.500000  0.622085  1
  Au  Au7  1  0.000000  0.000000  0.998037  1
  Au  Au8  1  0.500000  0.500000  0.998835  1
  Au  Au9  1  0.500000  0.000000  0.374122  1
