# generated using pymatgen
data_KRbTb4(CuSe4)2
_symmetry_space_group_name_H-M   'P 1'
_cell_length_a   7.39530532
_cell_length_b   7.39530596
_cell_length_c   14.40858700
_cell_angle_alpha   90.00000000
_cell_angle_beta   90.00000000
_cell_angle_gamma   147.48060198
_symmetry_Int_Tables_number   1
_chemical_formula_structural   KRbTb4(CuSe4)2
_chemical_formula_sum   'K1 Rb1 Tb4 Cu2 Se8'
_cell_volume   423.62431938
_cell_formula_units_Z   1
loop_
 _symmetry_equiv_pos_site_id
 _symmetry_equiv_pos_as_xyz
  1  'x, y, z'
loop_
 _atom_site_type_symbol
 _atom_site_label
 _atom_site_symmetry_multiplicity
 _atom_site_fract_x
 _atom_site_fract_y
 _atom_site_fract_z
 _atom_site_occupancy
  K  K0  1  0.889227  0.110773  0.750000  1
  Rb  Rb1  1  0.110752  0.889248  0.250000  1
  Tb  Tb2  1  0.634700  0.365300  0.935013  1
  Tb  Tb3  1  0.365742  0.634258  0.436118  1
  Tb  Tb4  1  0.634700  0.365300  0.564987  1
  Tb  Tb5  1  0.365742  0.634258  0.063882  1
  Cu  Cu6  1  0.160884  0.839116  0.750000  1
  Cu  Cu7  1  0.838483  0.161517  0.250000  1
  Se  Se8  1  0.000195  0.999805  0.500130  1
  Se  Se9  1  0.000195  0.999805  0.999870  1
  Se  Se10  1  0.736683  0.263317  0.110162  1
  Se  Se11  1  0.264837  0.735163  0.887635  1
  Se  Se12  1  0.564972  0.435028  0.750000  1
  Se  Se13  1  0.736683  0.263317  0.389838  1
  Se  Se14  1  0.431367  0.568633  0.250000  1
  Se  Se15  1  0.264837  0.735163  0.612365  1
