# generated using pymatgen
data_Eu3Ta3SnO14
_symmetry_space_group_name_H-M   'P 1'
_cell_length_a   7.43896594
_cell_length_b   7.43896492
_cell_length_c   7.43896500
_cell_angle_alpha   60.88539140
_cell_angle_beta   60.88540460
_cell_angle_gamma   60.88540145
_symmetry_Int_Tables_number   1
_chemical_formula_structural   Eu3Ta3SnO14
_chemical_formula_sum   'Eu3 Ta3 Sn1 O14'
_cell_volume   296.89663685
_cell_formula_units_Z   1
loop_
 _symmetry_equiv_pos_site_id
 _symmetry_equiv_pos_as_xyz
  1  'x, y, z'
loop_
 _atom_site_type_symbol
 _atom_site_label
 _atom_site_symmetry_multiplicity
 _atom_site_fract_x
 _atom_site_fract_y
 _atom_site_fract_z
 _atom_site_occupancy
  Eu  Eu0  1  0.000000  0.500000  0.500000  1
  Eu  Eu1  1  0.500000  0.500000  0.000000  1
  Eu  Eu2  1  0.500000  0.000000  0.500000  1
  Ta  Ta3  1  0.500000  0.000000  0.000000  1
  Ta  Ta4  1  0.000000  0.000000  0.500000  1
  Ta  Ta5  1  0.000000  0.500000  0.000000  1
  Sn  Sn6  1  0.000000  0.000000  0.000000  1
  O  O7  1  0.943234  0.311117  0.311117  1
  O  O8  1  0.332591  0.920356  0.920356  1
  O  O9  1  0.311117  0.311117  0.943234  1
  O  O10  1  0.920356  0.920356  0.332591  1
  O  O11  1  0.920356  0.332591  0.920356  1
  O  O12  1  0.311117  0.943234  0.311117  1
  O  O13  1  0.056766  0.688883  0.688883  1
  O  O14  1  0.667409  0.079644  0.079644  1
  O  O15  1  0.688883  0.688883  0.056766  1
  O  O16  1  0.079644  0.079644  0.667409  1
  O  O17  1  0.079644  0.667409  0.079644  1
  O  O18  1  0.688883  0.056766  0.688883  1
  O  O19  1  0.360723  0.360723  0.360723  1
  O  O20  1  0.639277  0.639277  0.639277  1
