# generated using pymatgen
data_Tb20Ir3(PtRh2)3
_symmetry_space_group_name_H-M   'P 1'
_cell_length_a   11.02637207
_cell_length_b   11.02515045
_cell_length_c   6.37263854
_cell_angle_alpha   89.97508808
_cell_angle_beta   90.00969481
_cell_angle_gamma   90.07747889
_symmetry_Int_Tables_number   1
_chemical_formula_structural   Tb20Ir3(PtRh2)3
_chemical_formula_sum   'Tb20 Ir3 Pt3 Rh6'
_cell_volume   774.70437609
_cell_formula_units_Z   1
loop_
 _symmetry_equiv_pos_site_id
 _symmetry_equiv_pos_as_xyz
  1  'x, y, z'
loop_
 _atom_site_type_symbol
 _atom_site_label
 _atom_site_symmetry_multiplicity
 _atom_site_fract_x
 _atom_site_fract_y
 _atom_site_fract_z
 _atom_site_occupancy
  Tb  Tb0  1  0.293202  0.089740  0.375252  1
  Tb  Tb1  1  0.292439  0.907152  0.879142  1
  Tb  Tb2  1  0.706245  0.089926  0.875441  1
  Tb  Tb3  1  0.705476  0.910513  0.375960  1
  Tb  Tb4  1  0.586188  0.790756  0.880444  1
  Tb  Tb5  1  0.585894  0.209466  0.380582  1
  Tb  Tb6  1  0.409705  0.790633  0.380926  1
  Tb  Tb7  1  0.411035  0.209498  0.880852  1
  Tb  Tb8  1  0.209032  0.413756  0.617207  1
  Tb  Tb9  1  0.209915  0.588739  0.120652  1
  Tb  Tb10  1  0.792034  0.411471  0.121496  1
  Tb  Tb11  1  0.792155  0.588217  0.618434  1
  Tb  Tb12  1  0.911594  0.706770  0.126297  1
  Tb  Tb13  1  0.910694  0.294018  0.622572  1
  Tb  Tb14  1  0.092846  0.706246  0.619745  1
  Tb  Tb15  1  0.091880  0.295332  0.125440  1
  Tb  Tb16  1  0.001008  0.997733  0.499420  1
  Tb  Tb17  1  0.001700  0.999394  0.000624  1
  Tb  Tb18  1  0.499783  0.499838  0.000034  1
  Tb  Tb19  1  0.499830  0.500452  0.499925  1
  Ir  Ir20  1  0.346753  0.343830  0.250108  1
  Ir  Ir21  1  0.346127  0.654807  0.749663  1
  Ir  Ir22  1  0.999113  0.499999  0.375565  1
  Pt  Pt23  1  0.844592  0.152760  0.250440  1
  Pt  Pt24  1  0.844778  0.845936  0.750293  1
  Pt  Pt25  1  0.153686  0.154440  0.749229  1
  Rh  Rh26  1  0.153160  0.847942  0.249281  1
  Rh  Rh27  1  0.655158  0.345180  0.749662  1
  Rh  Rh28  1  0.654458  0.655312  0.249648  1
  Rh  Rh29  1  0.500453  0.999633  0.124183  1
  Rh  Rh30  1  0.500556  0.000626  0.625260  1
  Rh  Rh31  1  0.998511  0.499886  0.876223  1
