# generated using pymatgen
data_Ce2Er14Cd4Ir3Pt
_symmetry_space_group_name_H-M   'P 1'
_cell_length_a   9.57340372
_cell_length_b   9.57340338
_cell_length_c   9.58246737
_cell_angle_alpha   60.16615231
_cell_angle_beta   60.16615355
_cell_angle_gamma   60.06208494
_symmetry_Int_Tables_number   1
_chemical_formula_structural   Ce2Er14Cd4Ir3Pt
_chemical_formula_sum   'Ce2 Er14 Cd4 Ir3 Pt1'
_cell_volume   622.85304996
_cell_formula_units_Z   1
loop_
 _symmetry_equiv_pos_site_id
 _symmetry_equiv_pos_as_xyz
  1  'x, y, z'
loop_
 _atom_site_type_symbol
 _atom_site_label
 _atom_site_symmetry_multiplicity
 _atom_site_fract_x
 _atom_site_fract_y
 _atom_site_fract_z
 _atom_site_occupancy
  Ce  Ce0  1  0.593688  0.593688  0.597828  1
  Ce  Ce1  1  0.601657  0.601657  0.196764  1
  Er  Er2  1  0.605984  0.191767  0.603976  1
  Er  Er3  1  0.191767  0.605984  0.603976  1
  Er  Er4  1  0.055982  0.440604  0.440787  1
  Er  Er5  1  0.439714  0.063095  0.059923  1
  Er  Er6  1  0.440604  0.055982  0.440787  1
  Er  Er7  1  0.063095  0.439714  0.059923  1
  Er  Er8  1  0.437526  0.437526  0.062245  1
  Er  Er9  1  0.062582  0.062582  0.437949  1
  Er  Er10  1  0.188111  0.815067  0.816162  1
  Er  Er11  1  0.815563  0.189340  0.186790  1
  Er  Er12  1  0.815067  0.188111  0.816162  1
  Er  Er13  1  0.189340  0.815563  0.186790  1
  Er  Er14  1  0.814891  0.814891  0.186411  1
  Er  Er15  1  0.190201  0.190201  0.812133  1
  Cd  Cd16  1  0.832104  0.832104  0.829318  1
  Cd  Cd17  1  0.830445  0.830445  0.504920  1
  Cd  Cd18  1  0.830396  0.503671  0.830881  1
  Cd  Cd19  1  0.503671  0.830396  0.830881  1
  Ir  Ir20  1  0.392345  0.392345  0.821685  1
  Ir  Ir21  1  0.394157  0.821399  0.387286  1
  Ir  Ir22  1  0.821399  0.394157  0.387286  1
  Pt  Pt23  1  0.389708  0.389708  0.399134  1
