# generated using pymatgen
data_Sc11PdRu3
_symmetry_space_group_name_H-M   'P 1'
_cell_length_a   9.48940629
_cell_length_b   9.53445418
_cell_length_c   9.53445392
_cell_angle_alpha   59.68765175
_cell_angle_beta   60.15617018
_cell_angle_gamma   60.15616428
_symmetry_Int_Tables_number   1
_chemical_formula_structural   Sc11PdRu3
_chemical_formula_sum   'Sc22 Pd2 Ru6'
_cell_volume   609.95298273
_cell_formula_units_Z   2
loop_
 _symmetry_equiv_pos_site_id
 _symmetry_equiv_pos_as_xyz
  1  'x, y, z'
loop_
 _atom_site_type_symbol
 _atom_site_label
 _atom_site_symmetry_multiplicity
 _atom_site_fract_x
 _atom_site_fract_y
 _atom_site_fract_z
 _atom_site_occupancy
  Sc  Sc0  1  0.803903  0.803903  0.196097  1
  Sc  Sc1  1  0.196097  0.803903  0.196097  1
  Sc  Sc2  1  0.803528  0.196472  0.196472  1
  Sc  Sc3  1  0.196097  0.196097  0.803903  1
  Sc  Sc4  1  0.803903  0.196097  0.803903  1
  Sc  Sc5  1  0.196472  0.803528  0.803528  1
  Sc  Sc6  1  0.618004  0.611878  0.152114  1
  Sc  Sc7  1  0.618004  0.152114  0.611878  1
  Sc  Sc8  1  0.152114  0.618004  0.618004  1
  Sc  Sc9  1  0.611878  0.618004  0.618004  1
  Sc  Sc10  1  0.381996  0.388122  0.847886  1
  Sc  Sc11  1  0.381996  0.847886  0.388122  1
  Sc  Sc12  1  0.847886  0.381996  0.381996  1
  Sc  Sc13  1  0.388122  0.381996  0.381996  1
  Sc  Sc14  1  0.839366  0.849404  0.471864  1
  Sc  Sc15  1  0.839366  0.471864  0.849404  1
  Sc  Sc16  1  0.471864  0.839366  0.839366  1
  Sc  Sc17  1  0.849404  0.839366  0.839366  1
  Sc  Sc18  1  0.160634  0.150596  0.528136  1
  Sc  Sc19  1  0.160634  0.528136  0.150596  1
  Sc  Sc20  1  0.528136  0.160634  0.160634  1
  Sc  Sc21  1  0.150596  0.160634  0.160634  1
  Pd  Pd22  1  0.000000  0.500000  0.500000  1
  Pd  Pd23  1  0.500000  0.000000  0.000000  1
  Ru  Ru24  1  0.000000  0.000000  0.000000  1
  Ru  Ru25  1  0.500000  0.500000  0.500000  1
  Ru  Ru26  1  0.000000  0.000000  0.500000  1
  Ru  Ru27  1  0.500000  0.000000  0.500000  1
  Ru  Ru28  1  0.500000  0.500000  0.000000  1
  Ru  Ru29  1  0.000000  0.500000  0.000000  1
