# generated using pymatgen
data_TbDy7Hf12Si15As
_symmetry_space_group_name_H-M   'P 1'
_cell_length_a   7.27413627
_cell_length_b   7.28654331
_cell_length_c   13.37909536
_cell_angle_alpha   89.73021198
_cell_angle_beta   89.95019701
_cell_angle_gamma   89.94307782
_symmetry_Int_Tables_number   1
_chemical_formula_structural   TbDy7Hf12Si15As
_chemical_formula_sum   'Tb1 Dy7 Hf12 Si15 As1'
_cell_volume   709.12784866
_cell_formula_units_Z   1
loop_
 _symmetry_equiv_pos_site_id
 _symmetry_equiv_pos_as_xyz
  1  'x, y, z'
loop_
 _atom_site_type_symbol
 _atom_site_label
 _atom_site_symmetry_multiplicity
 _atom_site_fract_x
 _atom_site_fract_y
 _atom_site_fract_z
 _atom_site_occupancy
  Tb  Tb0  1  0.654722  0.004324  0.284240  1
  Dy  Dy1  1  0.995766  0.345259  0.215081  1
  Dy  Dy2  1  0.004830  0.656002  0.715272  1
  Dy  Dy3  1  0.152882  0.499195  0.466669  1
  Dy  Dy4  1  0.506732  0.842592  0.033794  1
  Dy  Dy5  1  0.844309  0.503530  0.964831  1
  Dy  Dy6  1  0.496047  0.154731  0.535670  1
  Dy  Dy7  1  0.344906  0.995983  0.785184  1
  Hf  Hf8  1  0.174423  0.175141  0.000104  1
  Hf  Hf9  1  0.826300  0.826316  0.500106  1
  Hf  Hf10  1  0.325035  0.677581  0.249780  1
  Hf  Hf11  1  0.674477  0.325413  0.750028  1
  Hf  Hf12  1  0.149462  0.995620  0.372963  1
  Hf  Hf13  1  0.850966  0.003810  0.874724  1
  Hf  Hf14  1  0.503230  0.649922  0.624822  1
  Hf  Hf15  1  0.351155  0.496434  0.875399  1
  Hf  Hf16  1  0.494832  0.348272  0.125054  1
  Hf  Hf17  1  0.653071  0.506541  0.376807  1
  Hf  Hf18  1  0.996737  0.149883  0.625582  1
  Hf  Hf19  1  0.001017  0.848212  0.124306  1
  Si  Si20  1  0.637365  0.705219  0.816738  1
  Si  Si21  1  0.203977  0.863466  0.566414  1
  Si  Si22  1  0.137297  0.794773  0.932388  1
  Si  Si23  1  0.795069  0.138327  0.067269  1
  Si  Si24  1  0.862952  0.204444  0.432743  1
  Si  Si25  1  0.295709  0.362156  0.682800  1
  Si  Si26  1  0.703133  0.635743  0.183550  1
  Si  Si27  1  0.293466  0.039061  0.179808  1
  Si  Si28  1  0.705414  0.951085  0.685658  1
  Si  Si29  1  0.451441  0.795573  0.435927  1
  Si  Si30  1  0.204748  0.547979  0.064518  1
  Si  Si31  1  0.549113  0.204814  0.935765  1
  Si  Si32  1  0.794571  0.451327  0.565160  1
  Si  Si33  1  0.049206  0.295134  0.814163  1
  Si  Si34  1  0.951983  0.705066  0.314648  1
  As  As35  1  0.363660  0.301072  0.322030  1
