# generated using pymatgen
data_Y2Sc8GaBi5
_symmetry_space_group_name_H-M   'P 1'
_cell_length_a   7.78847400
_cell_length_b   9.02291000
_cell_length_c   11.48265100
_cell_angle_alpha   90.00000000
_cell_angle_beta   90.00000000
_cell_angle_gamma   90.00000000
_symmetry_Int_Tables_number   1
_chemical_formula_structural   Y2Sc8GaBi5
_chemical_formula_sum   'Y4 Sc16 Ga2 Bi10'
_cell_volume   806.93985353
_cell_formula_units_Z   2
loop_
 _symmetry_equiv_pos_site_id
 _symmetry_equiv_pos_as_xyz
  1  'x, y, z'
loop_
 _atom_site_type_symbol
 _atom_site_label
 _atom_site_symmetry_multiplicity
 _atom_site_fract_x
 _atom_site_fract_y
 _atom_site_fract_z
 _atom_site_occupancy
  Y  Y0  1  0.313987  0.250000  0.219772  1
  Y  Y1  1  0.813987  0.250000  0.280228  1
  Y  Y2  1  0.677228  0.750000  0.786531  1
  Y  Y3  1  0.177228  0.750000  0.713469  1
  Sc  Sc4  1  0.348502  0.750000  0.208034  1
  Sc  Sc5  1  0.848502  0.750000  0.291966  1
  Sc  Sc6  1  0.657948  0.250000  0.777977  1
  Sc  Sc7  1  0.157948  0.250000  0.722023  1
  Sc  Sc8  1  0.682768  0.573793  0.060254  1
  Sc  Sc9  1  0.182768  0.926207  0.439746  1
  Sc  Sc10  1  0.310106  0.049613  0.939497  1
  Sc  Sc11  1  0.810106  0.450387  0.560503  1
  Sc  Sc12  1  0.310106  0.450387  0.939497  1
  Sc  Sc13  1  0.810106  0.049613  0.560503  1
  Sc  Sc14  1  0.682768  0.926207  0.060254  1
  Sc  Sc15  1  0.182768  0.573793  0.439746  1
  Sc  Sc16  1  0.486521  0.250000  0.490850  1
  Sc  Sc17  1  0.986521  0.250000  0.009150  1
  Sc  Sc18  1  0.531644  0.750000  0.511652  1
  Sc  Sc19  1  0.031644  0.750000  0.988348  1
  Ga  Ga20  1  0.403012  0.750000  0.966260  1
  Ga  Ga21  1  0.903012  0.750000  0.533740  1
  Bi  Bi22  1  0.598100  0.250000  0.031615  1
  Bi  Bi23  1  0.098100  0.250000  0.468385  1
  Bi  Bi24  1  0.558999  0.989581  0.328248  1
  Bi  Bi25  1  0.058999  0.510419  0.171752  1
  Bi  Bi26  1  0.439657  0.491313  0.673615  1
  Bi  Bi27  1  0.939657  0.008687  0.826385  1
  Bi  Bi28  1  0.439657  0.008687  0.673615  1
  Bi  Bi29  1  0.939657  0.491313  0.826385  1
  Bi  Bi30  1  0.558999  0.510419  0.328248  1
  Bi  Bi31  1  0.058999  0.989581  0.171752  1
