# generated using pymatgen
data_La4Ga24NiPt
_symmetry_space_group_name_H-M   'P 1'
_cell_length_a   6.17219200
_cell_length_b   6.17219200
_cell_length_c   15.62042400
_cell_angle_alpha   90.00000000
_cell_angle_beta   90.00000000
_cell_angle_gamma   90.00000000
_symmetry_Int_Tables_number   1
_chemical_formula_structural   La4Ga24NiPt
_chemical_formula_sum   'La4 Ga24 Ni1 Pt1'
_cell_volume   595.07495549
_cell_formula_units_Z   1
loop_
 _symmetry_equiv_pos_site_id
 _symmetry_equiv_pos_as_xyz
  1  'x, y, z'
loop_
 _atom_site_type_symbol
 _atom_site_label
 _atom_site_symmetry_multiplicity
 _atom_site_fract_x
 _atom_site_fract_y
 _atom_site_fract_z
 _atom_site_occupancy
  La  La0  1  0.500000  0.000000  0.243106  1
  La  La1  1  0.000000  0.500000  0.245956  1
  La  La2  1  0.000000  0.500000  0.754044  1
  La  La3  1  0.500000  0.000000  0.756894  1
  Ga  Ga4  1  0.500000  0.500000  0.817296  1
  Ga  Ga5  1  0.000000  0.000000  0.817296  1
  Ga  Ga6  1  0.757963  0.742037  0.915507  1
  Ga  Ga7  1  0.242232  0.742232  0.915525  1
  Ga  Ga8  1  0.000000  0.000000  0.342565  1
  Ga  Ga9  1  0.242037  0.742037  0.084493  1
  Ga  Ga10  1  0.825914  0.325914  0.568892  1
  Ga  Ga11  1  0.500000  0.500000  0.342565  1
  Ga  Ga12  1  0.242037  0.257963  0.915507  1
  Ga  Ga13  1  0.757768  0.742232  0.084475  1
  Ga  Ga14  1  0.328098  0.171902  0.569673  1
  Ga  Ga15  1  0.671902  0.171902  0.430327  1
  Ga  Ga16  1  0.000000  0.000000  0.657435  1
  Ga  Ga17  1  0.174086  0.325914  0.431108  1
  Ga  Ga18  1  0.242232  0.257768  0.084475  1
  Ga  Ga19  1  0.825914  0.674086  0.431108  1
  Ga  Ga20  1  0.671902  0.828098  0.569673  1
  Ga  Ga21  1  0.000000  0.000000  0.182704  1
  Ga  Ga22  1  0.174086  0.674086  0.568892  1
  Ga  Ga23  1  0.500000  0.500000  0.657435  1
  Ga  Ga24  1  0.757768  0.257768  0.915525  1
  Ga  Ga25  1  0.500000  0.500000  0.182704  1
  Ga  Ga26  1  0.328098  0.828098  0.430327  1
  Ga  Ga27  1  0.757963  0.257963  0.084493  1
  Ni  Ni28  1  0.000000  0.500000  0.000000  1
  Pt  Pt29  1  0.500000  0.000000  0.000000  1
