# generated using pymatgen
data_Dy3Er2Lu3(CdIr)2
_symmetry_space_group_name_H-M   'P 1'
_cell_length_a   9.53756366
_cell_length_b   9.53960961
_cell_length_c   9.55050100
_cell_angle_alpha   59.96222909
_cell_angle_beta   59.95512191
_cell_angle_gamma   59.90872450
_symmetry_Int_Tables_number   1
_chemical_formula_structural   Dy3Er2Lu3(CdIr)2
_chemical_formula_sum   'Dy6 Er4 Lu6 Cd4 Ir4'
_cell_volume   613.63136483
_cell_formula_units_Z   2
loop_
 _symmetry_equiv_pos_site_id
 _symmetry_equiv_pos_as_xyz
  1  'x, y, z'
loop_
 _atom_site_type_symbol
 _atom_site_label
 _atom_site_symmetry_multiplicity
 _atom_site_fract_x
 _atom_site_fract_y
 _atom_site_fract_z
 _atom_site_occupancy
  Dy  Dy0  1  0.189240  0.810838  0.811150  1
  Dy  Dy1  1  0.810853  0.189256  0.188770  1
  Dy  Dy2  1  0.810853  0.189256  0.811122  1
  Dy  Dy3  1  0.189240  0.810838  0.188773  1
  Dy  Dy4  1  0.811112  0.811175  0.188857  1
  Dy  Dy5  1  0.189018  0.189012  0.810985  1
  Er  Er6  1  0.599669  0.599697  0.598807  1
  Er  Er7  1  0.599669  0.599697  0.201827  1
  Er  Er8  1  0.599896  0.201931  0.599086  1
  Er  Er9  1  0.201908  0.599939  0.599076  1
  Lu  Lu10  1  0.062217  0.436822  0.438256  1
  Lu  Lu11  1  0.436858  0.062190  0.062694  1
  Lu  Lu12  1  0.436858  0.062190  0.438259  1
  Lu  Lu13  1  0.062217  0.436822  0.062705  1
  Lu  Lu14  1  0.437557  0.437540  0.062451  1
  Lu  Lu15  1  0.062508  0.062525  0.437483  1
  Cd  Cd16  1  0.830105  0.830059  0.830621  1
  Cd  Cd17  1  0.830105  0.830059  0.509216  1
  Cd  Cd18  1  0.830474  0.507753  0.830887  1
  Cd  Cd19  1  0.507730  0.830470  0.830901  1
  Ir  Ir20  1  0.391665  0.391673  0.390432  1
  Ir  Ir21  1  0.391665  0.391673  0.826229  1
  Ir  Ir22  1  0.391936  0.826676  0.390694  1
  Ir  Ir23  1  0.826648  0.391911  0.390720  1
