# generated using pymatgen
data_Tb4Th2Mn3(Co5P4)3
_symmetry_space_group_name_H-M   'P 1'
_cell_length_a   3.74755200
_cell_length_b   10.64432600
_cell_length_c   12.25670700
_cell_angle_alpha   90.00000000
_cell_angle_beta   90.00000000
_cell_angle_gamma   90.00000000
_symmetry_Int_Tables_number   1
_chemical_formula_structural   Tb4Th2Mn3(Co5P4)3
_chemical_formula_sum   'Tb4 Th2 Mn3 Co15 P12'
_cell_volume   488.92206691
_cell_formula_units_Z   1
loop_
 _symmetry_equiv_pos_site_id
 _symmetry_equiv_pos_as_xyz
  1  'x, y, z'
loop_
 _atom_site_type_symbol
 _atom_site_label
 _atom_site_symmetry_multiplicity
 _atom_site_fract_x
 _atom_site_fract_y
 _atom_site_fract_z
 _atom_site_occupancy
  Tb  Tb0  1  0.500000  0.817215  0.203269  1
  Tb  Tb1  1  0.500000  0.182785  0.203269  1
  Tb  Tb2  1  0.000000  0.681836  0.797386  1
  Tb  Tb3  1  0.000000  0.318164  0.797386  1
  Th  Th4  1  0.000000  0.500000  0.525917  1
  Th  Th5  1  0.500000  0.000000  0.474909  1
  Mn  Mn6  1  0.500000  0.500000  0.148807  1
  Mn  Mn7  1  0.000000  0.000000  0.845380  1
  Mn  Mn8  1  0.000000  0.500000  0.988982  1
  Co  Co9  1  0.500000  0.500000  0.699802  1
  Co  Co10  1  0.000000  0.000000  0.298254  1
  Co  Co11  1  0.500000  0.000000  0.013601  1
  Co  Co12  1  0.500000  0.330297  0.994366  1
  Co  Co13  1  0.500000  0.669703  0.994366  1
  Co  Co14  1  0.000000  0.164686  0.004604  1
  Co  Co15  1  0.000000  0.835314  0.004604  1
  Co  Co16  1  0.500000  0.297609  0.430439  1
  Co  Co17  1  0.500000  0.702391  0.430439  1
  Co  Co18  1  0.000000  0.201855  0.570271  1
  Co  Co19  1  0.000000  0.798145  0.570271  1
  Co  Co20  1  0.500000  0.880246  0.712259  1
  Co  Co21  1  0.500000  0.119754  0.712259  1
  Co  Co22  1  0.000000  0.620625  0.289146  1
  Co  Co23  1  0.000000  0.379375  0.289146  1
  P  P24  1  0.500000  0.500000  0.883221  1
  P  P25  1  0.000000  0.000000  0.116862  1
  P  P26  1  0.500000  0.500000  0.340578  1
  P  P27  1  0.000000  0.000000  0.661330  1
  P  P28  1  0.500000  0.304850  0.618280  1
  P  P29  1  0.500000  0.695150  0.618280  1
  P  P30  1  0.000000  0.194609  0.382348  1
  P  P31  1  0.000000  0.805391  0.382348  1
  P  P32  1  0.500000  0.847144  0.894293  1
  P  P33  1  0.500000  0.152856  0.894293  1
  P  P34  1  0.000000  0.655874  0.104515  1
  P  P35  1  0.000000  0.344126  0.104515  1
