# generated using pymatgen
data_Se2SF18
_symmetry_space_group_name_H-M   'P 1'
_cell_length_a   8.89972600
_cell_length_b   8.89972530
_cell_length_c   5.15033500
_cell_angle_alpha   90.00000000
_cell_angle_beta   90.00000000
_cell_angle_gamma   120.00000258
_symmetry_Int_Tables_number   1
_chemical_formula_structural   Se2SF18
_chemical_formula_sum   'Se2 S1 F18'
_cell_volume   353.28023195
_cell_formula_units_Z   1
loop_
 _symmetry_equiv_pos_site_id
 _symmetry_equiv_pos_as_xyz
  1  'x, y, z'
loop_
 _atom_site_type_symbol
 _atom_site_label
 _atom_site_symmetry_multiplicity
 _atom_site_fract_x
 _atom_site_fract_y
 _atom_site_fract_z
 _atom_site_occupancy
  Se  Se0  1  0.666667  0.333333  0.446775  1
  Se  Se1  1  0.333333  0.666667  0.553225  1
  S  S2  1  0.000000  0.000000  0.000000  1
  F  F3  1  0.241312  0.758688  0.358604  1
  F  F4  1  0.241312  0.482624  0.358604  1
  F  F5  1  0.517376  0.758688  0.358604  1
  F  F6  1  0.084730  0.915270  0.820721  1
  F  F7  1  0.084730  0.169460  0.820721  1
  F  F8  1  0.830540  0.915270  0.820721  1
  F  F9  1  0.169460  0.084730  0.179279  1
  F  F10  1  0.915270  0.830540  0.179279  1
  F  F11  1  0.915270  0.084730  0.179279  1
  F  F12  1  0.425328  0.574672  0.748107  1
  F  F13  1  0.425328  0.850656  0.748107  1
  F  F14  1  0.149344  0.574672  0.748107  1
  F  F15  1  0.850656  0.425328  0.251893  1
  F  F16  1  0.574672  0.149344  0.251893  1
  F  F17  1  0.574672  0.425328  0.251893  1
  F  F18  1  0.758688  0.241312  0.641396  1
  F  F19  1  0.758688  0.517376  0.641396  1
  F  F20  1  0.482624  0.241312  0.641396  1
