# generated using pymatgen
data_Pu2TeNO
_symmetry_space_group_name_H-M   'P 1'
_cell_length_a   6.82532068
_cell_length_b   6.82532092
_cell_length_c   6.82532187
_cell_angle_alpha   146.53591888
_cell_angle_beta   146.53592153
_cell_angle_gamma   48.05142461
_symmetry_Int_Tables_number   1
_chemical_formula_structural   Pu2TeNO
_chemical_formula_sum   'Pu2 Te1 N1 O1'
_cell_volume   96.28178605
_cell_formula_units_Z   1
loop_
 _symmetry_equiv_pos_site_id
 _symmetry_equiv_pos_as_xyz
  1  'x, y, z'
loop_
 _atom_site_type_symbol
 _atom_site_label
 _atom_site_symmetry_multiplicity
 _atom_site_fract_x
 _atom_site_fract_y
 _atom_site_fract_z
 _atom_site_occupancy
  Pu  Pu0  1  0.340053  0.340053  0.000000  1
  Pu  Pu1  1  0.659947  0.659947  0.000000  1
  Te  Te2  1  0.000000  0.000000  0.000000  1
  N  N3  1  0.750000  0.250000  0.500000  1
  O  O4  1  0.250000  0.750000  0.500000  1
