# generated using pymatgen
data_Sc6Al13Ga(Fe3Si5)2
_symmetry_space_group_name_H-M   'P 1'
_cell_length_a   8.27523500
_cell_length_b   8.27523498
_cell_length_c   8.88417200
_cell_angle_alpha   90.00000000
_cell_angle_beta   90.00000000
_cell_angle_gamma   119.99999608
_symmetry_Int_Tables_number   1
_chemical_formula_structural   Sc6Al13Ga(Fe3Si5)2
_chemical_formula_sum   'Sc6 Al13 Ga1 Fe6 Si10'
_cell_volume   526.87583150
_cell_formula_units_Z   1
loop_
 _symmetry_equiv_pos_site_id
 _symmetry_equiv_pos_as_xyz
  1  'x, y, z'
loop_
 _atom_site_type_symbol
 _atom_site_label
 _atom_site_symmetry_multiplicity
 _atom_site_fract_x
 _atom_site_fract_y
 _atom_site_fract_z
 _atom_site_occupancy
  Sc  Sc0  1  0.198389  0.801611  0.250000  1
  Sc  Sc1  1  0.198389  0.396777  0.250000  1
  Sc  Sc2  1  0.603223  0.801611  0.250000  1
  Sc  Sc3  1  0.801715  0.198285  0.750000  1
  Sc  Sc4  1  0.801715  0.603431  0.750000  1
  Sc  Sc5  1  0.396569  0.198285  0.750000  1
  Al  Al6  1  0.161107  0.838893  0.921801  1
  Al  Al7  1  0.161107  0.322214  0.921801  1
  Al  Al8  1  0.677786  0.838893  0.921801  1
  Al  Al9  1  0.839037  0.160963  0.077225  1
  Al  Al10  1  0.839037  0.678073  0.077225  1
  Al  Al11  1  0.321927  0.160963  0.077225  1
  Al  Al12  1  0.839037  0.160963  0.422775  1
  Al  Al13  1  0.839037  0.678073  0.422775  1
  Al  Al14  1  0.321927  0.160963  0.422775  1
  Al  Al15  1  0.161107  0.838893  0.578199  1
  Al  Al16  1  0.161107  0.322214  0.578199  1
  Al  Al17  1  0.677786  0.838893  0.578199  1
  Al  Al18  1  0.000000  0.000000  0.750000  1
  Ga  Ga19  1  0.000000  0.000000  0.250000  1
  Fe  Fe20  1  0.499939  0.500061  0.499710  1
  Fe  Fe21  1  0.499939  0.999878  0.499710  1
  Fe  Fe22  1  0.000122  0.500061  0.499710  1
  Fe  Fe23  1  0.499939  0.500061  0.000290  1
  Fe  Fe24  1  0.499939  0.999878  0.000290  1
  Fe  Fe25  1  0.000122  0.500061  0.000290  1
  Si  Si26  1  0.560397  0.439603  0.250000  1
  Si  Si27  1  0.560397  0.120793  0.250000  1
  Si  Si28  1  0.879207  0.439603  0.250000  1
  Si  Si29  1  0.439477  0.560523  0.750000  1
  Si  Si30  1  0.439477  0.878955  0.750000  1
  Si  Si31  1  0.121045  0.560523  0.750000  1
  Si  Si32  1  0.333333  0.666667  0.460357  1
  Si  Si33  1  0.666667  0.333333  0.539459  1
  Si  Si34  1  0.666667  0.333333  0.960541  1
  Si  Si35  1  0.333333  0.666667  0.039643  1
