# generated using pymatgen
data_Tm8Be(Si5Mo4)3
_symmetry_space_group_name_H-M   'P 1'
_cell_length_a   6.70832504
_cell_length_b   6.90605420
_cell_length_c   12.85893100
_cell_angle_alpha   90.00000000
_cell_angle_beta   90.00000000
_cell_angle_gamma   89.86259995
_symmetry_Int_Tables_number   1
_chemical_formula_structural   Tm8Be(Si5Mo4)3
_chemical_formula_sum   'Tm8 Be1 Si15 Mo12'
_cell_volume   595.72756578
_cell_formula_units_Z   1
loop_
 _symmetry_equiv_pos_site_id
 _symmetry_equiv_pos_as_xyz
  1  'x, y, z'
loop_
 _atom_site_type_symbol
 _atom_site_label
 _atom_site_symmetry_multiplicity
 _atom_site_fract_x
 _atom_site_fract_y
 _atom_site_fract_z
 _atom_site_occupancy
  Tm  Tm0  1  0.996417  0.167259  0.093105  1
  Tm  Tm1  1  0.001328  0.833657  0.904731  1
  Tm  Tm2  1  0.500250  0.670513  0.904027  1
  Tm  Tm3  1  0.001328  0.833657  0.595269  1
  Tm  Tm4  1  0.495741  0.332851  0.092870  1
  Tm  Tm5  1  0.996417  0.167259  0.406895  1
  Tm  Tm6  1  0.495741  0.332851  0.407130  1
  Tm  Tm7  1  0.500250  0.670513  0.595973  1
  Be  Be8  1  0.040963  0.133455  0.750000  1
  Si  Si9  1  0.965437  0.867946  0.250000  1
  Si  Si10  1  0.465601  0.632533  0.250000  1
  Si  Si11  1  0.536473  0.367624  0.750000  1
  Si  Si12  1  0.296219  0.879522  0.750000  1
  Si  Si13  1  0.696296  0.132781  0.250000  1
  Si  Si14  1  0.196963  0.366740  0.250000  1
  Si  Si15  1  0.803881  0.629230  0.750000  1
  Si  Si16  1  0.161406  0.457692  0.546434  1
  Si  Si17  1  0.838315  0.539563  0.455065  1
  Si  Si18  1  0.338746  0.958980  0.453922  1
  Si  Si19  1  0.838315  0.539563  0.044935  1
  Si  Si20  1  0.661714  0.041896  0.545826  1
  Si  Si21  1  0.161406  0.457692  0.953566  1
  Si  Si22  1  0.661714  0.041896  0.954174  1
  Si  Si23  1  0.338746  0.958980  0.046078  1
  Mo  Mo24  1  0.167082  0.495282  0.750000  1
  Mo  Mo25  1  0.832937  0.497398  0.250000  1
  Mo  Mo26  1  0.332997  0.002450  0.250000  1
  Mo  Mo27  1  0.668916  0.001531  0.750000  1
  Mo  Mo28  1  0.330210  0.166615  0.625351  1
  Mo  Mo29  1  0.670274  0.835306  0.375417  1
  Mo  Mo30  1  0.169010  0.664095  0.375349  1
  Mo  Mo31  1  0.670274  0.835306  0.124583  1
  Mo  Mo32  1  0.834706  0.328326  0.627074  1
  Mo  Mo33  1  0.330210  0.166615  0.874649  1
  Mo  Mo34  1  0.834706  0.328326  0.872926  1
  Mo  Mo35  1  0.169010  0.664095  0.124651  1
