# generated using pymatgen
data_BeCr(BMo2)2
_symmetry_space_group_name_H-M   'P 1'
_cell_length_a   6.84913583
_cell_length_b   6.84913703
_cell_length_c   6.84913677
_cell_angle_alpha   129.54702765
_cell_angle_beta   129.54703947
_cell_angle_gamma   74.13195252
_symmetry_Int_Tables_number   1
_chemical_formula_structural   BeCr(BMo2)2
_chemical_formula_sum   'Be2 Cr2 B4 Mo8'
_cell_volume   186.27755439
_cell_formula_units_Z   2
loop_
 _symmetry_equiv_pos_site_id
 _symmetry_equiv_pos_as_xyz
  1  'x, y, z'
loop_
 _atom_site_type_symbol
 _atom_site_label
 _atom_site_symmetry_multiplicity
 _atom_site_fract_x
 _atom_site_fract_y
 _atom_site_fract_z
 _atom_site_occupancy
  Be  Be0  1  0.750000  0.750000  0.000000  1
  Be  Be1  1  0.250000  0.250000  0.000000  1
  Cr  Cr2  1  0.000000  0.000000  0.000000  1
  Cr  Cr3  1  0.500000  0.500000  0.000000  1
  B  B4  1  0.377176  0.877176  0.254353  1
  B  B5  1  0.877176  0.622824  0.500000  1
  B  B6  1  0.622824  0.122824  0.745647  1
  B  B7  1  0.122824  0.377176  0.500000  1
  Mo  Mo8  1  0.810327  0.972637  0.500000  1
  Mo  Mo9  1  0.310327  0.810327  0.837689  1
  Mo  Mo10  1  0.189673  0.027363  0.500000  1
  Mo  Mo11  1  0.527363  0.689673  0.500000  1
  Mo  Mo12  1  0.027363  0.527363  0.837689  1
  Mo  Mo13  1  0.689673  0.189673  0.162311  1
  Mo  Mo14  1  0.972637  0.472637  0.162311  1
  Mo  Mo15  1  0.472637  0.310327  0.500000  1
