# generated using pymatgen
data_Hf18Ta4Re4GeAs
_symmetry_space_group_name_H-M   'P 1'
_cell_length_a   8.67844700
_cell_length_b   8.71943673
_cell_length_c   8.76357200
_cell_angle_alpha   90.00000000
_cell_angle_beta   90.00000000
_cell_angle_gamma   119.84650182
_symmetry_Int_Tables_number   1
_chemical_formula_structural   Hf18Ta4Re4GeAs
_chemical_formula_sum   'Hf18 Ta4 Re4 Ge1 As1'
_cell_volume   575.19076662
_cell_formula_units_Z   1
loop_
 _symmetry_equiv_pos_site_id
 _symmetry_equiv_pos_as_xyz
  1  'x, y, z'
loop_
 _atom_site_type_symbol
 _atom_site_label
 _atom_site_symmetry_multiplicity
 _atom_site_fract_x
 _atom_site_fract_y
 _atom_site_fract_z
 _atom_site_occupancy
  Hf  Hf0  1  0.804406  0.608836  0.544842  1
  Hf  Hf1  1  0.804785  0.194754  0.541282  1
  Hf  Hf2  1  0.389938  0.194723  0.541290  1
  Hf  Hf3  1  0.193684  0.387318  0.447668  1
  Hf  Hf4  1  0.195367  0.805951  0.449474  1
  Hf  Hf5  1  0.610584  0.805961  0.449463  1
  Hf  Hf6  1  0.193684  0.387318  0.052332  1
  Hf  Hf7  1  0.195367  0.805951  0.050526  1
  Hf  Hf8  1  0.610584  0.805961  0.050537  1
  Hf  Hf9  1  0.804406  0.608836  0.955158  1
  Hf  Hf10  1  0.804785  0.194754  0.958718  1
  Hf  Hf11  1  0.389938  0.194723  0.958710  1
  Hf  Hf12  1  0.462835  0.925718  0.750000  1
  Hf  Hf13  1  0.460840  0.538012  0.750000  1
  Hf  Hf14  1  0.077176  0.538026  0.750000  1
  Hf  Hf15  1  0.541081  0.082126  0.250000  1
  Hf  Hf16  1  0.538405  0.458311  0.250000  1
  Hf  Hf17  1  0.919960  0.458344  0.250000  1
  Ta  Ta18  1  0.110178  0.220385  0.750000  1
  Ta  Ta19  1  0.111118  0.889835  0.750000  1
  Ta  Ta20  1  0.778686  0.889827  0.750000  1
  Ta  Ta21  1  0.891944  0.783914  0.250000  1
  Re  Re22  1  0.890764  0.111243  0.250000  1
  Re  Re23  1  0.220508  0.111179  0.250000  1
  Re  Re24  1  0.000458  0.000928  0.500782  1
  Re  Re25  1  0.000458  0.000928  0.999218  1
  Ge  Ge26  1  0.332301  0.664609  0.250000  1
  As  As27  1  0.665758  0.331533  0.750000  1
