# generated using pymatgen
data_La2CdSi5PPd20
_symmetry_space_group_name_H-M   'P 1'
_cell_length_a   8.74464479
_cell_length_b   8.74464435
_cell_length_c   8.74188500
_cell_angle_alpha   60.01044144
_cell_angle_beta   60.01044311
_cell_angle_gamma   59.97912319
_symmetry_Int_Tables_number   1
_chemical_formula_structural   La2CdSi5PPd20
_chemical_formula_sum   'La2 Cd1 Si5 P1 Pd20'
_cell_volume   472.68775706
_cell_formula_units_Z   1
loop_
 _symmetry_equiv_pos_site_id
 _symmetry_equiv_pos_as_xyz
  1  'x, y, z'
loop_
 _atom_site_type_symbol
 _atom_site_label
 _atom_site_symmetry_multiplicity
 _atom_site_fract_x
 _atom_site_fract_y
 _atom_site_fract_z
 _atom_site_occupancy
  La  La0  1  0.249709  0.249709  0.250291  1
  La  La1  1  0.749709  0.749709  0.750291  1
  Cd  Cd2  1  0.001389  0.001389  0.998611  1
  Si  Si3  1  0.734068  0.264607  0.265932  1
  Si  Si4  1  0.264607  0.734068  0.735393  1
  Si  Si5  1  0.264607  0.734068  0.265932  1
  Si  Si6  1  0.734068  0.264607  0.735393  1
  Si  Si7  1  0.265726  0.265726  0.734274  1
  P  P8  1  0.734153  0.734153  0.265847  1
  Pd  Pd9  1  0.385809  0.385809  0.385595  1
  Pd  Pd10  1  0.614423  0.614423  0.612625  1
  Pd  Pd11  1  0.385809  0.385809  0.842787  1
  Pd  Pd12  1  0.387375  0.841471  0.385577  1
  Pd  Pd13  1  0.614423  0.614423  0.158529  1
  Pd  Pd14  1  0.614405  0.157213  0.614191  1
  Pd  Pd15  1  0.841471  0.387375  0.385577  1
  Pd  Pd16  1  0.157213  0.614405  0.614191  1
  Pd  Pd17  1  0.345064  0.999977  0.000023  1
  Pd  Pd18  1  0.656148  0.998034  0.001966  1
  Pd  Pd19  1  0.999977  0.345064  0.654936  1
  Pd  Pd20  1  0.998034  0.656148  0.343852  1
  Pd  Pd21  1  0.999977  0.345064  0.000023  1
  Pd  Pd22  1  0.656148  0.998034  0.343852  1
  Pd  Pd23  1  0.998034  0.656148  0.001966  1
  Pd  Pd24  1  0.345064  0.999977  0.654936  1
  Pd  Pd25  1  0.000647  0.000647  0.344541  1
  Pd  Pd26  1  0.000647  0.000647  0.654165  1
  Pd  Pd27  1  0.655459  0.345835  0.999353  1
  Pd  Pd28  1  0.345835  0.655459  0.999353  1
