# generated using pymatgen
data_Nd3Ho3U4O20
_symmetry_space_group_name_H-M   'P 1'
_cell_length_a   6.68364152
_cell_length_b   7.56822093
_cell_length_c   8.48379500
_cell_angle_alpha   101.09313555
_cell_angle_beta   97.71581666
_cell_angle_gamma   107.18485912
_symmetry_Int_Tables_number   1
_chemical_formula_structural   Nd3Ho3U4O20
_chemical_formula_sum   'Nd3 Ho3 U4 O20'
_cell_volume   393.87222053
_cell_formula_units_Z   1
loop_
 _symmetry_equiv_pos_site_id
 _symmetry_equiv_pos_as_xyz
  1  'x, y, z'
loop_
 _atom_site_type_symbol
 _atom_site_label
 _atom_site_symmetry_multiplicity
 _atom_site_fract_x
 _atom_site_fract_y
 _atom_site_fract_z
 _atom_site_occupancy
  Nd  Nd0  1  0.198819  0.897573  0.892933  1
  Nd  Nd1  1  0.000000  0.500000  0.500000  1
  Nd  Nd2  1  0.801181  0.102427  0.107067  1
  Ho  Ho3  1  0.612954  0.703094  0.696833  1
  Ho  Ho4  1  0.387046  0.296906  0.303167  1
  Ho  Ho5  1  0.000000  0.000000  0.500000  1
  U  U6  1  0.402328  0.804205  0.304065  1
  U  U7  1  0.201733  0.401376  0.900803  1
  U  U8  1  0.798267  0.598624  0.099197  1
  U  U9  1  0.597672  0.195795  0.695935  1
  O  O10  1  0.441025  0.532357  0.137275  1
  O  O11  1  0.558013  0.985983  0.834420  1
  O  O12  1  0.269094  0.147879  0.742181  1
  O  O13  1  0.366943  0.594888  0.441883  1
  O  O14  1  0.056966  0.733784  0.331535  1
  O  O15  1  0.441987  0.014017  0.165580  1
  O  O16  1  0.156408  0.191487  0.034920  1
  O  O17  1  0.558975  0.467643  0.862725  1
  O  O18  1  0.853699  0.340631  0.947848  1
  O  O19  1  0.261819  0.604756  0.760838  1
  O  O20  1  0.943723  0.776421  0.648921  1
  O  O21  1  0.354982  0.062766  0.455243  1
  O  O22  1  0.645018  0.937234  0.544757  1
  O  O23  1  0.056277  0.223579  0.351079  1
  O  O24  1  0.738181  0.395244  0.239162  1
  O  O25  1  0.146301  0.659369  0.052152  1
  O  O26  1  0.843592  0.808513  0.965080  1
  O  O27  1  0.943034  0.266216  0.668465  1
  O  O28  1  0.633057  0.405112  0.558117  1
  O  O29  1  0.730906  0.852121  0.257819  1
