# generated using pymatgen
data_Lu16In6FeCu
_symmetry_space_group_name_H-M   'P 1'
_cell_length_a   10.24498300
_cell_length_b   10.24498228
_cell_length_c   6.78614200
_cell_angle_alpha   90.00000000
_cell_angle_beta   90.00000000
_cell_angle_gamma   119.99999909
_symmetry_Int_Tables_number   1
_chemical_formula_structural   Lu16In6FeCu
_chemical_formula_sum   'Lu16 In6 Fe1 Cu1'
_cell_volume   616.84497685
_cell_formula_units_Z   1
loop_
 _symmetry_equiv_pos_site_id
 _symmetry_equiv_pos_as_xyz
  1  'x, y, z'
loop_
 _atom_site_type_symbol
 _atom_site_label
 _atom_site_symmetry_multiplicity
 _atom_site_fract_x
 _atom_site_fract_y
 _atom_site_fract_z
 _atom_site_occupancy
  Lu  Lu0  1  0.526150  0.052301  0.527991  1
  Lu  Lu1  1  0.947699  0.473850  0.527991  1
  Lu  Lu2  1  0.526150  0.473850  0.527991  1
  Lu  Lu3  1  0.464471  0.928943  0.023413  1
  Lu  Lu4  1  0.071057  0.535529  0.023413  1
  Lu  Lu5  1  0.464471  0.535529  0.023413  1
  Lu  Lu6  1  0.178923  0.357846  0.732349  1
  Lu  Lu7  1  0.642154  0.821077  0.732349  1
  Lu  Lu8  1  0.178923  0.821077  0.732349  1
  Lu  Lu9  1  0.823135  0.646269  0.229806  1
  Lu  Lu10  1  0.353731  0.176865  0.229806  1
  Lu  Lu11  1  0.823135  0.176865  0.229806  1
  Lu  Lu12  1  0.666667  0.333333  0.900250  1
  Lu  Lu13  1  0.333333  0.666667  0.410450  1
  Lu  Lu14  1  0.000000  0.000000  0.506301  1
  Lu  Lu15  1  0.000000  0.000000  0.009468  1
  In  In16  1  0.836463  0.672926  0.762314  1
  In  In17  1  0.327074  0.163537  0.762314  1
  In  In18  1  0.836463  0.163537  0.762314  1
  In  In19  1  0.161823  0.323647  0.265978  1
  In  In20  1  0.676353  0.838177  0.265978  1
  In  In21  1  0.161823  0.838177  0.265978  1
  Fe  Fe22  1  0.333333  0.666667  0.797925  1
  Cu  Cu23  1  0.666667  0.333333  0.305732  1
