# generated using pymatgen
data_Tb3Dy7Si5Sn
_symmetry_space_group_name_H-M   'P 1'
_cell_length_a   8.53740700
_cell_length_b   8.56475672
_cell_length_c   6.41493400
_cell_angle_alpha   90.00000000
_cell_angle_beta   90.00000000
_cell_angle_gamma   119.89442691
_symmetry_Int_Tables_number   1
_chemical_formula_structural   Tb3Dy7Si5Sn
_chemical_formula_sum   'Tb3 Dy7 Si5 Sn1'
_cell_volume   406.65383480
_cell_formula_units_Z   1
loop_
 _symmetry_equiv_pos_site_id
 _symmetry_equiv_pos_as_xyz
  1  'x, y, z'
loop_
 _atom_site_type_symbol
 _atom_site_label
 _atom_site_symmetry_multiplicity
 _atom_site_fract_x
 _atom_site_fract_y
 _atom_site_fract_z
 _atom_site_occupancy
  Tb  Tb0  1  0.998946  0.242961  0.250000  1
  Tb  Tb1  1  0.755985  0.757039  0.250000  1
  Tb  Tb2  1  0.241545  0.000000  0.250000  1
  Dy  Dy3  1  0.989394  0.748638  0.750000  1
  Dy  Dy4  1  0.764696  0.000000  0.750000  1
  Dy  Dy5  1  0.240756  0.251362  0.750000  1
  Dy  Dy6  1  0.673373  0.341784  0.003138  1
  Dy  Dy7  1  0.331588  0.658216  0.496862  1
  Dy  Dy8  1  0.331588  0.658216  0.003138  1
  Dy  Dy9  1  0.673373  0.341784  0.496862  1
  Si  Si10  1  0.393618  0.392378  0.250000  1
  Si  Si11  1  0.001240  0.607622  0.250000  1
  Si  Si12  1  0.998760  0.394238  0.750000  1
  Si  Si13  1  0.604522  0.605762  0.750000  1
  Si  Si14  1  0.605721  0.000000  0.250000  1
  Sn  Sn15  1  0.394894  0.000000  0.750000  1
