# generated using pymatgen
data_Er6Zn10Ag13S
_symmetry_space_group_name_H-M   'P 1'
_cell_length_a   9.25423346
_cell_length_b   9.28764576
_cell_length_c   9.28764600
_cell_angle_alpha   60.00117449
_cell_angle_beta   59.88195328
_cell_angle_gamma   59.88194811
_symmetry_Int_Tables_number   1
_chemical_formula_structural   Er6Zn10Ag13S
_chemical_formula_sum   'Er6 Zn10 Ag13 S1'
_cell_volume   563.46035434
_cell_formula_units_Z   1
loop_
 _symmetry_equiv_pos_site_id
 _symmetry_equiv_pos_as_xyz
  1  'x, y, z'
loop_
 _atom_site_type_symbol
 _atom_site_label
 _atom_site_symmetry_multiplicity
 _atom_site_fract_x
 _atom_site_fract_y
 _atom_site_fract_z
 _atom_site_occupancy
  Er  Er0  1  0.708901  0.290892  0.290892  1
  Er  Er1  1  0.708908  0.290891  0.709311  1
  Er  Er2  1  0.708908  0.709311  0.290891  1
  Er  Er3  1  0.291014  0.709388  0.709388  1
  Er  Er4  1  0.291010  0.709393  0.290213  1
  Er  Er5  1  0.291010  0.290213  0.709393  1
  Zn  Zn6  1  0.502797  0.996997  0.996997  1
  Zn  Zn7  1  0.502800  0.997024  0.503176  1
  Zn  Zn8  1  0.502800  0.503176  0.997024  1
  Zn  Zn9  1  0.996307  0.501183  0.501183  1
  Zn  Zn10  1  0.996328  0.501182  0.001268  1
  Zn  Zn11  1  0.996328  0.001268  0.501182  1
  Zn  Zn12  1  0.002245  0.999251  0.999251  1
  Zn  Zn13  1  0.669057  0.992141  0.669411  1
  Zn  Zn14  1  0.669057  0.669411  0.992141  1
  Zn  Zn15  1  0.669062  0.669391  0.669391  1
  Ag  Ag16  1  0.645748  0.118084  0.118084  1
  Ag  Ag17  1  0.118801  0.645745  0.117725  1
  Ag  Ag18  1  0.118801  0.117725  0.645745  1
  Ag  Ag19  1  0.118799  0.117719  0.117719  1
  Ag  Ag20  1  0.366434  0.877867  0.877867  1
  Ag  Ag21  1  0.876869  0.361241  0.880960  1
  Ag  Ag22  1  0.876869  0.880960  0.361241  1
  Ag  Ag23  1  0.876852  0.880945  0.880945  1
  Ag  Ag24  1  0.998499  0.333852  0.333852  1
  Ag  Ag25  1  0.333808  0.999175  0.333519  1
  Ag  Ag26  1  0.333808  0.333519  0.999175  1
  Ag  Ag27  1  0.333798  0.333504  0.333504  1
  Ag  Ag28  1  0.994530  0.668500  0.668500  1
  S  S29  1  0.499848  0.500052  0.500052  1
