# generated using pymatgen
data_Ho2Pa(InPt)3
_symmetry_space_group_name_H-M   'P 1'
_cell_length_a   7.66662800
_cell_length_b   7.64492094
_cell_length_c   3.89983100
_cell_angle_alpha   90.00000000
_cell_angle_beta   90.00000000
_cell_angle_gamma   120.09398011
_symmetry_Int_Tables_number   1
_chemical_formula_structural   Ho2Pa(InPt)3
_chemical_formula_sum   'Ho2 Pa1 In3 Pt3'
_cell_volume   197.76150081
_cell_formula_units_Z   1
loop_
 _symmetry_equiv_pos_site_id
 _symmetry_equiv_pos_as_xyz
  1  'x, y, z'
loop_
 _atom_site_type_symbol
 _atom_site_label
 _atom_site_symmetry_multiplicity
 _atom_site_fract_x
 _atom_site_fract_y
 _atom_site_fract_z
 _atom_site_occupancy
  Ho  Ho0  1  0.405160  0.403779  0.500000  1
  Ho  Ho1  1  0.001381  0.596221  0.500000  1
  Pa  Pa2  1  0.590929  0.000000  0.500000  1
  In  In3  1  0.740784  0.729391  0.000000  1
  In  In4  1  0.011392  0.270609  0.000000  1
  In  In5  1  0.248934  0.000000  0.000000  1
  Pt  Pt6  1  0.349658  0.685155  0.000000  1
  Pt  Pt7  1  0.664505  0.314845  0.000000  1
  Pt  Pt8  1  0.987257  0.000000  0.500000  1
