# generated using pymatgen
data_HfSc3(Co5As3)4
_symmetry_space_group_name_H-M   'P 1'
_cell_length_a   3.71880700
_cell_length_b   10.60203988
_cell_length_c   12.09537304
_cell_angle_alpha   89.97221733
_cell_angle_beta   90.00000000
_cell_angle_gamma   90.00000000
_symmetry_Int_Tables_number   1
_chemical_formula_structural   HfSc3(Co5As3)4
_chemical_formula_sum   'Hf1 Sc3 Co20 As12'
_cell_volume   476.88349254
_cell_formula_units_Z   1
loop_
 _symmetry_equiv_pos_site_id
 _symmetry_equiv_pos_as_xyz
  1  'x, y, z'
loop_
 _atom_site_type_symbol
 _atom_site_label
 _atom_site_symmetry_multiplicity
 _atom_site_fract_x
 _atom_site_fract_y
 _atom_site_fract_z
 _atom_site_occupancy
  Hf  Hf0  1  0.250000  0.578062  0.700437  1
  Sc  Sc1  1  0.250000  0.920415  0.201436  1
  Sc  Sc2  1  0.750000  0.420433  0.298195  1
  Sc  Sc3  1  0.750000  0.079509  0.798578  1
  Co  Co4  1  0.250000  0.715751  0.992844  1
  Co  Co5  1  0.250000  0.783206  0.492730  1
  Co  Co6  1  0.750000  0.284778  0.006413  1
  Co  Co7  1  0.750000  0.214436  0.507823  1
  Co  Co8  1  0.250000  0.409936  0.487528  1
  Co  Co9  1  0.250000  0.091995  0.986473  1
  Co  Co10  1  0.750000  0.591990  0.516603  1
  Co  Co11  1  0.750000  0.908103  0.013745  1
  Co  Co12  1  0.250000  0.217088  0.177951  1
  Co  Co13  1  0.250000  0.283392  0.678261  1
  Co  Co14  1  0.750000  0.781872  0.821629  1
  Co  Co15  1  0.750000  0.715995  0.322940  1
  Co  Co16  1  0.250000  0.883142  0.698340  1
  Co  Co17  1  0.250000  0.615757  0.197726  1
  Co  Co18  1  0.750000  0.116143  0.302319  1
  Co  Co19  1  0.750000  0.386870  0.800432  1
  Co  Co20  1  0.250000  0.468413  0.929211  1
  Co  Co21  1  0.250000  0.032415  0.431709  1
  Co  Co22  1  0.750000  0.532465  0.068117  1
  Co  Co23  1  0.750000  0.967653  0.568816  1
  As  As24  1  0.250000  0.415644  0.115639  1
  As  As25  1  0.250000  0.083827  0.617111  1
  As  As26  1  0.750000  0.584923  0.883538  1
  As  As27  1  0.750000  0.915608  0.383436  1
  As  As28  1  0.250000  0.264479  0.869046  1
  As  As29  1  0.250000  0.235928  0.369370  1
  As  As30  1  0.750000  0.735445  0.131371  1
  As  As31  1  0.750000  0.765528  0.630980  1
  As  As32  1  0.250000  0.597417  0.388263  1
  As  As33  1  0.250000  0.902644  0.889046  1
  As  As34  1  0.750000  0.400814  0.610618  1
  As  As35  1  0.750000  0.097922  0.111330  1
