# generated using pymatgen
data_LiTb2Pa2Zn3Rh4
_symmetry_space_group_name_H-M   'P 1'
_cell_length_a   3.81575900
_cell_length_b   7.17790471
_cell_length_c   8.47545785
_cell_angle_alpha   92.92844266
_cell_angle_beta   90.00000000
_cell_angle_gamma   90.00000000
_symmetry_Int_Tables_number   1
_chemical_formula_structural   LiTb2Pa2Zn3Rh4
_chemical_formula_sum   'Li1 Tb2 Pa2 Zn3 Rh4'
_cell_volume   231.83248294
_cell_formula_units_Z   1
loop_
 _symmetry_equiv_pos_site_id
 _symmetry_equiv_pos_as_xyz
  1  'x, y, z'
loop_
 _atom_site_type_symbol
 _atom_site_label
 _atom_site_symmetry_multiplicity
 _atom_site_fract_x
 _atom_site_fract_y
 _atom_site_fract_z
 _atom_site_occupancy
  Li  Li0  1  0.250000  0.116383  0.942334  1
  Tb  Tb1  1  0.250000  0.055986  0.316738  1
  Tb  Tb2  1  0.750000  0.942648  0.685092  1
  Pa  Pa3  1  0.250000  0.549033  0.190637  1
  Pa  Pa4  1  0.750000  0.450205  0.807380  1
  Zn  Zn5  1  0.750000  0.884033  0.060907  1
  Zn  Zn6  1  0.250000  0.629463  0.557631  1
  Zn  Zn7  1  0.750000  0.370945  0.442068  1
  Rh  Rh8  1  0.750000  0.744391  0.355937  1
  Rh  Rh9  1  0.250000  0.257141  0.640731  1
  Rh  Rh10  1  0.750000  0.288143  0.121033  1
  Rh  Rh11  1  0.250000  0.711629  0.879511  1
