# generated using pymatgen
data_La3NdIn2RhAu3
_symmetry_space_group_name_H-M   'P 1'
_cell_length_a   8.17462862
_cell_length_b   8.17099507
_cell_length_c   3.90520900
_cell_angle_alpha   90.00000000
_cell_angle_beta   90.00000000
_cell_angle_gamma   90.23642435
_symmetry_Int_Tables_number   1
_chemical_formula_structural   La3NdIn2RhAu3
_chemical_formula_sum   'La3 Nd1 In2 Rh1 Au3'
_cell_volume   260.84562917
_cell_formula_units_Z   1
loop_
 _symmetry_equiv_pos_site_id
 _symmetry_equiv_pos_as_xyz
  1  'x, y, z'
loop_
 _atom_site_type_symbol
 _atom_site_label
 _atom_site_symmetry_multiplicity
 _atom_site_fract_x
 _atom_site_fract_y
 _atom_site_fract_z
 _atom_site_occupancy
  La  La0  1  0.691161  0.189796  0.500000  1
  La  La1  1  0.822323  0.656846  0.500000  1
  La  La2  1  0.326284  0.827549  0.500000  1
  Nd  Nd3  1  0.158406  0.320648  0.500000  1
  In  In4  1  0.000953  0.006495  0.000000  1
  In  In5  1  0.502721  0.496580  0.000000  1
  Rh  Rh6  1  0.866733  0.372359  0.000000  1
  Au  Au7  1  0.126596  0.619755  0.000000  1
  Au  Au8  1  0.629279  0.877859  0.000000  1
  Au  Au9  1  0.375543  0.132112  0.000000  1
