# generated using pymatgen
data_VCrBiO5
_symmetry_space_group_name_H-M   'P 1'
_cell_length_a   5.99024900
_cell_length_b   7.67120800
_cell_length_c   8.64148900
_cell_angle_alpha   90.00000000
_cell_angle_beta   90.00000000
_cell_angle_gamma   90.00000000
_symmetry_Int_Tables_number   1
_chemical_formula_structural   VCrBiO5
_chemical_formula_sum   'V4 Cr4 Bi4 O20'
_cell_volume   397.09755707
_cell_formula_units_Z   4
loop_
 _symmetry_equiv_pos_site_id
 _symmetry_equiv_pos_as_xyz
  1  'x, y, z'
loop_
 _atom_site_type_symbol
 _atom_site_label
 _atom_site_symmetry_multiplicity
 _atom_site_fract_x
 _atom_site_fract_y
 _atom_site_fract_z
 _atom_site_occupancy
  V  V0  1  0.500000  0.875826  0.139046  1
  V  V1  1  0.500000  0.624174  0.639046  1
  V  V2  1  0.500000  0.375826  0.360954  1
  V  V3  1  0.500000  0.124174  0.860954  1
  Cr  Cr4  1  0.749870  0.500000  0.000000  1
  Cr  Cr5  1  0.250130  0.500000  0.000000  1
  Cr  Cr6  1  0.749870  0.000000  0.500000  1
  Cr  Cr7  1  0.250130  0.000000  0.500000  1
  Bi  Bi8  1  0.000000  0.839321  0.829272  1
  Bi  Bi9  1  0.000000  0.339321  0.670728  1
  Bi  Bi10  1  0.000000  0.160679  0.170728  1
  Bi  Bi11  1  0.000000  0.660679  0.329272  1
  O  O12  1  0.500000  0.654818  0.081022  1
  O  O13  1  0.000000  0.158899  0.441924  1
  O  O14  1  0.255430  0.885370  0.291188  1
  O  O15  1  0.701812  0.000000  0.000000  1
  O  O16  1  0.744570  0.614630  0.791188  1
  O  O17  1  0.744570  0.114630  0.708812  1
  O  O18  1  0.500000  0.345182  0.918978  1
  O  O19  1  0.298188  0.500000  0.500000  1
  O  O20  1  0.000000  0.841101  0.558076  1
  O  O21  1  0.255430  0.114630  0.708812  1
  O  O22  1  0.000000  0.658899  0.058076  1
  O  O23  1  0.744570  0.385370  0.208812  1
  O  O24  1  0.744570  0.885370  0.291188  1
  O  O25  1  0.255430  0.614630  0.791188  1
  O  O26  1  0.298188  0.000000  0.000000  1
  O  O27  1  0.500000  0.845182  0.581022  1
  O  O28  1  0.500000  0.154818  0.418978  1
  O  O29  1  0.701812  0.500000  0.500000  1
  O  O30  1  0.255430  0.385370  0.208812  1
  O  O31  1  0.000000  0.341101  0.941924  1
