# generated using pymatgen
data_CaLaAlGa2O7
_symmetry_space_group_name_H-M   'P 1'
_cell_length_a   7.94596800
_cell_length_b   5.31245904
_cell_length_c   7.94556193
_cell_angle_alpha   90.04918964
_cell_angle_beta   90.00000000
_cell_angle_gamma   90.00000000
_symmetry_Int_Tables_number   1
_chemical_formula_structural   CaLaAlGa2O7
_chemical_formula_sum   'Ca2 La2 Al2 Ga4 O14'
_cell_volume   335.40293868
_cell_formula_units_Z   2
loop_
 _symmetry_equiv_pos_site_id
 _symmetry_equiv_pos_as_xyz
  1  'x, y, z'
loop_
 _atom_site_type_symbol
 _atom_site_label
 _atom_site_symmetry_multiplicity
 _atom_site_fract_x
 _atom_site_fract_y
 _atom_site_fract_z
 _atom_site_occupancy
  Ca  Ca0  1  0.162377  0.525045  0.422025  1
  Ca  Ca1  1  0.662377  0.474955  0.577975  1
  La  La2  1  0.840493  0.509449  0.094784  1
  La  La3  1  0.340493  0.490551  0.905216  1
  Al  Al4  1  0.500349  0.998017  0.243684  1
  Al  Al5  1  0.000349  0.001983  0.756316  1
  Ga  Ga6  1  0.355677  0.970268  0.598704  1
  Ga  Ga7  1  0.855677  0.029732  0.401296  1
  Ga  Ga8  1  0.646093  0.967132  0.888794  1
  Ga  Ga9  1  0.146093  0.032868  0.111206  1
  O  O10  1  0.357719  0.313039  0.615780  1
  O  O11  1  0.857719  0.686961  0.384220  1
  O  O12  1  0.636312  0.310150  0.894149  1
  O  O13  1  0.136312  0.689850  0.105851  1
  O  O14  1  0.012378  0.200020  0.266236  1
  O  O15  1  0.512378  0.799980  0.733764  1
  O  O16  1  0.394248  0.812624  0.394430  1
  O  O17  1  0.894248  0.187376  0.605570  1
  O  O18  1  0.583406  0.791904  0.087448  1
  O  O19  1  0.083406  0.208096  0.912552  1
  O  O20  1  0.352287  0.193885  0.140736  1
  O  O21  1  0.852287  0.806115  0.859264  1
  O  O22  1  0.658660  0.195658  0.330039  1
  O  O23  1  0.158660  0.804342  0.669961  1
