# generated using pymatgen
data_Zn17Ag9
_symmetry_space_group_name_H-M   'P 1'
_cell_length_a   8.18485396
_cell_length_b   8.15535571
_cell_length_c   8.15535435
_cell_angle_alpha   109.39782966
_cell_angle_beta   109.54451378
_cell_angle_gamma   109.54451266
_symmetry_Int_Tables_number   1
_chemical_formula_structural   Zn17Ag9
_chemical_formula_sum   'Zn17 Ag9'
_cell_volume   418.67897394
_cell_formula_units_Z   1
loop_
 _symmetry_equiv_pos_site_id
 _symmetry_equiv_pos_as_xyz
  1  'x, y, z'
loop_
 _atom_site_type_symbol
 _atom_site_label
 _atom_site_symmetry_multiplicity
 _atom_site_fract_x
 _atom_site_fract_y
 _atom_site_fract_z
 _atom_site_occupancy
  Zn  Zn0  1  0.218024  0.000000  0.000000  1
  Zn  Zn1  1  0.003077  0.220125  0.000000  1
  Zn  Zn2  1  0.003077  0.000000  0.220125  1
  Zn  Zn3  1  0.782952  0.779875  0.779875  1
  Zn  Zn4  1  0.345138  0.722371  0.000000  1
  Zn  Zn5  1  0.622767  0.277629  0.277629  1
  Zn  Zn6  1  0.345138  0.000000  0.722371  1
  Zn  Zn7  1  0.712040  0.342212  0.000000  1
  Zn  Zn8  1  0.000256  0.344247  0.714762  1
  Zn  Zn9  1  0.285496  0.629485  0.285238  1
  Zn  Zn10  1  0.285496  0.285238  0.629485  1
  Zn  Zn11  1  0.000256  0.714762  0.344247  1
  Zn  Zn12  1  0.712040  0.000000  0.342212  1
  Zn  Zn13  1  0.656009  0.655753  0.370515  1
  Zn  Zn14  1  0.369828  0.657788  0.657788  1
  Zn  Zn15  1  0.656009  0.370515  0.655753  1
  Zn  Zn16  1  0.651241  0.000000  0.000000  1
  Ag  Ag17  1  0.998774  0.641099  0.000000  1
  Ag  Ag18  1  0.998774  0.000000  0.641099  1
  Ag  Ag19  1  0.357675  0.358901  0.358901  1
  Ag  Ag20  1  0.000927  0.644609  0.644609  1
  Ag  Ag21  1  0.356318  0.000000  0.355391  1
  Ag  Ag22  1  0.356318  0.355391  0.000000  1
  Ag  Ag23  1  0.992553  0.347644  0.347644  1
  Ag  Ag24  1  0.644908  0.000000  0.652356  1
  Ag  Ag25  1  0.644908  0.652356  0.000000  1
