# generated using pymatgen
data_YbY7Re(B8Os)3
_symmetry_space_group_name_H-M   'P 1'
_cell_length_a   3.66318000
_cell_length_b   9.17721848
_cell_length_c   11.56576892
_cell_angle_alpha   90.02027831
_cell_angle_beta   90.00000000
_cell_angle_gamma   90.00000000
_symmetry_Int_Tables_number   1
_chemical_formula_structural   YbY7Re(B8Os)3
_chemical_formula_sum   'Yb1 Y7 Re1 B24 Os3'
_cell_volume   388.81571928
_cell_formula_units_Z   1
loop_
 _symmetry_equiv_pos_site_id
 _symmetry_equiv_pos_as_xyz
  1  'x, y, z'
loop_
 _atom_site_type_symbol
 _atom_site_label
 _atom_site_symmetry_multiplicity
 _atom_site_fract_x
 _atom_site_fract_y
 _atom_site_fract_z
 _atom_site_occupancy
  Yb  Yb0  1  0.000000  0.823602  0.085940  1
  Y  Y1  1  0.000000  0.177927  0.912657  1
  Y  Y2  1  0.000000  0.323172  0.415543  1
  Y  Y3  1  0.000000  0.676549  0.586722  1
  Y  Y4  1  0.000000  0.442908  0.129872  1
  Y  Y5  1  0.000000  0.558019  0.871443  1
  Y  Y6  1  0.000000  0.941768  0.369602  1
  Y  Y7  1  0.000000  0.056761  0.628313  1
  Re  Re8  1  0.000000  0.362832  0.678770  1
  B  B9  1  0.500000  0.053210  0.067159  1
  B  B10  1  0.500000  0.946100  0.932896  1
  B  B11  1  0.500000  0.553202  0.432945  1
  B  B12  1  0.500000  0.447056  0.567164  1
  B  B13  1  0.500000  0.247767  0.081620  1
  B  B14  1  0.500000  0.752891  0.918761  1
  B  B15  1  0.500000  0.746991  0.418336  1
  B  B16  1  0.500000  0.251700  0.581086  1
  B  B17  1  0.500000  0.290387  0.234432  1
  B  B18  1  0.500000  0.710245  0.766085  1
  B  B19  1  0.500000  0.789636  0.265289  1
  B  B20  1  0.500000  0.209061  0.734331  1
  B  B21  1  0.500000  0.130801  0.313244  1
  B  B22  1  0.500000  0.868929  0.685929  1
  B  B23  1  0.500000  0.631231  0.186169  1
  B  B24  1  0.500000  0.369260  0.814612  1
  B  B25  1  0.500000  0.483486  0.288338  1
  B  B26  1  0.500000  0.517978  0.712590  1
  B  B27  1  0.500000  0.983025  0.210959  1
  B  B28  1  0.500000  0.016591  0.787769  1
  B  B29  1  0.500000  0.103730  0.470182  1
  B  B30  1  0.500000  0.894905  0.528514  1
  B  B31  1  0.500000  0.602216  0.028979  1
  B  B32  1  0.500000  0.397626  0.972054  1
  Os  Os33  1  0.000000  0.138657  0.179090  1
  Os  Os34  1  0.000000  0.862753  0.821021  1
  Os  Os35  1  0.000000  0.637027  0.321583  1
