# generated using pymatgen
data_DyTmCo8(P3Rh)2
_symmetry_space_group_name_H-M   'P 1'
_cell_length_a   3.68381100
_cell_length_b   10.38745300
_cell_length_c   11.79909700
_cell_angle_alpha   90.00000000
_cell_angle_beta   90.00000000
_cell_angle_gamma   90.00000000
_symmetry_Int_Tables_number   1
_chemical_formula_structural   DyTmCo8(P3Rh)2
_chemical_formula_sum   'Dy2 Tm2 Co16 P12 Rh4'
_cell_volume   451.49732709
_cell_formula_units_Z   2
loop_
 _symmetry_equiv_pos_site_id
 _symmetry_equiv_pos_as_xyz
  1  'x, y, z'
loop_
 _atom_site_type_symbol
 _atom_site_label
 _atom_site_symmetry_multiplicity
 _atom_site_fract_x
 _atom_site_fract_y
 _atom_site_fract_z
 _atom_site_occupancy
  Dy  Dy0  1  0.750000  0.415393  0.295893  1
  Dy  Dy1  1  0.750000  0.084607  0.795893  1
  Tm  Tm2  1  0.250000  0.584524  0.703890  1
  Tm  Tm3  1  0.250000  0.915476  0.203890  1
  Co  Co4  1  0.250000  0.409575  0.488237  1
  Co  Co5  1  0.250000  0.090425  0.988237  1
  Co  Co6  1  0.750000  0.591442  0.513897  1
  Co  Co7  1  0.750000  0.908558  0.013897  1
  Co  Co8  1  0.250000  0.221245  0.176009  1
  Co  Co9  1  0.250000  0.278755  0.676009  1
  Co  Co10  1  0.750000  0.778136  0.824113  1
  Co  Co11  1  0.750000  0.721864  0.324113  1
  Co  Co12  1  0.250000  0.884421  0.701996  1
  Co  Co13  1  0.250000  0.615579  0.201996  1
  Co  Co14  1  0.750000  0.113858  0.297488  1
  Co  Co15  1  0.750000  0.386142  0.797488  1
  Co  Co16  1  0.250000  0.465822  0.929309  1
  Co  Co17  1  0.250000  0.034178  0.429309  1
  Co  Co18  1  0.750000  0.535812  0.069249  1
  Co  Co19  1  0.750000  0.964188  0.569249  1
  P  P20  1  0.250000  0.421808  0.112239  1
  P  P21  1  0.250000  0.078192  0.612239  1
  P  P22  1  0.750000  0.578881  0.886159  1
  P  P23  1  0.750000  0.921119  0.386159  1
  P  P24  1  0.250000  0.271322  0.865190  1
  P  P25  1  0.250000  0.228678  0.365190  1
  P  P26  1  0.750000  0.730056  0.135563  1
  P  P27  1  0.750000  0.769944  0.635563  1
  P  P28  1  0.250000  0.595228  0.389506  1
  P  P29  1  0.250000  0.904772  0.889506  1
  P  P30  1  0.750000  0.405736  0.610936  1
  P  P31  1  0.750000  0.094264  0.110936  1
  Rh  Rh32  1  0.250000  0.717234  0.991998  1
  Rh  Rh33  1  0.250000  0.782766  0.491998  1
  Rh  Rh34  1  0.750000  0.282798  0.008326  1
  Rh  Rh35  1  0.750000  0.217202  0.508326  1
