# generated using pymatgen
data_Ba17Sr3Si11Au
_symmetry_space_group_name_H-M   'P 1'
_cell_length_a   8.42846600
_cell_length_b   8.42846600
_cell_length_c   16.84397300
_cell_angle_alpha   90.00000000
_cell_angle_beta   90.00000000
_cell_angle_gamma   90.00000000
_symmetry_Int_Tables_number   1
_chemical_formula_structural   Ba17Sr3Si11Au
_chemical_formula_sum   'Ba17 Sr3 Si11 Au1'
_cell_volume   1196.57965677
_cell_formula_units_Z   1
loop_
 _symmetry_equiv_pos_site_id
 _symmetry_equiv_pos_as_xyz
  1  'x, y, z'
loop_
 _atom_site_type_symbol
 _atom_site_label
 _atom_site_symmetry_multiplicity
 _atom_site_fract_x
 _atom_site_fract_y
 _atom_site_fract_z
 _atom_site_occupancy
  Ba  Ba0  1  0.310119  0.672462  0.110608  1
  Ba  Ba1  1  0.172462  0.189881  0.110608  1
  Ba  Ba2  1  0.328791  0.694781  0.391382  1
  Ba  Ba3  1  0.664250  0.696183  0.890750  1
  Ba  Ba4  1  0.194781  0.171209  0.391382  1
  Ba  Ba5  1  0.671209  0.305219  0.391382  1
  Ba  Ba6  1  0.173061  0.806579  0.607434  1
  Ba  Ba7  1  0.335750  0.303817  0.890750  1
  Ba  Ba8  1  0.196183  0.835750  0.890750  1
  Ba  Ba9  1  0.826939  0.193421  0.607434  1
  Ba  Ba10  1  0.306579  0.326939  0.607434  1
  Ba  Ba11  1  0.805219  0.828791  0.391382  1
  Ba  Ba12  1  0.803817  0.164250  0.890750  1
  Ba  Ba13  1  0.827538  0.810119  0.110608  1
  Ba  Ba14  1  0.000000  0.500000  0.772667  1
  Ba  Ba15  1  0.689881  0.327538  0.110608  1
  Ba  Ba16  1  0.693421  0.673061  0.607434  1
  Sr  Sr17  1  0.500000  0.000000  0.723941  1
  Sr  Sr18  1  0.500000  0.000000  0.228397  1
  Sr  Sr19  1  0.000000  0.500000  0.275272  1
  Si  Si20  1  0.105124  0.100236  0.749427  1
  Si  Si21  1  0.399764  0.605124  0.749427  1
  Si  Si22  1  0.602728  0.605332  0.250216  1
  Si  Si23  1  0.500000  0.000000  0.014810  1
  Si  Si24  1  0.105332  0.897272  0.250216  1
  Si  Si25  1  0.600236  0.394876  0.749427  1
  Si  Si26  1  0.894876  0.899764  0.749427  1
  Si  Si27  1  0.397272  0.394668  0.250216  1
  Si  Si28  1  0.894668  0.102728  0.250216  1
  Si  Si29  1  0.500000  0.000000  0.515088  1
  Si  Si30  1  0.000000  0.500000  0.484766  1
  Au  Au31  1  0.000000  0.500000  0.985798  1
