# generated using pymatgen
data_LiEu2(SO4)3
_symmetry_space_group_name_H-M   'P 1'
_cell_length_a   9.59875508
_cell_length_b   9.59875573
_cell_length_c   9.59875521
_cell_angle_alpha   57.39710399
_cell_angle_beta   57.39710164
_cell_angle_gamma   57.39710508
_symmetry_Int_Tables_number   1
_chemical_formula_structural   LiEu2(SO4)3
_chemical_formula_sum   'Li2 Eu4 S6 O24'
_cell_volume   587.90240477
_cell_formula_units_Z   2
loop_
 _symmetry_equiv_pos_site_id
 _symmetry_equiv_pos_as_xyz
  1  'x, y, z'
loop_
 _atom_site_type_symbol
 _atom_site_label
 _atom_site_symmetry_multiplicity
 _atom_site_fract_x
 _atom_site_fract_y
 _atom_site_fract_z
 _atom_site_occupancy
  Li  Li0  1  0.000000  0.000000  0.000000  1
  Li  Li1  1  0.500000  0.500000  0.500000  1
  Eu  Eu2  1  0.349741  0.349741  0.349741  1
  Eu  Eu3  1  0.150259  0.150259  0.150259  1
  Eu  Eu4  1  0.650259  0.650259  0.650259  1
  Eu  Eu5  1  0.849741  0.849741  0.849741  1
  S  S6  1  0.750000  0.064661  0.435339  1
  S  S7  1  0.935339  0.564661  0.250000  1
  S  S8  1  0.564661  0.250000  0.935339  1
  S  S9  1  0.435339  0.750000  0.064661  1
  S  S10  1  0.064661  0.435339  0.750000  1
  S  S11  1  0.250000  0.935339  0.564661  1
  O  O12  1  0.895349  0.076620  0.259628  1
  O  O13  1  0.740372  0.104651  0.923380  1
  O  O14  1  0.928937  0.483896  0.685618  1
  O  O15  1  0.016104  0.571063  0.814382  1
  O  O16  1  0.604651  0.240372  0.423380  1
  O  O17  1  0.759628  0.576620  0.395349  1
  O  O18  1  0.923380  0.740372  0.104651  1
  O  O19  1  0.185618  0.983896  0.428937  1
  O  O20  1  0.516104  0.314382  0.071063  1
  O  O21  1  0.314382  0.071063  0.516104  1
  O  O22  1  0.428937  0.185618  0.983896  1
  O  O23  1  0.576620  0.395349  0.759628  1
  O  O24  1  0.423380  0.604651  0.240372  1
  O  O25  1  0.685618  0.928937  0.483896  1
  O  O26  1  0.571063  0.814382  0.016104  1
  O  O27  1  0.814382  0.016104  0.571063  1
  O  O28  1  0.483896  0.685618  0.928937  1
  O  O29  1  0.076620  0.259628  0.895349  1
  O  O30  1  0.240372  0.423380  0.604651  1
  O  O31  1  0.395349  0.759628  0.576620  1
  O  O32  1  0.071063  0.516104  0.314382  1
  O  O33  1  0.983896  0.428937  0.185618  1
  O  O34  1  0.259628  0.895349  0.076620  1
  O  O35  1  0.104651  0.923380  0.740372  1
