# generated using pymatgen
data_TbY19Cd3Ru2Au3
_symmetry_space_group_name_H-M   'P 1'
_cell_length_a   9.63253100
_cell_length_b   9.63253077
_cell_length_c   9.65785400
_cell_angle_alpha   90.00000000
_cell_angle_beta   90.00000000
_cell_angle_gamma   120.00000421
_symmetry_Int_Tables_number   1
_chemical_formula_structural   TbY19Cd3Ru2Au3
_chemical_formula_sum   'Tb1 Y19 Cd3 Ru2 Au3'
_cell_volume   776.05422855
_cell_formula_units_Z   1
loop_
 _symmetry_equiv_pos_site_id
 _symmetry_equiv_pos_as_xyz
  1  'x, y, z'
loop_
 _atom_site_type_symbol
 _atom_site_label
 _atom_site_symmetry_multiplicity
 _atom_site_fract_x
 _atom_site_fract_y
 _atom_site_fract_z
 _atom_site_occupancy
  Tb  Tb0  1  0.000000  0.000000  0.460195  1
  Y  Y1  1  0.000000  0.000000  0.037620  1
  Y  Y2  1  0.209184  0.790816  0.440168  1
  Y  Y3  1  0.209184  0.418369  0.440168  1
  Y  Y4  1  0.581631  0.790816  0.440168  1
  Y  Y5  1  0.791706  0.208294  0.558575  1
  Y  Y6  1  0.791706  0.583409  0.558575  1
  Y  Y7  1  0.416591  0.208294  0.558575  1
  Y  Y8  1  0.791727  0.208273  0.941192  1
  Y  Y9  1  0.791727  0.583451  0.941192  1
  Y  Y10  1  0.416549  0.208273  0.941192  1
  Y  Y11  1  0.209370  0.790630  0.060351  1
  Y  Y12  1  0.209370  0.418742  0.060351  1
  Y  Y13  1  0.581258  0.790630  0.060351  1
  Y  Y14  1  0.540433  0.459567  0.250328  1
  Y  Y15  1  0.540433  0.080864  0.250328  1
  Y  Y16  1  0.919136  0.459567  0.250328  1
  Y  Y17  1  0.458752  0.541248  0.749610  1
  Y  Y18  1  0.458752  0.917505  0.749610  1
  Y  Y19  1  0.082495  0.541248  0.749610  1
  Cd  Cd20  1  0.110058  0.889942  0.750229  1
  Cd  Cd21  1  0.110058  0.220114  0.750229  1
  Cd  Cd22  1  0.779886  0.889942  0.750229  1
  Ru  Ru23  1  0.333333  0.666667  0.250178  1
  Ru  Ru24  1  0.666667  0.333333  0.750066  1
  Au  Au25  1  0.869562  0.130438  0.250194  1
  Au  Au26  1  0.869562  0.739124  0.250194  1
  Au  Au27  1  0.260876  0.130438  0.250194  1
