# generated using pymatgen
data_CeThBeCoSi4
_symmetry_space_group_name_H-M   'P 1'
_cell_length_a   8.40953497
_cell_length_b   8.40953371
_cell_length_c   4.05578700
_cell_angle_alpha   90.00000000
_cell_angle_beta   90.00000000
_cell_angle_gamma   151.62522674
_symmetry_Int_Tables_number   1
_chemical_formula_structural   CeThBeCoSi4
_chemical_formula_sum   'Ce1 Th1 Be1 Co1 Si4'
_cell_volume   136.31045148
_cell_formula_units_Z   1
loop_
 _symmetry_equiv_pos_site_id
 _symmetry_equiv_pos_as_xyz
  1  'x, y, z'
loop_
 _atom_site_type_symbol
 _atom_site_label
 _atom_site_symmetry_multiplicity
 _atom_site_fract_x
 _atom_site_fract_y
 _atom_site_fract_z
 _atom_site_occupancy
  Ce  Ce0  1  0.389142  0.610858  0.250000  1
  Th  Th1  1  0.603843  0.396157  0.750000  1
  Be  Be2  1  0.824825  0.175175  0.750000  1
  Co  Co3  1  0.181776  0.818224  0.250000  1
  Si  Si4  1  0.961115  0.038885  0.750000  1
  Si  Si5  1  0.040154  0.959846  0.250000  1
  Si  Si6  1  0.250548  0.749452  0.750000  1
  Si  Si7  1  0.748598  0.251402  0.250000  1
