# generated using pymatgen
data_Nd4Pd3RhPb2
_symmetry_space_group_name_H-M   'P 1'
_cell_length_a   3.81568700
_cell_length_b   8.00211104
_cell_length_c   8.00211104
_cell_angle_alpha   90.09992613
_cell_angle_beta   90.00000000
_cell_angle_gamma   90.00000000
_symmetry_Int_Tables_number   1
_chemical_formula_structural   Nd4Pd3RhPb2
_chemical_formula_sum   'Nd4 Pd3 Rh1 Pb2'
_cell_volume   244.33249465
_cell_formula_units_Z   1
loop_
 _symmetry_equiv_pos_site_id
 _symmetry_equiv_pos_as_xyz
  1  'x, y, z'
loop_
 _atom_site_type_symbol
 _atom_site_label
 _atom_site_symmetry_multiplicity
 _atom_site_fract_x
 _atom_site_fract_y
 _atom_site_fract_z
 _atom_site_occupancy
  Nd  Nd0  1  0.500000  0.173420  0.673420  1
  Nd  Nd1  1  0.500000  0.817736  0.317736  1
  Nd  Nd2  1  0.500000  0.335631  0.175083  1
  Nd  Nd3  1  0.500000  0.675083  0.835631  1
  Pd  Pd4  1  0.000000  0.373574  0.873574  1
  Pd  Pd5  1  0.000000  0.875637  0.624005  1
  Pd  Pd6  1  0.000000  0.124005  0.375637  1
  Rh  Rh7  1  0.000000  0.625462  0.125462  1
  Pb  Pb8  1  0.000000  0.998841  0.000610  1
  Pb  Pb9  1  0.000000  0.500610  0.498841  1
