# generated using pymatgen
data_Tm2SnP6(IrRh)6
_symmetry_space_group_name_H-M   'P 1'
_cell_length_a   9.72338600
_cell_length_b   9.72338575
_cell_length_c   3.94177600
_cell_angle_alpha   90.00000000
_cell_angle_beta   90.00000000
_cell_angle_gamma   120.00000085
_symmetry_Int_Tables_number   1
_chemical_formula_structural   Tm2SnP6(IrRh)6
_chemical_formula_sum   'Tm2 Sn1 P6 Ir6 Rh6'
_cell_volume   322.74357947
_cell_formula_units_Z   1
loop_
 _symmetry_equiv_pos_site_id
 _symmetry_equiv_pos_as_xyz
  1  'x, y, z'
loop_
 _atom_site_type_symbol
 _atom_site_label
 _atom_site_symmetry_multiplicity
 _atom_site_fract_x
 _atom_site_fract_y
 _atom_site_fract_z
 _atom_site_occupancy
  Tm  Tm0  1  0.333333  0.666667  0.753652  1
  Tm  Tm1  1  0.666667  0.333333  0.246348  1
  Sn  Sn2  1  0.000000  0.000000  0.500000  1
  P  P3  1  0.407345  0.283784  0.745962  1
  P  P4  1  0.716216  0.123563  0.745962  1
  P  P5  1  0.876437  0.592655  0.745962  1
  P  P6  1  0.592655  0.716216  0.254038  1
  P  P7  1  0.283784  0.876437  0.254038  1
  P  P8  1  0.123563  0.407345  0.254038  1
  Ir  Ir9  1  0.457657  0.070169  0.747108  1
  Ir  Ir10  1  0.929831  0.387487  0.747108  1
  Ir  Ir11  1  0.612513  0.542343  0.747108  1
  Ir  Ir12  1  0.542343  0.929831  0.252892  1
  Ir  Ir13  1  0.070169  0.612513  0.252892  1
  Ir  Ir14  1  0.387487  0.457657  0.252892  1
  Rh  Rh15  1  0.165365  0.288530  0.760257  1
  Rh  Rh16  1  0.711470  0.876834  0.760257  1
  Rh  Rh17  1  0.123166  0.834635  0.760257  1
  Rh  Rh18  1  0.834635  0.711470  0.239743  1
  Rh  Rh19  1  0.288530  0.123166  0.239743  1
  Rh  Rh20  1  0.876834  0.165365  0.239743  1
