# generated using pymatgen
data_Pa2Bi2Sb2Pt
_symmetry_space_group_name_H-M   'P 1'
_cell_length_a   4.55948300
_cell_length_b   4.55948300
_cell_length_c   9.30871600
_cell_angle_alpha   90.00000000
_cell_angle_beta   90.00000000
_cell_angle_gamma   90.00000000
_symmetry_Int_Tables_number   1
_chemical_formula_structural   Pa2Bi2Sb2Pt
_chemical_formula_sum   'Pa2 Bi2 Sb2 Pt1'
_cell_volume   193.51782854
_cell_formula_units_Z   1
loop_
 _symmetry_equiv_pos_site_id
 _symmetry_equiv_pos_as_xyz
  1  'x, y, z'
loop_
 _atom_site_type_symbol
 _atom_site_label
 _atom_site_symmetry_multiplicity
 _atom_site_fract_x
 _atom_site_fract_y
 _atom_site_fract_z
 _atom_site_occupancy
  Pa  Pa0  1  0.500000  0.000000  0.216895  1
  Pa  Pa1  1  0.000000  0.500000  0.783105  1
  Bi  Bi2  1  0.000000  0.000000  0.500000  1
  Bi  Bi3  1  0.500000  0.500000  0.500000  1
  Sb  Sb4  1  0.500000  0.000000  0.835078  1
  Sb  Sb5  1  0.000000  0.500000  0.164922  1
  Pt  Pt6  1  0.000000  0.000000  0.000000  1
