# generated using pymatgen
data_Th2MgIn3Ru2
_symmetry_space_group_name_H-M   'P 1'
_cell_length_a   8.09466422
_cell_length_b   8.09466392
_cell_length_c   5.19330660
_cell_angle_alpha   79.81443600
_cell_angle_beta   79.81443461
_cell_angle_gamma   34.68233064
_symmetry_Int_Tables_number   1
_chemical_formula_structural   Th2MgIn3Ru2
_chemical_formula_sum   'Th2 Mg1 In3 Ru2'
_cell_volume   190.27873694
_cell_formula_units_Z   1
loop_
 _symmetry_equiv_pos_site_id
 _symmetry_equiv_pos_as_xyz
  1  'x, y, z'
loop_
 _atom_site_type_symbol
 _atom_site_label
 _atom_site_symmetry_multiplicity
 _atom_site_fract_x
 _atom_site_fract_y
 _atom_site_fract_z
 _atom_site_occupancy
  Th  Th0  1  0.833176  0.833176  0.587869  1
  Th  Th1  1  0.166824  0.166824  0.412131  1
  Mg  Mg2  1  0.000000  0.000000  0.000000  1
  In  In3  1  0.376579  0.376579  0.049928  1
  In  In4  1  0.500000  0.500000  0.500000  1
  In  In5  1  0.623421  0.623421  0.950072  1
  Ru  Ru6  1  0.792002  0.792002  0.119250  1
  Ru  Ru7  1  0.207998  0.207998  0.880750  1
