# generated using pymatgen
data_Ti3Ga2O
_symmetry_space_group_name_H-M   'P 1'
_cell_length_a   6.86818200
_cell_length_b   6.86818200
_cell_length_c   6.86818200
_cell_angle_alpha   90.00000000
_cell_angle_beta   90.00000000
_cell_angle_gamma   90.00000000
_symmetry_Int_Tables_number   1
_chemical_formula_structural   Ti3Ga2O
_chemical_formula_sum   'Ti12 Ga8 O4'
_cell_volume   323.98535922
_cell_formula_units_Z   4
loop_
 _symmetry_equiv_pos_site_id
 _symmetry_equiv_pos_as_xyz
  1  'x, y, z'
loop_
 _atom_site_type_symbol
 _atom_site_label
 _atom_site_symmetry_multiplicity
 _atom_site_fract_x
 _atom_site_fract_y
 _atom_site_fract_z
 _atom_site_occupancy
  Ti  Ti0  1  0.792547  0.957453  0.375000  1
  Ti  Ti1  1  0.707453  0.042547  0.875000  1
  Ti  Ti2  1  0.207453  0.457453  0.125000  1
  Ti  Ti3  1  0.292547  0.542547  0.625000  1
  Ti  Ti4  1  0.957453  0.375000  0.792547  1
  Ti  Ti5  1  0.042547  0.875000  0.707453  1
  Ti  Ti6  1  0.457453  0.125000  0.207453  1
  Ti  Ti7  1  0.542547  0.625000  0.292547  1
  Ti  Ti8  1  0.375000  0.792547  0.957453  1
  Ti  Ti9  1  0.875000  0.707453  0.042547  1
  Ti  Ti10  1  0.125000  0.207453  0.457453  1
  Ti  Ti11  1  0.625000  0.292547  0.542547  1
  Ga  Ga12  1  0.180504  0.819496  0.319496  1
  Ga  Ga13  1  0.319496  0.180504  0.819496  1
  Ga  Ga14  1  0.819496  0.319496  0.180504  1
  Ga  Ga15  1  0.680504  0.680504  0.680504  1
  Ga  Ga16  1  0.569496  0.430504  0.930504  1
  Ga  Ga17  1  0.430504  0.930504  0.569496  1
  Ga  Ga18  1  0.930504  0.569496  0.430504  1
  Ga  Ga19  1  0.069496  0.069496  0.069496  1
  O  O20  1  0.875000  0.125000  0.625000  1
  O  O21  1  0.625000  0.875000  0.125000  1
  O  O22  1  0.125000  0.625000  0.875000  1
  O  O23  1  0.375000  0.375000  0.375000  1
