# generated using pymatgen
data_SrCd10Ag
_symmetry_space_group_name_H-M   'P 1'
_cell_length_a   9.41254808
_cell_length_b   9.41254887
_cell_length_c   9.40307771
_cell_angle_alpha   99.68214326
_cell_angle_beta   99.68215049
_cell_angle_gamma   131.56195094
_symmetry_Int_Tables_number   1
_chemical_formula_structural   SrCd10Ag
_chemical_formula_sum   'Sr2 Cd20 Ag2'
_cell_volume   568.54611134
_cell_formula_units_Z   2
loop_
 _symmetry_equiv_pos_site_id
 _symmetry_equiv_pos_as_xyz
  1  'x, y, z'
loop_
 _atom_site_type_symbol
 _atom_site_label
 _atom_site_symmetry_multiplicity
 _atom_site_fract_x
 _atom_site_fract_y
 _atom_site_fract_z
 _atom_site_occupancy
  Sr  Sr0  1  0.750359  0.249641  0.500000  1
  Sr  Sr1  1  0.499641  0.500359  0.000000  1
  Cd  Cd2  1  0.993372  0.316327  0.919626  1
  Cd  Cd3  1  0.125000  0.875000  0.750000  1
  Cd  Cd4  1  0.679203  0.601491  0.677934  1
  Cd  Cd5  1  0.398509  0.320797  0.322066  1
  Cd  Cd6  1  0.683673  0.006628  0.080375  1
  Cd  Cd7  1  0.851491  0.429203  0.177934  1
  Cd  Cd8  1  0.405719  0.080958  0.084987  1
  Cd  Cd9  1  0.996579  0.003421  0.000000  1
  Cd  Cd10  1  0.844281  0.669042  0.415013  1
  Cd  Cd11  1  0.253421  0.746579  0.500000  1
  Cd  Cd12  1  0.327974  0.740455  0.174667  1
  Cd  Cd13  1  0.125000  0.875000  0.250000  1
  Cd  Cd14  1  0.256628  0.433673  0.580374  1
  Cd  Cd15  1  0.566327  0.743372  0.419625  1
  Cd  Cd16  1  0.990455  0.077974  0.674667  1
  Cd  Cd17  1  0.922026  0.009545  0.325333  1
  Cd  Cd18  1  0.330958  0.155719  0.584987  1
  Cd  Cd19  1  0.259545  0.672026  0.825333  1
  Cd  Cd20  1  0.570797  0.148509  0.822066  1
  Cd  Cd21  1  0.919042  0.594281  0.915013  1
  Ag  Ag22  1  0.625000  0.875000  0.750000  1
  Ag  Ag23  1  0.125000  0.375000  0.250000  1
