# generated using pymatgen
data_La2Yb7Pt6
_symmetry_space_group_name_H-M   'P 1'
_cell_length_a   7.64955179
_cell_length_b   7.63528399
_cell_length_c   7.60703226
_cell_angle_alpha   70.16907132
_cell_angle_beta   70.11760913
_cell_angle_gamma   69.89667756
_symmetry_Int_Tables_number   1
_chemical_formula_structural   La2Yb7Pt6
_chemical_formula_sum   'La2 Yb7 Pt6'
_cell_volume   379.72012883
_cell_formula_units_Z   1
loop_
 _symmetry_equiv_pos_site_id
 _symmetry_equiv_pos_as_xyz
  1  'x, y, z'
loop_
 _atom_site_type_symbol
 _atom_site_label
 _atom_site_symmetry_multiplicity
 _atom_site_fract_x
 _atom_site_fract_y
 _atom_site_fract_z
 _atom_site_occupancy
  La  La0  1  0.144790  0.672769  0.397614  1
  La  La1  1  0.402707  0.144272  0.672485  1
  Yb  Yb2  1  0.991951  0.004435  0.998362  1
  Yb  Yb3  1  0.805531  0.803133  0.810811  1
  Yb  Yb4  1  0.197250  0.196497  0.196371  1
  Yb  Yb5  1  0.329170  0.600671  0.855644  1
  Yb  Yb6  1  0.848221  0.327441  0.599615  1
  Yb  Yb7  1  0.602700  0.847893  0.325705  1
  Yb  Yb8  1  0.673439  0.400733  0.146989  1
  Pt  Pt9  1  0.169231  0.954460  0.589239  1
  Pt  Pt10  1  0.590307  0.169150  0.952614  1
  Pt  Pt11  1  0.954617  0.586801  0.165358  1
  Pt  Pt12  1  0.829229  0.045145  0.412669  1
  Pt  Pt13  1  0.409718  0.833151  0.049452  1
  Pt  Pt14  1  0.051139  0.413449  0.827072  1
