# generated using pymatgen
data_Tb7Y3In8(PdRu)2
_symmetry_space_group_name_H-M   'P 1'
_cell_length_a   3.61196200
_cell_length_b   8.18673774
_cell_length_c   18.47323900
_cell_angle_alpha   90.04321795
_cell_angle_beta   90.00000000
_cell_angle_gamma   90.00000000
_symmetry_Int_Tables_number   1
_chemical_formula_structural   Tb7Y3In8(PdRu)2
_chemical_formula_sum   'Tb7 Y3 In8 Pd2 Ru2'
_cell_volume   546.25695083
_cell_formula_units_Z   1
loop_
 _symmetry_equiv_pos_site_id
 _symmetry_equiv_pos_as_xyz
  1  'x, y, z'
loop_
 _atom_site_type_symbol
 _atom_site_label
 _atom_site_symmetry_multiplicity
 _atom_site_fract_x
 _atom_site_fract_y
 _atom_site_fract_z
 _atom_site_occupancy
  Tb  Tb0  1  0.500000  0.230731  0.778514  1
  Tb  Tb1  1  0.500000  0.769441  0.221521  1
  Tb  Tb2  1  0.500000  0.246660  0.279424  1
  Tb  Tb3  1  0.500000  0.752909  0.720619  1
  Tb  Tb4  1  0.500000  0.117797  0.587248  1
  Tb  Tb5  1  0.500000  0.882353  0.412820  1
  Tb  Tb6  1  0.500000  0.379718  0.085710  1
  Y  Y7  1  0.500000  0.620143  0.914634  1
  Y  Y8  1  0.500000  0.000708  0.000091  1
  Y  Y9  1  0.500000  0.500136  0.499972  1
  In  In10  1  0.000000  0.070967  0.150358  1
  In  In11  1  0.000000  0.928570  0.849730  1
  In  In12  1  0.000000  0.425652  0.650186  1
  In  In13  1  0.000000  0.574132  0.349838  1
  In  In14  1  0.000000  0.206582  0.430427  1
  In  In15  1  0.000000  0.793586  0.569591  1
  In  In16  1  0.000000  0.293285  0.932640  1
  In  In17  1  0.000000  0.707097  0.067091  1
  Pd  Pd18  1  0.000000  0.480165  0.196394  1
  Pd  Pd19  1  0.000000  0.519574  0.803146  1
  Ru  Ru20  1  0.000000  0.017728  0.695290  1
  Ru  Ru21  1  0.000000  0.982065  0.304755  1
