# generated using pymatgen
data_TiBe9V2
_symmetry_space_group_name_H-M   'P 1'
_cell_length_a   7.35685420
_cell_length_b   7.35685386
_cell_length_c   7.35685304
_cell_angle_alpha   34.54237043
_cell_angle_beta   34.54237395
_cell_angle_gamma   34.54236117
_symmetry_Int_Tables_number   1
_chemical_formula_structural   TiBe9V2
_chemical_formula_sum   'Ti1 Be9 V2'
_cell_volume   114.21471894
_cell_formula_units_Z   1
loop_
 _symmetry_equiv_pos_site_id
 _symmetry_equiv_pos_as_xyz
  1  'x, y, z'
loop_
 _atom_site_type_symbol
 _atom_site_label
 _atom_site_symmetry_multiplicity
 _atom_site_fract_x
 _atom_site_fract_y
 _atom_site_fract_z
 _atom_site_occupancy
  Ti  Ti0  1  0.000000  0.000000  0.000000  1
  Be  Be1  1  0.413263  0.921357  0.413263  1
  Be  Be2  1  0.413263  0.413263  0.921357  1
  Be  Be3  1  0.921357  0.413263  0.413263  1
  Be  Be4  1  0.586737  0.078643  0.586737  1
  Be  Be5  1  0.586737  0.586737  0.078643  1
  Be  Be6  1  0.078643  0.586737  0.586737  1
  Be  Be7  1  0.665331  0.665331  0.665331  1
  Be  Be8  1  0.334669  0.334669  0.334669  1
  Be  Be9  1  0.500000  0.500000  0.500000  1
  V  V10  1  0.855409  0.855409  0.855409  1
  V  V11  1  0.144591  0.144591  0.144591  1
