# generated using pymatgen
data_Dy2YAlCo3
_symmetry_space_group_name_H-M   'P 1'
_cell_length_a   5.42621456
_cell_length_b   5.42621517
_cell_length_c   12.99018605
_cell_angle_alpha   89.88186708
_cell_angle_beta   90.11813332
_cell_angle_gamma   136.16463010
_symmetry_Int_Tables_number   1
_chemical_formula_structural   Dy2YAlCo3
_chemical_formula_sum   'Dy4 Y2 Al2 Co6'
_cell_volume   264.90100777
_cell_formula_units_Z   2
loop_
 _symmetry_equiv_pos_site_id
 _symmetry_equiv_pos_as_xyz
  1  'x, y, z'
loop_
 _atom_site_type_symbol
 _atom_site_label
 _atom_site_symmetry_multiplicity
 _atom_site_fract_x
 _atom_site_fract_y
 _atom_site_fract_z
 _atom_site_occupancy
  Dy  Dy0  1  0.793657  0.206343  0.395896  1
  Dy  Dy1  1  0.206343  0.793657  0.604104  1
  Dy  Dy2  1  0.507918  0.492082  0.250376  1
  Dy  Dy3  1  0.492082  0.507918  0.749624  1
  Y  Y4  1  0.793961  0.206039  0.104591  1
  Y  Y5  1  0.206039  0.793961  0.895409  1
  Al  Al6  1  0.500000  0.500000  0.500000  1
  Al  Al7  1  0.500000  0.500000  0.000000  1
  Co  Co8  1  0.083113  0.916887  0.406719  1
  Co  Co9  1  0.916887  0.083113  0.593281  1
  Co  Co10  1  0.082812  0.917188  0.094110  1
  Co  Co11  1  0.917188  0.082812  0.905890  1
  Co  Co12  1  0.204537  0.795463  0.250743  1
  Co  Co13  1  0.795463  0.204537  0.749257  1
