# generated using pymatgen
data_PrSmCo6(SiB)2
_symmetry_space_group_name_H-M   'P 1'
_cell_length_a   5.20998602
_cell_length_b   5.20882039
_cell_length_c   6.46523300
_cell_angle_alpha   90.00000000
_cell_angle_beta   90.00000000
_cell_angle_gamma   120.01793218
_symmetry_Int_Tables_number   1
_chemical_formula_structural   PrSmCo6(SiB)2
_chemical_formula_sum   'Pr1 Sm1 Co6 Si2 B2'
_cell_volume   151.91905466
_cell_formula_units_Z   1
loop_
 _symmetry_equiv_pos_site_id
 _symmetry_equiv_pos_as_xyz
  1  'x, y, z'
loop_
 _atom_site_type_symbol
 _atom_site_label
 _atom_site_symmetry_multiplicity
 _atom_site_fract_x
 _atom_site_fract_y
 _atom_site_fract_z
 _atom_site_occupancy
  Pr  Pr0  1  0.999959  0.000001  0.000000  1
  Sm  Sm1  1  0.999991  0.999999  0.500000  1
  Co  Co2  1  0.499988  0.000000  0.284259  1
  Co  Co3  1  0.499987  0.500001  0.284245  1
  Co  Co4  1  0.999986  0.499998  0.284231  1
  Co  Co5  1  0.499988  0.000000  0.715741  1
  Co  Co6  1  0.499987  0.500001  0.715754  1
  Co  Co7  1  0.999986  0.499998  0.715768  1
  Si  Si8  1  0.333345  0.666767  0.000000  1
  Si  Si9  1  0.666613  0.333233  0.000000  1
  B  B10  1  0.333307  0.666697  0.500000  1
  B  B11  1  0.666663  0.333303  0.500000  1
