# generated using pymatgen
data_LiMgCo3NiP7Ru8
_symmetry_space_group_name_H-M   'P 1'
_cell_length_a   9.17744400
_cell_length_b   9.29095484
_cell_length_c   3.72953400
_cell_angle_alpha   90.00000000
_cell_angle_beta   90.00000000
_cell_angle_gamma   119.44886992
_symmetry_Int_Tables_number   1
_chemical_formula_structural   LiMgCo3NiP7Ru8
_chemical_formula_sum   'Li1 Mg1 Co3 Ni1 P7 Ru8'
_cell_volume   276.91882571
_cell_formula_units_Z   1
loop_
 _symmetry_equiv_pos_site_id
 _symmetry_equiv_pos_as_xyz
  1  'x, y, z'
loop_
 _atom_site_type_symbol
 _atom_site_label
 _atom_site_symmetry_multiplicity
 _atom_site_fract_x
 _atom_site_fract_y
 _atom_site_fract_z
 _atom_site_occupancy
  Li  Li0  1  0.001285  0.000327  0.000000  1
  Mg  Mg1  1  0.332933  0.667013  0.500000  1
  Co  Co2  1  0.785376  0.177789  0.000000  1
  Co  Co3  1  0.390779  0.219333  0.000000  1
  Co  Co4  1  0.823045  0.600035  0.000000  1
  Ni  Ni5  1  0.094207  0.400626  0.000000  1
  P  P6  1  0.560041  0.924703  0.000000  1
  P  P7  1  0.363565  0.443609  0.000000  1
  P  P8  1  0.078156  0.633271  0.000000  1
  P  P9  1  0.945488  0.207579  0.500000  1
  P  P10  1  0.261570  0.052315  0.500000  1
  P  P11  1  0.783833  0.732089  0.500000  1
  P  P12  1  0.666288  0.331566  0.000000  1
  Ru  Ru13  1  0.304837  0.904651  0.000000  1
  Ru  Ru14  1  0.597374  0.692996  0.000000  1
  Ru  Ru15  1  0.719880  0.945555  0.500000  1
  Ru  Ru16  1  0.224473  0.289285  0.500000  1
  Ru  Ru17  1  0.052395  0.772918  0.500000  1
  Ru  Ru18  1  0.548860  0.133297  0.500000  1
  Ru  Ru19  1  0.582655  0.449249  0.500000  1
  Ru  Ru20  1  0.882961  0.421795  0.500000  1
