# generated using pymatgen
data_Li4Ac4AlSi5
_symmetry_space_group_name_H-M   'P 1'
_cell_length_a   10.06550861
_cell_length_b   10.06550820
_cell_length_c   7.17351146
_cell_angle_alpha   89.75223290
_cell_angle_beta   90.24776742
_cell_angle_gamma   153.23588453
_symmetry_Int_Tables_number   1
_chemical_formula_structural   Li4Ac4AlSi5
_chemical_formula_sum   'Li4 Ac4 Al1 Si5'
_cell_volume   327.27938656
_cell_formula_units_Z   1
loop_
 _symmetry_equiv_pos_site_id
 _symmetry_equiv_pos_as_xyz
  1  'x, y, z'
loop_
 _atom_site_type_symbol
 _atom_site_label
 _atom_site_symmetry_multiplicity
 _atom_site_fract_x
 _atom_site_fract_y
 _atom_site_fract_z
 _atom_site_occupancy
  Li  Li0  1  0.812729  0.187271  0.564317  1
  Li  Li1  1  0.187039  0.812961  0.438295  1
  Li  Li2  1  0.187115  0.812885  0.059959  1
  Li  Li3  1  0.810715  0.189285  0.935501  1
  Ac  Ac4  1  0.555241  0.444759  0.252460  1
  Ac  Ac5  1  0.446685  0.553315  0.743900  1
  Ac  Ac6  1  0.337554  0.662446  0.252410  1
  Ac  Ac7  1  0.660360  0.339640  0.749182  1
  Al  Al8  1  0.944245  0.055755  0.078862  1
  Si  Si9  1  0.057148  0.942852  0.917592  1
  Si  Si10  1  0.055470  0.944530  0.581151  1
  Si  Si11  1  0.945960  0.054040  0.426420  1
  Si  Si12  1  0.720205  0.279795  0.250740  1
  Si  Si13  1  0.279534  0.720466  0.749211  1
