# generated using pymatgen
data_Rb2Mn2Nb4O13
_symmetry_space_group_name_H-M   'P 1'
_cell_length_a   8.71146467
_cell_length_b   8.71146379
_cell_length_c   9.73778343
_cell_angle_alpha   79.59267962
_cell_angle_beta   79.59268137
_cell_angle_gamma   26.19553813
_symmetry_Int_Tables_number   1
_chemical_formula_structural   Rb2Mn2Nb4O13
_chemical_formula_sum   'Rb2 Mn2 Nb4 O13'
_cell_volume   320.55975221
_cell_formula_units_Z   1
loop_
 _symmetry_equiv_pos_site_id
 _symmetry_equiv_pos_as_xyz
  1  'x, y, z'
loop_
 _atom_site_type_symbol
 _atom_site_label
 _atom_site_symmetry_multiplicity
 _atom_site_fract_x
 _atom_site_fract_y
 _atom_site_fract_z
 _atom_site_occupancy
  Rb  Rb0  1  0.549232  0.549232  0.751709  1
  Rb  Rb1  1  0.450768  0.450768  0.248291  1
  Mn  Mn2  1  0.765532  0.765532  0.275654  1
  Mn  Mn3  1  0.234468  0.234468  0.724346  1
  Nb  Nb4  1  0.833116  0.833116  0.933665  1
  Nb  Nb5  1  0.883806  0.883806  0.584146  1
  Nb  Nb6  1  0.166884  0.166884  0.066335  1
  Nb  Nb7  1  0.116194  0.116194  0.415854  1
  O  O8  1  0.621604  0.621604  0.385827  1
  O  O9  1  0.378396  0.378396  0.614173  1
  O  O10  1  0.000000  0.000000  0.500000  1
  O  O11  1  0.701046  0.701046  0.060250  1
  O  O12  1  0.298954  0.298954  0.939750  1
  O  O13  1  0.161179  0.161179  0.573688  1
  O  O14  1  0.838821  0.838821  0.426312  1
  O  O15  1  0.073112  0.073112  0.196289  1
  O  O16  1  0.778585  0.778585  0.738016  1
  O  O17  1  0.221415  0.221415  0.261984  1
  O  O18  1  0.926888  0.926888  0.803711  1
  O  O19  1  0.133939  0.133939  0.895304  1
  O  O20  1  0.866061  0.866061  0.104696  1
