# generated using pymatgen
data_Rb3Bi3(PS4)4
_symmetry_space_group_name_H-M   'P 1'
_cell_length_a   9.43913534
_cell_length_b   10.78614592
_cell_length_c   14.83276000
_cell_angle_alpha   85.78477670
_cell_angle_beta   87.89586915
_cell_angle_gamma   80.67968246
_symmetry_Int_Tables_number   1
_chemical_formula_structural   Rb3Bi3(PS4)4
_chemical_formula_sum   'Rb6 Bi6 P8 S32'
_cell_volume   1485.71138927
_cell_formula_units_Z   2
loop_
 _symmetry_equiv_pos_site_id
 _symmetry_equiv_pos_as_xyz
  1  'x, y, z'
loop_
 _atom_site_type_symbol
 _atom_site_label
 _atom_site_symmetry_multiplicity
 _atom_site_fract_x
 _atom_site_fract_y
 _atom_site_fract_z
 _atom_site_occupancy
  Rb  Rb0  1  0.621777  0.197646  0.254806  1
  Rb  Rb1  1  0.736734  0.422791  0.648067  1
  Rb  Rb2  1  0.210939  0.077294  0.086712  1
  Rb  Rb3  1  0.378223  0.802354  0.745194  1
  Rb  Rb4  1  0.789061  0.922706  0.913288  1
  Rb  Rb5  1  0.263266  0.577209  0.351933  1
  Bi  Bi6  1  0.765987  0.986262  0.526670  1
  Bi  Bi7  1  0.750230  0.462868  0.995592  1
  Bi  Bi8  1  0.249770  0.537131  0.004408  1
  Bi  Bi9  1  0.234013  0.013738  0.473330  1
  Bi  Bi10  1  0.242784  0.291160  0.729738  1
  Bi  Bi11  1  0.757216  0.708840  0.270262  1
  P  P12  1  0.447287  0.242156  0.514574  1
  P  P13  1  0.001332  0.932198  0.319292  1
  P  P14  1  0.991912  0.437827  0.174866  1
  P  P15  1  0.476517  0.715853  0.096683  1
  P  P16  1  0.998668  0.067802  0.680708  1
  P  P17  1  0.523483  0.284147  0.903317  1
  P  P18  1  0.008088  0.562173  0.825134  1
  P  P19  1  0.552713  0.757844  0.485426  1
  S  S20  1  0.075730  0.521155  0.695354  1
  S  S21  1  0.055429  0.398368  0.908749  1
  S  S22  1  0.102840  0.057071  0.798458  1
  S  S23  1  0.944571  0.601632  0.091251  1
  S  S24  1  0.678111  0.757549  0.595971  1
  S  S25  1  0.624778  0.600110  0.415361  1
  S  S26  1  0.583259  0.564131  0.174960  1
  S  S27  1  0.891440  0.298052  0.130113  1
  S  S28  1  0.501589  0.668413  0.962505  1
  S  S29  1  0.654447  0.247045  0.472659  1
  S  S30  1  0.321889  0.242451  0.404029  1
  S  S31  1  0.375222  0.399890  0.584639  1
  S  S32  1  0.942783  0.783980  0.401751  1
  S  S33  1  0.792052  0.621852  0.830937  1
  S  S34  1  0.221059  0.915568  0.303398  1
  S  S35  1  0.047954  0.905768  0.609470  1
  S  S36  1  0.345553  0.752955  0.527341  1
  S  S37  1  0.439245  0.083440  0.601555  1
  S  S38  1  0.742635  0.267929  0.882403  1
  S  S39  1  0.560755  0.916560  0.398445  1
  S  S40  1  0.257365  0.732071  0.117597  1
  S  S41  1  0.558521  0.871344  0.121346  1
  S  S42  1  0.108560  0.701948  0.869887  1
  S  S43  1  0.952046  0.094232  0.390530  1
  S  S44  1  0.498411  0.331587  0.037495  1
  S  S45  1  0.778941  0.084432  0.696602  1
  S  S46  1  0.441479  0.128656  0.878654  1
  S  S47  1  0.897160  0.942929  0.201542  1
  S  S48  1  0.924270  0.478845  0.304646  1
  S  S49  1  0.057217  0.216020  0.598249  1
  S  S50  1  0.207948  0.378148  0.169063  1
  S  S51  1  0.416741  0.435869  0.825040  1
