# generated using pymatgen
data_Er12Co4BiRh
_symmetry_space_group_name_H-M   'P 1'
_cell_length_a   8.26597912
_cell_length_b   8.26597908
_cell_length_c   8.26597974
_cell_angle_alpha   110.75086701
_cell_angle_beta   111.02279811
_cell_angle_gamma   106.67576506
_symmetry_Int_Tables_number   1
_chemical_formula_structural   Er12Co4BiRh
_chemical_formula_sum   'Er12 Co4 Bi1 Rh1'
_cell_volume   433.99750239
_cell_formula_units_Z   1
loop_
 _symmetry_equiv_pos_site_id
 _symmetry_equiv_pos_as_xyz
  1  'x, y, z'
loop_
 _atom_site_type_symbol
 _atom_site_label
 _atom_site_symmetry_multiplicity
 _atom_site_fract_x
 _atom_site_fract_y
 _atom_site_fract_z
 _atom_site_occupancy
  Er  Er0  1  0.286743  0.183495  0.470239  1
  Er  Er1  1  0.713257  0.816505  0.529761  1
  Er  Er2  1  0.286743  0.816505  0.103248  1
  Er  Er3  1  0.713257  0.183495  0.896752  1
  Er  Er4  1  0.620140  0.311550  0.308590  1
  Er  Er5  1  0.379860  0.688450  0.691410  1
  Er  Er6  1  0.002961  0.311550  0.691410  1
  Er  Er7  1  0.997039  0.688450  0.308590  1
  Er  Er8  1  0.211921  0.409984  0.198063  1
  Er  Er9  1  0.788079  0.590016  0.801937  1
  Er  Er10  1  0.211921  0.013858  0.801937  1
  Er  Er11  1  0.788079  0.986142  0.198063  1
  Co  Co12  1  0.000000  0.375850  0.375850  1
  Co  Co13  1  0.000000  0.624150  0.624150  1
  Co  Co14  1  0.388591  0.888591  0.500000  1
  Co  Co15  1  0.611409  0.111409  0.500000  1
  Bi  Bi16  1  0.500000  0.500000  0.000000  1
  Rh  Rh17  1  0.000000  0.000000  0.000000  1
