# generated using pymatgen
data_DyHo3Cd2Si3Ge
_symmetry_space_group_name_H-M   'P 1'
_cell_length_a   7.17805087
_cell_length_b   7.17814816
_cell_length_c   4.20208400
_cell_angle_alpha   90.00000000
_cell_angle_beta   90.00000000
_cell_angle_gamma   90.04975897
_symmetry_Int_Tables_number   1
_chemical_formula_structural   DyHo3Cd2Si3Ge
_chemical_formula_sum   'Dy1 Ho3 Cd2 Si3 Ge1'
_cell_volume   216.51276979
_cell_formula_units_Z   1
loop_
 _symmetry_equiv_pos_site_id
 _symmetry_equiv_pos_as_xyz
  1  'x, y, z'
loop_
 _atom_site_type_symbol
 _atom_site_label
 _atom_site_symmetry_multiplicity
 _atom_site_fract_x
 _atom_site_fract_y
 _atom_site_fract_z
 _atom_site_occupancy
  Dy  Dy0  1  0.322382  0.819912  0.500000  1
  Ho  Ho1  1  0.680270  0.177733  0.500000  1
  Ho  Ho2  1  0.175829  0.324052  0.500000  1
  Ho  Ho3  1  0.822753  0.677139  0.500000  1
  Cd  Cd4  1  0.501467  0.502831  0.000000  1
  Cd  Cd5  1  0.996717  0.998737  0.000000  1
  Si  Si6  1  0.117036  0.617078  0.000000  1
  Si  Si7  1  0.882494  0.382539  0.000000  1
  Si  Si8  1  0.620630  0.879738  0.000000  1
  Ge  Ge9  1  0.380423  0.120240  0.000000  1
