# generated using pymatgen
data_LiPr6Nd2CdIr2
_symmetry_space_group_name_H-M   'P 1'
_cell_length_a   10.03795896
_cell_length_b   10.03795864
_cell_length_c   10.02881700
_cell_angle_alpha   60.03012466
_cell_angle_beta   60.03012572
_cell_angle_gamma   60.05193652
_symmetry_Int_Tables_number   1
_chemical_formula_structural   LiPr6Nd2CdIr2
_chemical_formula_sum   'Li2 Pr12 Nd4 Cd2 Ir4'
_cell_volume   715.14393388
_cell_formula_units_Z   2
loop_
 _symmetry_equiv_pos_site_id
 _symmetry_equiv_pos_as_xyz
  1  'x, y, z'
loop_
 _atom_site_type_symbol
 _atom_site_label
 _atom_site_symmetry_multiplicity
 _atom_site_fract_x
 _atom_site_fract_y
 _atom_site_fract_z
 _atom_site_occupancy
  Li  Li0  1  0.571663  0.571663  0.576465  1
  Li  Li1  1  0.571663  0.571663  0.280208  1
  Pr  Pr2  1  0.811379  0.189149  0.189817  1
  Pr  Pr3  1  0.189149  0.811379  0.809655  1
  Pr  Pr4  1  0.189149  0.811379  0.189817  1
  Pr  Pr5  1  0.811379  0.189149  0.809655  1
  Pr  Pr6  1  0.192138  0.192138  0.807862  1
  Pr  Pr7  1  0.814758  0.814758  0.185242  1
  Pr  Pr8  1  0.938893  0.561668  0.561884  1
  Pr  Pr9  1  0.561668  0.938893  0.937554  1
  Pr  Pr10  1  0.561668  0.938893  0.561884  1
  Pr  Pr11  1  0.938893  0.561668  0.937554  1
  Pr  Pr12  1  0.562106  0.562106  0.937894  1
  Pr  Pr13  1  0.938716  0.938716  0.561284  1
  Nd  Nd14  1  0.347022  0.347022  0.348022  1
  Nd  Nd15  1  0.347022  0.347022  0.957933  1
  Nd  Nd16  1  0.346183  0.961863  0.345977  1
  Nd  Nd17  1  0.961863  0.346183  0.345977  1
  Cd  Cd18  1  0.582173  0.258511  0.579657  1
  Cd  Cd19  1  0.258511  0.582173  0.579657  1
  Ir  Ir20  1  0.142646  0.142646  0.140785  1
  Ir  Ir21  1  0.142646  0.142646  0.573921  1
  Ir  Ir22  1  0.143784  0.574921  0.140648  1
  Ir  Ir23  1  0.574921  0.143784  0.140648  1
