# generated using pymatgen
data_Rb5AgAs2
_symmetry_space_group_name_H-M   'P 1'
_cell_length_a   6.10206500
_cell_length_b   6.10206449
_cell_length_c   20.23586700
_cell_angle_alpha   90.00000000
_cell_angle_beta   90.00000000
_cell_angle_gamma   119.99999737
_symmetry_Int_Tables_number   1
_chemical_formula_structural   Rb5AgAs2
_chemical_formula_sum   'Rb10 Ag2 As4'
_cell_volume   652.53841230
_cell_formula_units_Z   2
loop_
 _symmetry_equiv_pos_site_id
 _symmetry_equiv_pos_as_xyz
  1  'x, y, z'
loop_
 _atom_site_type_symbol
 _atom_site_label
 _atom_site_symmetry_multiplicity
 _atom_site_fract_x
 _atom_site_fract_y
 _atom_site_fract_z
 _atom_site_occupancy
  Rb  Rb0  1  0.333333  0.666667  0.549200  1
  Rb  Rb1  1  0.666667  0.333333  0.049200  1
  Rb  Rb2  1  0.666667  0.333333  0.450800  1
  Rb  Rb3  1  0.333333  0.666667  0.950800  1
  Rb  Rb4  1  0.000000  0.000000  0.145169  1
  Rb  Rb5  1  0.000000  0.000000  0.645169  1
  Rb  Rb6  1  0.000000  0.000000  0.854831  1
  Rb  Rb7  1  0.000000  0.000000  0.354831  1
  Rb  Rb8  1  0.333333  0.666667  0.750000  1
  Rb  Rb9  1  0.666667  0.333333  0.250000  1
  Ag  Ag10  1  0.333333  0.666667  0.250000  1
  Ag  Ag11  1  0.666667  0.333333  0.750000  1
  As  As12  1  0.333333  0.666667  0.376056  1
  As  As13  1  0.666667  0.333333  0.876056  1
  As  As14  1  0.666667  0.333333  0.623944  1
  As  As15  1  0.333333  0.666667  0.123944  1
