# generated using pymatgen
data_AcCI
_symmetry_space_group_name_H-M   'P 1'
_cell_length_a   4.51764839
_cell_length_b   4.51764861
_cell_length_c   11.68486747
_cell_angle_alpha   87.53904207
_cell_angle_beta   87.53904307
_cell_angle_gamma   56.61314649
_symmetry_Int_Tables_number   1
_chemical_formula_structural   AcCI
_chemical_formula_sum   'Ac2 C2 I2'
_cell_volume   198.88616937
_cell_formula_units_Z   2
loop_
 _symmetry_equiv_pos_site_id
 _symmetry_equiv_pos_as_xyz
  1  'x, y, z'
loop_
 _atom_site_type_symbol
 _atom_site_label
 _atom_site_symmetry_multiplicity
 _atom_site_fract_x
 _atom_site_fract_y
 _atom_site_fract_z
 _atom_site_occupancy
  Ac  Ac0  1  0.854166  0.854166  0.134399  1
  Ac  Ac1  1  0.145834  0.145834  0.865601  1
  C  C2  1  0.572310  0.572310  0.025817  1
  C  C3  1  0.427690  0.427690  0.974183  1
  I  I4  1  0.824762  0.824762  0.673533  1
  I  I5  1  0.175238  0.175238  0.326467  1
