# generated using pymatgen
data_Zr8Fe3Co4Si14Ni
_symmetry_space_group_name_H-M   'P 1'
_cell_length_a   9.49670625
_cell_length_b   9.50402304
_cell_length_c   9.50560523
_cell_angle_alpha   94.15742950
_cell_angle_beta   94.14835224
_cell_angle_gamma   148.78525149
_symmetry_Int_Tables_number   1
_chemical_formula_structural   Zr8Fe3Co4Si14Ni
_chemical_formula_sum   'Zr8 Fe3 Co4 Si14 Ni1'
_cell_volume   428.21851496
_cell_formula_units_Z   1
loop_
 _symmetry_equiv_pos_site_id
 _symmetry_equiv_pos_as_xyz
  1  'x, y, z'
loop_
 _atom_site_type_symbol
 _atom_site_label
 _atom_site_symmetry_multiplicity
 _atom_site_fract_x
 _atom_site_fract_y
 _atom_site_fract_z
 _atom_site_occupancy
  Zr  Zr0  1  0.137635  0.137606  0.276293  1
  Zr  Zr1  1  0.862589  0.862804  0.724208  1
  Zr  Zr2  1  0.860782  0.137803  0.000058  1
  Zr  Zr3  1  0.139271  0.862802  0.000270  1
  Zr  Zr4  1  0.497097  0.693871  0.197492  1
  Zr  Zr5  1  0.497103  0.300855  0.803625  1
  Zr  Zr6  1  0.306515  0.503000  0.803043  1
  Zr  Zr7  1  0.699332  0.502767  0.196878  1
  Fe  Fe8  1  0.898487  0.098373  0.498478  1
  Fe  Fe9  1  0.897882  0.398732  0.797076  1
  Fe  Fe10  1  0.600397  0.101258  0.200867  1
  Co  Co11  1  0.106264  0.605421  0.209569  1
  Co  Co12  1  0.106091  0.895522  0.501010  1
  Co  Co13  1  0.394732  0.605509  0.500986  1
  Co  Co14  1  0.599973  0.399413  0.498600  1
  Si  Si15  1  0.288488  0.288857  0.578148  1
  Si  Si16  1  0.710607  0.710857  0.421562  1
  Si  Si17  1  0.716091  0.295178  0.001506  1
  Si  Si18  1  0.285713  0.706538  0.001450  1
  Si  Si19  1  0.993742  0.295758  0.302316  1
  Si  Si20  1  0.991378  0.691023  0.697693  1
  Si  Si21  1  0.708561  0.008787  0.697125  1
  Si  Si22  1  0.306082  0.003667  0.301939  1
  Si  Si23  1  0.515988  0.924710  0.408756  1
  Si  Si24  1  0.516975  0.109995  0.590745  1
  Si  Si25  1  0.065394  0.471807  0.589139  1
  Si  Si26  1  0.900397  0.491018  0.407350  1
  Si  Si27  1  0.750153  0.750258  0.000343  1
  Si  Si28  1  0.249875  0.250134  0.000008  1
  Ni  Ni29  1  0.396402  0.895672  0.793469  1
