# generated using pymatgen
data_Sc4Ge2B4RuRh9
_symmetry_space_group_name_H-M   'P 1'
_cell_length_a   9.25448955
_cell_length_b   3.14312200
_cell_length_c   9.25448955
_cell_angle_alpha   90.00000000
_cell_angle_beta   89.73071021
_cell_angle_gamma   90.00000000
_symmetry_Int_Tables_number   1
_chemical_formula_structural   Sc4Ge2B4RuRh9
_chemical_formula_sum   'Sc4 Ge2 B4 Ru1 Rh9'
_cell_volume   269.19152373
_cell_formula_units_Z   1
loop_
 _symmetry_equiv_pos_site_id
 _symmetry_equiv_pos_as_xyz
  1  'x, y, z'
loop_
 _atom_site_type_symbol
 _atom_site_label
 _atom_site_symmetry_multiplicity
 _atom_site_fract_x
 _atom_site_fract_y
 _atom_site_fract_z
 _atom_site_occupancy
  Sc  Sc0  1  0.327049  0.000000  0.172950  1
  Sc  Sc1  1  0.825785  0.000000  0.325784  1
  Sc  Sc2  1  0.174215  0.000000  0.674215  1
  Sc  Sc3  1  0.672950  0.000000  0.827050  1
  Ge  Ge4  1  0.000000  0.000000  0.000000  1
  Ge  Ge5  1  0.500000  0.000000  0.500000  1
  B  B6  1  0.623172  0.000000  0.123172  1
  B  B7  1  0.123548  0.000000  0.376452  1
  B  B8  1  0.876452  0.000000  0.623548  1
  B  B9  1  0.376828  0.000000  0.876828  1
  Ru  Ru10  1  0.500000  0.500001  0.000000  1
  Rh  Rh11  1  0.785840  0.500001  0.072728  1
  Rh  Rh12  1  0.071880  0.500001  0.215471  1
  Rh  Rh13  1  0.572728  0.500001  0.285841  1
  Rh  Rh14  1  0.284529  0.500001  0.428120  1
  Rh  Rh15  1  0.000000  0.500001  0.500000  1
  Rh  Rh16  1  0.715471  0.500001  0.571880  1
  Rh  Rh17  1  0.427272  0.500001  0.714159  1
  Rh  Rh18  1  0.928120  0.500001  0.784528  1
  Rh  Rh19  1  0.214159  0.500001  0.927272  1
