# generated using pymatgen
data_Li3Y5P12Ir13Pt3
_symmetry_space_group_name_H-M   'P 1'
_cell_length_a   12.79804400
_cell_length_b   12.79804331
_cell_length_c   3.96334800
_cell_angle_alpha   90.00000000
_cell_angle_beta   90.00000000
_cell_angle_gamma   119.99999662
_symmetry_Int_Tables_number   1
_chemical_formula_structural   Li3Y5P12Ir13Pt3
_chemical_formula_sum   'Li3 Y5 P12 Ir13 Pt3'
_cell_volume   562.18600214
_cell_formula_units_Z   1
loop_
 _symmetry_equiv_pos_site_id
 _symmetry_equiv_pos_as_xyz
  1  'x, y, z'
loop_
 _atom_site_type_symbol
 _atom_site_label
 _atom_site_symmetry_multiplicity
 _atom_site_fract_x
 _atom_site_fract_y
 _atom_site_fract_z
 _atom_site_occupancy
  Li  Li0  1  0.004385  0.447250  0.500000  1
  Li  Li1  1  0.552750  0.557135  0.500000  1
  Li  Li2  1  0.442865  0.995615  0.500000  1
  Y  Y3  1  0.333333  0.666667  0.500000  1
  Y  Y4  1  0.666667  0.333333  0.500000  1
  Y  Y5  1  0.996142  0.806447  0.000000  1
  Y  Y6  1  0.193553  0.189695  0.000000  1
  Y  Y7  1  0.810305  0.003858  0.000000  1
  P  P8  1  0.985212  0.630382  0.500000  1
  P  P9  1  0.369618  0.354831  0.500000  1
  P  P10  1  0.645169  0.014788  0.500000  1
  P  P11  1  0.525484  0.698682  0.000000  1
  P  P12  1  0.301318  0.826802  0.000000  1
  P  P13  1  0.173198  0.474516  0.000000  1
  P  P14  1  0.485839  0.167049  0.000000  1
  P  P15  1  0.681210  0.514161  0.000000  1
  P  P16  1  0.832951  0.318790  0.000000  1
  P  P17  1  0.004243  0.179814  0.500000  1
  P  P18  1  0.820186  0.824430  0.500000  1
  P  P19  1  0.175570  0.995757  0.500000  1
  Ir  Ir20  1  0.482902  0.354245  0.000000  1
  Ir  Ir21  1  0.871343  0.517098  0.000000  1
  Ir  Ir22  1  0.645755  0.128657  0.000000  1
  Ir  Ir23  1  0.004096  0.279645  0.000000  1
  Ir  Ir24  1  0.720355  0.724452  0.000000  1
  Ir  Ir25  1  0.275548  0.995904  0.000000  1
  Ir  Ir26  1  0.627793  0.814978  0.500000  1
  Ir  Ir27  1  0.185022  0.812815  0.500000  1
  Ir  Ir28  1  0.187185  0.372207  0.500000  1
  Ir  Ir29  1  0.377377  0.171298  0.500000  1
  Ir  Ir30  1  0.793921  0.622623  0.500000  1
  Ir  Ir31  1  0.828702  0.206079  0.500000  1
  Ir  Ir32  1  0.000000  0.000000  0.500000  1
  Pt  Pt33  1  0.497017  0.866269  0.000000  1
  Pt  Pt34  1  0.133731  0.630749  0.000000  1
  Pt  Pt35  1  0.369251  0.502983  0.000000  1
