# generated using pymatgen
data_Lu4ScSb3
_symmetry_space_group_name_H-M   'P 1'
_cell_length_a   7.85129700
_cell_length_b   9.08543000
_cell_length_c   11.53470700
_cell_angle_alpha   90.00000000
_cell_angle_beta   90.00000000
_cell_angle_gamma   90.00000000
_symmetry_Int_Tables_number   1
_chemical_formula_structural   Lu4ScSb3
_chemical_formula_sum   'Lu16 Sc4 Sb12'
_cell_volume   822.79844091
_cell_formula_units_Z   4
loop_
 _symmetry_equiv_pos_site_id
 _symmetry_equiv_pos_as_xyz
  1  'x, y, z'
loop_
 _atom_site_type_symbol
 _atom_site_label
 _atom_site_symmetry_multiplicity
 _atom_site_fract_x
 _atom_site_fract_y
 _atom_site_fract_z
 _atom_site_occupancy
  Lu  Lu0  1  0.196951  0.562700  0.439847  1
  Lu  Lu1  1  0.696951  0.937300  0.060153  1
  Lu  Lu2  1  0.803049  0.062700  0.560153  1
  Lu  Lu3  1  0.303049  0.437300  0.939847  1
  Lu  Lu4  1  0.803049  0.437300  0.560153  1
  Lu  Lu5  1  0.303049  0.062700  0.939847  1
  Lu  Lu6  1  0.196951  0.937300  0.439847  1
  Lu  Lu7  1  0.696951  0.562700  0.060153  1
  Lu  Lu8  1  0.185475  0.750000  0.720434  1
  Lu  Lu9  1  0.685475  0.750000  0.779566  1
  Lu  Lu10  1  0.814525  0.250000  0.279566  1
  Lu  Lu11  1  0.314525  0.250000  0.220434  1
  Lu  Lu12  1  0.855248  0.750000  0.284608  1
  Lu  Lu13  1  0.355248  0.750000  0.215392  1
  Lu  Lu14  1  0.144752  0.250000  0.715392  1
  Lu  Lu15  1  0.644752  0.250000  0.784608  1
  Sc  Sc16  1  0.027842  0.750000  0.988984  1
  Sc  Sc17  1  0.527842  0.750000  0.511016  1
  Sc  Sc18  1  0.972158  0.250000  0.011016  1
  Sc  Sc19  1  0.472158  0.250000  0.488984  1
  Sb  Sb20  1  0.932985  0.496545  0.830355  1
  Sb  Sb21  1  0.432985  0.003455  0.669645  1
  Sb  Sb22  1  0.067015  0.996545  0.169645  1
  Sb  Sb23  1  0.567015  0.503455  0.330355  1
  Sb  Sb24  1  0.067015  0.503455  0.169645  1
  Sb  Sb25  1  0.567015  0.996545  0.330355  1
  Sb  Sb26  1  0.932985  0.003455  0.830355  1
  Sb  Sb27  1  0.432985  0.496545  0.669645  1
  Sb  Sb28  1  0.906982  0.750000  0.541173  1
  Sb  Sb29  1  0.406982  0.750000  0.958827  1
  Sb  Sb30  1  0.093018  0.250000  0.458827  1
  Sb  Sb31  1  0.593018  0.250000  0.041173  1
