# generated using pymatgen
data_Tb8Sc12Ga15Si
_symmetry_space_group_name_H-M   'P 1'
_cell_length_a   7.30083231
_cell_length_b   7.54416962
_cell_length_c   14.48937200
_cell_angle_alpha   90.00000000
_cell_angle_beta   90.00000000
_cell_angle_gamma   90.14281439
_symmetry_Int_Tables_number   1
_chemical_formula_structural   Tb8Sc12Ga15Si
_chemical_formula_sum   'Tb8 Sc12 Ga15 Si1'
_cell_volume   798.05354538
_cell_formula_units_Z   1
loop_
 _symmetry_equiv_pos_site_id
 _symmetry_equiv_pos_as_xyz
  1  'x, y, z'
loop_
 _atom_site_type_symbol
 _atom_site_label
 _atom_site_symmetry_multiplicity
 _atom_site_fract_x
 _atom_site_fract_y
 _atom_site_fract_z
 _atom_site_occupancy
  Tb  Tb0  1  0.011589  0.178930  0.095100  1
  Tb  Tb1  1  0.987004  0.818610  0.903529  1
  Tb  Tb2  1  0.488685  0.679389  0.904049  1
  Tb  Tb3  1  0.987004  0.818610  0.596471  1
  Tb  Tb4  1  0.511688  0.320128  0.094561  1
  Tb  Tb5  1  0.011589  0.178930  0.404900  1
  Tb  Tb6  1  0.511688  0.320128  0.405439  1
  Tb  Tb7  1  0.488685  0.679389  0.595951  1
  Sc  Sc8  1  0.159227  0.501798  0.750000  1
  Sc  Sc9  1  0.836366  0.497800  0.250000  1
  Sc  Sc10  1  0.337654  0.001537  0.250000  1
  Sc  Sc11  1  0.664526  0.995625  0.750000  1
  Sc  Sc12  1  0.332837  0.173099  0.623790  1
  Sc  Sc13  1  0.669859  0.827684  0.375996  1
  Sc  Sc14  1  0.169868  0.671908  0.375274  1
  Sc  Sc15  1  0.669859  0.827684  0.124004  1
  Sc  Sc16  1  0.828280  0.330419  0.624141  1
  Sc  Sc17  1  0.332837  0.173099  0.876210  1
  Sc  Sc18  1  0.828280  0.330419  0.875859  1
  Sc  Sc19  1  0.169868  0.671908  0.124726  1
  Ga  Ga20  1  0.032378  0.119851  0.750000  1
  Ga  Ga21  1  0.968168  0.882274  0.250000  1
  Ga  Ga22  1  0.468118  0.617477  0.250000  1
  Ga  Ga23  1  0.531297  0.388529  0.750000  1
  Ga  Ga24  1  0.285634  0.872683  0.750000  1
  Ga  Ga25  1  0.715196  0.127993  0.250000  1
  Ga  Ga26  1  0.215507  0.370726  0.250000  1
  Ga  Ga27  1  0.160885  0.464720  0.540890  1
  Ga  Ga28  1  0.839004  0.535304  0.459605  1
  Ga  Ga29  1  0.338419  0.963333  0.460165  1
  Ga  Ga30  1  0.839004  0.535304  0.040395  1
  Ga  Ga31  1  0.662707  0.035570  0.541240  1
  Ga  Ga32  1  0.160885  0.464720  0.959110  1
  Ga  Ga33  1  0.662707  0.035570  0.958760  1
  Ga  Ga34  1  0.338419  0.963333  0.039835  1
  Si  Si35  1  0.784283  0.625520  0.750000  1
