# generated using pymatgen
data_Hf8Nb12Si15Pd
_symmetry_space_group_name_H-M   'P 1'
_cell_length_a   6.67487563
_cell_length_b   6.88402942
_cell_length_c   13.11522200
_cell_angle_alpha   90.00000000
_cell_angle_beta   90.00000000
_cell_angle_gamma   89.91184833
_symmetry_Int_Tables_number   1
_chemical_formula_structural   Hf8Nb12Si15Pd
_chemical_formula_sum   'Hf8 Nb12 Si15 Pd1'
_cell_volume   602.64426556
_cell_formula_units_Z   1
loop_
 _symmetry_equiv_pos_site_id
 _symmetry_equiv_pos_as_xyz
  1  'x, y, z'
loop_
 _atom_site_type_symbol
 _atom_site_label
 _atom_site_symmetry_multiplicity
 _atom_site_fract_x
 _atom_site_fract_y
 _atom_site_fract_z
 _atom_site_occupancy
  Hf  Hf0  1  0.497211  0.673405  0.594222  1
  Hf  Hf1  1  0.996326  0.826822  0.906495  1
  Hf  Hf2  1  0.498575  0.326449  0.089392  1
  Hf  Hf3  1  0.004861  0.168709  0.409522  1
  Hf  Hf4  1  0.498575  0.326449  0.410608  1
  Hf  Hf5  1  0.004861  0.168709  0.090478  1
  Hf  Hf6  1  0.497211  0.673405  0.905778  1
  Hf  Hf7  1  0.996326  0.826822  0.593505  1
  Nb  Nb8  1  0.663426  0.171626  0.623843  1
  Nb  Nb9  1  0.163790  0.328402  0.876320  1
  Nb  Nb10  1  0.338521  0.825206  0.124077  1
  Nb  Nb11  1  0.840869  0.682779  0.378457  1
  Nb  Nb12  1  0.338521  0.825206  0.375923  1
  Nb  Nb13  1  0.840869  0.682779  0.121543  1
  Nb  Nb14  1  0.663426  0.171626  0.876157  1
  Nb  Nb15  1  0.163790  0.328402  0.623680  1
  Nb  Nb16  1  0.837289  0.497863  0.750000  1
  Nb  Nb17  1  0.336209  0.003103  0.750000  1
  Nb  Nb18  1  0.162952  0.504921  0.250000  1
  Nb  Nb19  1  0.662901  0.990454  0.250000  1
  Si  Si20  1  0.670790  0.967641  0.461271  1
  Si  Si21  1  0.170049  0.535162  0.039072  1
  Si  Si22  1  0.328649  0.033810  0.961129  1
  Si  Si23  1  0.827621  0.464716  0.537900  1
  Si  Si24  1  0.328649  0.033810  0.538871  1
  Si  Si25  1  0.827621  0.464716  0.962100  1
  Si  Si26  1  0.670790  0.967641  0.038729  1
  Si  Si27  1  0.170049  0.535162  0.460928  1
  Si  Si28  1  0.461094  0.387725  0.750000  1
  Si  Si29  1  0.959771  0.113548  0.750000  1
  Si  Si30  1  0.545424  0.608960  0.250000  1
  Si  Si31  1  0.041838  0.889409  0.250000  1
  Si  Si32  1  0.702882  0.861056  0.750000  1
  Si  Si33  1  0.204032  0.639836  0.750000  1
  Si  Si34  1  0.299490  0.139254  0.250000  1
  Pd  Pd35  1  0.784742  0.354414  0.250000  1
