# generated using pymatgen
data_Sm3Er(CuP2)4
_symmetry_space_group_name_H-M   'P 1'
_cell_length_a   3.73435000
_cell_length_b   3.81022181
_cell_length_c   19.69027338
_cell_angle_alpha   89.88818497
_cell_angle_beta   90.00000000
_cell_angle_gamma   90.00000000
_symmetry_Int_Tables_number   1
_chemical_formula_structural   Sm3Er(CuP2)4
_chemical_formula_sum   'Sm3 Er1 Cu4 P8'
_cell_volume   280.16649529
_cell_formula_units_Z   1
loop_
 _symmetry_equiv_pos_site_id
 _symmetry_equiv_pos_as_xyz
  1  'x, y, z'
loop_
 _atom_site_type_symbol
 _atom_site_label
 _atom_site_symmetry_multiplicity
 _atom_site_fract_x
 _atom_site_fract_y
 _atom_site_fract_z
 _atom_site_occupancy
  Sm  Sm0  1  0.250000  0.713839  0.379853  1
  Sm  Sm1  1  0.250000  0.785159  0.884846  1
  Sm  Sm2  1  0.750000  0.287169  0.618362  1
  Er  Er3  1  0.750000  0.213026  0.118544  1
  Cu  Cu4  1  0.250000  0.212897  0.246454  1
  Cu  Cu5  1  0.750000  0.787531  0.751760  1
  Cu  Cu6  1  0.250000  0.286939  0.751166  1
  Cu  Cu7  1  0.750000  0.713209  0.246898  1
  P  P8  1  0.750000  0.813319  0.501470  1
  P  P9  1  0.750000  0.687624  0.006385  1
  P  P10  1  0.250000  0.188099  0.496810  1
  P  P11  1  0.250000  0.310709  0.001839  1
  P  P12  1  0.250000  0.713591  0.170053  1
  P  P13  1  0.750000  0.213246  0.322551  1
  P  P14  1  0.750000  0.286227  0.827133  1
  P  P15  1  0.250000  0.787416  0.675876  1
