# generated using pymatgen
data_Li4YbDy2HoSi8
_symmetry_space_group_name_H-M   'P 1'
_cell_length_a   3.78665300
_cell_length_b   7.70763582
_cell_length_c   10.21952647
_cell_angle_alpha   90.42076765
_cell_angle_beta   90.00000000
_cell_angle_gamma   90.00000000
_symmetry_Int_Tables_number   1
_chemical_formula_structural   Li4YbDy2HoSi8
_chemical_formula_sum   'Li4 Yb1 Dy2 Ho1 Si8'
_cell_volume   298.26051089
_cell_formula_units_Z   1
loop_
 _symmetry_equiv_pos_site_id
 _symmetry_equiv_pos_as_xyz
  1  'x, y, z'
loop_
 _atom_site_type_symbol
 _atom_site_label
 _atom_site_symmetry_multiplicity
 _atom_site_fract_x
 _atom_site_fract_y
 _atom_site_fract_z
 _atom_site_occupancy
  Li  Li0  1  0.250000  0.993046  0.394209  1
  Li  Li1  1  0.750000  0.013678  0.609699  1
  Li  Li2  1  0.250000  0.486962  0.108582  1
  Li  Li3  1  0.750000  0.503882  0.894971  1
  Yb  Yb4  1  0.250000  0.135653  0.863667  1
  Dy  Dy5  1  0.750000  0.864875  0.134571  1
  Dy  Dy6  1  0.250000  0.634586  0.633262  1
  Ho  Ho7  1  0.750000  0.368572  0.363144  1
  Si  Si8  1  0.750000  0.261454  0.070596  1
  Si  Si9  1  0.250000  0.726644  0.932171  1
  Si  Si10  1  0.750000  0.767326  0.432588  1
  Si  Si11  1  0.250000  0.241502  0.563218  1
  Si  Si12  1  0.750000  0.836819  0.821104  1
  Si  Si13  1  0.250000  0.157954  0.184229  1
  Si  Si14  1  0.750000  0.346556  0.676425  1
  Si  Si15  1  0.250000  0.660491  0.317570  1
