# generated using pymatgen
data_Pr8DyErPb6
_symmetry_space_group_name_H-M   'P 1'
_cell_length_a   9.38801100
_cell_length_b   9.38801210
_cell_length_c   6.90142700
_cell_angle_alpha   90.00000000
_cell_angle_beta   90.00000000
_cell_angle_gamma   119.99999964
_symmetry_Int_Tables_number   1
_chemical_formula_structural   Pr8DyErPb6
_chemical_formula_sum   'Pr8 Dy1 Er1 Pb6'
_cell_volume   526.76481937
_cell_formula_units_Z   1
loop_
 _symmetry_equiv_pos_site_id
 _symmetry_equiv_pos_as_xyz
  1  'x, y, z'
loop_
 _atom_site_type_symbol
 _atom_site_label
 _atom_site_symmetry_multiplicity
 _atom_site_fract_x
 _atom_site_fract_y
 _atom_site_fract_z
 _atom_site_occupancy
  Pr  Pr0  1  0.333333  0.666667  0.500000  1
  Pr  Pr1  1  0.666667  0.333333  0.500000  1
  Pr  Pr2  1  0.759201  0.759280  0.752147  1
  Pr  Pr3  1  0.240720  0.999921  0.752147  1
  Pr  Pr4  1  0.000079  0.240799  0.752147  1
  Pr  Pr5  1  0.240720  0.240799  0.247853  1
  Pr  Pr6  1  0.759201  0.999921  0.247853  1
  Pr  Pr7  1  0.000079  0.759280  0.247853  1
  Dy  Dy8  1  0.666667  0.333333  0.000000  1
  Er  Er9  1  0.333333  0.666667  0.000000  1
  Pb  Pb10  1  0.396476  0.396749  0.757703  1
  Pb  Pb11  1  0.603251  0.999727  0.757703  1
  Pb  Pb12  1  0.000273  0.603524  0.757703  1
  Pb  Pb13  1  0.603251  0.603524  0.242297  1
  Pb  Pb14  1  0.396476  0.999727  0.242297  1
  Pb  Pb15  1  0.000273  0.396749  0.242297  1
