# generated using pymatgen
data_Mn4AlHgPd10
_symmetry_space_group_name_H-M   'P 1'
_cell_length_a   4.07246100
_cell_length_b   5.53489374
_cell_length_c   10.98588030
_cell_angle_alpha   87.31143249
_cell_angle_beta   90.00000000
_cell_angle_gamma   90.00000000
_symmetry_Int_Tables_number   1
_chemical_formula_structural   Mn4AlHgPd10
_chemical_formula_sum   'Mn4 Al1 Hg1 Pd10'
_cell_volume   247.35618456
_cell_formula_units_Z   1
loop_
 _symmetry_equiv_pos_site_id
 _symmetry_equiv_pos_as_xyz
  1  'x, y, z'
loop_
 _atom_site_type_symbol
 _atom_site_label
 _atom_site_symmetry_multiplicity
 _atom_site_fract_x
 _atom_site_fract_y
 _atom_site_fract_z
 _atom_site_occupancy
  Mn  Mn0  1  0.500000  0.194070  0.366981  1
  Mn  Mn1  1  0.500000  0.805930  0.633019  1
  Mn  Mn2  1  0.500000  0.706272  0.138165  1
  Mn  Mn3  1  0.500000  0.293728  0.861835  1
  Al  Al4  1  0.000000  0.500000  0.500000  1
  Hg  Hg5  1  0.000000  0.000000  0.000000  1
  Pd  Pd6  1  0.500000  0.224529  0.126416  1
  Pd  Pd7  1  0.500000  0.775471  0.873584  1
  Pd  Pd8  1  0.500000  0.695365  0.393604  1
  Pd  Pd9  1  0.500000  0.304635  0.606396  1
  Pd  Pd10  1  0.000000  0.000000  0.500000  1
  Pd  Pd11  1  0.000000  0.500000  0.000000  1
  Pd  Pd12  1  0.000000  0.945594  0.253269  1
  Pd  Pd13  1  0.000000  0.054406  0.746731  1
  Pd  Pd14  1  0.000000  0.447049  0.262675  1
  Pd  Pd15  1  0.000000  0.552951  0.737325  1
