# generated using pymatgen
data_YbTh6(UTe4)5
_symmetry_space_group_name_H-M   'P 1'
_cell_length_a   4.26054700
_cell_length_b   14.32619958
_cell_length_c   16.32850447
_cell_angle_alpha   89.86646437
_cell_angle_beta   90.00000000
_cell_angle_gamma   90.00000000
_symmetry_Int_Tables_number   1
_chemical_formula_structural   YbTh6(UTe4)5
_chemical_formula_sum   'Yb1 Th6 U5 Te20'
_cell_volume   996.64751386
_cell_formula_units_Z   1
loop_
 _symmetry_equiv_pos_site_id
 _symmetry_equiv_pos_as_xyz
  1  'x, y, z'
loop_
 _atom_site_type_symbol
 _atom_site_label
 _atom_site_symmetry_multiplicity
 _atom_site_fract_x
 _atom_site_fract_y
 _atom_site_fract_z
 _atom_site_occupancy
  Yb  Yb0  1  0.250000  0.250898  0.879021  1
  Th  Th1  1  0.750000  0.749829  0.121050  1
  Th  Th2  1  0.750000  0.748877  0.618146  1
  Th  Th3  1  0.250000  0.253495  0.380049  1
  Th  Th4  1  0.250000  0.930572  0.862340  1
  Th  Th5  1  0.750000  0.070654  0.137239  1
  Th  Th6  1  0.750000  0.430260  0.641002  1
  U  U7  1  0.250000  0.568718  0.359810  1
  U  U8  1  0.250000  0.093859  0.626670  1
  U  U9  1  0.750000  0.908058  0.373681  1
  U  U10  1  0.750000  0.585961  0.876454  1
  U  U11  1  0.250000  0.411417  0.125537  1
  Te  Te12  1  0.250000  0.917472  0.072826  1
  Te  Te13  1  0.750000  0.075671  0.928457  1
  Te  Te14  1  0.750000  0.422201  0.426045  1
  Te  Te15  1  0.250000  0.580450  0.570094  1
  Te  Te16  1  0.250000  0.455042  0.787013  1
  Te  Te17  1  0.750000  0.545123  0.215163  1
  Te  Te18  1  0.750000  0.953471  0.711839  1
  Te  Te19  1  0.250000  0.045488  0.287499  1
  Te  Te20  1  0.250000  0.721381  0.764311  1
  Te  Te21  1  0.750000  0.279001  0.234941  1
  Te  Te22  1  0.750000  0.219138  0.731934  1
  Te  Te23  1  0.250000  0.778692  0.266627  1
  Te  Te24  1  0.250000  0.610790  0.027283  1
  Te  Te25  1  0.750000  0.394590  0.980373  1
  Te  Te26  1  0.750000  0.109630  0.474360  1
  Te  Te27  1  0.250000  0.891771  0.524896  1
  Te  Te28  1  0.250000  0.204759  0.067018  1
  Te  Te29  1  0.750000  0.792796  0.931665  1
  Te  Te30  1  0.750000  0.701815  0.430247  1
  Te  Te31  1  0.250000  0.298121  0.566412  1
