# generated using pymatgen
data_Rb2Si2PbSe6
_symmetry_space_group_name_H-M   'P 1'
_cell_length_a   9.19329767
_cell_length_b   9.19329753
_cell_length_c   9.51239927
_cell_angle_alpha   90.29724309
_cell_angle_beta   90.29724508
_cell_angle_gamma   113.52176448
_symmetry_Int_Tables_number   1
_chemical_formula_structural   Rb2Si2PbSe6
_chemical_formula_sum   'Rb4 Si4 Pb2 Se12'
_cell_volume   737.12183048
_cell_formula_units_Z   2
loop_
 _symmetry_equiv_pos_site_id
 _symmetry_equiv_pos_as_xyz
  1  'x, y, z'
loop_
 _atom_site_type_symbol
 _atom_site_label
 _atom_site_symmetry_multiplicity
 _atom_site_fract_x
 _atom_site_fract_y
 _atom_site_fract_z
 _atom_site_occupancy
  Rb  Rb0  1  0.262227  0.540915  0.522536  1
  Rb  Rb1  1  0.737773  0.459085  0.477464  1
  Rb  Rb2  1  0.459085  0.737773  0.977464  1
  Rb  Rb3  1  0.540915  0.262227  0.022536  1
  Si  Si4  1  0.978160  0.653360  0.053012  1
  Si  Si5  1  0.021840  0.346640  0.946988  1
  Si  Si6  1  0.346640  0.021840  0.446988  1
  Si  Si7  1  0.653360  0.978160  0.553012  1
  Pb  Pb8  1  0.997337  0.002663  0.250000  1
  Pb  Pb9  1  0.002663  0.997337  0.750000  1
  Se  Se10  1  0.657741  0.761993  0.660573  1
  Se  Se11  1  0.917055  0.513480  0.838926  1
  Se  Se12  1  0.238007  0.342259  0.839427  1
  Se  Se13  1  0.513480  0.917055  0.338926  1
  Se  Se14  1  0.342259  0.238007  0.339427  1
  Se  Se15  1  0.900871  0.167785  0.527551  1
  Se  Se16  1  0.832215  0.099129  0.972449  1
  Se  Se17  1  0.167785  0.900871  0.027551  1
  Se  Se18  1  0.082945  0.486520  0.161074  1
  Se  Se19  1  0.486520  0.082945  0.661074  1
  Se  Se20  1  0.099129  0.832215  0.472449  1
  Se  Se21  1  0.761993  0.657741  0.160573  1
