# generated using pymatgen
data_Rb2Eu4Si8O21
_symmetry_space_group_name_H-M   'P 1'
_cell_length_a   7.13927483
_cell_length_b   7.36382002
_cell_length_c   11.66917500
_cell_angle_alpha   97.36195143
_cell_angle_beta   104.89161511
_cell_angle_gamma   108.89197300
_symmetry_Int_Tables_number   1
_chemical_formula_structural   Rb2Eu4Si8O21
_chemical_formula_sum   'Rb2 Eu4 Si8 O21'
_cell_volume   545.74356703
_cell_formula_units_Z   1
loop_
 _symmetry_equiv_pos_site_id
 _symmetry_equiv_pos_as_xyz
  1  'x, y, z'
loop_
 _atom_site_type_symbol
 _atom_site_label
 _atom_site_symmetry_multiplicity
 _atom_site_fract_x
 _atom_site_fract_y
 _atom_site_fract_z
 _atom_site_occupancy
  Rb  Rb0  1  0.748248  0.709647  0.437487  1
  Rb  Rb1  1  0.251752  0.290353  0.562513  1
  Eu  Eu2  1  0.676222  0.784777  0.817640  1
  Eu  Eu3  1  0.323778  0.215223  0.182360  1
  Eu  Eu4  1  0.361713  0.714919  0.040932  1
  Eu  Eu5  1  0.638287  0.285081  0.959068  1
  Si  Si6  1  0.096708  0.235445  0.880765  1
  Si  Si7  1  0.903292  0.764555  0.119235  1
  Si  Si8  1  0.184916  0.894241  0.745492  1
  Si  Si9  1  0.815084  0.105759  0.254508  1
  Si  Si10  1  0.654015  0.192109  0.467925  1
  Si  Si11  1  0.345985  0.807891  0.532075  1
  Si  Si12  1  0.880240  0.462960  0.732662  1
  Si  Si13  1  0.119760  0.537040  0.267338  1
  O  O14  1  0.500000  0.000000  0.500000  1
  O  O15  1  0.838580  0.332368  0.596605  1
  O  O16  1  0.161420  0.667632  0.403395  1
  O  O17  1  0.389074  0.907090  0.850279  1
  O  O18  1  0.610926  0.092910  0.149721  1
  O  O19  1  0.886405  0.131232  0.912913  1
  O  O20  1  0.113595  0.868768  0.087087  1
  O  O21  1  0.684204  0.679594  0.008883  1
  O  O22  1  0.315796  0.320406  0.991117  1
  O  O23  1  0.114869  0.085611  0.767283  1
  O  O24  1  0.885131  0.914389  0.232717  1
  O  O25  1  0.082880  0.434632  0.826679  1
  O  O26  1  0.917120  0.565368  0.173321  1
  O  O27  1  0.970351  0.701500  0.729445  1
  O  O28  1  0.029649  0.298500  0.270555  1
  O  O29  1  0.473464  0.694361  0.604999  1
  O  O30  1  0.526536  0.305639  0.395001  1
  O  O31  1  0.319870  0.576094  0.222096  1
  O  O32  1  0.680130  0.423906  0.777904  1
  O  O33  1  0.210391  0.889966  0.608066  1
  O  O34  1  0.789609  0.110034  0.391934  1
