# generated using pymatgen
data_Tb6Y2Ti5Ge16Mo7
_symmetry_space_group_name_H-M   'P 1'
_cell_length_a   6.92474773
_cell_length_b   7.09752132
_cell_length_c   13.37502367
_cell_angle_alpha   89.98450664
_cell_angle_beta   89.93886518
_cell_angle_gamma   89.97852568
_symmetry_Int_Tables_number   1
_chemical_formula_structural   Tb6Y2Ti5Ge16Mo7
_chemical_formula_sum   'Tb6 Y2 Ti5 Ge16 Mo7'
_cell_volume   657.36250368
_cell_formula_units_Z   1
loop_
 _symmetry_equiv_pos_site_id
 _symmetry_equiv_pos_as_xyz
  1  'x, y, z'
loop_
 _atom_site_type_symbol
 _atom_site_label
 _atom_site_symmetry_multiplicity
 _atom_site_fract_x
 _atom_site_fract_y
 _atom_site_fract_z
 _atom_site_occupancy
  Tb  Tb0  1  0.495283  0.674990  0.595038  1
  Tb  Tb1  1  0.995181  0.828214  0.905307  1
  Tb  Tb2  1  0.993832  0.829015  0.594230  1
  Tb  Tb3  1  0.495620  0.672698  0.905448  1
  Tb  Tb4  1  0.506507  0.329960  0.406117  1
  Tb  Tb5  1  0.006269  0.169384  0.095757  1
  Y  Y6  1  0.004808  0.174355  0.405275  1
  Y  Y7  1  0.504626  0.326170  0.094454  1
  Ti  Ti8  1  0.162159  0.331887  0.872671  1
  Ti  Ti9  1  0.158069  0.332239  0.626879  1
  Ti  Ti10  1  0.662715  0.166465  0.871887  1
  Ti  Ti11  1  0.840523  0.667367  0.127876  1
  Ti  Ti12  1  0.340541  0.833126  0.372246  1
  Ge  Ge13  1  0.328684  0.044796  0.544629  1
  Ge  Ge14  1  0.826378  0.455696  0.956131  1
  Ge  Ge15  1  0.670507  0.954994  0.044833  1
  Ge  Ge16  1  0.170688  0.544853  0.455647  1
  Ge  Ge17  1  0.172472  0.542925  0.044071  1
  Ge  Ge18  1  0.672360  0.955274  0.455681  1
  Ge  Ge19  1  0.826718  0.456577  0.544224  1
  Ge  Ge20  1  0.327882  0.044769  0.956790  1
  Ge  Ge21  1  0.808836  0.365701  0.248775  1
  Ge  Ge22  1  0.309668  0.135250  0.251293  1
  Ge  Ge23  1  0.690867  0.865283  0.750533  1
  Ge  Ge24  1  0.192914  0.635337  0.749882  1
  Ge  Ge25  1  0.036004  0.870701  0.251851  1
  Ge  Ge26  1  0.536422  0.628941  0.248735  1
  Ge  Ge27  1  0.464208  0.369480  0.748910  1
  Ge  Ge28  1  0.962136  0.127997  0.750412  1
  Mo  Mo29  1  0.334698  0.833969  0.127007  1
  Mo  Mo30  1  0.835169  0.664515  0.374203  1
  Mo  Mo31  1  0.665777  0.165661  0.624765  1
  Mo  Mo32  1  0.333112  0.011570  0.749038  1
  Mo  Mo33  1  0.666439  0.987345  0.250147  1
  Mo  Mo34  1  0.166864  0.513805  0.250259  1
  Mo  Mo35  1  0.835062  0.488694  0.748998  1
