# generated using pymatgen
data_YbTmIr2O7
_symmetry_space_group_name_H-M   'P 1'
_cell_length_a   7.22706769
_cell_length_b   7.20052338
_cell_length_c   7.20052305
_cell_angle_alpha   59.71446115
_cell_angle_beta   59.87797555
_cell_angle_gamma   59.87798304
_symmetry_Int_Tables_number   1
_chemical_formula_structural   YbTmIr2O7
_chemical_formula_sum   'Yb2 Tm2 Ir4 O14'
_cell_volume   263.89385187
_cell_formula_units_Z   2
loop_
 _symmetry_equiv_pos_site_id
 _symmetry_equiv_pos_as_xyz
  1  'x, y, z'
loop_
 _atom_site_type_symbol
 _atom_site_label
 _atom_site_symmetry_multiplicity
 _atom_site_fract_x
 _atom_site_fract_y
 _atom_site_fract_z
 _atom_site_occupancy
  Yb  Yb0  1  0.625000  0.125000  0.125000  1
  Yb  Yb1  1  0.125000  0.125000  0.125000  1
  Tm  Tm2  1  0.125000  0.625000  0.125000  1
  Tm  Tm3  1  0.125000  0.125000  0.625000  1
  Ir  Ir4  1  0.125000  0.625000  0.625000  1
  Ir  Ir5  1  0.625000  0.125000  0.625000  1
  Ir  Ir6  1  0.625000  0.625000  0.125000  1
  Ir  Ir7  1  0.625000  0.625000  0.625000  1
  O  O8  1  0.716367  0.698345  0.293375  1
  O  O9  1  0.291913  0.293375  0.698345  1
  O  O10  1  0.716367  0.293375  0.698345  1
  O  O11  1  0.291913  0.698345  0.293375  1
  O  O12  1  0.292310  0.707690  0.707690  1
  O  O13  1  0.706393  0.293607  0.293607  1
  O  O14  1  0.533633  0.551655  0.956625  1
  O  O15  1  0.958087  0.956625  0.551655  1
  O  O16  1  0.533633  0.956625  0.551655  1
  O  O17  1  0.958087  0.551655  0.956625  1
  O  O18  1  0.957690  0.542310  0.542310  1
  O  O19  1  0.543607  0.956393  0.956393  1
  O  O20  1  0.242638  0.257362  0.257362  1
  O  O21  1  0.007362  0.992638  0.992638  1
