# generated using pymatgen
data_La7PrCo2Si12NiPd
_symmetry_space_group_name_H-M   'P 1'
_cell_length_a   8.19901200
_cell_length_b   8.19901414
_cell_length_c   8.68148300
_cell_angle_alpha   90.00000000
_cell_angle_beta   90.00000000
_cell_angle_gamma   120.00000748
_symmetry_Int_Tables_number   1
_chemical_formula_structural   La7PrCo2Si12NiPd
_chemical_formula_sum   'La7 Pr1 Co2 Si12 Ni1 Pd1'
_cell_volume   505.41447488
_cell_formula_units_Z   1
loop_
 _symmetry_equiv_pos_site_id
 _symmetry_equiv_pos_as_xyz
  1  'x, y, z'
loop_
 _atom_site_type_symbol
 _atom_site_label
 _atom_site_symmetry_multiplicity
 _atom_site_fract_x
 _atom_site_fract_y
 _atom_site_fract_z
 _atom_site_occupancy
  La  La0  1  0.496805  0.503195  0.752016  1
  La  La1  1  0.497548  0.502452  0.248828  1
  La  La2  1  0.006388  0.503195  0.752016  1
  La  La3  1  0.004903  0.502452  0.248828  1
  La  La4  1  0.496805  0.993612  0.752016  1
  La  La5  1  0.497548  0.995097  0.248828  1
  La  La6  1  0.000000  0.000000  0.751150  1
  Pr  Pr7  1  0.000000  0.000000  0.248769  1
  Co  Co8  1  0.333333  0.666667  0.006344  1
  Co  Co9  1  0.333333  0.666667  0.492723  1
  Si  Si10  1  0.830228  0.169772  0.001834  1
  Si  Si11  1  0.170286  0.829714  0.999058  1
  Si  Si12  1  0.339544  0.169772  0.001834  1
  Si  Si13  1  0.171940  0.828060  0.501680  1
  Si  Si14  1  0.659426  0.829714  0.999058  1
  Si  Si15  1  0.836716  0.163284  0.496939  1
  Si  Si16  1  0.830228  0.660456  0.001834  1
  Si  Si17  1  0.656120  0.828060  0.501680  1
  Si  Si18  1  0.170286  0.340574  0.999058  1
  Si  Si19  1  0.326569  0.163284  0.496939  1
  Si  Si20  1  0.171940  0.343880  0.501680  1
  Si  Si21  1  0.836716  0.673431  0.496939  1
  Ni  Ni22  1  0.666667  0.333333  0.995559  1
  Pd  Pd23  1  0.666667  0.333333  0.504389  1
