# generated using pymatgen
data_SmEr4Nb3(Co4P3)4
_symmetry_space_group_name_H-M   'P 1'
_cell_length_a   12.21606200
_cell_length_b   12.21606061
_cell_length_c   3.70401500
_cell_angle_alpha   90.00000000
_cell_angle_beta   90.00000000
_cell_angle_gamma   119.99999834
_symmetry_Int_Tables_number   1
_chemical_formula_structural   SmEr4Nb3(Co4P3)4
_chemical_formula_sum   'Sm1 Er4 Nb3 Co16 P12'
_cell_volume   478.70259612
_cell_formula_units_Z   1
loop_
 _symmetry_equiv_pos_site_id
 _symmetry_equiv_pos_as_xyz
  1  'x, y, z'
loop_
 _atom_site_type_symbol
 _atom_site_label
 _atom_site_symmetry_multiplicity
 _atom_site_fract_x
 _atom_site_fract_y
 _atom_site_fract_z
 _atom_site_occupancy
  Sm  Sm0  1  0.333333  0.666667  0.000000  1
  Er  Er1  1  0.816341  0.999572  0.500000  1
  Er  Er2  1  0.000428  0.816769  0.500000  1
  Er  Er3  1  0.183231  0.183659  0.500000  1
  Er  Er4  1  0.666667  0.333333  0.000000  1
  Nb  Nb5  1  0.444984  0.001049  0.000000  1
  Nb  Nb6  1  0.998951  0.443936  0.000000  1
  Nb  Nb7  1  0.556064  0.555016  0.000000  1
  Co  Co8  1  0.278664  0.001491  0.500000  1
  Co  Co9  1  0.998509  0.277173  0.500000  1
  Co  Co10  1  0.722827  0.721336  0.500000  1
  Co  Co11  1  0.628677  0.804276  0.000000  1
  Co  Co12  1  0.195724  0.824401  0.000000  1
  Co  Co13  1  0.175599  0.371323  0.000000  1
  Co  Co14  1  0.373479  0.177651  0.000000  1
  Co  Co15  1  0.804172  0.626521  0.000000  1
  Co  Co16  1  0.822349  0.195828  0.000000  1
  Co  Co17  1  0.522402  0.875406  0.500000  1
  Co  Co18  1  0.124594  0.646995  0.500000  1
  Co  Co19  1  0.353005  0.477598  0.500000  1
  Co  Co20  1  0.481629  0.353816  0.500000  1
  Co  Co21  1  0.872187  0.518371  0.500000  1
  Co  Co22  1  0.646184  0.127813  0.500000  1
  Co  Co23  1  0.000000  0.000000  0.000000  1
  P  P24  1  0.177793  0.001047  0.000000  1
  P  P25  1  0.998953  0.176746  0.000000  1
  P  P26  1  0.823254  0.822207  0.000000  1
  P  P27  1  0.523557  0.689303  0.500000  1
  P  P28  1  0.310697  0.834254  0.500000  1
  P  P29  1  0.165746  0.476443  0.500000  1
  P  P30  1  0.480095  0.168998  0.500000  1
  P  P31  1  0.688903  0.519905  0.500000  1
  P  P32  1  0.831002  0.311097  0.500000  1
  P  P33  1  0.644237  0.999826  0.000000  1
  P  P34  1  0.000174  0.644411  0.000000  1
  P  P35  1  0.355589  0.355763  0.000000  1
