# generated using pymatgen
data_KCaTb2CuSe5
_symmetry_space_group_name_H-M   'P 1'
_cell_length_a   4.13675600
_cell_length_b   7.41954673
_cell_length_c   18.02070000
_cell_angle_alpha   90.00000000
_cell_angle_beta   90.00000000
_cell_angle_gamma   73.81293483
_symmetry_Int_Tables_number   1
_chemical_formula_structural   KCaTb2CuSe5
_chemical_formula_sum   'K2 Ca2 Tb4 Cu2 Se10'
_cell_volume   531.17971572
_cell_formula_units_Z   2
loop_
 _symmetry_equiv_pos_site_id
 _symmetry_equiv_pos_as_xyz
  1  'x, y, z'
loop_
 _atom_site_type_symbol
 _atom_site_label
 _atom_site_symmetry_multiplicity
 _atom_site_fract_x
 _atom_site_fract_y
 _atom_site_fract_z
 _atom_site_occupancy
  K  K0  1  0.522404  0.955195  0.250000  1
  K  K1  1  0.477597  0.044805  0.750000  1
  Ca  Ca2  1  0.000000  0.000000  0.000000  1
  Ca  Ca3  1  0.000000  0.000000  0.500000  1
  Tb  Tb4  1  0.270348  0.459303  0.103204  1
  Tb  Tb5  1  0.270348  0.459303  0.396796  1
  Tb  Tb6  1  0.729653  0.540697  0.603204  1
  Tb  Tb7  1  0.729653  0.540697  0.896797  1
  Cu  Cu8  1  0.796374  0.407253  0.250000  1
  Cu  Cu9  1  0.203627  0.592746  0.750000  1
  Se  Se10  1  0.641202  0.717599  0.047331  1
  Se  Se11  1  0.898901  0.202201  0.139426  1
  Se  Se12  1  0.198839  0.602322  0.250000  1
  Se  Se13  1  0.898901  0.202201  0.360574  1
  Se  Se14  1  0.641202  0.717599  0.452670  1
  Se  Se15  1  0.358799  0.282401  0.547330  1
  Se  Se16  1  0.101099  0.797799  0.639426  1
  Se  Se17  1  0.801162  0.397678  0.750000  1
  Se  Se18  1  0.101099  0.797799  0.860574  1
  Se  Se19  1  0.358799  0.282401  0.952670  1
