# generated using pymatgen
data_NaPr9Se10
_symmetry_space_group_name_H-M   'P 1'
_cell_length_a   7.35807364
_cell_length_b   8.52048765
_cell_length_c   9.56823637
_cell_angle_alpha   103.24008966
_cell_angle_beta   97.15978941
_cell_angle_gamma   106.77770875
_symmetry_Int_Tables_number   1
_chemical_formula_structural   NaPr9Se10
_chemical_formula_sum   'Na1 Pr9 Se10'
_cell_volume   547.23746496
_cell_formula_units_Z   1
loop_
 _symmetry_equiv_pos_site_id
 _symmetry_equiv_pos_as_xyz
  1  'x, y, z'
loop_
 _atom_site_type_symbol
 _atom_site_label
 _atom_site_symmetry_multiplicity
 _atom_site_fract_x
 _atom_site_fract_y
 _atom_site_fract_z
 _atom_site_occupancy
  Na  Na0  1  0.000000  0.500000  0.000000  1
  Pr  Pr1  1  0.800161  0.600117  0.597988  1
  Pr  Pr2  1  0.598973  0.200201  0.204642  1
  Pr  Pr3  1  0.401027  0.799799  0.795358  1
  Pr  Pr4  1  0.600592  0.703196  0.205155  1
  Pr  Pr5  1  0.199839  0.399883  0.402012  1
  Pr  Pr6  1  0.399408  0.296804  0.794845  1
  Pr  Pr7  1  0.000000  0.000000  0.000000  1
  Pr  Pr8  1  0.202053  0.901506  0.404528  1
  Pr  Pr9  1  0.797947  0.098494  0.595472  1
  Se  Se10  1  0.702101  0.647973  0.902738  1
  Se  Se11  1  0.500716  0.251512  0.499807  1
  Se  Se12  1  0.703266  0.155078  0.903171  1
  Se  Se13  1  0.296734  0.844922  0.096829  1
  Se  Se14  1  0.499284  0.748488  0.500193  1
  Se  Se15  1  0.097286  0.451044  0.705608  1
  Se  Se16  1  0.297899  0.352027  0.097262  1
  Se  Se17  1  0.902816  0.050342  0.298274  1
  Se  Se18  1  0.097184  0.949658  0.701726  1
  Se  Se19  1  0.902714  0.548956  0.294392  1
