# generated using pymatgen
data_Dy4ReI4
_symmetry_space_group_name_H-M   'P 1'
_cell_length_a   11.71008001
_cell_length_b   11.71008262
_cell_length_c   6.19781045
_cell_angle_alpha   90.00244836
_cell_angle_beta   90.00245044
_cell_angle_gamma   89.94117244
_symmetry_Int_Tables_number   1
_chemical_formula_structural   Dy4ReI4
_chemical_formula_sum   'Dy8 Re2 I8'
_cell_volume   849.88053257
_cell_formula_units_Z   2
loop_
 _symmetry_equiv_pos_site_id
 _symmetry_equiv_pos_as_xyz
  1  'x, y, z'
loop_
 _atom_site_type_symbol
 _atom_site_label
 _atom_site_symmetry_multiplicity
 _atom_site_fract_x
 _atom_site_fract_y
 _atom_site_fract_z
 _atom_site_occupancy
  Dy  Dy0  1  0.808264  0.079289  0.001272  1
  Dy  Dy1  1  0.079289  0.808264  0.501272  1
  Dy  Dy2  1  0.078993  0.191725  0.001007  1
  Dy  Dy3  1  0.191725  0.078993  0.501007  1
  Dy  Dy4  1  0.921007  0.808275  0.998993  1
  Dy  Dy5  1  0.920711  0.191736  0.498728  1
  Dy  Dy6  1  0.191736  0.920711  0.998728  1
  Dy  Dy7  1  0.808275  0.921007  0.498993  1
  Re  Re8  1  0.000204  0.999796  0.250000  1
  Re  Re9  1  0.999796  0.000204  0.750000  1
  I  I10  1  0.654402  0.143447  0.489349  1
  I  I11  1  0.855916  0.655272  0.506335  1
  I  I12  1  0.344728  0.144084  0.993665  1
  I  I13  1  0.144084  0.344728  0.493665  1
  I  I14  1  0.655272  0.855916  0.006335  1
  I  I15  1  0.345598  0.856553  0.510651  1
  I  I16  1  0.143447  0.654402  0.989349  1
  I  I17  1  0.856553  0.345598  0.010651  1
