# generated using pymatgen
data_Dy2Zn3Ga5Ni2
_symmetry_space_group_name_H-M   'P 1'
_cell_length_a   4.09211728
_cell_length_b   6.46127700
_cell_length_c   7.92326948
_cell_angle_alpha   90.00000000
_cell_angle_beta   104.96530275
_cell_angle_gamma   90.00000000
_symmetry_Int_Tables_number   1
_chemical_formula_structural   Dy2Zn3Ga5Ni2
_chemical_formula_sum   'Dy2 Zn3 Ga5 Ni2'
_cell_volume   202.38812330
_cell_formula_units_Z   1
loop_
 _symmetry_equiv_pos_site_id
 _symmetry_equiv_pos_as_xyz
  1  'x, y, z'
loop_
 _atom_site_type_symbol
 _atom_site_label
 _atom_site_symmetry_multiplicity
 _atom_site_fract_x
 _atom_site_fract_y
 _atom_site_fract_z
 _atom_site_occupancy
  Dy  Dy0  1  0.374553  0.750000  0.749106  1
  Dy  Dy1  1  0.623305  0.250000  0.246610  1
  Zn  Zn2  1  0.000696  0.508644  0.001393  1
  Zn  Zn3  1  0.000696  0.991356  0.001393  1
  Zn  Zn4  1  0.568044  0.750000  0.136088  1
  Ga  Ga5  1  0.432844  0.250000  0.865687  1
  Ga  Ga6  1  0.182752  0.551373  0.365505  1
  Ga  Ga7  1  0.815977  0.448381  0.631953  1
  Ga  Ga8  1  0.182752  0.948627  0.365505  1
  Ga  Ga9  1  0.815977  0.051619  0.631953  1
  Ni  Ni10  1  0.724520  0.750000  0.449041  1
  Ni  Ni11  1  0.277883  0.250000  0.555766  1
