# generated using pymatgen
data_Li8Nd7ThPb8
_symmetry_space_group_name_H-M   'P 1'
_cell_length_a   9.67945300
_cell_length_b   9.68046246
_cell_length_c   7.67059601
_cell_angle_alpha   89.99048037
_cell_angle_beta   89.99998661
_cell_angle_gamma   119.99654125
_symmetry_Int_Tables_number   1
_chemical_formula_structural   Li8Nd7ThPb8
_chemical_formula_sum   'Li8 Nd7 Th1 Pb8'
_cell_volume   622.47482186
_cell_formula_units_Z   1
loop_
 _symmetry_equiv_pos_site_id
 _symmetry_equiv_pos_as_xyz
  1  'x, y, z'
loop_
 _atom_site_type_symbol
 _atom_site_label
 _atom_site_symmetry_multiplicity
 _atom_site_fract_x
 _atom_site_fract_y
 _atom_site_fract_z
 _atom_site_occupancy
  Li  Li0  1  0.167164  0.334330  0.286063  1
  Li  Li1  1  0.164459  0.832013  0.284905  1
  Li  Li2  1  0.667555  0.832013  0.284906  1
  Li  Li3  1  0.833242  0.666482  0.789434  1
  Li  Li4  1  0.833925  0.167640  0.787874  1
  Li  Li5  1  0.333716  0.167640  0.787875  1
  Li  Li6  1  0.332122  0.664246  0.674723  1
  Li  Li7  1  0.666733  0.333467  0.171743  1
  Nd  Nd8  1  0.511848  0.488934  0.495102  1
  Nd  Nd9  1  0.977085  0.488934  0.495102  1
  Nd  Nd10  1  0.488248  0.976496  0.994221  1
  Nd  Nd11  1  0.488437  0.511966  0.994811  1
  Nd  Nd12  1  0.023529  0.511966  0.994811  1
  Nd  Nd13  1  0.000437  0.000874  0.499558  1
  Nd  Nd14  1  0.000459  0.000920  0.999608  1
  Th  Th15  1  0.510697  0.021393  0.494467  1
  Pb  Pb16  1  0.166850  0.333702  0.730147  1
  Pb  Pb17  1  0.167680  0.834061  0.727557  1
  Pb  Pb18  1  0.666381  0.834062  0.727556  1
  Pb  Pb19  1  0.833069  0.666138  0.227316  1
  Pb  Pb20  1  0.832091  0.166264  0.232287  1
  Pb  Pb21  1  0.334174  0.166264  0.232287  1
  Pb  Pb22  1  0.333967  0.667934  0.266775  1
  Pb  Pb23  1  0.666132  0.332263  0.762845  1
