# generated using pymatgen
data_YbSc7(Si4Tc3)4
_symmetry_space_group_name_H-M   'P 1'
_cell_length_a   6.66255406
_cell_length_b   6.65934506
_cell_length_c   12.36133300
_cell_angle_alpha   89.89795869
_cell_angle_beta   90.21988555
_cell_angle_gamma   89.96196724
_symmetry_Int_Tables_number   1
_chemical_formula_structural   YbSc7(Si4Tc3)4
_chemical_formula_sum   'Yb1 Sc7 Si16 Tc12'
_cell_volume   548.44563743
_cell_formula_units_Z   1
loop_
 _symmetry_equiv_pos_site_id
 _symmetry_equiv_pos_as_xyz
  1  'x, y, z'
loop_
 _atom_site_type_symbol
 _atom_site_label
 _atom_site_symmetry_multiplicity
 _atom_site_fract_x
 _atom_site_fract_y
 _atom_site_fract_z
 _atom_site_occupancy
  Yb  Yb0  1  0.996885  0.663998  0.028773  1
  Sc  Sc1  1  0.342609  0.997364  0.469394  1
  Sc  Sc2  1  0.501416  0.841688  0.719477  1
  Sc  Sc3  1  0.496587  0.157767  0.220344  1
  Sc  Sc4  1  0.842553  0.501743  0.280222  1
  Sc  Sc5  1  0.157107  0.496047  0.781256  1
  Sc  Sc6  1  0.656481  0.002681  0.969318  1
  Sc  Sc7  1  0.998743  0.342063  0.529848  1
  Si  Si8  1  0.193809  0.125562  0.682981  1
  Si  Si9  1  0.378595  0.692353  0.933673  1
  Si  Si10  1  0.624350  0.307425  0.434744  1
  Si  Si11  1  0.691167  0.375147  0.065919  1
  Si  Si12  1  0.306592  0.624954  0.566008  1
  Si  Si13  1  0.804106  0.878676  0.187504  1
  Si  Si14  1  0.124418  0.192916  0.316790  1
  Si  Si15  1  0.876212  0.806730  0.812701  1
  Si  Si16  1  0.281880  0.973046  0.065123  1
  Si  Si17  1  0.528799  0.780635  0.316228  1
  Si  Si18  1  0.470434  0.216021  0.814825  1
  Si  Si19  1  0.784550  0.530387  0.682768  1
  Si  Si20  1  0.219481  0.470902  0.186552  1
  Si  Si21  1  0.715857  0.031247  0.566334  1
  Si  Si22  1  0.971715  0.276722  0.935213  1
  Si  Si23  1  0.030338  0.716803  0.434139  1
  Tc  Tc24  1  0.334471  0.326578  0.999536  1
  Tc  Tc25  1  0.170809  0.831390  0.253459  1
  Tc  Tc26  1  0.830826  0.167348  0.748715  1
  Tc  Tc27  1  0.669005  0.670092  0.500088  1
  Tc  Tc28  1  0.181500  0.979757  0.867881  1
  Tc  Tc29  1  0.519015  0.679398  0.121926  1
  Tc  Tc30  1  0.479534  0.325082  0.622223  1
  Tc  Tc31  1  0.673760  0.515912  0.874067  1
  Tc  Tc32  1  0.321600  0.476590  0.380994  1
  Tc  Tc33  1  0.824098  0.021851  0.374174  1
  Tc  Tc34  1  0.979110  0.177676  0.130495  1
  Tc  Tc35  1  0.021586  0.825451  0.626309  1
