# generated using pymatgen
data_AcLuV6O18
_symmetry_space_group_name_H-M   'P 1'
_cell_length_a   8.53363943
_cell_length_b   8.58059467
_cell_length_c   10.99970100
_cell_angle_alpha   57.29735136
_cell_angle_beta   122.25292256
_cell_angle_gamma   127.89344677
_symmetry_Int_Tables_number   1
_chemical_formula_structural   AcLuV6O18
_chemical_formula_sum   'Ac1 Lu1 V6 O18'
_cell_volume   509.56142730
_cell_formula_units_Z   1
loop_
 _symmetry_equiv_pos_site_id
 _symmetry_equiv_pos_as_xyz
  1  'x, y, z'
loop_
 _atom_site_type_symbol
 _atom_site_label
 _atom_site_symmetry_multiplicity
 _atom_site_fract_x
 _atom_site_fract_y
 _atom_site_fract_z
 _atom_site_occupancy
  Ac  Ac0  1  0.382787  0.125861  0.355715  1
  Lu  Lu1  1  0.868268  0.611415  0.852452  1
  V  V2  1  0.671514  0.137166  0.171469  1
  V  V3  1  0.897287  0.356075  0.689195  1
  V  V4  1  0.063678  0.093355  0.531001  1
  V  V5  1  0.877343  0.905560  0.013692  1
  V  V6  1  0.331097  0.564424  0.605840  1
  V  V7  1  0.417218  0.692218  0.080307  1
  O  O8  1  0.860055  0.090136  0.352639  1
  O  O9  1  0.924395  0.147197  0.860723  1
  O  O10  1  0.223516  0.038753  0.532533  1
  O  O11  1  0.926483  0.757454  0.995452  1
  O  O12  1  0.967898  0.918810  0.679496  1
  O  O13  1  0.036369  0.958979  0.178562  1
  O  O14  1  0.206358  0.353432  0.538419  1
  O  O15  1  0.609168  0.777517  0.004494  1
  O  O16  1  0.551066  0.229440  0.178182  1
  O  O17  1  0.804851  0.470210  0.703356  1
  O  O18  1  0.483060  0.892281  0.135776  1
  O  O19  1  0.151099  0.538725  0.662325  1
  O  O20  1  0.395208  0.792290  0.465418  1
  O  O21  1  0.181635  0.640290  0.947581  1
  O  O22  1  0.407553  0.477740  0.233183  1
  O  O23  1  0.546843  0.561389  0.753789  1
  O  O24  1  0.731091  0.260420  0.542546  1
  O  O25  1  0.784761  0.308271  0.031651  1
