# generated using pymatgen
data_YTh2(AlPd)3
_symmetry_space_group_name_H-M   'P 1'
_cell_length_a   7.29219636
_cell_length_b   7.23547065
_cell_length_c   4.16079500
_cell_angle_alpha   90.00000000
_cell_angle_beta   90.00000000
_cell_angle_gamma   119.74300625
_symmetry_Int_Tables_number   1
_chemical_formula_structural   YTh2(AlPd)3
_chemical_formula_sum   'Y1 Th2 Al3 Pd3'
_cell_volume   190.61230903
_cell_formula_units_Z   1
loop_
 _symmetry_equiv_pos_site_id
 _symmetry_equiv_pos_as_xyz
  1  'x, y, z'
loop_
 _atom_site_type_symbol
 _atom_site_label
 _atom_site_symmetry_multiplicity
 _atom_site_fract_x
 _atom_site_fract_y
 _atom_site_fract_z
 _atom_site_occupancy
  Y  Y0  1  0.000000  0.584315  0.500000  1
  Th  Th1  1  0.418538  0.419847  0.500000  1
  Th  Th2  1  0.581462  0.001309  0.500000  1
  Al  Al3  1  0.000000  0.237142  0.000000  1
  Al  Al4  1  0.771272  0.765691  0.000000  1
  Al  Al5  1  0.228728  0.994420  0.000000  1
  Pd  Pd6  1  0.664590  0.330888  0.000000  1
  Pd  Pd7  1  0.000000  0.000088  0.500000  1
  Pd  Pd8  1  0.335410  0.666299  0.000000  1
