# generated using pymatgen
data_Sr2Tm2LuSn4
_symmetry_space_group_name_H-M   'P 1'
_cell_length_a   8.22405300
_cell_length_b   8.37715700
_cell_length_c   15.82828600
_cell_angle_alpha   90.00000000
_cell_angle_beta   90.00000000
_cell_angle_gamma   90.00000000
_symmetry_Int_Tables_number   1
_chemical_formula_structural   Sr2Tm2LuSn4
_chemical_formula_sum   'Sr8 Tm8 Lu4 Sn16'
_cell_volume   1090.47683475
_cell_formula_units_Z   4
loop_
 _symmetry_equiv_pos_site_id
 _symmetry_equiv_pos_as_xyz
  1  'x, y, z'
loop_
 _atom_site_type_symbol
 _atom_site_label
 _atom_site_symmetry_multiplicity
 _atom_site_fract_x
 _atom_site_fract_y
 _atom_site_fract_z
 _atom_site_occupancy
  Sr  Sr0  1  0.501131  0.326979  0.906283  1
  Sr  Sr1  1  0.001131  0.173021  0.593717  1
  Sr  Sr2  1  0.498869  0.673021  0.406283  1
  Sr  Sr3  1  0.998869  0.826979  0.093717  1
  Sr  Sr4  1  0.498869  0.673021  0.093717  1
  Sr  Sr5  1  0.998869  0.826979  0.406283  1
  Sr  Sr6  1  0.501131  0.326979  0.593717  1
  Sr  Sr7  1  0.001131  0.173021  0.906283  1
  Tm  Tm8  1  0.330523  0.838975  0.875004  1
  Tm  Tm9  1  0.830523  0.661025  0.624996  1
  Tm  Tm10  1  0.669477  0.161025  0.375004  1
  Tm  Tm11  1  0.169477  0.338975  0.124996  1
  Tm  Tm12  1  0.669477  0.161025  0.124996  1
  Tm  Tm13  1  0.169477  0.338975  0.375004  1
  Tm  Tm14  1  0.330523  0.838975  0.624996  1
  Tm  Tm15  1  0.830523  0.661025  0.875004  1
  Lu  Lu16  1  0.168691  0.497556  0.750000  1
  Lu  Lu17  1  0.668691  0.002444  0.750000  1
  Lu  Lu18  1  0.831309  0.502444  0.250000  1
  Lu  Lu19  1  0.331309  0.997556  0.250000  1
  Sn  Sn20  1  0.337235  0.042944  0.043641  1
  Sn  Sn21  1  0.837235  0.457056  0.456359  1
  Sn  Sn22  1  0.662765  0.957056  0.543641  1
  Sn  Sn23  1  0.162765  0.542944  0.956359  1
  Sn  Sn24  1  0.662765  0.957056  0.956359  1
  Sn  Sn25  1  0.162765  0.542944  0.543641  1
  Sn  Sn26  1  0.337235  0.042944  0.456359  1
  Sn  Sn27  1  0.837235  0.457056  0.043641  1
  Sn  Sn28  1  0.528570  0.632477  0.750000  1
  Sn  Sn29  1  0.028570  0.867523  0.750000  1
  Sn  Sn30  1  0.471430  0.367523  0.250000  1
  Sn  Sn31  1  0.971430  0.132477  0.250000  1
  Sn  Sn32  1  0.304140  0.135595  0.750000  1
  Sn  Sn33  1  0.804140  0.364405  0.750000  1
  Sn  Sn34  1  0.695860  0.864405  0.250000  1
  Sn  Sn35  1  0.195860  0.635595  0.250000  1
