# generated using pymatgen
data_Ce4In2CuRh2Au
_symmetry_space_group_name_H-M   'P 1'
_cell_length_a   7.81966991
_cell_length_b   7.81966949
_cell_length_c   3.77278600
_cell_angle_alpha   90.00000000
_cell_angle_beta   90.00000000
_cell_angle_gamma   89.25905592
_symmetry_Int_Tables_number   1
_chemical_formula_structural   Ce4In2CuRh2Au
_chemical_formula_sum   'Ce4 In2 Cu1 Rh2 Au1'
_cell_volume   230.67613934
_cell_formula_units_Z   1
loop_
 _symmetry_equiv_pos_site_id
 _symmetry_equiv_pos_as_xyz
  1  'x, y, z'
loop_
 _atom_site_type_symbol
 _atom_site_label
 _atom_site_symmetry_multiplicity
 _atom_site_fract_x
 _atom_site_fract_y
 _atom_site_fract_z
 _atom_site_occupancy
  Ce  Ce0  1  0.667851  0.167851  0.500000  1
  Ce  Ce1  1  0.338170  0.838170  0.500000  1
  Ce  Ce2  1  0.180931  0.313875  0.500000  1
  Ce  Ce3  1  0.813875  0.680931  0.500000  1
  In  In4  1  0.998143  0.003715  0.000000  1
  In  In5  1  0.503715  0.498143  0.000000  1
  Cu  Cu6  1  0.875028  0.375028  0.000000  1
  Rh  Rh7  1  0.636589  0.864028  0.000000  1
  Rh  Rh8  1  0.364028  0.136589  0.000000  1
  Au  Au9  1  0.121670  0.621670  0.000000  1
