# generated using pymatgen
data_K2Mn2(SiO3)3
_symmetry_space_group_name_H-M   'P 1'
_cell_length_a   7.13400100
_cell_length_b   6.46995045
_cell_length_c   11.85335271
_cell_angle_alpha   60.25404642
_cell_angle_beta   90.00000000
_cell_angle_gamma   90.00000000
_symmetry_Int_Tables_number   1
_chemical_formula_structural   K2Mn2(SiO3)3
_chemical_formula_sum   'K4 Mn4 Si6 O18'
_cell_volume   475.02016368
_cell_formula_units_Z   2
loop_
 _symmetry_equiv_pos_site_id
 _symmetry_equiv_pos_as_xyz
  1  'x, y, z'
loop_
 _atom_site_type_symbol
 _atom_site_label
 _atom_site_symmetry_multiplicity
 _atom_site_fract_x
 _atom_site_fract_y
 _atom_site_fract_z
 _atom_site_occupancy
  K  K0  1  0.396977  0.442828  0.769160  1
  K  K1  1  0.603023  0.442828  0.269160  1
  K  K2  1  0.656715  0.827153  0.897866  1
  K  K3  1  0.343285  0.827153  0.397866  1
  Mn  Mn4  1  0.835229  0.874254  0.591258  1
  Mn  Mn5  1  0.164771  0.874254  0.091258  1
  Mn  Mn6  1  0.927442  0.340223  0.856708  1
  Mn  Mn7  1  0.072558  0.340223  0.356708  1
  Si  Si8  1  0.583358  0.115116  0.088513  1
  Si  Si9  1  0.416642  0.115116  0.588513  1
  Si  Si10  1  0.241001  0.425359  0.052140  1
  Si  Si11  1  0.758999  0.425359  0.552140  1
  Si  Si12  1  0.124110  0.874933  0.817861  1
  Si  Si13  1  0.875890  0.874933  0.317861  1
  O  O14  1  0.853305  0.490898  0.654562  1
  O  O15  1  0.146695  0.490898  0.154562  1
  O  O16  1  0.455676  0.319075  0.103372  1
  O  O17  1  0.544324  0.319075  0.603372  1
  O  O18  1  0.456880  0.879006  0.131857  1
  O  O19  1  0.543120  0.879006  0.631857  1
  O  O20  1  0.030442  0.992861  0.897764  1
  O  O21  1  0.969558  0.992861  0.397764  1
  O  O22  1  0.870850  0.253628  0.511949  1
  O  O23  1  0.129150  0.253628  0.011949  1
  O  O24  1  0.666946  0.229837  0.942839  1
  O  O25  1  0.333054  0.229837  0.442839  1
  O  O26  1  0.973546  0.734920  0.776360  1
  O  O27  1  0.026454  0.734920  0.276360  1
  O  O28  1  0.286563  0.680303  0.914516  1
  O  O29  1  0.713437  0.680303  0.414516  1
  O  O30  1  0.751868  0.073507  0.194714  1
  O  O31  1  0.248132  0.073507  0.694714  1
