# generated using pymatgen
data_Hf9ZrCuBiPb6
_symmetry_space_group_name_H-M   'P 1'
_cell_length_a   8.81370772
_cell_length_b   8.81984582
_cell_length_c   5.99319103
_cell_angle_alpha   89.98778188
_cell_angle_beta   90.00611023
_cell_angle_gamma   120.02302570
_symmetry_Int_Tables_number   1
_chemical_formula_structural   Hf9ZrCuBiPb6
_chemical_formula_sum   'Hf9 Zr1 Cu1 Bi1 Pb6'
_cell_volume   403.37368985
_cell_formula_units_Z   1
loop_
 _symmetry_equiv_pos_site_id
 _symmetry_equiv_pos_as_xyz
  1  'x, y, z'
loop_
 _atom_site_type_symbol
 _atom_site_label
 _atom_site_symmetry_multiplicity
 _atom_site_fract_x
 _atom_site_fract_y
 _atom_site_fract_z
 _atom_site_occupancy
  Hf  Hf0  1  0.666433  0.332811  0.499724  1
  Hf  Hf1  1  0.333567  0.666378  0.499724  1
  Hf  Hf2  1  0.333540  0.666356  0.000278  1
  Hf  Hf3  1  0.666460  0.332815  0.000278  1
  Hf  Hf4  1  0.726989  0.728049  0.224762  1
  Hf  Hf5  1  0.273011  0.001060  0.224762  1
  Hf  Hf6  1  0.000000  0.272958  0.222880  1
  Hf  Hf7  1  0.271739  0.270420  0.776485  1
  Hf  Hf8  1  0.728261  0.998681  0.776485  1
  Zr  Zr9  1  0.000000  0.728727  0.773422  1
  Cu  Cu10  1  0.000000  0.002041  0.002981  1
  Bi  Bi11  1  0.000000  0.000972  0.498360  1
  Pb  Pb12  1  0.386128  0.386095  0.259452  1
  Pb  Pb13  1  0.613872  0.999967  0.259452  1
  Pb  Pb14  1  0.000000  0.614964  0.258420  1
  Pb  Pb15  1  0.612884  0.612695  0.741268  1
  Pb  Pb16  1  0.387116  0.999811  0.741268  1
  Pb  Pb17  1  0.000000  0.385199  0.739998  1
