# generated using pymatgen
data_Ti18VSi16Tc
_symmetry_space_group_name_H-M   'P 1'
_cell_length_a   6.66913066
_cell_length_b   6.66913142
_cell_length_c   12.14930573
_cell_angle_alpha   89.94079238
_cell_angle_beta   90.05920756
_cell_angle_gamma   90.04656664
_symmetry_Int_Tables_number   1
_chemical_formula_structural   Ti18VSi16Tc
_chemical_formula_sum   'Ti18 V1 Si16 Tc1'
_cell_volume   540.36766846
_cell_formula_units_Z   1
loop_
 _symmetry_equiv_pos_site_id
 _symmetry_equiv_pos_as_xyz
  1  'x, y, z'
loop_
 _atom_site_type_symbol
 _atom_site_label
 _atom_site_symmetry_multiplicity
 _atom_site_fract_x
 _atom_site_fract_y
 _atom_site_fract_z
 _atom_site_occupancy
  Ti  Ti0  1  0.994651  0.146994  0.621915  1
  Ti  Ti1  1  0.351745  0.497996  0.870355  1
  Ti  Ti2  1  0.649972  0.504321  0.372011  1
  Ti  Ti3  1  0.497996  0.351745  0.129645  1
  Ti  Ti4  1  0.504321  0.649972  0.627989  1
  Ti  Ti5  1  0.004764  0.850150  0.121357  1
  Ti  Ti6  1  0.146994  0.994651  0.378085  1
  Ti  Ti7  1  0.850150  0.004764  0.878643  1
  Ti  Ti8  1  0.001670  0.345882  0.220965  1
  Ti  Ti9  1  0.155044  0.502149  0.469145  1
  Ti  Ti10  1  0.841502  0.499714  0.969883  1
  Ti  Ti11  1  0.502149  0.155044  0.530855  1
  Ti  Ti12  1  0.499714  0.841502  0.030117  1
  Ti  Ti13  1  0.997332  0.657052  0.719785  1
  Ti  Ti14  1  0.345882  0.001670  0.779035  1
  Ti  Ti15  1  0.657052  0.997332  0.280215  1
  Ti  Ti16  1  0.328803  0.671073  0.249226  1
  Ti  Ti17  1  0.671073  0.328803  0.750774  1
  V  V18  1  0.828913  0.828913  0.500000  1
  Si  Si19  1  0.046028  0.300599  0.814621  1
  Si  Si20  1  0.198831  0.541470  0.063448  1
  Si  Si21  1  0.802320  0.458136  0.563724  1
  Si  Si22  1  0.541470  0.198831  0.936552  1
  Si  Si23  1  0.458136  0.802320  0.436276  1
  Si  Si24  1  0.953291  0.700196  0.315607  1
  Si  Si25  1  0.300599  0.046028  0.185379  1
  Si  Si26  1  0.700196  0.953291  0.684393  1
  Si  Si27  1  0.294744  0.356721  0.673096  1
  Si  Si28  1  0.141718  0.794851  0.921680  1
  Si  Si29  1  0.856581  0.203478  0.424164  1
  Si  Si30  1  0.794851  0.141718  0.078320  1
  Si  Si31  1  0.203478  0.856581  0.575836  1
  Si  Si32  1  0.705932  0.643537  0.173671  1
  Si  Si33  1  0.356721  0.294744  0.326904  1
  Si  Si34  1  0.643537  0.705932  0.826329  1
  Tc  Tc35  1  0.171840  0.171840  0.000000  1
