# generated using pymatgen
data_Sm3Ho3Al24Os5Pd3
_symmetry_space_group_name_H-M   'P 1'
_cell_length_a   8.86568524
_cell_length_b   8.87804744
_cell_length_c   9.57020239
_cell_angle_alpha   89.89942828
_cell_angle_beta   89.77111021
_cell_angle_gamma   119.60420680
_symmetry_Int_Tables_number   1
_chemical_formula_structural   Sm3Ho3Al24Os5Pd3
_chemical_formula_sum   'Sm3 Ho3 Al24 Os5 Pd3'
_cell_volume   654.92620933
_cell_formula_units_Z   1
loop_
 _symmetry_equiv_pos_site_id
 _symmetry_equiv_pos_as_xyz
  1  'x, y, z'
loop_
 _atom_site_type_symbol
 _atom_site_label
 _atom_site_symmetry_multiplicity
 _atom_site_fract_x
 _atom_site_fract_y
 _atom_site_fract_z
 _atom_site_occupancy
  Sm  Sm0  1  0.185454  0.379163  0.251213  1
  Sm  Sm1  1  0.814038  0.620745  0.748781  1
  Sm  Sm2  1  0.618203  0.816393  0.253095  1
  Ho  Ho3  1  0.385229  0.183686  0.746801  1
  Ho  Ho4  1  0.194971  0.809975  0.251205  1
  Ho  Ho5  1  0.803506  0.189700  0.748770  1
  Al  Al6  1  0.335685  0.671942  0.026177  1
  Al  Al7  1  0.663231  0.328203  0.971700  1
  Al  Al8  1  0.669758  0.331828  0.524588  1
  Al  Al9  1  0.329298  0.668245  0.477351  1
  Al  Al10  1  0.156918  0.323905  0.577580  1
  Al  Al11  1  0.843657  0.675301  0.423688  1
  Al  Al12  1  0.675062  0.842696  0.578187  1
  Al  Al13  1  0.838075  0.677371  0.079481  1
  Al  Al14  1  0.324789  0.157354  0.424018  1
  Al  Al15  1  0.162671  0.321521  0.919140  1
  Al  Al16  1  0.164505  0.835863  0.573823  1
  Al  Al17  1  0.325328  0.157793  0.074486  1
  Al  Al18  1  0.835507  0.165211  0.427175  1
  Al  Al19  1  0.674608  0.842152  0.923450  1
  Al  Al20  1  0.831722  0.159586  0.075070  1
  Al  Al21  1  0.168539  0.841855  0.923851  1
  Al  Al22  1  0.560432  0.125532  0.249082  1
  Al  Al23  1  0.438509  0.875286  0.750895  1
  Al  Al24  1  0.874228  0.438851  0.253088  1
  Al  Al25  1  0.125663  0.561067  0.747081  1
  Al  Al26  1  0.562862  0.437140  0.249328  1
  Al  Al27  1  0.436446  0.560654  0.750615  1
  Al  Al28  1  0.000525  0.000508  0.250211  1
  Al  Al29  1  0.002923  0.001859  0.749717  1
  Os  Os30  1  0.499718  0.000554  0.999084  1
  Os  Os31  1  0.499659  0.000632  0.501030  1
  Os  Os32  1  0.999632  0.499639  0.500284  1
  Os  Os33  1  0.999964  0.999856  0.999780  1
  Os  Os34  1  0.999933  0.999865  0.500195  1
  Pd  Pd35  1  0.999684  0.499705  0.999897  1
  Pd  Pd36  1  0.499544  0.499268  0.999456  1
  Pd  Pd37  1  0.499522  0.499091  0.500624  1
