# generated using pymatgen
data_Dy3Tm(SiRh2)8
_symmetry_space_group_name_H-M   'P 1'
_cell_length_a   4.12146300
_cell_length_b   9.10083557
_cell_length_c   11.27753096
_cell_angle_alpha   90.06743824
_cell_angle_beta   90.00000000
_cell_angle_gamma   90.00000000
_symmetry_Int_Tables_number   1
_chemical_formula_structural   Dy3Tm(SiRh2)8
_chemical_formula_sum   'Dy3 Tm1 Si8 Rh16'
_cell_volume   423.00587614
_cell_formula_units_Z   1
loop_
 _symmetry_equiv_pos_site_id
 _symmetry_equiv_pos_as_xyz
  1  'x, y, z'
loop_
 _atom_site_type_symbol
 _atom_site_label
 _atom_site_symmetry_multiplicity
 _atom_site_fract_x
 _atom_site_fract_y
 _atom_site_fract_z
 _atom_site_occupancy
  Dy  Dy0  1  0.250000  0.147575  0.824968  1
  Dy  Dy1  1  0.250000  0.352494  0.325355  1
  Dy  Dy2  1  0.750000  0.852279  0.174888  1
  Tm  Tm3  1  0.750000  0.647421  0.674958  1
  Si  Si4  1  0.250000  0.412035  0.636808  1
  Si  Si5  1  0.250000  0.088806  0.136580  1
  Si  Si6  1  0.750000  0.588880  0.363503  1
  Si  Si7  1  0.750000  0.910694  0.862904  1
  Si  Si8  1  0.250000  0.616529  0.058486  1
  Si  Si9  1  0.250000  0.883414  0.558686  1
  Si  Si10  1  0.750000  0.383717  0.941574  1
  Si  Si11  1  0.750000  0.116429  0.441620  1
  Rh  Rh12  1  0.250000  0.616222  0.502543  1
  Rh  Rh13  1  0.250000  0.884884  0.999853  1
  Rh  Rh14  1  0.750000  0.385639  0.499637  1
  Rh  Rh15  1  0.750000  0.114972  0.999276  1
  Rh  Rh16  1  0.250000  0.683949  0.269675  1
  Rh  Rh17  1  0.250000  0.812943  0.767926  1
  Rh  Rh18  1  0.750000  0.316582  0.730939  1
  Rh  Rh19  1  0.750000  0.184564  0.230981  1
  Rh  Rh20  1  0.250000  0.172854  0.559513  1
  Rh  Rh21  1  0.250000  0.327421  0.058995  1
  Rh  Rh22  1  0.750000  0.827132  0.441270  1
  Rh  Rh23  1  0.750000  0.672249  0.939748  1
  Rh  Rh24  1  0.250000  0.007513  0.344533  1
  Rh  Rh25  1  0.250000  0.493189  0.844003  1
  Rh  Rh26  1  0.750000  0.991808  0.655554  1
  Rh  Rh27  1  0.750000  0.507805  0.155225  1
