# generated using pymatgen
data_Pa2Si7(Ni3Mo)3
_symmetry_space_group_name_H-M   'P 1'
_cell_length_a   3.86672200
_cell_length_b   9.41087987
_cell_length_c   9.41087900
_cell_angle_alpha   120.00000046
_cell_angle_beta   90.00000000
_cell_angle_gamma   90.00000000
_symmetry_Int_Tables_number   1
_chemical_formula_structural   Pa2Si7(Ni3Mo)3
_chemical_formula_sum   'Pa2 Si7 Ni9 Mo3'
_cell_volume   296.57463062
_cell_formula_units_Z   1
loop_
 _symmetry_equiv_pos_site_id
 _symmetry_equiv_pos_as_xyz
  1  'x, y, z'
loop_
 _atom_site_type_symbol
 _atom_site_label
 _atom_site_symmetry_multiplicity
 _atom_site_fract_x
 _atom_site_fract_y
 _atom_site_fract_z
 _atom_site_occupancy
  Pa  Pa0  1  0.000000  0.666667  0.333333  1
  Pa  Pa1  1  0.500000  0.333333  0.666667  1
  Si  Si2  1  0.000000  0.000000  0.000000  1
  Si  Si3  1  0.500000  0.706351  0.106084  1
  Si  Si4  1  0.500000  0.399733  0.293649  1
  Si  Si5  1  0.500000  0.893916  0.600267  1
  Si  Si6  1  0.000000  0.593643  0.697524  1
  Si  Si7  1  0.000000  0.103882  0.406357  1
  Si  Si8  1  0.000000  0.302476  0.896118  1
  Ni  Ni9  1  0.000000  0.566318  0.932907  1
  Ni  Ni10  1  0.000000  0.366589  0.433682  1
  Ni  Ni11  1  0.000000  0.067093  0.633411  1
  Ni  Ni12  1  0.000000  0.866272  0.152842  1
  Ni  Ni13  1  0.000000  0.286571  0.133728  1
  Ni  Ni14  1  0.000000  0.847158  0.713429  1
  Ni  Ni15  1  0.500000  0.936435  0.378013  1
  Ni  Ni16  1  0.500000  0.441577  0.063565  1
  Ni  Ni17  1  0.500000  0.621987  0.558423  1
  Mo  Mo18  1  0.500000  0.782890  0.889503  1
  Mo  Mo19  1  0.500000  0.106613  0.217110  1
  Mo  Mo20  1  0.500000  0.110497  0.893387  1
