# generated using pymatgen
data_Sr3CdCoO6
_symmetry_space_group_name_H-M   'P 1'
_cell_length_a   6.75645039
_cell_length_b   6.75645020
_cell_length_c   6.75645138
_cell_angle_alpha   90.90952982
_cell_angle_beta   90.90953704
_cell_angle_gamma   90.90952458
_symmetry_Int_Tables_number   1
_chemical_formula_structural   Sr3CdCoO6
_chemical_formula_sum   'Sr6 Cd2 Co2 O12'
_cell_volume   308.31161263
_cell_formula_units_Z   2
loop_
 _symmetry_equiv_pos_site_id
 _symmetry_equiv_pos_as_xyz
  1  'x, y, z'
loop_
 _atom_site_type_symbol
 _atom_site_label
 _atom_site_symmetry_multiplicity
 _atom_site_fract_x
 _atom_site_fract_y
 _atom_site_fract_z
 _atom_site_occupancy
  Sr  Sr0  1  0.884310  0.615690  0.250000  1
  Sr  Sr1  1  0.250000  0.884310  0.615690  1
  Sr  Sr2  1  0.615690  0.250000  0.884310  1
  Sr  Sr3  1  0.750000  0.115690  0.384310  1
  Sr  Sr4  1  0.384310  0.750000  0.115690  1
  Sr  Sr5  1  0.115690  0.384310  0.750000  1
  Cd  Cd6  1  0.250000  0.250000  0.250000  1
  Cd  Cd7  1  0.750000  0.750000  0.750000  1
  Co  Co8  1  0.500000  0.500000  0.500000  1
  Co  Co9  1  0.000000  0.000000  0.000000  1
  O  O10  1  0.226428  0.553423  0.422457  1
  O  O11  1  0.422457  0.226428  0.553423  1
  O  O12  1  0.553423  0.422457  0.226428  1
  O  O13  1  0.922457  0.053423  0.726428  1
  O  O14  1  0.726428  0.922457  0.053423  1
  O  O15  1  0.053423  0.726428  0.922457  1
  O  O16  1  0.773572  0.446577  0.577543  1
  O  O17  1  0.577543  0.773572  0.446577  1
  O  O18  1  0.446577  0.577543  0.773572  1
  O  O19  1  0.077543  0.946577  0.273572  1
  O  O20  1  0.273572  0.077543  0.946577  1
  O  O21  1  0.946577  0.273572  0.077543  1
