# generated using pymatgen
data_Tm2Nb3Si4
_symmetry_space_group_name_H-M   'P 1'
_cell_length_a   7.03903910
_cell_length_b   7.04181505
_cell_length_c   12.97124195
_cell_angle_alpha   90.00442360
_cell_angle_beta   89.93782990
_cell_angle_gamma   90.05785299
_symmetry_Int_Tables_number   1
_chemical_formula_structural   Tm2Nb3Si4
_chemical_formula_sum   'Tm8 Nb12 Si16'
_cell_volume   642.95277385
_cell_formula_units_Z   4
loop_
 _symmetry_equiv_pos_site_id
 _symmetry_equiv_pos_as_xyz
  1  'x, y, z'
loop_
 _atom_site_type_symbol
 _atom_site_label
 _atom_site_symmetry_multiplicity
 _atom_site_fract_x
 _atom_site_fract_y
 _atom_site_fract_z
 _atom_site_occupancy
  Tm  Tm0  1  0.998860  0.341440  0.218111  1
  Tm  Tm1  1  0.001221  0.658339  0.718118  1
  Tm  Tm2  1  0.158448  0.498940  0.468100  1
  Tm  Tm3  1  0.501283  0.841715  0.031857  1
  Tm  Tm4  1  0.841995  0.501061  0.968111  1
  Tm  Tm5  1  0.499041  0.158366  0.531972  1
  Tm  Tm6  1  0.341772  0.998839  0.781880  1
  Tm  Tm7  1  0.658152  0.000784  0.281925  1
  Nb  Nb8  1  0.171254  0.171400  0.000026  1
  Nb  Nb9  1  0.828810  0.828874  0.499990  1
  Nb  Nb10  1  0.328566  0.670830  0.250098  1
  Nb  Nb11  1  0.671274  0.328870  0.749925  1
  Nb  Nb12  1  0.152446  0.993095  0.376063  1
  Nb  Nb13  1  0.847414  0.006822  0.876075  1
  Nb  Nb14  1  0.506343  0.652809  0.626478  1
  Nb  Nb15  1  0.347310  0.493627  0.873694  1
  Nb  Nb16  1  0.493339  0.347226  0.126422  1
  Nb  Nb17  1  0.652332  0.506516  0.373494  1
  Nb  Nb18  1  0.993205  0.153045  0.623799  1
  Nb  Nb19  1  0.006607  0.847204  0.123877  1
  Si  Si20  1  0.295030  0.045256  0.186270  1
  Si  Si21  1  0.705108  0.954475  0.686250  1
  Si  Si22  1  0.454571  0.795111  0.436449  1
  Si  Si23  1  0.205022  0.545407  0.063771  1
  Si  Si24  1  0.545421  0.205102  0.936260  1
  Si  Si25  1  0.795017  0.455037  0.563556  1
  Si  Si26  1  0.045684  0.295107  0.813677  1
  Si  Si27  1  0.954318  0.704698  0.313727  1
  Si  Si28  1  0.365786  0.294404  0.319051  1
  Si  Si29  1  0.634303  0.705127  0.819023  1
  Si  Si30  1  0.204916  0.866196  0.568979  1
  Si  Si31  1  0.134168  0.795118  0.931128  1
  Si  Si32  1  0.794926  0.134054  0.068931  1
  Si  Si33  1  0.865927  0.205233  0.430910  1
  Si  Si34  1  0.294922  0.365912  0.681050  1
  Si  Si35  1  0.705208  0.633960  0.180953  1
