# generated using pymatgen
data_Y6Ho10Cd4Os3Pd
_symmetry_space_group_name_H-M   'P 1'
_cell_length_a   9.63048685
_cell_length_b   9.71070434
_cell_length_c   9.71075091
_cell_angle_alpha   59.60559238
_cell_angle_beta   59.30908065
_cell_angle_gamma   59.30777617
_symmetry_Int_Tables_number   1
_chemical_formula_structural   Y6Ho10Cd4Os3Pd
_chemical_formula_sum   'Y6 Ho10 Cd4 Os3 Pd1'
_cell_volume   633.48076701
_cell_formula_units_Z   1
loop_
 _symmetry_equiv_pos_site_id
 _symmetry_equiv_pos_as_xyz
  1  'x, y, z'
loop_
 _atom_site_type_symbol
 _atom_site_label
 _atom_site_symmetry_multiplicity
 _atom_site_fract_x
 _atom_site_fract_y
 _atom_site_fract_z
 _atom_site_occupancy
  Y  Y0  1  0.939373  0.558825  0.558831  1
  Y  Y1  1  0.554698  0.939795  0.939797  1
  Y  Y2  1  0.553773  0.939694  0.566966  1
  Y  Y3  1  0.937557  0.559468  0.940034  1
  Y  Y4  1  0.553780  0.566980  0.939690  1
  Y  Y5  1  0.937579  0.940030  0.559462  1
  Ho  Ho6  1  0.347691  0.351213  0.351155  1
  Ho  Ho7  1  0.345570  0.351918  0.954760  1
  Ho  Ho8  1  0.345594  0.954736  0.351877  1
  Ho  Ho9  1  0.966603  0.344570  0.344516  1
  Ho  Ho10  1  0.814727  0.189729  0.189692  1
  Ho  Ho11  1  0.183250  0.811002  0.811081  1
  Ho  Ho12  1  0.186675  0.811423  0.189958  1
  Ho  Ho13  1  0.814441  0.189538  0.803202  1
  Ho  Ho14  1  0.186663  0.189973  0.811454  1
  Ho  Ho15  1  0.814503  0.803148  0.189528  1
  Cd  Cd16  1  0.580072  0.579568  0.579573  1
  Cd  Cd17  1  0.580479  0.579601  0.258775  1
  Cd  Cd18  1  0.580479  0.258773  0.579605  1
  Cd  Cd19  1  0.256627  0.581195  0.581198  1
  Os  Os20  1  0.146846  0.137995  0.138010  1
  Os  Os21  1  0.148068  0.140274  0.578314  1
  Os  Os22  1  0.148058  0.578309  0.140284  1
  Pd  Pd23  1  0.576893  0.142241  0.142239  1
