# generated using pymatgen
data_Er4Lu13(ScBi4)3
_symmetry_space_group_name_H-M   'P 1'
_cell_length_a   8.05265400
_cell_length_b   9.33609200
_cell_length_c   11.77440700
_cell_angle_alpha   90.00000000
_cell_angle_beta   89.99942081
_cell_angle_gamma   90.00000000
_symmetry_Int_Tables_number   1
_chemical_formula_structural   Er4Lu13(ScBi4)3
_chemical_formula_sum   'Er4 Lu13 Sc3 Bi12'
_cell_volume   885.20366942
_cell_formula_units_Z   1
loop_
 _symmetry_equiv_pos_site_id
 _symmetry_equiv_pos_as_xyz
  1  'x, y, z'
loop_
 _atom_site_type_symbol
 _atom_site_label
 _atom_site_symmetry_multiplicity
 _atom_site_fract_x
 _atom_site_fract_y
 _atom_site_fract_z
 _atom_site_occupancy
  Er  Er0  1  0.314428  0.250000  0.216408  1
  Er  Er1  1  0.815281  0.250000  0.281578  1
  Er  Er2  1  0.684734  0.750000  0.782394  1
  Er  Er3  1  0.184105  0.750000  0.717891  1
  Lu  Lu4  1  0.350559  0.750000  0.218345  1
  Lu  Lu5  1  0.851741  0.750000  0.281118  1
  Lu  Lu6  1  0.649055  0.250000  0.781324  1
  Lu  Lu7  1  0.148326  0.250000  0.719051  1
  Lu  Lu8  1  0.693830  0.567164  0.059759  1
  Lu  Lu9  1  0.193041  0.932204  0.439856  1
  Lu  Lu10  1  0.306249  0.067022  0.940281  1
  Lu  Lu11  1  0.808642  0.434013  0.561000  1
  Lu  Lu12  1  0.306249  0.432978  0.940281  1
  Lu  Lu13  1  0.808642  0.065987  0.561000  1
  Lu  Lu14  1  0.693830  0.932836  0.059759  1
  Lu  Lu15  1  0.193041  0.567796  0.439856  1
  Lu  Lu16  1  0.479234  0.250000  0.488487  1
  Sc  Sc17  1  0.979849  0.250000  0.011823  1
  Sc  Sc18  1  0.520074  0.750000  0.511816  1
  Sc  Sc19  1  0.020266  0.750000  0.988253  1
  Bi  Bi20  1  0.398453  0.750000  0.959811  1
  Bi  Bi21  1  0.898054  0.750000  0.540310  1
  Bi  Bi22  1  0.601872  0.250000  0.040239  1
  Bi  Bi23  1  0.098206  0.250000  0.458989  1
  Bi  Bi24  1  0.566056  0.992963  0.327780  1
  Bi  Bi25  1  0.064880  0.505008  0.170378  1
  Bi  Bi26  1  0.434933  0.497596  0.672327  1
  Bi  Bi27  1  0.935251  0.004600  0.829702  1
  Bi  Bi28  1  0.434933  0.002404  0.672327  1
  Bi  Bi29  1  0.935251  0.495400  0.829702  1
  Bi  Bi30  1  0.566056  0.507037  0.327780  1
  Bi  Bi31  1  0.064880  0.994992  0.170378  1
