# generated using pymatgen
data_SrRuPb2Br2O5
_symmetry_space_group_name_H-M   'P 1'
_cell_length_a   7.49050625
_cell_length_b   7.49050684
_cell_length_c   11.18355900
_cell_angle_alpha   90.00000000
_cell_angle_beta   90.00000000
_cell_angle_gamma   135.13353339
_symmetry_Int_Tables_number   1
_chemical_formula_structural   SrRuPb2Br2O5
_chemical_formula_sum   'Sr2 Ru2 Pb4 Br4 O10'
_cell_volume   442.66265310
_cell_formula_units_Z   2
loop_
 _symmetry_equiv_pos_site_id
 _symmetry_equiv_pos_as_xyz
  1  'x, y, z'
loop_
 _atom_site_type_symbol
 _atom_site_label
 _atom_site_symmetry_multiplicity
 _atom_site_fract_x
 _atom_site_fract_y
 _atom_site_fract_z
 _atom_site_occupancy
  Sr  Sr0  1  0.883706  0.116294  0.750000  1
  Sr  Sr1  1  0.116294  0.883706  0.250000  1
  Ru  Ru2  1  0.774225  0.225775  0.250000  1
  Ru  Ru3  1  0.225775  0.774225  0.750000  1
  Pb  Pb4  1  0.656069  0.343931  0.525882  1
  Pb  Pb5  1  0.343931  0.656069  0.474118  1
  Pb  Pb6  1  0.656069  0.343931  0.974118  1
  Pb  Pb7  1  0.343931  0.656069  0.025882  1
  Br  Br8  1  0.516883  0.483117  0.250000  1
  Br  Br9  1  0.483117  0.516883  0.750000  1
  Br  Br10  1  0.000000  0.000000  0.500000  1
  Br  Br11  1  0.000000  0.000000  0.000000  1
  O  O12  1  0.104363  0.895637  0.750000  1
  O  O13  1  0.043824  0.504515  0.632063  1
  O  O14  1  0.504515  0.043824  0.367937  1
  O  O15  1  0.495485  0.956176  0.632063  1
  O  O16  1  0.956176  0.495485  0.367937  1
  O  O17  1  0.895637  0.104363  0.250000  1
  O  O18  1  0.043824  0.504515  0.867937  1
  O  O19  1  0.495485  0.956176  0.867937  1
  O  O20  1  0.956176  0.495485  0.132063  1
  O  O21  1  0.504515  0.043824  0.132063  1
