# generated using pymatgen
data_CaTa5(B2Ru5)2
_symmetry_space_group_name_H-M   'P 1'
_cell_length_a   9.50969966
_cell_length_b   9.50969966
_cell_length_c   3.05725300
_cell_angle_alpha   90.00000000
_cell_angle_beta   90.00000000
_cell_angle_gamma   90.43861984
_symmetry_Int_Tables_number   1
_chemical_formula_structural   CaTa5(B2Ru5)2
_chemical_formula_sum   'Ca1 Ta5 B4 Ru10'
_cell_volume   276.47270161
_cell_formula_units_Z   1
loop_
 _symmetry_equiv_pos_site_id
 _symmetry_equiv_pos_as_xyz
  1  'x, y, z'
loop_
 _atom_site_type_symbol
 _atom_site_label
 _atom_site_symmetry_multiplicity
 _atom_site_fract_x
 _atom_site_fract_y
 _atom_site_fract_z
 _atom_site_occupancy
  Ca  Ca0  1  0.824256  0.675744  0.000000  1
  Ta  Ta1  1  0.177575  0.322425  0.000000  1
  Ta  Ta2  1  0.325090  0.822257  0.000000  1
  Ta  Ta3  1  0.677743  0.174910  0.000000  1
  Ta  Ta4  1  0.503433  0.501199  0.000000  1
  Ta  Ta5  1  0.998801  0.996567  0.000000  1
  B  B6  1  0.619523  0.880477  0.000000  1
  B  B7  1  0.376917  0.123083  0.000000  1
  B  B8  1  0.123148  0.619261  0.000000  1
  B  B9  1  0.880739  0.376852  0.000000  1
  Ru  Ru10  1  0.553378  0.727245  0.500000  1
  Ru  Ru11  1  0.424481  0.284578  0.500000  1
  Ru  Ru12  1  0.087356  0.783294  0.500000  1
  Ru  Ru13  1  0.931133  0.214706  0.500000  1
  Ru  Ru14  1  0.285294  0.568867  0.500000  1
  Ru  Ru15  1  0.716706  0.412644  0.500000  1
  Ru  Ru16  1  0.215422  0.075519  0.500000  1
  Ru  Ru17  1  0.772755  0.946622  0.500000  1
  Ru  Ru18  1  0.494320  0.005680  0.500000  1
  Ru  Ru19  1  0.011931  0.488069  0.500000  1
