# generated using pymatgen
data_LuHf4(Re3Tc)6
_symmetry_space_group_name_H-M   'P 1'
_cell_length_a   8.47586314
_cell_length_b   8.47593738
_cell_length_c   8.46440902
_cell_angle_alpha   109.46951898
_cell_angle_beta   109.47293593
_cell_angle_gamma   109.52712937
_symmetry_Int_Tables_number   1
_chemical_formula_structural   LuHf4(Re3Tc)6
_chemical_formula_sum   'Lu1 Hf4 Re18 Tc6'
_cell_volume   467.78493158
_cell_formula_units_Z   1
loop_
 _symmetry_equiv_pos_site_id
 _symmetry_equiv_pos_as_xyz
  1  'x, y, z'
loop_
 _atom_site_type_symbol
 _atom_site_label
 _atom_site_symmetry_multiplicity
 _atom_site_fract_x
 _atom_site_fract_y
 _atom_site_fract_z
 _atom_site_occupancy
  Lu  Lu0  1  0.999657  0.999659  0.000000  1
  Hf  Hf1  1  0.625998  0.999860  0.000024  1
  Hf  Hf2  1  0.999830  0.625965  0.999973  1
  Hf  Hf3  1  0.999823  0.999829  0.627720  1
  Hf  Hf4  1  0.372104  0.372097  0.372281  1
  Re  Re5  1  0.324477  0.324495  0.720661  1
  Re  Re6  1  0.000808  0.675774  0.395880  1
  Re  Re7  1  0.675832  0.000887  0.395902  1
  Re  Re8  1  0.603841  0.603809  0.279341  1
  Re  Re9  1  0.279895  0.604930  0.604117  1
  Re  Re10  1  0.604979  0.279932  0.604095  1
  Re  Re11  1  0.376781  0.195277  0.000021  1
  Re  Re12  1  0.181095  0.805653  0.805227  1
  Re  Re13  1  0.375896  0.000454  0.194779  1
  Re  Re14  1  0.195251  0.376752  0.999983  1
  Re  Re15  1  0.000416  0.375860  0.194769  1
  Re  Re16  1  0.805670  0.181115  0.805230  1
  Re  Re17  1  0.806486  0.806490  0.182905  1
  Re  Re18  1  0.000545  0.194401  0.377863  1
  Re  Re19  1  0.194384  0.000566  0.377846  1
  Re  Re20  1  0.623587  0.623579  0.817094  1
  Re  Re21  1  0.816532  0.622680  0.622128  1
  Re  Re22  1  0.622719  0.816539  0.622155  1
  Tc  Tc23  1  0.396018  0.676815  0.999990  1
  Tc  Tc24  1  0.719494  0.323188  0.322411  1
  Tc  Tc25  1  0.397060  0.000776  0.677556  1
  Tc  Tc26  1  0.676821  0.396026  0.000015  1
  Tc  Tc27  1  0.000774  0.397082  0.677583  1
  Tc  Tc28  1  0.323227  0.719513  0.322453  1
