# generated using pymatgen
data_ThTeSe
_symmetry_space_group_name_H-M   'P 1'
_cell_length_a   4.52976300
_cell_length_b   8.04245200
_cell_length_c   9.32742900
_cell_angle_alpha   90.00000000
_cell_angle_beta   90.00000000
_cell_angle_gamma   90.00000000
_symmetry_Int_Tables_number   1
_chemical_formula_structural   ThTeSe
_chemical_formula_sum   'Th4 Te4 Se4'
_cell_volume   339.80198342
_cell_formula_units_Z   4
loop_
 _symmetry_equiv_pos_site_id
 _symmetry_equiv_pos_as_xyz
  1  'x, y, z'
loop_
 _atom_site_type_symbol
 _atom_site_label
 _atom_site_symmetry_multiplicity
 _atom_site_fract_x
 _atom_site_fract_y
 _atom_site_fract_z
 _atom_site_occupancy
  Th  Th0  1  0.250000  0.278710  0.627873  1
  Th  Th1  1  0.250000  0.778710  0.872127  1
  Th  Th2  1  0.750000  0.721290  0.372127  1
  Th  Th3  1  0.750000  0.221290  0.127873  1
  Te  Te4  1  0.250000  0.031308  0.340070  1
  Te  Te5  1  0.250000  0.531308  0.159930  1
  Te  Te6  1  0.750000  0.968692  0.659930  1
  Te  Te7  1  0.750000  0.468692  0.840070  1
  Se  Se8  1  0.250000  0.144819  0.931182  1
  Se  Se9  1  0.250000  0.644819  0.568818  1
  Se  Se10  1  0.750000  0.855181  0.068818  1
  Se  Se11  1  0.750000  0.355181  0.431182  1
