# generated using pymatgen
data_Lu3MnVC6
_symmetry_space_group_name_H-M   'P 1'
_cell_length_a   8.07877300
_cell_length_b   8.07877355
_cell_length_c   4.85979300
_cell_angle_alpha   90.00000000
_cell_angle_beta   90.00000000
_cell_angle_gamma   120.00000892
_symmetry_Int_Tables_number   1
_chemical_formula_structural   Lu3MnVC6
_chemical_formula_sum   'Lu6 Mn2 V2 C12'
_cell_volume   274.68769450
_cell_formula_units_Z   2
loop_
 _symmetry_equiv_pos_site_id
 _symmetry_equiv_pos_as_xyz
  1  'x, y, z'
loop_
 _atom_site_type_symbol
 _atom_site_label
 _atom_site_symmetry_multiplicity
 _atom_site_fract_x
 _atom_site_fract_y
 _atom_site_fract_z
 _atom_site_occupancy
  Lu  Lu0  1  0.627808  0.679377  0.750000  1
  Lu  Lu1  1  0.948431  0.627808  0.250000  1
  Lu  Lu2  1  0.679377  0.051569  0.250000  1
  Lu  Lu3  1  0.320623  0.948431  0.750000  1
  Lu  Lu4  1  0.051569  0.372192  0.750000  1
  Lu  Lu5  1  0.372192  0.320623  0.250000  1
  Mn  Mn6  1  0.666667  0.333333  0.750000  1
  Mn  Mn7  1  0.333333  0.666667  0.250000  1
  V  V8  1  0.000000  0.000000  0.500000  1
  V  V9  1  0.000000  0.000000  0.000000  1
  C  C10  1  0.969500  0.767752  0.750000  1
  C  C11  1  0.201749  0.969500  0.250000  1
  C  C12  1  0.767752  0.798251  0.250000  1
  C  C13  1  0.232248  0.201749  0.750000  1
  C  C14  1  0.798251  0.030500  0.750000  1
  C  C15  1  0.030500  0.232248  0.250000  1
  C  C16  1  0.869903  0.571857  0.750000  1
  C  C17  1  0.298046  0.869903  0.250000  1
  C  C18  1  0.571857  0.701954  0.250000  1
  C  C19  1  0.428143  0.298046  0.750000  1
  C  C20  1  0.130097  0.428143  0.250000  1
  C  C21  1  0.701954  0.130097  0.750000  1
