# generated using pymatgen
data_Ho9Er7(MgSn4)4
_symmetry_space_group_name_H-M   'P 1'
_cell_length_a   7.63993701
_cell_length_b   8.20681001
_cell_length_c   15.21293601
_cell_angle_alpha   89.99957955
_cell_angle_beta   90.00409622
_cell_angle_gamma   90.00505464
_symmetry_Int_Tables_number   1
_chemical_formula_structural   Ho9Er7(MgSn4)4
_chemical_formula_sum   'Ho9 Er7 Mg4 Sn16'
_cell_volume   953.84365063
_cell_formula_units_Z   1
loop_
 _symmetry_equiv_pos_site_id
 _symmetry_equiv_pos_as_xyz
  1  'x, y, z'
loop_
 _atom_site_type_symbol
 _atom_site_label
 _atom_site_symmetry_multiplicity
 _atom_site_fract_x
 _atom_site_fract_y
 _atom_site_fract_z
 _atom_site_occupancy
  Ho  Ho0  1  0.998916  0.184810  0.090697  1
  Ho  Ho1  1  0.001061  0.815197  0.909309  1
  Ho  Ho2  1  0.501087  0.684812  0.909306  1
  Ho  Ho3  1  0.001040  0.815190  0.590676  1
  Ho  Ho4  1  0.498902  0.315197  0.090699  1
  Ho  Ho5  1  0.998904  0.184802  0.409292  1
  Ho  Ho6  1  0.498949  0.315209  0.409266  1
  Ho  Ho7  1  0.501072  0.684802  0.590694  1
  Ho  Ho8  1  0.335160  0.169054  0.628798  1
  Er  Er9  1  0.664862  0.830957  0.371189  1
  Er  Er10  1  0.164858  0.669047  0.371180  1
  Er  Er11  1  0.664852  0.830969  0.128797  1
  Er  Er12  1  0.835157  0.330981  0.628787  1
  Er  Er13  1  0.335129  0.169020  0.871269  1
  Er  Er14  1  0.835164  0.330943  0.871204  1
  Er  Er15  1  0.164875  0.669042  0.128808  1
  Mg  Mg16  1  0.159213  0.505362  0.750018  1
  Mg  Mg17  1  0.840774  0.494674  0.250005  1
  Mg  Mg18  1  0.340757  0.005321  0.250003  1
  Mg  Mg19  1  0.659272  0.994643  0.750030  1
  Sn  Sn20  1  0.021389  0.091835  0.750068  1
  Sn  Sn21  1  0.978446  0.908083  0.250008  1
  Sn  Sn22  1  0.478454  0.591888  0.250000  1
  Sn  Sn23  1  0.521689  0.408261  0.750062  1
  Sn  Sn24  1  0.182338  0.463090  0.538429  1
  Sn  Sn25  1  0.817537  0.537090  0.461508  1
  Sn  Sn26  1  0.317493  0.962795  0.461402  1
  Sn  Sn27  1  0.817512  0.537074  0.038486  1
  Sn  Sn28  1  0.682647  0.037032  0.538454  1
  Sn  Sn29  1  0.182492  0.462923  0.961505  1
  Sn  Sn30  1  0.682475  0.037070  0.961511  1
  Sn  Sn31  1  0.317534  0.962936  0.038485  1
  Sn  Sn32  1  0.302593  0.846863  0.750042  1
  Sn  Sn33  1  0.697386  0.153049  0.250004  1
  Sn  Sn34  1  0.197401  0.346945  0.250004  1
  Sn  Sn35  1  0.802611  0.653038  0.750002  1
