# generated using pymatgen
data_Nd10InBi5Se2
_symmetry_space_group_name_H-M   'P 1'
_cell_length_a   9.55435380
_cell_length_b   9.55435431
_cell_length_c   6.87170800
_cell_angle_alpha   90.00000000
_cell_angle_beta   90.00000000
_cell_angle_gamma   119.74964204
_symmetry_Int_Tables_number   1
_chemical_formula_structural   Nd10InBi5Se2
_chemical_formula_sum   'Nd10 In1 Bi5 Se2'
_cell_volume   544.61311804
_cell_formula_units_Z   1
loop_
 _symmetry_equiv_pos_site_id
 _symmetry_equiv_pos_as_xyz
  1  'x, y, z'
loop_
 _atom_site_type_symbol
 _atom_site_label
 _atom_site_symmetry_multiplicity
 _atom_site_fract_x
 _atom_site_fract_y
 _atom_site_fract_z
 _atom_site_occupancy
  Nd  Nd0  1  0.663885  0.334097  0.000039  1
  Nd  Nd1  1  0.334097  0.663885  0.000039  1
  Nd  Nd2  1  0.334097  0.663885  0.499961  1
  Nd  Nd3  1  0.663885  0.334097  0.499961  1
  Nd  Nd4  1  0.745686  0.745686  0.750000  1
  Nd  Nd5  1  0.254035  0.004246  0.750000  1
  Nd  Nd6  1  0.004246  0.254035  0.750000  1
  Nd  Nd7  1  0.251841  0.251841  0.250000  1
  Nd  Nd8  1  0.748199  0.001064  0.250000  1
  Nd  Nd9  1  0.001064  0.748199  0.250000  1
  In  In10  1  0.394514  0.394514  0.750000  1
  Bi  Bi11  1  0.607347  0.000414  0.750000  1
  Bi  Bi12  1  0.000414  0.607347  0.750000  1
  Bi  Bi13  1  0.605910  0.605910  0.250000  1
  Bi  Bi14  1  0.392370  0.000444  0.250000  1
  Bi  Bi15  1  0.000444  0.392370  0.250000  1
  Se  Se16  1  0.998983  0.998983  0.999881  1
  Se  Se17  1  0.998983  0.998983  0.500119  1
