# generated using pymatgen
data_Ca2Mn6Ni6As7
_symmetry_space_group_name_H-M   'P 1'
_cell_length_a   9.61981200
_cell_length_b   9.61981137
_cell_length_c   3.82198700
_cell_angle_alpha   90.00000000
_cell_angle_beta   90.00000000
_cell_angle_gamma   120.00000628
_symmetry_Int_Tables_number   1
_chemical_formula_structural   Ca2Mn6Ni6As7
_chemical_formula_sum   'Ca2 Mn6 Ni6 As7'
_cell_volume   306.30419925
_cell_formula_units_Z   1
loop_
 _symmetry_equiv_pos_site_id
 _symmetry_equiv_pos_as_xyz
  1  'x, y, z'
loop_
 _atom_site_type_symbol
 _atom_site_label
 _atom_site_symmetry_multiplicity
 _atom_site_fract_x
 _atom_site_fract_y
 _atom_site_fract_z
 _atom_site_occupancy
  Ca  Ca0  1  0.000000  0.000000  0.000000  1
  Ca  Ca1  1  0.666667  0.333333  0.500000  1
  Mn  Mn2  1  0.753776  0.711682  0.500000  1
  Mn  Mn3  1  0.957907  0.246224  0.500000  1
  Mn  Mn4  1  0.288318  0.042093  0.500000  1
  Mn  Mn5  1  0.429150  0.546041  0.500000  1
  Mn  Mn6  1  0.116891  0.570850  0.500000  1
  Mn  Mn7  1  0.453959  0.883109  0.500000  1
  Ni  Ni8  1  0.386821  0.285190  0.000000  1
  Ni  Ni9  1  0.898368  0.613179  0.000000  1
  Ni  Ni10  1  0.714810  0.101632  0.000000  1
  Ni  Ni11  1  0.611315  0.788820  0.000000  1
  Ni  Ni12  1  0.177505  0.388685  0.000000  1
  Ni  Ni13  1  0.211180  0.822495  0.000000  1
  As  As14  1  0.621112  0.544444  0.000000  1
  As  As15  1  0.923332  0.378888  0.000000  1
  As  As16  1  0.455556  0.076668  0.000000  1
  As  As17  1  0.749044  0.965425  0.500000  1
  As  As18  1  0.216381  0.250956  0.500000  1
  As  As19  1  0.034575  0.783619  0.500000  1
  As  As20  1  0.333333  0.666667  0.000000  1
