# generated using pymatgen
data_SmHo3Np6O20
_symmetry_space_group_name_H-M   'P 1'
_cell_length_a   6.53393248
_cell_length_b   7.57938074
_cell_length_c   8.45254900
_cell_angle_alpha   102.76714564
_cell_angle_beta   97.36775456
_cell_angle_gamma   106.95828807
_symmetry_Int_Tables_number   1
_chemical_formula_structural   SmHo3Np6O20
_chemical_formula_sum   'Sm1 Ho3 Np6 O20'
_cell_volume   382.07439672
_cell_formula_units_Z   1
loop_
 _symmetry_equiv_pos_site_id
 _symmetry_equiv_pos_as_xyz
  1  'x, y, z'
loop_
 _atom_site_type_symbol
 _atom_site_label
 _atom_site_symmetry_multiplicity
 _atom_site_fract_x
 _atom_site_fract_y
 _atom_site_fract_z
 _atom_site_occupancy
  Sm  Sm0  1  0.000414  0.000208  0.000956  1
  Ho  Ho1  1  0.799540  0.598768  0.599934  1
  Ho  Ho2  1  0.606319  0.204197  0.200961  1
  Ho  Ho3  1  0.998001  0.498859  0.999077  1
  Np  Np4  1  0.798497  0.101060  0.599785  1
  Np  Np5  1  0.395029  0.798880  0.801741  1
  Np  Np6  1  0.199929  0.398846  0.396581  1
  Np  Np7  1  0.600895  0.697894  0.199169  1
  Np  Np8  1  0.399746  0.299989  0.801150  1
  Np  Np9  1  0.200360  0.900893  0.398964  1
  O  O10  1  0.860216  0.322642  0.458452  1
  O  O11  1  0.636394  0.912583  0.054354  1
  O  O12  1  0.948279  0.770828  0.160339  1
  O  O13  1  0.433234  0.518725  0.648771  1
  O  O14  1  0.855867  0.834776  0.453429  1
  O  O15  1  0.642379  0.429210  0.047579  1
  O  O16  1  0.733547  0.365802  0.747984  1
  O  O17  1  0.256455  0.126293  0.261892  1
  O  O18  1  0.960492  0.285481  0.159591  1
  O  O19  1  0.440151  0.024066  0.645651  1
  O  O20  1  0.554583  0.973144  0.358689  1
  O  O21  1  0.062921  0.722121  0.842935  1
  O  O22  1  0.727266  0.874031  0.745479  1
  O  O23  1  0.356826  0.571786  0.949631  1
  O  O24  1  0.263103  0.632925  0.250511  1
  O  O25  1  0.550167  0.482734  0.348785  1
  O  O26  1  0.151359  0.172313  0.548475  1
  O  O27  1  0.051595  0.226369  0.837665  1
  O  O28  1  0.362061  0.077846  0.942350  1
  O  O29  1  0.154375  0.676730  0.539117  1
