# generated using pymatgen
data_Dy7Ho(Sc3Ga4)4
_symmetry_space_group_name_H-M   'P 1'
_cell_length_a   7.27197600
_cell_length_b   7.57696500
_cell_length_c   14.46719600
_cell_angle_alpha   89.99904440
_cell_angle_beta   90.00025280
_cell_angle_gamma   90.00033970
_symmetry_Int_Tables_number   1
_chemical_formula_structural   Dy7Ho(Sc3Ga4)4
_chemical_formula_sum   'Dy7 Ho1 Sc12 Ga16'
_cell_volume   797.13537636
_cell_formula_units_Z   1
loop_
 _symmetry_equiv_pos_site_id
 _symmetry_equiv_pos_as_xyz
  1  'x, y, z'
loop_
 _atom_site_type_symbol
 _atom_site_label
 _atom_site_symmetry_multiplicity
 _atom_site_fract_x
 _atom_site_fract_y
 _atom_site_fract_z
 _atom_site_occupancy
  Dy  Dy0  1  0.010950  0.180233  0.094416  1
  Dy  Dy1  1  0.989049  0.819766  0.905583  1
  Dy  Dy2  1  0.489048  0.680234  0.905585  1
  Dy  Dy3  1  0.989051  0.819761  0.594418  1
  Dy  Dy4  1  0.510951  0.319766  0.094416  1
  Dy  Dy5  1  0.010951  0.180230  0.405582  1
  Dy  Dy6  1  0.510951  0.319772  0.405588  1
  Ho  Ho7  1  0.489051  0.680253  0.594425  1
  Sc  Sc8  1  0.162356  0.503296  0.749996  1
  Sc  Sc9  1  0.837650  0.496711  0.249999  1
  Sc  Sc10  1  0.337653  0.003284  0.249998  1
  Sc  Sc11  1  0.662343  0.996702  0.749996  1
  Sc  Sc12  1  0.329681  0.172191  0.624561  1
  Sc  Sc13  1  0.670316  0.827807  0.375443  1
  Sc  Sc14  1  0.170324  0.672192  0.375440  1
  Sc  Sc15  1  0.670322  0.827811  0.124559  1
  Sc  Sc16  1  0.829668  0.327815  0.624561  1
  Sc  Sc17  1  0.329679  0.172189  0.875437  1
  Sc  Sc18  1  0.829677  0.327809  0.875439  1
  Sc  Sc19  1  0.170321  0.672191  0.124559  1
  Ga  Ga20  1  0.030152  0.116237  0.750000  1
  Ga  Ga21  1  0.969847  0.883761  0.250001  1
  Ga  Ga22  1  0.469848  0.616242  0.250001  1
  Ga  Ga23  1  0.530153  0.383768  0.749996  1
  Ga  Ga24  1  0.283074  0.870810  0.749993  1
  Ga  Ga25  1  0.716940  0.129178  0.250000  1
  Ga  Ga26  1  0.216940  0.370819  0.250002  1
  Ga  Ga27  1  0.783045  0.629186  0.749992  1
  Ga  Ga28  1  0.162159  0.465012  0.540514  1
  Ga  Ga29  1  0.837852  0.535004  0.459492  1
  Ga  Ga30  1  0.337870  0.964987  0.459496  1
  Ga  Ga31  1  0.837862  0.535001  0.040509  1
  Ga  Ga32  1  0.662129  0.034980  0.540513  1
  Ga  Ga33  1  0.162137  0.465001  0.959491  1
  Ga  Ga34  1  0.662137  0.035002  0.959490  1
  Ga  Ga35  1  0.337864  0.965000  0.040509  1
