# generated using pymatgen
data_Ti4NbGa(B2Ru5)2
_symmetry_space_group_name_H-M   'P 1'
_cell_length_a   9.27737020
_cell_length_b   9.26356934
_cell_length_c   3.00671300
_cell_angle_alpha   90.00000000
_cell_angle_beta   90.00000000
_cell_angle_gamma   89.67506151
_symmetry_Int_Tables_number   1
_chemical_formula_structural   Ti4NbGa(B2Ru5)2
_chemical_formula_sum   'Ti4 Nb1 Ga1 B4 Ru10'
_cell_volume   258.39745669
_cell_formula_units_Z   1
loop_
 _symmetry_equiv_pos_site_id
 _symmetry_equiv_pos_as_xyz
  1  'x, y, z'
loop_
 _atom_site_type_symbol
 _atom_site_label
 _atom_site_symmetry_multiplicity
 _atom_site_fract_x
 _atom_site_fract_y
 _atom_site_fract_z
 _atom_site_occupancy
  Ti  Ti0  1  0.827485  0.676615  0.000000  1
  Ti  Ti1  1  0.173904  0.324982  0.000000  1
  Ti  Ti2  1  0.321740  0.823965  0.000000  1
  Ti  Ti3  1  0.001001  0.999468  0.000000  1
  Nb  Nb4  1  0.675670  0.175081  0.000000  1
  Ga  Ga5  1  0.500012  0.499354  0.000000  1
  B  B6  1  0.622553  0.872226  0.000000  1
  B  B7  1  0.375315  0.125751  0.000000  1
  B  B8  1  0.126854  0.622852  0.000000  1
  B  B9  1  0.875607  0.379090  0.000000  1
  Ru  Ru10  1  0.496970  0.997029  0.500000  1
  Ru  Ru11  1  0.000513  0.500793  0.500000  1
  Ru  Ru12  1  0.571902  0.712471  0.500000  1
  Ru  Ru13  1  0.428747  0.285803  0.500000  1
  Ru  Ru14  1  0.072870  0.784974  0.500000  1
  Ru  Ru15  1  0.928677  0.215856  0.500000  1
  Ru  Ru16  1  0.286769  0.570450  0.500000  1
  Ru  Ru17  1  0.714886  0.431748  0.500000  1
  Ru  Ru18  1  0.214119  0.074678  0.500000  1
  Ru  Ru19  1  0.784404  0.926814  0.500000  1
