# generated using pymatgen
data_Rb2UIr3Se8
_symmetry_space_group_name_H-M   'P 1'
_cell_length_a   6.31644500
_cell_length_b   7.35581824
_cell_length_c   16.28575900
_cell_angle_alpha   90.19416901
_cell_angle_beta   90.00000000
_cell_angle_gamma   90.00000000
_symmetry_Int_Tables_number   1
_chemical_formula_structural   Rb2UIr3Se8
_chemical_formula_sum   'Rb4 U2 Ir6 Se16'
_cell_volume   756.67470855
_cell_formula_units_Z   2
loop_
 _symmetry_equiv_pos_site_id
 _symmetry_equiv_pos_as_xyz
  1  'x, y, z'
loop_
 _atom_site_type_symbol
 _atom_site_label
 _atom_site_symmetry_multiplicity
 _atom_site_fract_x
 _atom_site_fract_y
 _atom_site_fract_z
 _atom_site_occupancy
  Rb  Rb0  1  0.348478  0.000000  0.000000  1
  Rb  Rb1  1  0.651522  0.500000  0.500000  1
  Rb  Rb2  1  0.005727  0.000000  0.500000  1
  Rb  Rb3  1  0.994273  0.500000  0.000000  1
  U  U4  1  0.500000  0.250000  0.250000  1
  U  U5  1  0.500000  0.750000  0.750000  1
  Ir  Ir6  1  0.002513  0.003686  0.251623  1
  Ir  Ir7  1  0.002513  0.996314  0.748377  1
  Ir  Ir8  1  0.997487  0.496314  0.248377  1
  Ir  Ir9  1  0.997487  0.503686  0.751623  1
  Ir  Ir10  1  0.500000  0.750000  0.250000  1
  Ir  Ir11  1  0.500000  0.250000  0.750000  1
  Se  Se12  1  0.862466  0.254523  0.345111  1
  Se  Se13  1  0.862466  0.745477  0.654889  1
  Se  Se14  1  0.164031  0.751042  0.170714  1
  Se  Se15  1  0.164031  0.248958  0.829286  1
  Se  Se16  1  0.137534  0.245477  0.154889  1
  Se  Se17  1  0.137534  0.754523  0.845111  1
  Se  Se18  1  0.835969  0.748958  0.329286  1
  Se  Se19  1  0.835969  0.251042  0.670714  1
  Se  Se20  1  0.689765  0.974250  0.157734  1
  Se  Se21  1  0.689765  0.025750  0.842266  1
  Se  Se22  1  0.310235  0.525750  0.342266  1
  Se  Se23  1  0.310235  0.474250  0.657734  1
  Se  Se24  1  0.324860  0.976043  0.343763  1
  Se  Se25  1  0.324860  0.023957  0.656237  1
  Se  Se26  1  0.675140  0.523957  0.156237  1
  Se  Se27  1  0.675140  0.476043  0.843763  1
