# generated using pymatgen
data_Tb5Y11Cd4TcNi3
_symmetry_space_group_name_H-M   'P 1'
_cell_length_a   9.62993920
_cell_length_b   9.64105629
_cell_length_c   9.64105600
_cell_angle_alpha   59.51730403
_cell_angle_beta   59.54201845
_cell_angle_gamma   59.54201150
_symmetry_Int_Tables_number   1
_chemical_formula_structural   Tb5Y11Cd4TcNi3
_chemical_formula_sum   'Tb5 Y11 Cd4 Tc1 Ni3'
_cell_volume   626.22326674
_cell_formula_units_Z   1
loop_
 _symmetry_equiv_pos_site_id
 _symmetry_equiv_pos_as_xyz
  1  'x, y, z'
loop_
 _atom_site_type_symbol
 _atom_site_label
 _atom_site_symmetry_multiplicity
 _atom_site_fract_x
 _atom_site_fract_y
 _atom_site_fract_z
 _atom_site_occupancy
  Tb  Tb0  1  0.597869  0.597675  0.597675  1
  Tb  Tb1  1  0.601638  0.601249  0.204277  1
  Tb  Tb2  1  0.601638  0.204277  0.601249  1
  Tb  Tb3  1  0.204250  0.601733  0.601733  1
  Tb  Tb4  1  0.062410  0.437407  0.437407  1
  Y  Y5  1  0.437488  0.060580  0.060580  1
  Y  Y6  1  0.437724  0.061649  0.437605  1
  Y  Y7  1  0.060583  0.437478  0.060361  1
  Y  Y8  1  0.437724  0.437605  0.061649  1
  Y  Y9  1  0.060583  0.060361  0.437478  1
  Y  Y10  1  0.186024  0.814706  0.814706  1
  Y  Y11  1  0.805986  0.188795  0.188795  1
  Y  Y12  1  0.814664  0.186090  0.814662  1
  Y  Y13  1  0.188828  0.805527  0.189030  1
  Y  Y14  1  0.814664  0.814662  0.186090  1
  Y  Y15  1  0.188828  0.189030  0.805527  1
  Cd  Cd16  1  0.829718  0.829736  0.829736  1
  Cd  Cd17  1  0.829638  0.830108  0.506146  1
  Cd  Cd18  1  0.829638  0.506146  0.830108  1
  Cd  Cd19  1  0.506173  0.829803  0.829803  1
  Tc  Tc20  1  0.392806  0.395131  0.395131  1
  Ni  Ni21  1  0.393080  0.392885  0.824270  1
  Ni  Ni22  1  0.393080  0.824270  0.392885  1
  Ni  Ni23  1  0.824961  0.393094  0.393094  1
