# generated using pymatgen
data_Zr12TiAl3(Os2N)4
_symmetry_space_group_name_H-M   'P 1'
_cell_length_a   8.59941583
_cell_length_b   8.59941564
_cell_length_c   8.58706673
_cell_angle_alpha   59.95241583
_cell_angle_beta   59.95241567
_cell_angle_gamma   60.00000955
_symmetry_Int_Tables_number   1
_chemical_formula_structural   Zr12TiAl3(Os2N)4
_chemical_formula_sum   'Zr12 Ti1 Al3 Os8 N4'
_cell_volume   448.69892309
_cell_formula_units_Z   1
loop_
 _symmetry_equiv_pos_site_id
 _symmetry_equiv_pos_as_xyz
  1  'x, y, z'
loop_
 _atom_site_type_symbol
 _atom_site_label
 _atom_site_symmetry_multiplicity
 _atom_site_fract_x
 _atom_site_fract_y
 _atom_site_fract_z
 _atom_site_occupancy
  Zr  Zr0  1  0.807315  0.807315  0.194359  1
  Zr  Zr1  1  0.192147  0.192147  0.808977  1
  Zr  Zr2  1  0.806729  0.192147  0.808977  1
  Zr  Zr3  1  0.191010  0.807315  0.194359  1
  Zr  Zr4  1  0.192147  0.806729  0.808977  1
  Zr  Zr5  1  0.807315  0.191010  0.194359  1
  Zr  Zr6  1  0.442685  0.442685  0.055641  1
  Zr  Zr7  1  0.057853  0.057853  0.441023  1
  Zr  Zr8  1  0.443271  0.057853  0.441023  1
  Zr  Zr9  1  0.058990  0.442685  0.055641  1
  Zr  Zr10  1  0.057853  0.443271  0.441023  1
  Zr  Zr11  1  0.442685  0.058990  0.055641  1
  Ti  Ti12  1  0.625000  0.625000  0.125000  1
  Al  Al13  1  0.125000  0.625000  0.625000  1
  Al  Al14  1  0.625000  0.125000  0.625000  1
  Al  Al15  1  0.625000  0.625000  0.625000  1
  Os  Os16  1  0.747873  0.418270  0.415586  1
  Os  Os17  1  0.418270  0.747873  0.415586  1
  Os  Os18  1  0.419820  0.419820  0.740537  1
  Os  Os19  1  0.418270  0.418270  0.415586  1
  Os  Os20  1  0.502127  0.831730  0.834414  1
  Os  Os21  1  0.831730  0.502127  0.834414  1
  Os  Os22  1  0.830180  0.830180  0.509463  1
  Os  Os23  1  0.831730  0.831730  0.834414  1
  N  N24  1  0.625000  0.125000  0.125000  1
  N  N25  1  0.125000  0.625000  0.125000  1
  N  N26  1  0.125000  0.125000  0.625000  1
  N  N27  1  0.125000  0.125000  0.125000  1
