# generated using pymatgen
data_Ho2Al16PdPt8
_symmetry_space_group_name_H-M   'P 1'
_cell_length_a   11.12602820
_cell_length_b   11.12602953
_cell_length_c   11.12602900
_cell_angle_alpha   158.52438698
_cell_angle_beta   115.71076078
_cell_angle_gamma   68.62923103
_symmetry_Int_Tables_number   1
_chemical_formula_structural   Ho2Al16PdPt8
_chemical_formula_sum   'Ho2 Al16 Pd1 Pt8'
_cell_volume   451.06949593
_cell_formula_units_Z   1
loop_
 _symmetry_equiv_pos_site_id
 _symmetry_equiv_pos_as_xyz
  1  'x, y, z'
loop_
 _atom_site_type_symbol
 _atom_site_label
 _atom_site_symmetry_multiplicity
 _atom_site_fract_x
 _atom_site_fract_y
 _atom_site_fract_z
 _atom_site_occupancy
  Ho  Ho0  1  0.229417  0.228976  0.000441  1
  Ho  Ho1  1  0.771466  0.771024  0.000441  1
  Al  Al2  1  0.271880  0.391051  0.880829  1
  Al  Al3  1  0.091434  0.921264  0.170170  1
  Al  Al4  1  0.511099  0.203569  0.307531  1
  Al  Al5  1  0.248906  0.078736  0.170170  1
  Al  Al6  1  0.911794  0.413323  0.498471  1
  Al  Al7  1  0.728892  0.607671  0.121220  1
  Al  Al8  1  0.896248  0.205511  0.690737  1
  Al  Al9  1  0.485226  0.794489  0.690737  1
  Al  Al10  1  0.386785  0.000000  0.386785  1
  Al  Al11  1  0.616347  0.000000  0.616347  1
  Al  Al12  1  0.489778  0.608949  0.880829  1
  Al  Al13  1  0.103962  0.796431  0.307531  1
  Al  Al14  1  0.909742  0.082729  0.827014  1
  Al  Al15  1  0.744285  0.917271  0.827014  1
  Al  Al16  1  0.513548  0.392329  0.121220  1
  Al  Al17  1  0.085148  0.586677  0.498471  1
  Pd  Pd18  1  0.758089  0.500000  0.258089  1
  Pt  Pt19  1  0.021763  0.339932  0.681832  1
  Pt  Pt20  1  0.627859  0.127157  0.500701  1
  Pt  Pt21  1  0.253733  0.500000  0.753733  1
  Pt  Pt22  1  0.373544  0.872843  0.500701  1
  Pt  Pt23  1  0.994864  0.000000  0.994864  1
  Pt  Pt24  1  0.654190  0.338043  0.316146  1
  Pt  Pt25  1  0.341899  0.660068  0.681832  1
  Pt  Pt26  1  0.978103  0.661957  0.316146  1
