# generated using pymatgen
data_Zr12Al8CoCu(AgC2)2
_symmetry_space_group_name_H-M   'P 1'
_cell_length_a   8.59620980
_cell_length_b   8.60317359
_cell_length_c   8.59621100
_cell_angle_alpha   60.02677183
_cell_angle_beta   59.99999921
_cell_angle_gamma   60.02677209
_symmetry_Int_Tables_number   1
_chemical_formula_structural   Zr12Al8CoCu(AgC2)2
_chemical_formula_sum   'Zr12 Al8 Co1 Cu1 Ag2 C4'
_cell_volume   449.71086586
_cell_formula_units_Z   1
loop_
 _symmetry_equiv_pos_site_id
 _symmetry_equiv_pos_as_xyz
  1  'x, y, z'
loop_
 _atom_site_type_symbol
 _atom_site_label
 _atom_site_symmetry_multiplicity
 _atom_site_fract_x
 _atom_site_fract_y
 _atom_site_fract_z
 _atom_site_occupancy
  Zr  Zr0  1  0.557018  0.940225  0.562555  1
  Zr  Zr1  1  0.309539  0.692456  0.688466  1
  Zr  Zr2  1  0.689042  0.311735  0.310181  1
  Zr  Zr3  1  0.310866  0.689104  0.309272  1
  Zr  Zr4  1  0.690758  0.689104  0.309272  1
  Zr  Zr5  1  0.309797  0.309775  0.687445  1
  Zr  Zr6  1  0.559242  0.560896  0.940728  1
  Zr  Zr7  1  0.940461  0.557544  0.561534  1
  Zr  Zr8  1  0.560958  0.938265  0.939819  1
  Zr  Zr9  1  0.940203  0.940225  0.562555  1
  Zr  Zr10  1  0.692982  0.309775  0.687445  1
  Zr  Zr11  1  0.939134  0.560896  0.940728  1
  Al  Al12  1  0.930162  0.921457  0.908427  1
  Al  Al13  1  0.010045  0.328543  0.341573  1
  Al  Al14  1  0.322520  0.008812  0.346149  1
  Al  Al15  1  0.326633  0.338475  0.008260  1
  Al  Al16  1  0.927480  0.241188  0.903851  1
  Al  Al17  1  0.923367  0.911525  0.241740  1
  Al  Al18  1  0.239955  0.921457  0.908427  1
  Al  Al19  1  0.319838  0.328543  0.341573  1
  Co  Co20  1  0.125000  0.125000  0.625000  1
  Cu  Cu21  1  0.125000  0.625000  0.125000  1
  Ag  Ag22  1  0.125000  0.125000  0.125000  1
  Ag  Ag23  1  0.625000  0.125000  0.125000  1
  C  C24  1  0.625000  0.625000  0.625000  1
  C  C25  1  0.125000  0.625000  0.625000  1
  C  C26  1  0.625000  0.125000  0.625000  1
  C  C27  1  0.625000  0.625000  0.125000  1
