# generated using pymatgen
data_Ca6TaReO12
_symmetry_space_group_name_H-M   'P 1'
_cell_length_a   5.89316150
_cell_length_b   5.60595648
_cell_length_c   9.85478272
_cell_angle_alpha   55.36881502
_cell_angle_beta   89.83898803
_cell_angle_gamma   90.03980532
_symmetry_Int_Tables_number   1
_chemical_formula_structural   Ca6TaReO12
_chemical_formula_sum   'Ca6 Ta1 Re1 O12'
_cell_volume   267.88620367
_cell_formula_units_Z   1
loop_
 _symmetry_equiv_pos_site_id
 _symmetry_equiv_pos_as_xyz
  1  'x, y, z'
loop_
 _atom_site_type_symbol
 _atom_site_label
 _atom_site_symmetry_multiplicity
 _atom_site_fract_x
 _atom_site_fract_y
 _atom_site_fract_z
 _atom_site_occupancy
  Ca  Ca0  1  0.561503  0.236958  0.243377  1
  Ca  Ca1  1  0.054789  0.781395  0.230093  1
  Ca  Ca2  1  0.500000  0.000000  0.000000  1
  Ca  Ca3  1  0.000000  0.000000  0.500000  1
  Ca  Ca4  1  0.945211  0.218605  0.769907  1
  Ca  Ca5  1  0.438497  0.763042  0.756623  1
  Ta  Ta6  1  0.000000  0.500000  0.000000  1
  Re  Re7  1  0.500000  0.500000  0.500000  1
  O  O8  1  0.550946  0.395096  0.718954  1
  O  O9  1  0.058828  0.612724  0.768090  1
  O  O10  1  0.449054  0.604904  0.281046  1
  O  O11  1  0.941172  0.387276  0.231910  1
  O  O12  1  0.770591  0.731396  0.429791  1
  O  O13  1  0.282177  0.252072  0.074301  1
  O  O14  1  0.229409  0.268604  0.570209  1
  O  O15  1  0.717823  0.747928  0.925699  1
  O  O16  1  0.181727  0.843738  0.947118  1
  O  O17  1  0.669692  0.171242  0.550416  1
  O  O18  1  0.818273  0.156262  0.052882  1
  O  O19  1  0.330308  0.828758  0.449584  1
