# generated using pymatgen
data_TiNb2Al2CoC
_symmetry_space_group_name_H-M   'P 1'
_cell_length_a   8.18859062
_cell_length_b   8.19021291
_cell_length_c   8.20718406
_cell_angle_alpha   59.92046906
_cell_angle_beta   59.91355818
_cell_angle_gamma   60.14444014
_symmetry_Int_Tables_number   1
_chemical_formula_structural   TiNb2Al2CoC
_chemical_formula_sum   'Ti4 Nb8 Al8 Co4 C4'
_cell_volume   389.14214750
_cell_formula_units_Z   4
loop_
 _symmetry_equiv_pos_site_id
 _symmetry_equiv_pos_as_xyz
  1  'x, y, z'
loop_
 _atom_site_type_symbol
 _atom_site_label
 _atom_site_symmetry_multiplicity
 _atom_site_fract_x
 _atom_site_fract_y
 _atom_site_fract_z
 _atom_site_occupancy
  Ti  Ti0  1  0.690458  0.309544  0.690468  1
  Ti  Ti1  1  0.939949  0.559941  0.559041  1
  Ti  Ti2  1  0.559046  0.941068  0.939963  1
  Ti  Ti3  1  0.940901  0.559097  0.940907  1
  Nb  Nb4  1  0.557622  0.557724  0.941792  1
  Nb  Nb5  1  0.941770  0.942833  0.557640  1
  Nb  Nb6  1  0.691618  0.692133  0.307511  1
  Nb  Nb7  1  0.308081  0.691651  0.691256  1
  Nb  Nb8  1  0.691239  0.309015  0.308069  1
  Nb  Nb9  1  0.307538  0.308760  0.691601  1
  Nb  Nb10  1  0.558616  0.941399  0.558580  1
  Nb  Nb11  1  0.309257  0.690737  0.309252  1
  Al  Al12  1  0.330579  0.332260  0.332592  1
  Al  Al13  1  0.246590  0.918489  0.918900  1
  Al  Al14  1  0.918497  0.247375  0.916077  1
  Al  Al15  1  0.918862  0.916055  0.246579  1
  Al  Al16  1  0.332651  0.004545  0.330536  1
  Al  Al17  1  0.333491  0.330744  0.003242  1
  Al  Al18  1  0.003238  0.332529  0.333461  1
  Al  Al19  1  0.916029  0.918067  0.918557  1
  Co  Co20  1  0.124156  0.125742  0.125704  1
  Co  Co21  1  0.625521  0.125475  0.125586  1
  Co  Co22  1  0.125704  0.624401  0.124156  1
  Co  Co23  1  0.125595  0.123410  0.625521  1
  C  C24  1  0.630669  0.618550  0.624866  1
  C  C25  1  0.117707  0.623483  0.629757  1
  C  C26  1  0.624860  0.125918  0.630673  1
  C  C27  1  0.629755  0.629056  0.117713  1
