# generated using pymatgen
data_Th2Al20ReRh3
_symmetry_space_group_name_H-M   'P 1'
_cell_length_a   6.89422393
_cell_length_b   6.89915225
_cell_length_c   9.23431132
_cell_angle_alpha   89.92446301
_cell_angle_beta   89.43244988
_cell_angle_gamma   97.42369508
_symmetry_Int_Tables_number   1
_chemical_formula_structural   Th2Al20ReRh3
_chemical_formula_sum   'Th2 Al20 Re1 Rh3'
_cell_volume   435.51904210
_cell_formula_units_Z   1
loop_
 _symmetry_equiv_pos_site_id
 _symmetry_equiv_pos_as_xyz
  1  'x, y, z'
loop_
 _atom_site_type_symbol
 _atom_site_label
 _atom_site_symmetry_multiplicity
 _atom_site_fract_x
 _atom_site_fract_y
 _atom_site_fract_z
 _atom_site_occupancy
  Th  Th0  1  0.868593  0.119857  0.748923  1
  Th  Th1  1  0.131407  0.880143  0.251077  1
  Al  Al2  1  0.515926  0.773826  0.753578  1
  Al  Al3  1  0.484074  0.226174  0.246422  1
  Al  Al4  1  0.598406  0.859872  0.250355  1
  Al  Al5  1  0.781190  0.779744  0.000553  1
  Al  Al6  1  0.158337  0.841118  0.602974  1
  Al  Al7  1  0.218810  0.220256  0.999447  1
  Al  Al8  1  0.141173  0.405042  0.249480  1
  Al  Al9  1  0.619993  0.376929  0.951812  1
  Al  Al10  1  0.843900  0.157457  0.102889  1
  Al  Al11  1  0.379670  0.621223  0.447562  1
  Al  Al12  1  0.156100  0.842543  0.897111  1
  Al  Al13  1  0.224150  0.480386  0.749019  1
  Al  Al14  1  0.380007  0.623071  0.048188  1
  Al  Al15  1  0.841663  0.158882  0.397026  1
  Al  Al16  1  0.620330  0.378777  0.552438  1
  Al  Al17  1  0.401594  0.140128  0.749645  1
  Al  Al18  1  0.775850  0.519614  0.250981  1
  Al  Al19  1  0.775364  0.775466  0.501066  1
  Al  Al20  1  0.224636  0.224534  0.498934  1
  Al  Al21  1  0.858827  0.594958  0.750520  1
  Re  Re22  1  0.500000  0.000000  0.000000  1
  Rh  Rh23  1  0.000000  0.500000  0.500000  1
  Rh  Rh24  1  0.000000  0.500000  0.000000  1
  Rh  Rh25  1  0.500000  0.000000  0.500000  1
