# generated using pymatgen
data_Nd3CoCl3
_symmetry_space_group_name_H-M   'P 1'
_cell_length_a   9.99684081
_cell_length_b   9.99683999
_cell_length_c   9.99684000
_cell_angle_alpha   109.47122065
_cell_angle_beta   109.47121899
_cell_angle_gamma   109.47121821
_symmetry_Int_Tables_number   1
_chemical_formula_structural   Nd3CoCl3
_chemical_formula_sum   'Nd12 Co4 Cl12'
_cell_volume   769.07091914
_cell_formula_units_Z   4
loop_
 _symmetry_equiv_pos_site_id
 _symmetry_equiv_pos_as_xyz
  1  'x, y, z'
loop_
 _atom_site_type_symbol
 _atom_site_label
 _atom_site_symmetry_multiplicity
 _atom_site_fract_x
 _atom_site_fract_y
 _atom_site_fract_z
 _atom_site_occupancy
  Nd  Nd0  1  0.475344  0.487673  0.237673  1
  Nd  Nd1  1  0.750000  0.237673  0.262327  1
  Nd  Nd2  1  0.750000  0.012327  0.487673  1
  Nd  Nd3  1  0.237673  0.475344  0.487673  1
  Nd  Nd4  1  0.262327  0.750000  0.237673  1
  Nd  Nd5  1  0.024656  0.262327  0.012327  1
  Nd  Nd6  1  0.012327  0.024656  0.262327  1
  Nd  Nd7  1  0.487673  0.750000  0.012327  1
  Nd  Nd8  1  0.487673  0.237673  0.475344  1
  Nd  Nd9  1  0.012327  0.487673  0.750000  1
  Nd  Nd10  1  0.262327  0.012327  0.024656  1
  Nd  Nd11  1  0.237673  0.262327  0.750000  1
  Co  Co12  1  0.250000  0.250000  0.250000  1
  Co  Co13  1  0.500000  0.000000  0.250000  1
  Co  Co14  1  0.000000  0.250000  0.500000  1
  Co  Co15  1  0.250000  0.500000  0.000000  1
  Cl  Cl16  1  0.250000  0.754488  0.745512  1
  Cl  Cl17  1  0.508976  0.504488  0.754488  1
  Cl  Cl18  1  0.991024  0.745512  0.995512  1
  Cl  Cl19  1  0.745512  0.250000  0.754488  1
  Cl  Cl20  1  0.995512  0.991024  0.745512  1
  Cl  Cl21  1  0.250000  0.995512  0.504488  1
  Cl  Cl22  1  0.754488  0.508976  0.504488  1
  Cl  Cl23  1  0.504488  0.250000  0.995512  1
  Cl  Cl24  1  0.754488  0.745512  0.250000  1
  Cl  Cl25  1  0.745512  0.995512  0.991024  1
  Cl  Cl26  1  0.995512  0.504488  0.250000  1
  Cl  Cl27  1  0.504488  0.754488  0.508976  1
