# generated using pymatgen
data_Pr2U(AlRu)3
_symmetry_space_group_name_H-M   'P 1'
_cell_length_a   6.99664654
_cell_length_b   6.99664757
_cell_length_c   4.16834300
_cell_angle_alpha   90.00000000
_cell_angle_beta   90.00000000
_cell_angle_gamma   117.47366631
_symmetry_Int_Tables_number   1
_chemical_formula_structural   Pr2U(AlRu)3
_chemical_formula_sum   'Pr2 U1 Al3 Ru3'
_cell_volume   181.04067304
_cell_formula_units_Z   1
loop_
 _symmetry_equiv_pos_site_id
 _symmetry_equiv_pos_as_xyz
  1  'x, y, z'
loop_
 _atom_site_type_symbol
 _atom_site_label
 _atom_site_symmetry_multiplicity
 _atom_site_fract_x
 _atom_site_fract_y
 _atom_site_fract_z
 _atom_site_occupancy
  Pr  Pr0  1  0.424192  0.011873  0.500000  1
  Pr  Pr1  1  0.011873  0.424192  0.500000  1
  U  U2  1  0.607649  0.607649  0.500000  1
  Al  Al3  1  0.758637  0.010211  0.000000  1
  Al  Al4  1  0.010211  0.758637  0.000000  1
  Al  Al5  1  0.207355  0.207355  0.000000  1
  Ru  Ru6  1  0.389622  0.632411  0.000000  1
  Ru  Ru7  1  0.632411  0.389622  0.000000  1
  Ru  Ru8  1  0.958050  0.958050  0.500000  1
