# generated using pymatgen
data_Ce2IrPtPb
_symmetry_space_group_name_H-M   'P 1'
_cell_length_a   7.92642200
_cell_length_b   7.94108200
_cell_length_c   3.68174700
_cell_angle_alpha   90.00000000
_cell_angle_beta   90.00000000
_cell_angle_gamma   90.00000000
_symmetry_Int_Tables_number   1
_chemical_formula_structural   Ce2IrPtPb
_chemical_formula_sum   'Ce4 Ir2 Pt2 Pb2'
_cell_volume   231.74523462
_cell_formula_units_Z   2
loop_
 _symmetry_equiv_pos_site_id
 _symmetry_equiv_pos_as_xyz
  1  'x, y, z'
loop_
 _atom_site_type_symbol
 _atom_site_label
 _atom_site_symmetry_multiplicity
 _atom_site_fract_x
 _atom_site_fract_y
 _atom_site_fract_z
 _atom_site_occupancy
  Ce  Ce0  1  0.678451  0.829071  0.500000  1
  Ce  Ce1  1  0.821549  0.329071  0.500000  1
  Ce  Ce2  1  0.339385  0.169910  0.500000  1
  Ce  Ce3  1  0.160615  0.669910  0.500000  1
  Ir  Ir4  1  0.630244  0.131319  0.000000  1
  Ir  Ir5  1  0.869756  0.631319  0.000000  1
  Pt  Pt6  1  0.128681  0.369421  0.000000  1
  Pt  Pt7  1  0.371319  0.869421  0.000000  1
  Pb  Pb8  1  0.500994  0.500279  0.000000  1
  Pb  Pb9  1  0.999006  0.000279  0.000000  1
