# generated using pymatgen
data_RbLi2CeSb2
_symmetry_space_group_name_H-M   'P 1'
_cell_length_a   4.78096100
_cell_length_b   4.78096103
_cell_length_c   9.13418500
_cell_angle_alpha   90.00000000
_cell_angle_beta   90.00000000
_cell_angle_gamma   119.99999290
_symmetry_Int_Tables_number   1
_chemical_formula_structural   RbLi2CeSb2
_chemical_formula_sum   'Rb1 Li2 Ce1 Sb2'
_cell_volume   180.81350738
_cell_formula_units_Z   1
loop_
 _symmetry_equiv_pos_site_id
 _symmetry_equiv_pos_as_xyz
  1  'x, y, z'
loop_
 _atom_site_type_symbol
 _atom_site_label
 _atom_site_symmetry_multiplicity
 _atom_site_fract_x
 _atom_site_fract_y
 _atom_site_fract_z
 _atom_site_occupancy
  Rb  Rb0  1  0.000000  0.000000  0.500000  1
  Li  Li1  1  0.666667  0.333333  0.217020  1
  Li  Li2  1  0.333333  0.666667  0.782980  1
  Ce  Ce3  1  0.000000  0.000000  0.000000  1
  Sb  Sb4  1  0.666667  0.333333  0.802070  1
  Sb  Sb5  1  0.333333  0.666667  0.197930  1
