# generated using pymatgen
data_MnNb4Cu3Pt8
_symmetry_space_group_name_H-M   'P 1'
_cell_length_a   4.58445300
_cell_length_b   4.84197500
_cell_length_c   11.04453600
_cell_angle_alpha   90.00000000
_cell_angle_beta   90.00000000
_cell_angle_gamma   90.00000000
_symmetry_Int_Tables_number   1
_chemical_formula_structural   MnNb4Cu3Pt8
_chemical_formula_sum   'Mn1 Nb4 Cu3 Pt8'
_cell_volume   245.16447649
_cell_formula_units_Z   1
loop_
 _symmetry_equiv_pos_site_id
 _symmetry_equiv_pos_as_xyz
  1  'x, y, z'
loop_
 _atom_site_type_symbol
 _atom_site_label
 _atom_site_symmetry_multiplicity
 _atom_site_fract_x
 _atom_site_fract_y
 _atom_site_fract_z
 _atom_site_occupancy
  Mn  Mn0  1  0.500000  0.678641  0.500000  1
  Nb  Nb1  1  0.500000  0.659326  0.253024  1
  Nb  Nb2  1  0.500000  0.659326  0.746976  1
  Nb  Nb3  1  0.000000  0.340517  0.000000  1
  Nb  Nb4  1  0.000000  0.334377  0.500000  1
  Cu  Cu5  1  0.000000  0.323859  0.249538  1
  Cu  Cu6  1  0.000000  0.323859  0.750462  1
  Cu  Cu7  1  0.500000  0.675349  0.000000  1
  Pt  Pt8  1  0.500000  0.179621  0.374934  1
  Pt  Pt9  1  0.500000  0.178747  0.875723  1
  Pt  Pt10  1  0.500000  0.178747  0.124277  1
  Pt  Pt11  1  0.500000  0.179621  0.625066  1
  Pt  Pt12  1  0.000000  0.824959  0.374404  1
  Pt  Pt13  1  0.000000  0.819046  0.874502  1
  Pt  Pt14  1  0.000000  0.819046  0.125498  1
  Pt  Pt15  1  0.000000  0.824959  0.625596  1
