# generated using pymatgen
data_K(NpS2)2
_symmetry_space_group_name_H-M   'P 1'
_cell_length_a   4.10352200
_cell_length_b   12.39513400
_cell_length_c   14.63259300
_cell_angle_alpha   90.00000000
_cell_angle_beta   90.00000000
_cell_angle_gamma   90.00000000
_symmetry_Int_Tables_number   1
_chemical_formula_structural   K(NpS2)2
_chemical_formula_sum   'K4 Np8 S16'
_cell_volume   744.26789464
_cell_formula_units_Z   4
loop_
 _symmetry_equiv_pos_site_id
 _symmetry_equiv_pos_as_xyz
  1  'x, y, z'
loop_
 _atom_site_type_symbol
 _atom_site_label
 _atom_site_symmetry_multiplicity
 _atom_site_fract_x
 _atom_site_fract_y
 _atom_site_fract_z
 _atom_site_occupancy
  K  K0  1  0.250000  0.241212  0.338709  1
  K  K1  1  0.750000  0.758788  0.661291  1
  K  K2  1  0.750000  0.258788  0.838709  1
  K  K3  1  0.250000  0.741212  0.161291  1
  Np  Np4  1  0.250000  0.064815  0.110181  1
  Np  Np5  1  0.750000  0.935185  0.889819  1
  Np  Np6  1  0.750000  0.435185  0.610181  1
  Np  Np7  1  0.250000  0.564815  0.389819  1
  Np  Np8  1  0.250000  0.080307  0.601941  1
  Np  Np9  1  0.750000  0.919693  0.398059  1
  Np  Np10  1  0.750000  0.419693  0.101941  1
  Np  Np11  1  0.250000  0.580307  0.898059  1
  S  S12  1  0.750000  0.024202  0.716022  1
  S  S13  1  0.250000  0.975798  0.283978  1
  S  S14  1  0.250000  0.475798  0.216022  1
  S  S15  1  0.750000  0.524202  0.783978  1
  S  S16  1  0.250000  0.075099  0.924857  1
  S  S17  1  0.750000  0.924901  0.075143  1
  S  S18  1  0.750000  0.424901  0.424857  1
  S  S19  1  0.250000  0.575099  0.575143  1
  S  S20  1  0.750000  0.117035  0.481858  1
  S  S21  1  0.250000  0.882965  0.518142  1
  S  S22  1  0.250000  0.382965  0.981858  1
  S  S23  1  0.750000  0.617035  0.018142  1
  S  S24  1  0.750000  0.204815  0.153240  1
  S  S25  1  0.250000  0.795185  0.846760  1
  S  S26  1  0.250000  0.295185  0.653240  1
  S  S27  1  0.750000  0.704815  0.346760  1
