# generated using pymatgen
data_TiNb11Ga8Co3TcC4
_symmetry_space_group_name_H-M   'P 1'
_cell_length_a   8.23232495
_cell_length_b   8.21007741
_cell_length_c   8.23232500
_cell_angle_alpha   60.08936454
_cell_angle_beta   59.97089921
_cell_angle_gamma   60.08935514
_symmetry_Int_Tables_number   1
_chemical_formula_structural   TiNb11Ga8Co3TcC4
_chemical_formula_sum   'Ti1 Nb11 Ga8 Co3 Tc1 C4'
_cell_volume   393.88249085
_cell_formula_units_Z   1
loop_
 _symmetry_equiv_pos_site_id
 _symmetry_equiv_pos_as_xyz
  1  'x, y, z'
loop_
 _atom_site_type_symbol
 _atom_site_label
 _atom_site_symmetry_multiplicity
 _atom_site_fract_x
 _atom_site_fract_y
 _atom_site_fract_z
 _atom_site_occupancy
  Ti  Ti0  1  0.690385  0.309140  0.690385  1
  Nb  Nb1  1  0.941390  0.557285  0.559113  1
  Nb  Nb2  1  0.550694  0.945680  0.943554  1
  Nb  Nb3  1  0.945687  0.548551  0.945687  1
  Nb  Nb4  1  0.559113  0.557285  0.941390  1
  Nb  Nb5  1  0.943554  0.945680  0.550694  1
  Nb  Nb6  1  0.690304  0.693721  0.308198  1
  Nb  Nb7  1  0.308198  0.693721  0.690304  1
  Nb  Nb8  1  0.699487  0.303709  0.305411  1
  Nb  Nb9  1  0.305411  0.303709  0.699487  1
  Nb  Nb10  1  0.558692  0.941928  0.558692  1
  Nb  Nb11  1  0.305943  0.699516  0.305943  1
  Ga  Ga12  1  0.334596  0.335181  0.334596  1
  Ga  Ga13  1  0.252301  0.910484  0.911272  1
  Ga  Ga14  1  0.910674  0.250931  0.910674  1
  Ga  Ga15  1  0.911272  0.910484  0.252301  1
  Ga  Ga16  1  0.338447  0.999754  0.338447  1
  Ga  Ga17  1  0.342235  0.339098  0.995102  1
  Ga  Ga18  1  0.995102  0.339098  0.342235  1
  Ga  Ga19  1  0.914543  0.915673  0.914543  1
  Co  Co20  1  0.625534  0.125126  0.124381  1
  Co  Co21  1  0.124761  0.624562  0.124761  1
  Co  Co22  1  0.124381  0.125126  0.625534  1
  Tc  Tc23  1  0.124937  0.126193  0.124937  1
  C  C24  1  0.625945  0.619714  0.625945  1
  C  C25  1  0.124674  0.624777  0.626088  1
  C  C26  1  0.625649  0.129098  0.625649  1
  C  C27  1  0.626088  0.624777  0.124674  1
