# generated using pymatgen
data_Hf18MnNb2FeRe6
_symmetry_space_group_name_H-M   'P 1'
_cell_length_a   8.48825500
_cell_length_b   8.64113684
_cell_length_c   8.64113700
_cell_angle_alpha   120.00044457
_cell_angle_beta   90.00000000
_cell_angle_gamma   90.00000000
_symmetry_Int_Tables_number   1
_chemical_formula_structural   Hf18MnNb2FeRe6
_chemical_formula_sum   'Hf18 Mn1 Nb2 Fe1 Re6'
_cell_volume   548.89449806
_cell_formula_units_Z   1
loop_
 _symmetry_equiv_pos_site_id
 _symmetry_equiv_pos_as_xyz
  1  'x, y, z'
loop_
 _atom_site_type_symbol
 _atom_site_label
 _atom_site_symmetry_multiplicity
 _atom_site_fract_x
 _atom_site_fract_y
 _atom_site_fract_z
 _atom_site_occupancy
  Hf  Hf0  1  0.559418  0.798146  0.596319  1
  Hf  Hf1  1  0.559445  0.798145  0.201855  1
  Hf  Hf2  1  0.559418  0.403681  0.201854  1
  Hf  Hf3  1  0.440017  0.201971  0.403933  1
  Hf  Hf4  1  0.440017  0.201979  0.798021  1
  Hf  Hf5  1  0.440017  0.596067  0.798029  1
  Hf  Hf6  1  0.059983  0.201971  0.403933  1
  Hf  Hf7  1  0.059983  0.201979  0.798021  1
  Hf  Hf8  1  0.059983  0.596067  0.798029  1
  Hf  Hf9  1  0.940582  0.798146  0.596319  1
  Hf  Hf10  1  0.940555  0.798145  0.201855  1
  Hf  Hf11  1  0.940582  0.403681  0.201854  1
  Hf  Hf12  1  0.750000  0.458647  0.917343  1
  Hf  Hf13  1  0.750000  0.458670  0.541330  1
  Hf  Hf14  1  0.750000  0.082657  0.541352  1
  Hf  Hf15  1  0.250000  0.541381  0.082725  1
  Hf  Hf16  1  0.250000  0.541389  0.458611  1
  Hf  Hf17  1  0.250000  0.917275  0.458618  1
  Mn  Mn18  1  0.750000  0.666647  0.333353  1
  Nb  Nb19  1  0.500291  0.999997  0.000003  1
  Nb  Nb20  1  0.999709  0.999997  0.000003  1
  Fe  Fe21  1  0.250000  0.333366  0.666634  1
  Re  Re22  1  0.750000  0.114508  0.229044  1
  Re  Re23  1  0.750000  0.114501  0.885499  1
  Re  Re24  1  0.750000  0.770956  0.885492  1
  Re  Re25  1  0.250000  0.885538  0.771039  1
  Re  Re26  1  0.250000  0.885528  0.114472  1
  Re  Re27  1  0.250000  0.228961  0.114462  1
