# generated using pymatgen
data_Co2Ni6RhS8
_symmetry_space_group_name_H-M   'P 1'
_cell_length_a   7.09328145
_cell_length_b   7.09328107
_cell_length_c   7.09328156
_cell_angle_alpha   90.04497213
_cell_angle_beta   59.91714609
_cell_angle_gamma   119.96912415
_symmetry_Int_Tables_number   1
_chemical_formula_structural   Co2Ni6RhS8
_chemical_formula_sum   'Co2 Ni6 Rh1 S8'
_cell_volume   252.26396488
_cell_formula_units_Z   1
loop_
 _symmetry_equiv_pos_site_id
 _symmetry_equiv_pos_as_xyz
  1  'x, y, z'
loop_
 _atom_site_type_symbol
 _atom_site_label
 _atom_site_symmetry_multiplicity
 _atom_site_fract_x
 _atom_site_fract_y
 _atom_site_fract_z
 _atom_site_occupancy
  Co  Co0  1  0.249962  0.125595  0.624441  1
  Co  Co1  1  0.750038  0.125595  0.124367  1
  Ni  Ni2  1  0.744191  0.616583  0.127608  1
  Ni  Ni3  1  0.255809  0.128202  0.127608  1
  Ni  Ni4  1  0.746720  0.873695  0.379584  1
  Ni  Ni5  1  0.253280  0.873695  0.873024  1
  Ni  Ni6  1  0.252464  0.379079  0.873387  1
  Ni  Ni7  1  0.747536  0.874149  0.873387  1
  Rh  Rh8  1  0.000000  0.501822  0.498178  1
  S  S9  1  0.513297  0.256394  0.738666  1
  S  S10  1  0.004939  0.748036  0.738666  1
  S  S11  1  0.000000  0.256561  0.743439  1
  S  S12  1  0.486703  0.748036  0.256904  1
  S  S13  1  0.995061  0.256394  0.256904  1
  S  S14  1  0.000000  0.743054  0.256946  1
  S  S15  1  0.500000  0.243535  0.256465  1
  S  S16  1  0.500000  0.749573  0.750427  1
