# generated using pymatgen
data_Pa4Ga4Pt3Rh
_symmetry_space_group_name_H-M   'P 1'
_cell_length_a   4.39406100
_cell_length_b   6.86977612
_cell_length_c   7.84092500
_cell_angle_alpha   89.15151652
_cell_angle_beta   90.00000000
_cell_angle_gamma   90.00000000
_symmetry_Int_Tables_number   1
_chemical_formula_structural   Pa4Ga4Pt3Rh
_chemical_formula_sum   'Pa4 Ga4 Pt3 Rh1'
_cell_volume   236.66189774
_cell_formula_units_Z   1
loop_
 _symmetry_equiv_pos_site_id
 _symmetry_equiv_pos_as_xyz
  1  'x, y, z'
loop_
 _atom_site_type_symbol
 _atom_site_label
 _atom_site_symmetry_multiplicity
 _atom_site_fract_x
 _atom_site_fract_y
 _atom_site_fract_z
 _atom_site_occupancy
  Pa  Pa0  1  0.250000  0.515136  0.196667  1
  Pa  Pa1  1  0.750000  0.495693  0.795202  1
  Pa  Pa2  1  0.250000  0.011771  0.297673  1
  Pa  Pa3  1  0.750000  0.982477  0.708575  1
  Ga  Ga4  1  0.250000  0.173102  0.921425  1
  Ga  Ga5  1  0.750000  0.828499  0.078805  1
  Ga  Ga6  1  0.250000  0.673815  0.579291  1
  Ga  Ga7  1  0.750000  0.328931  0.420382  1
  Pt  Pt8  1  0.750000  0.734677  0.407336  1
  Pt  Pt9  1  0.250000  0.261636  0.593089  1
  Pt  Pt10  1  0.750000  0.236547  0.092653  1
  Rh  Rh11  1  0.250000  0.757715  0.908901  1
