# generated using pymatgen
data_Tb3YbHo(ReO6)2
_symmetry_space_group_name_H-M   'P 1'
_cell_length_a   6.83522582
_cell_length_b   6.83522600
_cell_length_c   7.60274309
_cell_angle_alpha   73.70951717
_cell_angle_beta   73.70951534
_cell_angle_gamma   49.16893968
_symmetry_Int_Tables_number   1
_chemical_formula_structural   Tb3YbHo(ReO6)2
_chemical_formula_sum   'Tb3 Yb1 Ho1 Re2 O12'
_cell_volume   255.65429868
_cell_formula_units_Z   1
loop_
 _symmetry_equiv_pos_site_id
 _symmetry_equiv_pos_as_xyz
  1  'x, y, z'
loop_
 _atom_site_type_symbol
 _atom_site_label
 _atom_site_symmetry_multiplicity
 _atom_site_fract_x
 _atom_site_fract_y
 _atom_site_fract_z
 _atom_site_occupancy
  Tb  Tb0  1  0.684290  0.684290  0.180992  1
  Tb  Tb1  1  0.697856  0.697856  0.639785  1
  Tb  Tb2  1  0.304118  0.304118  0.365199  1
  Yb  Yb3  1  0.316788  0.316788  0.822179  1
  Ho  Ho4  1  0.996140  0.996140  0.499781  1
  Re  Re5  1  0.216357  0.784185  0.997419  1
  Re  Re6  1  0.784185  0.216357  0.997419  1
  O  O7  1  0.498548  0.498548  0.174798  1
  O  O8  1  0.501520  0.501520  0.825680  1
  O  O9  1  0.002269  0.002269  0.202548  1
  O  O10  1  0.998907  0.998907  0.793216  1
  O  O11  1  0.911258  0.410826  0.920274  1
  O  O12  1  0.592315  0.085074  0.086138  1
  O  O13  1  0.085074  0.592315  0.086138  1
  O  O14  1  0.599159  0.094813  0.567990  1
  O  O15  1  0.900712  0.404864  0.426090  1
  O  O16  1  0.404864  0.900712  0.426090  1
  O  O17  1  0.094813  0.599159  0.567990  1
  O  O18  1  0.410826  0.911258  0.920274  1
