# generated using pymatgen
data_CaPr3Pd3RuO14
_symmetry_space_group_name_H-M   'P 1'
_cell_length_a   7.46851168
_cell_length_b   7.44971135
_cell_length_c   7.36492419
_cell_angle_alpha   59.61843830
_cell_angle_beta   59.78897619
_cell_angle_gamma   60.08322729
_symmetry_Int_Tables_number   1
_chemical_formula_structural   CaPr3Pd3RuO14
_chemical_formula_sum   'Ca1 Pr3 Pd3 Ru1 O14'
_cell_volume   288.62587139
_cell_formula_units_Z   1
loop_
 _symmetry_equiv_pos_site_id
 _symmetry_equiv_pos_as_xyz
  1  'x, y, z'
loop_
 _atom_site_type_symbol
 _atom_site_label
 _atom_site_symmetry_multiplicity
 _atom_site_fract_x
 _atom_site_fract_y
 _atom_site_fract_z
 _atom_site_occupancy
  Ca  Ca0  1  0.625000  0.625000  0.125000  1
  Pr  Pr1  1  0.625000  0.125000  0.625000  1
  Pr  Pr2  1  0.125000  0.625000  0.625000  1
  Pr  Pr3  1  0.625000  0.625000  0.625000  1
  Pd  Pd4  1  0.125000  0.125000  0.625000  1
  Pd  Pd5  1  0.125000  0.625000  0.125000  1
  Pd  Pd6  1  0.125000  0.125000  0.125000  1
  Ru  Ru7  1  0.625000  0.125000  0.125000  1
  O  O8  1  0.746225  0.748996  0.755785  1
  O  O9  1  0.503775  0.501004  0.494215  1
  O  O10  1  0.037520  0.458669  0.045144  1
  O  O11  1  0.793098  0.203729  0.799443  1
  O  O12  1  0.036303  0.042091  0.461954  1
  O  O13  1  0.454560  0.052799  0.049709  1
  O  O14  1  0.036303  0.459654  0.461954  1
  O  O15  1  0.454560  0.442933  0.049709  1
  O  O16  1  0.456902  0.046271  0.450557  1
  O  O17  1  0.213697  0.790346  0.788046  1
  O  O18  1  0.795440  0.197201  0.200291  1
  O  O19  1  0.212480  0.791331  0.204856  1
  O  O20  1  0.795440  0.807067  0.200291  1
  O  O21  1  0.213697  0.207909  0.788046  1
