# generated using pymatgen
data_Ho2Al9RePdAu
_symmetry_space_group_name_H-M   'P 1'
_cell_length_a   7.65210201
_cell_length_b   7.65210103
_cell_length_c   9.55795168
_cell_angle_alpha   90.00275659
_cell_angle_beta   90.00275888
_cell_angle_gamma   119.12257806
_symmetry_Int_Tables_number   1
_chemical_formula_structural   Ho2Al9RePdAu
_chemical_formula_sum   'Ho4 Al18 Re2 Pd2 Au2'
_cell_volume   488.91032705
_cell_formula_units_Z   2
loop_
 _symmetry_equiv_pos_site_id
 _symmetry_equiv_pos_as_xyz
  1  'x, y, z'
loop_
 _atom_site_type_symbol
 _atom_site_label
 _atom_site_symmetry_multiplicity
 _atom_site_fract_x
 _atom_site_fract_y
 _atom_site_fract_z
 _atom_site_occupancy
  Ho  Ho0  1  0.994662  0.675807  0.250234  1
  Ho  Ho1  1  0.005338  0.324193  0.749766  1
  Ho  Ho2  1  0.675807  0.994662  0.250234  1
  Ho  Ho3  1  0.324193  0.005338  0.749766  1
  Al  Al4  1  0.127385  0.127385  0.251016  1
  Al  Al5  1  0.872615  0.872615  0.748984  1
  Al  Al6  1  0.002945  0.328562  0.080094  1
  Al  Al7  1  0.997055  0.671438  0.919906  1
  Al  Al8  1  0.000830  0.667814  0.576279  1
  Al  Al9  1  0.332186  0.999170  0.423721  1
  Al  Al10  1  0.999170  0.332186  0.423721  1
  Al  Al11  1  0.667814  0.000830  0.576279  1
  Al  Al12  1  0.671438  0.997055  0.919906  1
  Al  Al13  1  0.328562  0.002945  0.080094  1
  Al  Al14  1  0.327400  0.327400  0.550007  1
  Al  Al15  1  0.672600  0.672601  0.449993  1
  Al  Al16  1  0.674584  0.674585  0.060493  1
  Al  Al17  1  0.325416  0.325416  0.939507  1
  Al  Al18  1  0.344544  0.548730  0.255823  1
  Al  Al19  1  0.655456  0.451270  0.744177  1
  Al  Al20  1  0.548730  0.344544  0.255823  1
  Al  Al21  1  0.451270  0.655456  0.744177  1
  Re  Re22  1  0.000000  0.000000  0.000000  1
  Re  Re23  1  0.000000  0.000000  0.500000  1
  Pd  Pd24  1  0.327303  0.672697  0.500000  1
  Pd  Pd25  1  0.672697  0.327303  0.500000  1
  Au  Au26  1  0.672981  0.327019  0.000000  1
  Au  Au27  1  0.327019  0.672981  0.000000  1
