# generated using pymatgen
data_Sc10Sn6As
_symmetry_space_group_name_H-M   'P 1'
_cell_length_a   6.13344200
_cell_length_b   8.59568824
_cell_length_c   8.59563900
_cell_angle_alpha   120.00019841
_cell_angle_beta   89.99957053
_cell_angle_gamma   90.00084971
_symmetry_Int_Tables_number   1
_chemical_formula_structural   Sc10Sn6As
_chemical_formula_sum   'Sc10 Sn6 As1'
_cell_volume   392.45769574
_cell_formula_units_Z   1
loop_
 _symmetry_equiv_pos_site_id
 _symmetry_equiv_pos_as_xyz
  1  'x, y, z'
loop_
 _atom_site_type_symbol
 _atom_site_label
 _atom_site_symmetry_multiplicity
 _atom_site_fract_x
 _atom_site_fract_y
 _atom_site_fract_z
 _atom_site_occupancy
  Sc  Sc0  1  0.500001  0.333331  0.666668  1
  Sc  Sc1  1  0.500001  0.666663  0.333332  1
  Sc  Sc2  1  0.999994  0.666665  0.333334  1
  Sc  Sc3  1  0.999994  0.333331  0.666666  1
  Sc  Sc4  1  0.752659  0.249822  0.000000  1
  Sc  Sc5  1  0.752660  0.750189  0.750186  1
  Sc  Sc6  1  0.752660  0.000004  0.249814  1
  Sc  Sc7  1  0.247335  0.750182  0.000000  1
  Sc  Sc8  1  0.247352  0.249816  0.249818  1
  Sc  Sc9  1  0.247352  0.999998  0.750182  1
  Sn  Sn10  1  0.750332  0.606945  0.000000  1
  Sn  Sn11  1  0.750316  0.393072  0.393075  1
  Sn  Sn12  1  0.750316  0.999998  0.606925  1
  Sn  Sn13  1  0.249679  0.393070  0.000000  1
  Sn  Sn14  1  0.249676  0.606920  0.606926  1
  Sn  Sn15  1  0.249676  0.999994  0.393074  1
  As  As16  1  0.500000  0.000001  0.000000  1
