# generated using pymatgen
data_Sm8Ho12Si15Ge
_symmetry_space_group_name_H-M   'P 1'
_cell_length_a   7.71821033
_cell_length_b   7.72529454
_cell_length_c   14.20563600
_cell_angle_alpha   89.91496070
_cell_angle_beta   89.98337146
_cell_angle_gamma   89.95845693
_symmetry_Int_Tables_number   1
_chemical_formula_structural   Sm8Ho12Si15Ge
_chemical_formula_sum   'Sm8 Ho12 Si15 Ge1'
_cell_volume   847.01622050
_cell_formula_units_Z   1
loop_
 _symmetry_equiv_pos_site_id
 _symmetry_equiv_pos_as_xyz
  1  'x, y, z'
loop_
 _atom_site_type_symbol
 _atom_site_label
 _atom_site_symmetry_multiplicity
 _atom_site_fract_x
 _atom_site_fract_y
 _atom_site_fract_z
 _atom_site_occupancy
  Sm  Sm0  1  0.994831  0.354693  0.208644  1
  Sm  Sm1  1  0.004792  0.646036  0.709500  1
  Sm  Sm2  1  0.143643  0.497761  0.460222  1
  Sm  Sm3  1  0.504812  0.853482  0.040061  1
  Sm  Sm4  1  0.854709  0.504447  0.959022  1
  Sm  Sm5  1  0.495652  0.145643  0.541217  1
  Sm  Sm6  1  0.354582  0.995502  0.790784  1
  Sm  Sm7  1  0.645821  0.003387  0.290585  1
  Ho  Ho8  1  0.179083  0.178618  0.999825  1
  Ho  Ho9  1  0.821085  0.821685  0.500418  1
  Ho  Ho10  1  0.321323  0.680935  0.249345  1
  Ho  Ho11  1  0.679362  0.321103  0.750092  1
  Ho  Ho12  1  0.142764  0.005876  0.374944  1
  Ho  Ho13  1  0.856940  0.993752  0.875519  1
  Ho  Ho14  1  0.493390  0.643016  0.625715  1
  Ho  Ho15  1  0.356916  0.506107  0.874206  1
  Ho  Ho16  1  0.504815  0.355222  0.126129  1
  Ho  Ho17  1  0.646213  0.496665  0.374921  1
  Ho  Ho18  1  0.006028  0.143066  0.624246  1
  Ho  Ho19  1  0.992940  0.855953  0.123521  1
  Si  Si20  1  0.647748  0.706572  0.813953  1
  Si  Si21  1  0.206340  0.852786  0.563865  1
  Si  Si22  1  0.147439  0.793057  0.935140  1
  Si  Si23  1  0.793259  0.147826  0.063771  1
  Si  Si24  1  0.851863  0.206251  0.435844  1
  Si  Si25  1  0.293123  0.352312  0.686129  1
  Si  Si26  1  0.705875  0.646544  0.185553  1
  Si  Si27  1  0.293247  0.053294  0.186101  1
  Si  Si28  1  0.706287  0.941549  0.688582  1
  Si  Si29  1  0.441752  0.794844  0.438393  1
  Si  Si30  1  0.206066  0.556867  0.061485  1
  Si  Si31  1  0.558699  0.206681  0.938609  1
  Si  Si32  1  0.793114  0.441812  0.561922  1
  Si  Si33  1  0.058445  0.293792  0.811269  1
  Si  Si34  1  0.942251  0.706725  0.311445  1
  Ge  Ge35  1  0.354793  0.296143  0.319022  1
