# generated using pymatgen
data_Tb4HoLu3(P3Ir4)4
_symmetry_space_group_name_H-M   'P 1'
_cell_length_a   12.94099100
_cell_length_b   12.94154082
_cell_length_c   3.99292400
_cell_angle_alpha   90.00000000
_cell_angle_beta   90.00000000
_cell_angle_gamma   120.00140887
_symmetry_Int_Tables_number   1
_chemical_formula_structural   Tb4HoLu3(P3Ir4)4
_chemical_formula_sum   'Tb4 Ho1 Lu3 P12 Ir16'
_cell_volume   579.12062427
_cell_formula_units_Z   1
loop_
 _symmetry_equiv_pos_site_id
 _symmetry_equiv_pos_as_xyz
  1  'x, y, z'
loop_
 _atom_site_type_symbol
 _atom_site_label
 _atom_site_symmetry_multiplicity
 _atom_site_fract_x
 _atom_site_fract_y
 _atom_site_fract_z
 _atom_site_occupancy
  Tb  Tb0  1  0.333330  0.666713  0.500000  1
  Tb  Tb1  1  0.666670  0.333381  0.500000  1
  Tb  Tb2  1  0.186360  0.186345  0.000000  1
  Tb  Tb3  1  0.813640  0.999984  0.000000  1
  Ho  Ho4  1  0.000000  0.813406  0.000000  1
  Lu  Lu5  1  0.000000  0.445952  0.500000  1
  Lu  Lu6  1  0.554506  0.554438  0.500000  1
  Lu  Lu7  1  0.445494  0.999932  0.500000  1
  P  P8  1  0.000000  0.651291  0.500000  1
  P  P9  1  0.349370  0.349370  0.500000  1
  P  P10  1  0.650630  0.999999  0.500000  1
  P  P11  1  0.517158  0.688291  0.000000  1
  P  P12  1  0.311797  0.828805  0.000000  1
  P  P13  1  0.171147  0.482947  0.000000  1
  P  P14  1  0.482842  0.171133  0.000000  1
  P  P15  1  0.688203  0.517006  0.000000  1
  P  P16  1  0.828853  0.311798  0.000000  1
  P  P17  1  0.000000  0.176374  0.500000  1
  P  P18  1  0.823758  0.823424  0.500000  1
  P  P19  1  0.176242  0.999665  0.500000  1
  Ir  Ir20  1  0.509864  0.866872  0.000000  1
  Ir  Ir21  1  0.133309  0.642996  0.000000  1
  Ir  Ir22  1  0.357128  0.490308  0.000000  1
  Ir  Ir23  1  0.490136  0.357007  0.000000  1
  Ir  Ir24  1  0.866691  0.509686  0.000000  1
  Ir  Ir25  1  0.642872  0.133180  0.000000  1
  Ir  Ir26  1  0.000000  0.275962  0.000000  1
  Ir  Ir27  1  0.724503  0.724152  0.000000  1
  Ir  Ir28  1  0.275497  0.999648  0.000000  1
  Ir  Ir29  1  0.629431  0.807888  0.500000  1
  Ir  Ir30  1  0.191194  0.821332  0.500000  1
  Ir  Ir31  1  0.178630  0.370589  0.500000  1
  Ir  Ir32  1  0.370569  0.178457  0.500000  1
  Ir  Ir33  1  0.808806  0.630138  0.500000  1
  Ir  Ir34  1  0.821370  0.191960  0.500000  1
  Ir  Ir35  1  0.000000  0.999573  0.500000  1
