# generated using pymatgen
data_La15NdIn4Os3Rh
_symmetry_space_group_name_H-M   'P 1'
_cell_length_a   10.13449576
_cell_length_b   10.07701482
_cell_length_c   10.15212589
_cell_angle_alpha   59.80792110
_cell_angle_beta   60.08514284
_cell_angle_gamma   59.72182957
_symmetry_Int_Tables_number   1
_chemical_formula_structural   La15NdIn4Os3Rh
_chemical_formula_sum   'La15 Nd1 In4 Os3 Rh1'
_cell_volume   730.97007318
_cell_formula_units_Z   1
loop_
 _symmetry_equiv_pos_site_id
 _symmetry_equiv_pos_as_xyz
  1  'x, y, z'
loop_
 _atom_site_type_symbol
 _atom_site_label
 _atom_site_symmetry_multiplicity
 _atom_site_fract_x
 _atom_site_fract_y
 _atom_site_fract_z
 _atom_site_occupancy
  La  La0  1  0.691741  0.308137  0.307290  1
  La  La1  1  0.694915  0.689477  0.306546  1
  La  La2  1  0.307321  0.689262  0.308130  1
  La  La3  1  0.936677  0.945161  0.557572  1
  La  La4  1  0.153722  0.154169  0.539216  1
  La  La5  1  0.556979  0.945889  0.557371  1
  La  La6  1  0.155746  0.155116  0.153251  1
  La  La7  1  0.306102  0.308814  0.692937  1
  La  La8  1  0.941532  0.558477  0.556882  1
  La  La9  1  0.554936  0.557412  0.944011  1
  La  La10  1  0.557333  0.943780  0.937273  1
  La  La11  1  0.941317  0.558709  0.942690  1
  La  La12  1  0.155080  0.537552  0.154066  1
  La  La13  1  0.305966  0.689956  0.695328  1
  La  La14  1  0.689227  0.310414  0.692080  1
  Nd  Nd15  1  0.545652  0.152079  0.150563  1
  In  In16  1  0.919048  0.920461  0.240941  1
  In  In17  1  0.239377  0.920878  0.920967  1
  In  In18  1  0.918918  0.241052  0.920226  1
  In  In19  1  0.918758  0.920714  0.920626  1
  Os  Os20  1  0.365596  0.359094  0.362746  1
  Os  Os21  1  0.916552  0.359546  0.362158  1
  Os  Os22  1  0.363721  0.359889  0.915021  1
  Rh  Rh23  1  0.363786  0.913964  0.362111  1
