# generated using pymatgen
data_Th10AgSn4Bi3
_symmetry_space_group_name_H-M   'P 1'
_cell_length_a   9.67802500
_cell_length_b   9.67802381
_cell_length_c   6.64670900
_cell_angle_alpha   90.00000000
_cell_angle_beta   90.00000000
_cell_angle_gamma   119.99999381
_symmetry_Int_Tables_number   1
_chemical_formula_structural   Th10AgSn4Bi3
_chemical_formula_sum   'Th10 Ag1 Sn4 Bi3'
_cell_volume   539.15141572
_cell_formula_units_Z   1
loop_
 _symmetry_equiv_pos_site_id
 _symmetry_equiv_pos_as_xyz
  1  'x, y, z'
loop_
 _atom_site_type_symbol
 _atom_site_label
 _atom_site_symmetry_multiplicity
 _atom_site_fract_x
 _atom_site_fract_y
 _atom_site_fract_z
 _atom_site_occupancy
  Th  Th0  1  0.000000  0.723816  0.751537  1
  Th  Th1  1  0.276184  0.276184  0.751537  1
  Th  Th2  1  0.333333  0.666667  0.494909  1
  Th  Th3  1  0.666667  0.333333  0.494909  1
  Th  Th4  1  0.723419  0.723419  0.248629  1
  Th  Th5  1  0.723816  0.000000  0.751537  1
  Th  Th6  1  0.000000  0.276581  0.248629  1
  Th  Th7  1  0.276581  0.000000  0.248629  1
  Th  Th8  1  0.333333  0.666667  0.004726  1
  Th  Th9  1  0.666667  0.333333  0.004726  1
  Ag  Ag10  1  0.000000  0.000000  0.002298  1
  Sn  Sn11  1  0.621479  0.000000  0.249208  1
  Sn  Sn12  1  0.378521  0.378521  0.249208  1
  Sn  Sn13  1  0.000000  0.621479  0.249208  1
  Sn  Sn14  1  0.000000  0.000000  0.499741  1
  Bi  Bi15  1  0.620354  0.620354  0.750189  1
  Bi  Bi16  1  0.000000  0.379646  0.750189  1
  Bi  Bi17  1  0.379646  0.000000  0.750189  1
