# generated using pymatgen
data_DyHo11Co2Ni3Bi
_symmetry_space_group_name_H-M   'P 1'
_cell_length_a   8.30851683
_cell_length_b   8.30869278
_cell_length_c   8.30990079
_cell_angle_alpha   111.17035405
_cell_angle_beta   109.38806528
_cell_angle_gamma   107.86588255
_symmetry_Int_Tables_number   1
_chemical_formula_structural   DyHo11Co2Ni3Bi
_chemical_formula_sum   'Dy1 Ho11 Co2 Ni3 Bi1'
_cell_volume   441.26686817
_cell_formula_units_Z   1
loop_
 _symmetry_equiv_pos_site_id
 _symmetry_equiv_pos_as_xyz
  1  'x, y, z'
loop_
 _atom_site_type_symbol
 _atom_site_label
 _atom_site_symmetry_multiplicity
 _atom_site_fract_x
 _atom_site_fract_y
 _atom_site_fract_z
 _atom_site_occupancy
  Dy  Dy0  1  0.819291  0.709987  0.529308  1
  Ho  Ho1  1  0.180501  0.289973  0.470497  1
  Ho  Ho2  1  0.180696  0.709891  0.890620  1
  Ho  Ho3  1  0.819478  0.289888  0.109392  1
  Ho  Ho4  1  0.684851  0.374772  0.690113  1
  Ho  Ho5  1  0.314910  0.625061  0.309839  1
  Ho  Ho6  1  0.684783  0.994986  0.309865  1
  Ho  Ho7  1  0.315378  0.005313  0.690150  1
  Ho  Ho8  1  0.596759  0.790876  0.806197  1
  Ho  Ho9  1  0.402932  0.208906  0.193804  1
  Ho  Ho10  1  0.984897  0.790887  0.193807  1
  Ho  Ho11  1  0.015315  0.209444  0.806169  1
  Co  Co12  1  0.114218  0.613873  0.499945  1
  Co  Co13  1  0.886096  0.385725  0.499973  1
  Ni  Ni14  1  0.632626  0.000234  0.632845  1
  Ni  Ni15  1  0.367263  0.999985  0.367238  1
  Ni  Ni16  1  0.000047  0.000186  0.000238  1
  Bi  Bi17  1  0.499961  0.500015  0.999999  1
