# generated using pymatgen
data_BaNaCuH4
_symmetry_space_group_name_H-M   'P 1'
_cell_length_a   7.38689500
_cell_length_b   7.38689500
_cell_length_c   7.38689500
_cell_angle_alpha   90.00000000
_cell_angle_beta   90.00000000
_cell_angle_gamma   90.00000000
_symmetry_Int_Tables_number   1
_chemical_formula_structural   BaNaCuH4
_chemical_formula_sum   'Ba4 Na4 Cu4 H16'
_cell_volume   403.07492100
_cell_formula_units_Z   4
loop_
 _symmetry_equiv_pos_site_id
 _symmetry_equiv_pos_as_xyz
  1  'x, y, z'
loop_
 _atom_site_type_symbol
 _atom_site_label
 _atom_site_symmetry_multiplicity
 _atom_site_fract_x
 _atom_site_fract_y
 _atom_site_fract_z
 _atom_site_occupancy
  Ba  Ba0  1  0.159701  0.659701  0.840299  1
  Ba  Ba1  1  0.659701  0.840299  0.159701  1
  Ba  Ba2  1  0.840299  0.159701  0.659701  1
  Ba  Ba3  1  0.340299  0.340299  0.340299  1
  Na  Na4  1  0.850580  0.350580  0.149420  1
  Na  Na5  1  0.350580  0.149420  0.850580  1
  Na  Na6  1  0.149420  0.850580  0.350580  1
  Na  Na7  1  0.649420  0.649420  0.649420  1
  Cu  Cu8  1  0.433773  0.933773  0.566227  1
  Cu  Cu9  1  0.933773  0.566227  0.433773  1
  Cu  Cu10  1  0.566227  0.433773  0.933773  1
  Cu  Cu11  1  0.066227  0.066227  0.066227  1
  H  H12  1  0.561805  0.061805  0.438195  1
  H  H13  1  0.061805  0.438195  0.561805  1
  H  H14  1  0.438195  0.561805  0.061805  1
  H  H15  1  0.938195  0.938195  0.938195  1
  H  H16  1  0.268773  0.968814  0.092461  1
  H  H17  1  0.907539  0.768773  0.531186  1
  H  H18  1  0.468814  0.407539  0.731227  1
  H  H19  1  0.768773  0.531186  0.907539  1
  H  H20  1  0.407539  0.731227  0.468814  1
  H  H21  1  0.968814  0.092461  0.268773  1
  H  H22  1  0.731227  0.468814  0.407539  1
  H  H23  1  0.092461  0.268773  0.968814  1
  H  H24  1  0.531186  0.907539  0.768773  1
  H  H25  1  0.231227  0.031186  0.592461  1
  H  H26  1  0.592461  0.231227  0.031186  1
  H  H27  1  0.031186  0.592461  0.231227  1
