# generated using pymatgen
data_Dy3Er2Sb3
_symmetry_space_group_name_H-M   'P 1'
_cell_length_a   6.24351600
_cell_length_b   8.98798534
_cell_length_c   8.98815501
_cell_angle_alpha   119.99938956
_cell_angle_beta   90.00000000
_cell_angle_gamma   90.00000000
_symmetry_Int_Tables_number   1
_chemical_formula_structural   Dy3Er2Sb3
_chemical_formula_sum   'Dy6 Er4 Sb6'
_cell_volume   436.81288567
_cell_formula_units_Z   2
loop_
 _symmetry_equiv_pos_site_id
 _symmetry_equiv_pos_as_xyz
  1  'x, y, z'
loop_
 _atom_site_type_symbol
 _atom_site_label
 _atom_site_symmetry_multiplicity
 _atom_site_fract_x
 _atom_site_fract_y
 _atom_site_fract_z
 _atom_site_occupancy
  Dy  Dy0  1  0.749994  0.246340  0.000000  1
  Dy  Dy1  1  0.750002  0.753615  0.753608  1
  Dy  Dy2  1  0.750002  0.000007  0.246392  1
  Dy  Dy3  1  0.249994  0.753660  0.000000  1
  Dy  Dy4  1  0.250002  0.246385  0.246392  1
  Dy  Dy5  1  0.250002  0.999993  0.753608  1
  Er  Er6  1  0.499995  0.333350  0.666658  1
  Er  Er7  1  0.499995  0.666692  0.333342  1
  Er  Er8  1  0.999995  0.666650  0.333342  1
  Er  Er9  1  0.999995  0.333308  0.666658  1
  Sb  Sb10  1  0.750001  0.611263  0.000000  1
  Sb  Sb11  1  0.750007  0.388747  0.388754  1
  Sb  Sb12  1  0.750007  0.999994  0.611246  1
  Sb  Sb13  1  0.250001  0.388737  0.000000  1
  Sb  Sb14  1  0.250007  0.611253  0.611246  1
  Sb  Sb15  1  0.250007  0.000006  0.388754  1
