# generated using pymatgen
data_Y4Al16Ga2Ir5Au
_symmetry_space_group_name_H-M   'P 1'
_cell_length_a   7.58311278
_cell_length_b   7.58311188
_cell_length_c   9.50436504
_cell_angle_alpha   89.97588129
_cell_angle_beta   89.97587891
_cell_angle_gamma   119.46662494
_symmetry_Int_Tables_number   1
_chemical_formula_structural   Y4Al16Ga2Ir5Au
_chemical_formula_sum   'Y4 Al16 Ga2 Ir5 Au1'
_cell_volume   475.83648884
_cell_formula_units_Z   1
loop_
 _symmetry_equiv_pos_site_id
 _symmetry_equiv_pos_as_xyz
  1  'x, y, z'
loop_
 _atom_site_type_symbol
 _atom_site_label
 _atom_site_symmetry_multiplicity
 _atom_site_fract_x
 _atom_site_fract_y
 _atom_site_fract_z
 _atom_site_occupancy
  Y  Y0  1  0.995183  0.675826  0.250999  1
  Y  Y1  1  0.004817  0.324174  0.749001  1
  Y  Y2  1  0.675826  0.995183  0.250999  1
  Y  Y3  1  0.324174  0.004817  0.749001  1
  Al  Al4  1  0.001970  0.344835  0.078306  1
  Al  Al5  1  0.998030  0.655165  0.921694  1
  Al  Al6  1  0.999620  0.663880  0.573090  1
  Al  Al7  1  0.336120  0.000380  0.426910  1
  Al  Al8  1  0.000380  0.336120  0.426910  1
  Al  Al9  1  0.663880  0.999620  0.573090  1
  Al  Al10  1  0.655165  0.998030  0.921694  1
  Al  Al11  1  0.344835  0.001970  0.078306  1
  Al  Al12  1  0.333543  0.333543  0.553599  1
  Al  Al13  1  0.666457  0.666457  0.446401  1
  Al  Al14  1  0.657438  0.657438  0.059973  1
  Al  Al15  1  0.342562  0.342562  0.940027  1
  Al  Al16  1  0.337928  0.551546  0.251166  1
  Al  Al17  1  0.662072  0.448454  0.748834  1
  Al  Al18  1  0.551546  0.337928  0.251166  1
  Al  Al19  1  0.448454  0.662072  0.748834  1
  Ga  Ga20  1  0.141166  0.141166  0.256126  1
  Ga  Ga21  1  0.858834  0.858834  0.743874  1
  Ir  Ir22  1  0.671396  0.328604  0.000000  1
  Ir  Ir23  1  0.328604  0.671396  0.000000  1
  Ir  Ir24  1  0.328673  0.671327  0.500000  1
  Ir  Ir25  1  0.671327  0.328673  0.500000  1
  Ir  Ir26  1  0.000000  0.000000  0.500000  1
  Au  Au27  1  0.000000  0.000000  0.000000  1
