# generated using pymatgen
data_Nd17Tm3(Ir5Ru)2
_symmetry_space_group_name_H-M   'P 1'
_cell_length_a   11.17797325
_cell_length_b   11.18100825
_cell_length_c   6.55482000
_cell_angle_alpha   90.00000000
_cell_angle_beta   90.00000000
_cell_angle_gamma   90.05411059
_symmetry_Int_Tables_number   1
_chemical_formula_structural   Nd17Tm3(Ir5Ru)2
_chemical_formula_sum   'Nd17 Tm3 Ir10 Ru2'
_cell_volume   819.22766548
_cell_formula_units_Z   1
loop_
 _symmetry_equiv_pos_site_id
 _symmetry_equiv_pos_as_xyz
  1  'x, y, z'
loop_
 _atom_site_type_symbol
 _atom_site_label
 _atom_site_symmetry_multiplicity
 _atom_site_fract_x
 _atom_site_fract_y
 _atom_site_fract_z
 _atom_site_occupancy
  Nd  Nd0  1  0.087078  0.291594  0.117257  1
  Nd  Nd1  1  0.789378  0.412909  0.117228  1
  Nd  Nd2  1  0.210622  0.587091  0.117228  1
  Nd  Nd3  1  0.912922  0.708406  0.117257  1
  Nd  Nd4  1  0.413321  0.788946  0.382037  1
  Nd  Nd5  1  0.586679  0.211054  0.382037  1
  Nd  Nd6  1  0.292199  0.086957  0.382017  1
  Nd  Nd7  1  0.707801  0.913043  0.382017  1
  Nd  Nd8  1  0.412334  0.210406  0.884822  1
  Nd  Nd9  1  0.708389  0.087761  0.884687  1
  Nd  Nd10  1  0.291611  0.912239  0.884687  1
  Nd  Nd11  1  0.587666  0.789594  0.884822  1
  Nd  Nd12  1  0.087739  0.707707  0.615388  1
  Nd  Nd13  1  0.912261  0.292293  0.615388  1
  Nd  Nd14  1  0.210805  0.412635  0.615539  1
  Nd  Nd15  1  0.789195  0.587365  0.615539  1
  Nd  Nd16  1  0.000000  0.000000  0.499901  1
  Tm  Tm17  1  0.000000  0.000000  0.000000  1
  Tm  Tm18  1  0.500000  0.500000  0.999986  1
  Tm  Tm19  1  0.500000  0.500000  0.499962  1
  Ir  Ir20  1  0.150110  0.848221  0.243743  1
  Ir  Ir21  1  0.352757  0.352381  0.250695  1
  Ir  Ir22  1  0.647243  0.647619  0.250695  1
  Ir  Ir23  1  0.849890  0.151779  0.243743  1
  Ir  Ir24  1  0.353224  0.646315  0.749725  1
  Ir  Ir25  1  0.150652  0.149722  0.756220  1
  Ir  Ir26  1  0.849348  0.850278  0.756220  1
  Ir  Ir27  1  0.646776  0.353685  0.749725  1
  Ir  Ir28  1  0.500000  0.000000  0.622756  1
  Ir  Ir29  1  0.000000  0.500000  0.877050  1
  Ru  Ru30  1  0.000000  0.500000  0.380277  1
  Ru  Ru31  1  0.500000  0.000000  0.121350  1
