# generated using pymatgen
data_Sc12Si12Ir2OsRu
_symmetry_space_group_name_H-M   'P 1'
_cell_length_a   4.03438900
_cell_length_b   10.24191750
_cell_length_c   11.66043002
_cell_angle_alpha   90.02115611
_cell_angle_beta   90.00000000
_cell_angle_gamma   90.00000000
_symmetry_Int_Tables_number   1
_chemical_formula_structural   Sc12Si12Ir2OsRu
_chemical_formula_sum   'Sc12 Si12 Ir2 Os1 Ru1'
_cell_volume   481.80752798
_cell_formula_units_Z   1
loop_
 _symmetry_equiv_pos_site_id
 _symmetry_equiv_pos_as_xyz
  1  'x, y, z'
loop_
 _atom_site_type_symbol
 _atom_site_label
 _atom_site_symmetry_multiplicity
 _atom_site_fract_x
 _atom_site_fract_y
 _atom_site_fract_z
 _atom_site_occupancy
  Sc  Sc0  1  0.250000  0.876233  0.018750  1
  Sc  Sc1  1  0.250000  0.622060  0.519829  1
  Sc  Sc2  1  0.750000  0.122294  0.980408  1
  Sc  Sc3  1  0.750000  0.376106  0.482144  1
  Sc  Sc4  1  0.250000  0.921010  0.603031  1
  Sc  Sc5  1  0.250000  0.578906  0.103668  1
  Sc  Sc6  1  0.750000  0.078759  0.396288  1
  Sc  Sc7  1  0.750000  0.420979  0.895882  1
  Sc  Sc8  1  0.250000  0.660481  0.797827  1
  Sc  Sc9  1  0.250000  0.840643  0.298898  1
  Sc  Sc10  1  0.750000  0.340501  0.201179  1
  Sc  Sc11  1  0.750000  0.160023  0.702230  1
  Si  Si12  1  0.250000  0.014583  0.822223  1
  Si  Si13  1  0.250000  0.484597  0.322503  1
  Si  Si14  1  0.750000  0.984434  0.177297  1
  Si  Si15  1  0.750000  0.515163  0.678047  1
  Si  Si16  1  0.250000  0.251953  0.842261  1
  Si  Si17  1  0.250000  0.248995  0.342649  1
  Si  Si18  1  0.750000  0.748802  0.157511  1
  Si  Si19  1  0.750000  0.752723  0.657655  1
  Si  Si20  1  0.250000  0.193952  0.546332  1
  Si  Si21  1  0.250000  0.306168  0.045792  1
  Si  Si22  1  0.750000  0.805944  0.453978  1
  Si  Si23  1  0.750000  0.693406  0.954077  1
  Ir  Ir24  1  0.250000  0.109618  0.176935  1
  Ir  Ir25  1  0.750000  0.609338  0.323100  1
  Os  Os26  1  0.250000  0.391213  0.676229  1
  Ru  Ru27  1  0.750000  0.891115  0.823275  1
