# generated using pymatgen
data_Li2Mn3Ni9As3P4
_symmetry_space_group_name_H-M   'P 1'
_cell_length_a   9.21603400
_cell_length_b   9.21603351
_cell_length_c   3.61166500
_cell_angle_alpha   90.00000000
_cell_angle_beta   90.00000000
_cell_angle_gamma   119.99999554
_symmetry_Int_Tables_number   1
_chemical_formula_structural   Li2Mn3Ni9As3P4
_chemical_formula_sum   'Li2 Mn3 Ni9 As3 P4'
_cell_volume   265.66003480
_cell_formula_units_Z   1
loop_
 _symmetry_equiv_pos_site_id
 _symmetry_equiv_pos_as_xyz
  1  'x, y, z'
loop_
 _atom_site_type_symbol
 _atom_site_label
 _atom_site_symmetry_multiplicity
 _atom_site_fract_x
 _atom_site_fract_y
 _atom_site_fract_z
 _atom_site_occupancy
  Li  Li0  1  0.333333  0.666667  0.000000  1
  Li  Li1  1  0.000000  0.000000  0.500000  1
  Mn  Mn2  1  0.760380  0.551965  0.500000  1
  Mn  Mn3  1  0.448035  0.208415  0.500000  1
  Mn  Mn4  1  0.791585  0.239620  0.500000  1
  Ni  Ni5  1  0.278922  0.368040  0.500000  1
  Ni  Ni6  1  0.631960  0.910880  0.500000  1
  Ni  Ni7  1  0.089120  0.721078  0.500000  1
  Ni  Ni8  1  0.505431  0.445183  0.000000  1
  Ni  Ni9  1  0.554817  0.060248  0.000000  1
  Ni  Ni10  1  0.939752  0.494569  0.000000  1
  Ni  Ni11  1  0.735094  0.774652  0.000000  1
  Ni  Ni12  1  0.225348  0.960442  0.000000  1
  Ni  Ni13  1  0.039558  0.264906  0.000000  1
  As  As14  1  0.540313  0.626723  0.500000  1
  As  As15  1  0.373277  0.913590  0.500000  1
  As  As16  1  0.086410  0.459687  0.500000  1
  P  P17  1  0.958791  0.750492  0.000000  1
  P  P18  1  0.249508  0.208299  0.000000  1
  P  P19  1  0.791701  0.041209  0.000000  1
  P  P20  1  0.666667  0.333333  0.000000  1
