# generated using pymatgen
data_Pa2Si7Ir12
_symmetry_space_group_name_H-M   'P 1'
_cell_length_a   9.76073300
_cell_length_b   9.76073175
_cell_length_c   3.87607200
_cell_angle_alpha   90.00000000
_cell_angle_beta   90.00000000
_cell_angle_gamma   120.00000764
_symmetry_Int_Tables_number   1
_chemical_formula_structural   Pa2Si7Ir12
_chemical_formula_sum   'Pa2 Si7 Ir12'
_cell_volume   319.80646887
_cell_formula_units_Z   1
loop_
 _symmetry_equiv_pos_site_id
 _symmetry_equiv_pos_as_xyz
  1  'x, y, z'
loop_
 _atom_site_type_symbol
 _atom_site_label
 _atom_site_symmetry_multiplicity
 _atom_site_fract_x
 _atom_site_fract_y
 _atom_site_fract_z
 _atom_site_occupancy
  Pa  Pa0  1  0.333333  0.666667  0.746396  1
  Pa  Pa1  1  0.666667  0.333333  0.253604  1
  Si  Si2  1  0.000000  0.000000  0.500000  1
  Si  Si3  1  0.401392  0.290260  0.751618  1
  Si  Si4  1  0.709740  0.111132  0.751618  1
  Si  Si5  1  0.888868  0.598608  0.751618  1
  Si  Si6  1  0.598608  0.709740  0.248382  1
  Si  Si7  1  0.290260  0.888868  0.248382  1
  Si  Si8  1  0.111132  0.401392  0.248382  1
  Ir  Ir9  1  0.448449  0.069136  0.751865  1
  Ir  Ir10  1  0.930864  0.379312  0.751865  1
  Ir  Ir11  1  0.620688  0.551551  0.751865  1
  Ir  Ir12  1  0.551551  0.930864  0.248135  1
  Ir  Ir13  1  0.069136  0.620688  0.248135  1
  Ir  Ir14  1  0.379312  0.448449  0.248135  1
  Ir  Ir15  1  0.145337  0.267169  0.746823  1
  Ir  Ir16  1  0.732831  0.878167  0.746823  1
  Ir  Ir17  1  0.121833  0.854663  0.746823  1
  Ir  Ir18  1  0.854663  0.732831  0.253177  1
  Ir  Ir19  1  0.267169  0.121833  0.253177  1
  Ir  Ir20  1  0.878167  0.145337  0.253177  1
