# generated using pymatgen
data_Al2Cr3O12
_symmetry_space_group_name_H-M   'P 1'
_cell_length_a   8.72565400
_cell_length_b   8.80852800
_cell_length_c   12.26761300
_cell_angle_alpha   90.00000000
_cell_angle_beta   90.00000000
_cell_angle_gamma   90.00000000
_symmetry_Int_Tables_number   1
_chemical_formula_structural   Al2Cr3O12
_chemical_formula_sum   'Al8 Cr12 O48'
_cell_volume   942.89079095
_cell_formula_units_Z   4
loop_
 _symmetry_equiv_pos_site_id
 _symmetry_equiv_pos_as_xyz
  1  'x, y, z'
loop_
 _atom_site_type_symbol
 _atom_site_label
 _atom_site_symmetry_multiplicity
 _atom_site_fract_x
 _atom_site_fract_y
 _atom_site_fract_z
 _atom_site_occupancy
  Al  Al0  1  0.967871  0.749623  0.120046  1
  Al  Al1  1  0.467871  0.250377  0.120046  1
  Al  Al2  1  0.467871  0.750377  0.379954  1
  Al  Al3  1  0.967871  0.249623  0.379954  1
  Al  Al4  1  0.032129  0.750377  0.620046  1
  Al  Al5  1  0.532129  0.249623  0.620046  1
  Al  Al6  1  0.532129  0.749623  0.879954  1
  Al  Al7  1  0.032129  0.250377  0.879954  1
  Cr  Cr8  1  0.250000  0.964502  0.000000  1
  Cr  Cr9  1  0.750000  0.035498  0.000000  1
  Cr  Cr10  1  0.606328  0.606081  0.144587  1
  Cr  Cr11  1  0.106328  0.393919  0.144587  1
  Cr  Cr12  1  0.106328  0.893919  0.355413  1
  Cr  Cr13  1  0.606328  0.106081  0.355413  1
  Cr  Cr14  1  0.750000  0.535498  0.500000  1
  Cr  Cr15  1  0.250000  0.464502  0.500000  1
  Cr  Cr16  1  0.393672  0.893919  0.644587  1
  Cr  Cr17  1  0.893672  0.106081  0.644587  1
  Cr  Cr18  1  0.893672  0.606081  0.855413  1
  Cr  Cr19  1  0.393672  0.393919  0.855413  1
  O  O20  1  0.557270  0.665864  0.021577  1
  O  O21  1  0.057270  0.334136  0.021577  1
  O  O22  1  0.358165  0.073195  0.078816  1
  O  O23  1  0.858165  0.926805  0.078816  1
  O  O24  1  0.146011  0.853693  0.080193  1
  O  O25  1  0.646011  0.146307  0.080193  1
  O  O26  1  0.092327  0.581388  0.153914  1
  O  O27  1  0.592327  0.418612  0.153914  1
  O  O28  1  0.787143  0.653304  0.168067  1
  O  O29  1  0.287143  0.346696  0.168067  1
  O  O30  1  0.489082  0.683470  0.235453  1
  O  O31  1  0.989082  0.316530  0.235453  1
  O  O32  1  0.989082  0.816530  0.264547  1
  O  O33  1  0.489082  0.183470  0.264547  1
  O  O34  1  0.787143  0.153304  0.331933  1
  O  O35  1  0.287143  0.846696  0.331933  1
  O  O36  1  0.592327  0.918612  0.346086  1
  O  O37  1  0.092327  0.081388  0.346086  1
  O  O38  1  0.646011  0.646307  0.419807  1
  O  O39  1  0.146011  0.353693  0.419807  1
  O  O40  1  0.358165  0.573195  0.421184  1
  O  O41  1  0.858165  0.426805  0.421184  1
  O  O42  1  0.557270  0.165864  0.478423  1
  O  O43  1  0.057270  0.834136  0.478423  1
  O  O44  1  0.442730  0.834136  0.521577  1
  O  O45  1  0.942730  0.165864  0.521577  1
  O  O46  1  0.141835  0.573195  0.578816  1
  O  O47  1  0.641835  0.426805  0.578816  1
  O  O48  1  0.853989  0.646307  0.580193  1
  O  O49  1  0.353989  0.353693  0.580193  1
  O  O50  1  0.907673  0.918612  0.653914  1
  O  O51  1  0.407673  0.081388  0.653914  1
  O  O52  1  0.212857  0.846696  0.668067  1
  O  O53  1  0.712857  0.153304  0.668067  1
  O  O54  1  0.510918  0.816530  0.735453  1
  O  O55  1  0.010918  0.183470  0.735453  1
  O  O56  1  0.010918  0.683470  0.764547  1
  O  O57  1  0.510918  0.316530  0.764547  1
  O  O58  1  0.712857  0.653304  0.831933  1
  O  O59  1  0.212857  0.346696  0.831933  1
  O  O60  1  0.407673  0.581388  0.846086  1
  O  O61  1  0.907673  0.418612  0.846086  1
  O  O62  1  0.353989  0.853693  0.919807  1
  O  O63  1  0.853989  0.146307  0.919807  1
  O  O64  1  0.641835  0.926805  0.921184  1
  O  O65  1  0.141835  0.073195  0.921184  1
  O  O66  1  0.942730  0.665864  0.978423  1
  O  O67  1  0.442730  0.334136  0.978423  1
