# generated using pymatgen
data_Zr6Zn17SiAg6
_symmetry_space_group_name_H-M   'P 1'
_cell_length_a   8.90223492
_cell_length_b   8.90170061
_cell_length_c   8.90170100
_cell_angle_alpha   60.00000228
_cell_angle_beta   60.00198767
_cell_angle_gamma   60.00198722
_symmetry_Int_Tables_number   1
_chemical_formula_structural   Zr6Zn17SiAg6
_chemical_formula_sum   'Zr6 Zn17 Si1 Ag6'
_cell_volume   498.81912052
_cell_formula_units_Z   1
loop_
 _symmetry_equiv_pos_site_id
 _symmetry_equiv_pos_as_xyz
  1  'x, y, z'
loop_
 _atom_site_type_symbol
 _atom_site_label
 _atom_site_symmetry_multiplicity
 _atom_site_fract_x
 _atom_site_fract_y
 _atom_site_fract_z
 _atom_site_occupancy
  Zr  Zr0  1  0.705297  0.293970  0.293970  1
  Zr  Zr1  1  0.294703  0.706030  0.706030  1
  Zr  Zr2  1  0.294703  0.706030  0.293238  1
  Zr  Zr3  1  0.705297  0.293970  0.706762  1
  Zr  Zr4  1  0.294703  0.293238  0.706030  1
  Zr  Zr5  1  0.705297  0.706762  0.293970  1
  Zn  Zn6  1  0.634087  0.121971  0.121971  1
  Zn  Zn7  1  0.365913  0.878029  0.878029  1
  Zn  Zn8  1  0.500000  0.000000  0.000000  1
  Zn  Zn9  1  0.000000  0.500000  0.500000  1
  Zn  Zn10  1  0.000000  0.500000  0.000000  1
  Zn  Zn11  1  0.500000  0.000000  0.500000  1
  Zn  Zn12  1  0.000000  0.000000  0.500000  1
  Zn  Zn13  1  0.500000  0.500000  0.000000  1
  Zn  Zn14  1  0.336339  0.335518  0.335518  1
  Zn  Zn15  1  0.663661  0.664482  0.664482  1
  Zn  Zn16  1  0.336339  0.335518  0.992629  1
  Zn  Zn17  1  0.336339  0.992629  0.335518  1
  Zn  Zn18  1  0.663661  0.664482  0.007371  1
  Zn  Zn19  1  0.663661  0.007371  0.664482  1
  Zn  Zn20  1  0.992506  0.335832  0.335832  1
  Zn  Zn21  1  0.007494  0.664168  0.664168  1
  Zn  Zn22  1  0.000000  0.000000  0.000000  1
  Si  Si23  1  0.500000  0.500000  0.500000  1
  Ag  Ag24  1  0.121582  0.120263  0.120263  1
  Ag  Ag25  1  0.878418  0.879737  0.879737  1
  Ag  Ag26  1  0.121582  0.120263  0.637892  1
  Ag  Ag27  1  0.121582  0.637892  0.120263  1
  Ag  Ag28  1  0.878418  0.879737  0.362108  1
  Ag  Ag29  1  0.878418  0.362108  0.879737  1
