# generated using pymatgen
data_LaEr5(Ir7Rh2)2
_symmetry_space_group_name_H-M   'P 1'
_cell_length_a   5.30699800
_cell_length_b   5.30699793
_cell_length_c   17.47668100
_cell_angle_alpha   90.00000000
_cell_angle_beta   90.00000000
_cell_angle_gamma   120.00000046
_symmetry_Int_Tables_number   1
_chemical_formula_structural   LaEr5(Ir7Rh2)2
_chemical_formula_sum   'La1 Er5 Ir14 Rh4'
_cell_volume   426.27261253
_cell_formula_units_Z   1
loop_
 _symmetry_equiv_pos_site_id
 _symmetry_equiv_pos_as_xyz
  1  'x, y, z'
loop_
 _atom_site_type_symbol
 _atom_site_label
 _atom_site_symmetry_multiplicity
 _atom_site_fract_x
 _atom_site_fract_y
 _atom_site_fract_z
 _atom_site_occupancy
  La  La0  1  0.666667  0.333333  0.250000  1
  Er  Er1  1  0.333333  0.666667  0.541432  1
  Er  Er2  1  0.666667  0.333333  0.040019  1
  Er  Er3  1  0.666667  0.333333  0.459981  1
  Er  Er4  1  0.333333  0.666667  0.958568  1
  Er  Er5  1  0.333333  0.666667  0.750000  1
  Ir  Ir6  1  0.167743  0.335485  0.123896  1
  Ir  Ir7  1  0.832336  0.664671  0.625581  1
  Ir  Ir8  1  0.664515  0.832257  0.123896  1
  Ir  Ir9  1  0.167743  0.832257  0.123896  1
  Ir  Ir10  1  0.832336  0.167664  0.625581  1
  Ir  Ir11  1  0.335329  0.167664  0.625581  1
  Ir  Ir12  1  0.832336  0.664671  0.874419  1
  Ir  Ir13  1  0.832336  0.167664  0.874419  1
  Ir  Ir14  1  0.335329  0.167664  0.874419  1
  Ir  Ir15  1  0.664515  0.832257  0.376104  1
  Ir  Ir16  1  0.167743  0.832257  0.376104  1
  Ir  Ir17  1  0.167743  0.335485  0.376104  1
  Ir  Ir18  1  0.000000  0.000000  0.999327  1
  Ir  Ir19  1  0.000000  0.000000  0.500673  1
  Rh  Rh20  1  0.000000  0.000000  0.250000  1
  Rh  Rh21  1  0.000000  0.000000  0.750000  1
  Rh  Rh22  1  0.333333  0.666667  0.250000  1
  Rh  Rh23  1  0.666667  0.333333  0.750000  1
