# generated using pymatgen
data_Hf18VZnRe7As
_symmetry_space_group_name_H-M   'P 1'
_cell_length_a   8.60665605
_cell_length_b   8.60642299
_cell_length_c   8.60599704
_cell_angle_alpha   90.01139261
_cell_angle_beta   89.99168463
_cell_angle_gamma   120.00392666
_symmetry_Int_Tables_number   1
_chemical_formula_structural   Hf18VZnRe7As
_chemical_formula_sum   'Hf18 V1 Zn1 Re7 As1'
_cell_volume   552.04154663
_cell_formula_units_Z   1
loop_
 _symmetry_equiv_pos_site_id
 _symmetry_equiv_pos_as_xyz
  1  'x, y, z'
loop_
 _atom_site_type_symbol
 _atom_site_label
 _atom_site_symmetry_multiplicity
 _atom_site_fract_x
 _atom_site_fract_y
 _atom_site_fract_z
 _atom_site_occupancy
  Hf  Hf0  1  0.805908  0.611840  0.550048  1
  Hf  Hf1  1  0.805877  0.194060  0.549947  1
  Hf  Hf2  1  0.388149  0.194114  0.550043  1
  Hf  Hf3  1  0.193167  0.386427  0.452237  1
  Hf  Hf4  1  0.193305  0.806778  0.452344  1
  Hf  Hf5  1  0.613461  0.806729  0.452299  1
  Hf  Hf6  1  0.192506  0.385006  0.048559  1
  Hf  Hf7  1  0.192576  0.807484  0.048470  1
  Hf  Hf8  1  0.614965  0.807426  0.048564  1
  Hf  Hf9  1  0.805690  0.611403  0.949287  1
  Hf  Hf10  1  0.805679  0.194272  0.949356  1
  Hf  Hf11  1  0.388632  0.194342  0.949295  1
  Hf  Hf12  1  0.458876  0.917699  0.751273  1
  Hf  Hf13  1  0.458900  0.541109  0.751232  1
  Hf  Hf14  1  0.082284  0.541068  0.751246  1
  Hf  Hf15  1  0.541945  0.083984  0.249421  1
  Hf  Hf16  1  0.541970  0.458026  0.249408  1
  Hf  Hf17  1  0.916041  0.458064  0.249399  1
  V  V18  1  0.000022  0.000024  0.501759  1
  Zn  Zn19  1  0.666639  0.333337  0.749978  1
  Re  Re20  1  0.109600  0.219154  0.745727  1
  Re  Re21  1  0.109643  0.890546  0.745825  1
  Re  Re22  1  0.780858  0.890460  0.745749  1
  Re  Re23  1  0.890801  0.781551  0.253397  1
  Re  Re24  1  0.890750  0.109179  0.253447  1
  Re  Re25  1  0.218441  0.109242  0.253395  1
  Re  Re26  1  0.000017  0.999950  0.998811  1
  As  As27  1  0.333301  0.666723  0.249486  1
