# generated using pymatgen
data_Nd3RhBr3
_symmetry_space_group_name_H-M   'P 1'
_cell_length_a   10.45199042
_cell_length_b   10.45199069
_cell_length_c   10.45199100
_cell_angle_alpha   109.47122124
_cell_angle_beta   109.47122176
_cell_angle_gamma   109.47121624
_symmetry_Int_Tables_number   1
_chemical_formula_structural   Nd3RhBr3
_chemical_formula_sum   'Nd12 Rh4 Br12'
_cell_volume   878.97225694
_cell_formula_units_Z   4
loop_
 _symmetry_equiv_pos_site_id
 _symmetry_equiv_pos_as_xyz
  1  'x, y, z'
loop_
 _atom_site_type_symbol
 _atom_site_label
 _atom_site_symmetry_multiplicity
 _atom_site_fract_x
 _atom_site_fract_y
 _atom_site_fract_z
 _atom_site_occupancy
  Nd  Nd0  1  0.468984  0.484493  0.234493  1
  Nd  Nd1  1  0.750000  0.234493  0.265507  1
  Nd  Nd2  1  0.750000  0.015507  0.484493  1
  Nd  Nd3  1  0.234493  0.468984  0.484493  1
  Nd  Nd4  1  0.265507  0.750000  0.234493  1
  Nd  Nd5  1  0.031016  0.265507  0.015507  1
  Nd  Nd6  1  0.015507  0.031016  0.265507  1
  Nd  Nd7  1  0.484493  0.750000  0.015507  1
  Nd  Nd8  1  0.484493  0.234493  0.468984  1
  Nd  Nd9  1  0.015507  0.484493  0.750000  1
  Nd  Nd10  1  0.265507  0.015507  0.031016  1
  Nd  Nd11  1  0.234493  0.265507  0.750000  1
  Rh  Rh12  1  0.250000  0.250000  0.250000  1
  Rh  Rh13  1  0.500000  0.000000  0.250000  1
  Rh  Rh14  1  0.000000  0.250000  0.500000  1
  Rh  Rh15  1  0.250000  0.500000  0.000000  1
  Br  Br16  1  0.250000  0.755982  0.744018  1
  Br  Br17  1  0.511963  0.505982  0.755982  1
  Br  Br18  1  0.988037  0.744018  0.994018  1
  Br  Br19  1  0.744018  0.250000  0.755982  1
  Br  Br20  1  0.994018  0.988037  0.744018  1
  Br  Br21  1  0.250000  0.994018  0.505982  1
  Br  Br22  1  0.755982  0.511963  0.505982  1
  Br  Br23  1  0.505982  0.250000  0.994018  1
  Br  Br24  1  0.755982  0.744018  0.250000  1
  Br  Br25  1  0.744018  0.994018  0.988037  1
  Br  Br26  1  0.994018  0.505982  0.250000  1
  Br  Br27  1  0.505982  0.755982  0.511963  1
