# generated using pymatgen
data_Ho4MgSc(B2Ir5)2
_symmetry_space_group_name_H-M   'P 1'
_cell_length_a   3.14916100
_cell_length_b   9.75919200
_cell_length_c   9.75919200
_cell_angle_alpha   90.00000000
_cell_angle_beta   90.00000000
_cell_angle_gamma   90.00000000
_symmetry_Int_Tables_number   1
_chemical_formula_structural   Ho4MgSc(B2Ir5)2
_chemical_formula_sum   'Ho4 Mg1 Sc1 B4 Ir10'
_cell_volume   299.93185186
_cell_formula_units_Z   1
loop_
 _symmetry_equiv_pos_site_id
 _symmetry_equiv_pos_as_xyz
  1  'x, y, z'
loop_
 _atom_site_type_symbol
 _atom_site_label
 _atom_site_symmetry_multiplicity
 _atom_site_fract_x
 _atom_site_fract_y
 _atom_site_fract_z
 _atom_site_occupancy
  Ho  Ho0  1  0.000000  0.175404  0.679214  1
  Ho  Ho1  1  0.000000  0.824596  0.320786  1
  Ho  Ho2  1  0.000000  0.320786  0.175404  1
  Ho  Ho3  1  0.000000  0.679214  0.824596  1
  Mg  Mg4  1  0.000000  0.000000  0.000000  1
  Sc  Sc5  1  0.000000  0.500000  0.500000  1
  B  B6  1  0.000000  0.623744  0.119624  1
  B  B7  1  0.000000  0.376256  0.880376  1
  B  B8  1  0.000000  0.880376  0.623744  1
  B  B9  1  0.000000  0.119624  0.376256  1
  Ir  Ir10  1  0.500000  0.069696  0.224417  1
  Ir  Ir11  1  0.500000  0.930304  0.775583  1
  Ir  Ir12  1  0.500000  0.775583  0.069696  1
  Ir  Ir13  1  0.500000  0.430875  0.725336  1
  Ir  Ir14  1  0.500000  0.224417  0.930304  1
  Ir  Ir15  1  0.500000  0.569125  0.274664  1
  Ir  Ir16  1  0.500000  0.725336  0.569125  1
  Ir  Ir17  1  0.500000  0.274664  0.430875  1
  Ir  Ir18  1  0.500000  0.000000  0.500000  1
  Ir  Ir19  1  0.500000  0.500000  0.000000  1
