# generated using pymatgen
data_YEr11Co4SnOs
_symmetry_space_group_name_H-M   'P 1'
_cell_length_a   8.23143213
_cell_length_b   8.23143225
_cell_length_c   8.22389995
_cell_angle_alpha   111.55309253
_cell_angle_beta   110.59661419
_cell_angle_gamma   106.35025423
_symmetry_Int_Tables_number   1
_chemical_formula_structural   YEr11Co4SnOs
_chemical_formula_sum   'Y1 Er11 Co4 Sn1 Os1'
_cell_volume   427.75057914
_cell_formula_units_Z   1
loop_
 _symmetry_equiv_pos_site_id
 _symmetry_equiv_pos_as_xyz
  1  'x, y, z'
loop_
 _atom_site_type_symbol
 _atom_site_label
 _atom_site_symmetry_multiplicity
 _atom_site_fract_x
 _atom_site_fract_y
 _atom_site_fract_z
 _atom_site_occupancy
  Y  Y0  1  0.183582  0.282093  0.465674  1
  Er  Er1  1  0.817864  0.719637  0.537502  1
  Er  Er2  1  0.181686  0.719271  0.900957  1
  Er  Er3  1  0.817826  0.280921  0.098749  1
  Er  Er4  1  0.313929  0.621052  0.306818  1
  Er  Er5  1  0.687163  0.379457  0.693753  1
  Er  Er6  1  0.314297  0.006591  0.693753  1
  Er  Er7  1  0.685766  0.992888  0.306818  1
  Er  Er8  1  0.414873  0.219356  0.194699  1
  Er  Er9  1  0.587716  0.781830  0.806646  1
  Er  Er10  1  0.024816  0.218930  0.806646  1
  Er  Er11  1  0.975343  0.779825  0.194699  1
  Co  Co12  1  0.109027  0.612751  0.498098  1
  Co  Co13  1  0.885348  0.389071  0.498098  1
  Co  Co14  1  0.376866  0.998974  0.375841  1
  Co  Co15  1  0.624192  0.999830  0.624022  1
  Sn  Sn16  1  0.499190  0.499735  0.998925  1
  Os  Os17  1  0.000515  0.997786  0.998302  1
