# generated using pymatgen
data_Pb(AuO2)2
_symmetry_space_group_name_H-M   'P 1'
_cell_length_a   6.86708638
_cell_length_b   6.86708642
_cell_length_c   6.86708695
_cell_angle_alpha   124.85274306
_cell_angle_beta   124.85273857
_cell_angle_gamma   81.78208253
_symmetry_Int_Tables_number   1
_chemical_formula_structural   Pb(AuO2)2
_chemical_formula_sum   'Pb2 Au4 O8'
_cell_volume   209.80992853
_cell_formula_units_Z   2
loop_
 _symmetry_equiv_pos_site_id
 _symmetry_equiv_pos_as_xyz
  1  'x, y, z'
loop_
 _atom_site_type_symbol
 _atom_site_label
 _atom_site_symmetry_multiplicity
 _atom_site_fract_x
 _atom_site_fract_y
 _atom_site_fract_z
 _atom_site_occupancy
  Pb  Pb0  1  0.750000  0.250000  0.500000  1
  Pb  Pb1  1  0.000000  0.000000  0.000000  1
  Au  Au2  1  0.375000  0.625000  0.250000  1
  Au  Au3  1  0.875000  0.625000  0.250000  1
  Au  Au4  1  0.375000  0.125000  0.750000  1
  Au  Au5  1  0.375000  0.625000  0.750000  1
  O  O6  1  0.575869  0.949315  0.930476  1
  O  O7  1  0.699315  0.268840  0.873446  1
  O  O8  1  0.395394  0.825869  0.126554  1
  O  O9  1  0.018840  0.645394  0.069524  1
  O  O10  1  0.174131  0.300685  0.569524  1
  O  O11  1  0.050685  0.981160  0.626554  1
  O  O12  1  0.731160  0.604606  0.430476  1
  O  O13  1  0.354606  0.424131  0.373446  1
