# generated using pymatgen
data_Tb6Ni17P12Pd
_symmetry_space_group_name_H-M   'P 1'
_cell_length_a   3.80095300
_cell_length_b   10.51835400
_cell_length_c   12.35065500
_cell_angle_alpha   90.00027535
_cell_angle_beta   90.00210826
_cell_angle_gamma   90.00008335
_symmetry_Int_Tables_number   1
_chemical_formula_structural   Tb6Ni17P12Pd
_chemical_formula_sum   'Tb6 Ni17 P12 Pd1'
_cell_volume   493.77633609
_cell_formula_units_Z   1
loop_
 _symmetry_equiv_pos_site_id
 _symmetry_equiv_pos_as_xyz
  1  'x, y, z'
loop_
 _atom_site_type_symbol
 _atom_site_label
 _atom_site_symmetry_multiplicity
 _atom_site_fract_x
 _atom_site_fract_y
 _atom_site_fract_z
 _atom_site_occupancy
  Tb  Tb0  1  0.752009  0.000009  0.476315  1
  Tb  Tb1  1  0.252035  0.499989  0.520474  1
  Tb  Tb2  1  0.251814  0.682811  0.793980  1
  Tb  Tb3  1  0.251813  0.317182  0.793978  1
  Tb  Tb4  1  0.751802  0.815731  0.206054  1
  Tb  Tb5  1  0.751803  0.184276  0.206059  1
  Ni  Ni6  1  0.751654  0.000000  0.016005  1
  Ni  Ni7  1  0.251706  0.500001  0.983769  1
  Ni  Ni8  1  0.252074  0.199489  0.570603  1
  Ni  Ni9  1  0.252076  0.800514  0.570610  1
  Ni  Ni10  1  0.752120  0.301247  0.428085  1
  Ni  Ni11  1  0.752119  0.698755  0.428089  1
  Ni  Ni12  1  0.251816  0.619831  0.288760  1
  Ni  Ni13  1  0.251819  0.380171  0.288760  1
  Ni  Ni14  1  0.751876  0.877794  0.709500  1
  Ni  Ni15  1  0.751874  0.122199  0.709498  1
  Ni  Ni16  1  0.251713  0.170103  0.007807  1
  Ni  Ni17  1  0.251713  0.829898  0.007795  1
  Ni  Ni18  1  0.751756  0.335821  0.997405  1
  Ni  Ni19  1  0.751755  0.664179  0.997405  1
  Ni  Ni20  1  0.750955  0.500001  0.158932  1
  Ni  Ni21  1  0.251993  0.000002  0.300060  1
  Ni  Ni22  1  0.751977  0.499997  0.699589  1
  P  P23  1  0.251980  0.188075  0.385480  1
  P  P24  1  0.251980  0.811927  0.385483  1
  P  P25  1  0.751970  0.313090  0.613615  1
  P  P26  1  0.751973  0.686901  0.613615  1
  P  P27  1  0.251667  0.000000  0.123550  1
  P  P28  1  0.751661  0.499998  0.876436  1
  P  P29  1  0.251657  0.650378  0.107838  1
  P  P30  1  0.251659  0.349627  0.107840  1
  P  P31  1  0.751710  0.841911  0.896410  1
  P  P32  1  0.751707  0.158087  0.896413  1
  P  P33  1  0.251949  0.000000  0.648808  1
  P  P34  1  0.751814  0.500001  0.343137  1
  Pd  Pd35  1  0.251602  0.000003  0.841846  1
