# generated using pymatgen
data_Tb2Ho8Si5P
_symmetry_space_group_name_H-M   'P 1'
_cell_length_a   8.39509320
_cell_length_b   8.40089965
_cell_length_c   6.29148000
_cell_angle_alpha   90.00000000
_cell_angle_beta   90.00000000
_cell_angle_gamma   119.91584261
_symmetry_Int_Tables_number   1
_chemical_formula_structural   Tb2Ho8Si5P
_chemical_formula_sum   'Tb2 Ho8 Si5 P1'
_cell_volume   384.59394223
_cell_formula_units_Z   1
loop_
 _symmetry_equiv_pos_site_id
 _symmetry_equiv_pos_as_xyz
  1  'x, y, z'
loop_
 _atom_site_type_symbol
 _atom_site_label
 _atom_site_symmetry_multiplicity
 _atom_site_fract_x
 _atom_site_fract_y
 _atom_site_fract_z
 _atom_site_occupancy
  Tb  Tb0  1  0.000942  0.756931  0.750000  1
  Tb  Tb1  1  0.755040  0.000066  0.750000  1
  Ho  Ho2  1  0.001161  0.244175  0.250000  1
  Ho  Ho3  1  0.756606  0.755627  0.250000  1
  Ho  Ho4  1  0.244210  0.243254  0.750000  1
  Ho  Ho5  1  0.243653  0.000178  0.250000  1
  Ho  Ho6  1  0.333811  0.667415  0.500259  1
  Ho  Ho7  1  0.666135  0.332448  0.999730  1
  Ho  Ho8  1  0.666135  0.332448  0.500270  1
  Ho  Ho9  1  0.333811  0.667415  0.999741  1
  Si  Si10  1  0.394410  0.393759  0.250000  1
  Si  Si11  1  0.000663  0.606334  0.250000  1
  Si  Si12  1  0.000571  0.393864  0.750000  1
  Si  Si13  1  0.605652  0.605506  0.750000  1
  Si  Si14  1  0.607222  0.000029  0.250000  1
  P  P15  1  0.389976  0.000550  0.750000  1
