# generated using pymatgen
data_RbNd(NbBr3)6
_symmetry_space_group_name_H-M   'P 1'
_cell_length_a   10.85754743
_cell_length_b   10.85754667
_cell_length_c   10.85754721
_cell_angle_alpha   55.33589888
_cell_angle_beta   55.33590284
_cell_angle_gamma   55.33590096
_symmetry_Int_Tables_number   1
_chemical_formula_structural   RbNd(NbBr3)6
_chemical_formula_sum   'Rb1 Nd1 Nb6 Br18'
_cell_volume   806.98575428
_cell_formula_units_Z   1
loop_
 _symmetry_equiv_pos_site_id
 _symmetry_equiv_pos_as_xyz
  1  'x, y, z'
loop_
 _atom_site_type_symbol
 _atom_site_label
 _atom_site_symmetry_multiplicity
 _atom_site_fract_x
 _atom_site_fract_y
 _atom_site_fract_z
 _atom_site_occupancy
  Rb  Rb0  1  0.221213  0.221213  0.221213  1
  Nd  Nd1  1  0.498352  0.498352  0.498352  1
  Nb  Nb2  1  0.808481  0.141573  0.918498  1
  Nb  Nb3  1  0.918498  0.808481  0.141573  1
  Nb  Nb4  1  0.141573  0.918498  0.808481  1
  Nb  Nb5  1  0.192424  0.858775  0.080897  1
  Nb  Nb6  1  0.080897  0.192424  0.858775  1
  Nb  Nb7  1  0.858775  0.080897  0.192424  1
  Br  Br8  1  0.862556  0.409655  0.729101  1
  Br  Br9  1  0.729101  0.862556  0.409655  1
  Br  Br10  1  0.409655  0.729101  0.862556  1
  Br  Br11  1  0.136990  0.590226  0.273033  1
  Br  Br12  1  0.273033  0.136990  0.590226  1
  Br  Br13  1  0.590226  0.273033  0.136990  1
  Br  Br14  1  0.530417  0.338299  0.813835  1
  Br  Br15  1  0.813835  0.530417  0.338299  1
  Br  Br16  1  0.338299  0.813835  0.530417  1
  Br  Br17  1  0.465079  0.663349  0.189230  1
  Br  Br18  1  0.189230  0.465079  0.663349  1
  Br  Br19  1  0.663349  0.189230  0.465079  1
  Br  Br20  1  0.665600  0.936773  0.072640  1
  Br  Br21  1  0.072640  0.665600  0.936773  1
  Br  Br22  1  0.936773  0.072640  0.665600  1
  Br  Br23  1  0.336539  0.062393  0.925209  1
  Br  Br24  1  0.925209  0.336539  0.062393  1
  Br  Br25  1  0.062393  0.925209  0.336539  1
