# generated using pymatgen
data_NaYbNiPt3
_symmetry_space_group_name_H-M   'P 1'
_cell_length_a   5.17762131
_cell_length_b   5.17762017
_cell_length_c   5.17762164
_cell_angle_alpha   62.67559701
_cell_angle_beta   62.67560288
_cell_angle_gamma   62.67560022
_symmetry_Int_Tables_number   1
_chemical_formula_structural   NaYbNiPt3
_chemical_formula_sum   'Na1 Yb1 Ni1 Pt3'
_cell_volume   103.99111749
_cell_formula_units_Z   1
loop_
 _symmetry_equiv_pos_site_id
 _symmetry_equiv_pos_as_xyz
  1  'x, y, z'
loop_
 _atom_site_type_symbol
 _atom_site_label
 _atom_site_symmetry_multiplicity
 _atom_site_fract_x
 _atom_site_fract_y
 _atom_site_fract_z
 _atom_site_occupancy
  Na  Na0  1  0.250739  0.250739  0.250739  1
  Yb  Yb1  1  0.001119  0.001119  0.001119  1
  Ni  Ni2  1  0.624468  0.624468  0.624468  1
  Pt  Pt3  1  0.624621  0.624621  0.124434  1
  Pt  Pt4  1  0.624621  0.124434  0.624621  1
  Pt  Pt5  1  0.124434  0.624621  0.624621  1
