# generated using pymatgen
data_Er4Sb3As3Rh7
_symmetry_space_group_name_H-M   'P 1'
_cell_length_a   7.40283272
_cell_length_b   7.40283216
_cell_length_c   7.46837200
_cell_angle_alpha   109.65066904
_cell_angle_beta   109.65066748
_cell_angle_gamma   109.29118460
_symmetry_Int_Tables_number   1
_chemical_formula_structural   Er4Sb3As3Rh7
_chemical_formula_sum   'Er4 Sb3 As3 Rh7'
_cell_volume   314.36432985
_cell_formula_units_Z   1
loop_
 _symmetry_equiv_pos_site_id
 _symmetry_equiv_pos_as_xyz
  1  'x, y, z'
loop_
 _atom_site_type_symbol
 _atom_site_label
 _atom_site_symmetry_multiplicity
 _atom_site_fract_x
 _atom_site_fract_y
 _atom_site_fract_z
 _atom_site_occupancy
  Er  Er0  1  0.000000  0.000000  0.544519  1
  Er  Er1  1  0.000000  0.479198  0.988231  1
  Er  Er2  1  0.479198  0.000000  0.988231  1
  Er  Er3  1  0.520802  0.520802  0.509033  1
  Sb  Sb4  1  0.699336  0.699336  0.010318  1
  Sb  Sb5  1  0.300664  0.000000  0.310982  1
  Sb  Sb6  1  0.000000  0.300664  0.310982  1
  As  As7  1  0.332884  0.332884  0.007722  1
  As  As8  1  0.667116  0.000000  0.674839  1
  As  As9  1  0.000000  0.667116  0.674839  1
  Rh  Rh10  1  0.748799  0.248191  0.502037  1
  Rh  Rh11  1  0.751809  0.500607  0.253845  1
  Rh  Rh12  1  0.499393  0.251201  0.753238  1
  Rh  Rh13  1  0.251201  0.499393  0.753238  1
  Rh  Rh14  1  0.248191  0.748799  0.502037  1
  Rh  Rh15  1  0.500607  0.751809  0.253845  1
  Rh  Rh16  1  0.000000  0.000000  0.962065  1
