# generated using pymatgen
data_Lu5Sc5In5Bi
_symmetry_space_group_name_H-M   'P 1'
_cell_length_a   6.19585900
_cell_length_b   8.78334457
_cell_length_c   8.72197157
_cell_angle_alpha   120.23242885
_cell_angle_beta   90.00080422
_cell_angle_gamma   89.99814047
_symmetry_Int_Tables_number   1
_chemical_formula_structural   Lu5Sc5In5Bi
_chemical_formula_sum   'Lu5 Sc5 In5 Bi1'
_cell_volume   410.09531515
_cell_formula_units_Z   1
loop_
 _symmetry_equiv_pos_site_id
 _symmetry_equiv_pos_as_xyz
  1  'x, y, z'
loop_
 _atom_site_type_symbol
 _atom_site_label
 _atom_site_symmetry_multiplicity
 _atom_site_fract_x
 _atom_site_fract_y
 _atom_site_fract_z
 _atom_site_occupancy
  Lu  Lu0  1  0.750031  0.231445  0.000008  1
  Lu  Lu1  1  0.750020  0.766231  0.759581  1
  Lu  Lu2  1  0.749993  0.006670  0.240423  1
  Lu  Lu3  1  0.250004  0.235897  0.235237  1
  Lu  Lu4  1  0.250001  0.000647  0.764752  1
  Sc  Sc5  1  0.495665  0.328884  0.661638  1
  Sc  Sc6  1  0.495660  0.667249  0.338362  1
  Sc  Sc7  1  0.004337  0.667237  0.338339  1
  Sc  Sc8  1  0.004332  0.328871  0.661641  1
  Sc  Sc9  1  0.249983  0.762449  0.999991  1
  In  In10  1  0.749979  0.405920  0.404767  1
  In  In11  1  0.749984  0.001151  0.595239  1
  In  In12  1  0.250009  0.402131  0.000002  1
  In  In13  1  0.250000  0.598928  0.604900  1
  In  In14  1  0.249998  0.994055  0.395114  1
  Bi  Bi15  1  0.750005  0.602241  0.000004  1
