# generated using pymatgen
data_Pr5PtRhO12
_symmetry_space_group_name_H-M   'P 1'
_cell_length_a   7.15007740
_cell_length_b   7.15007744
_cell_length_c   7.61629818
_cell_angle_alpha   74.58679120
_cell_angle_beta   74.58679008
_cell_angle_gamma   51.09379655
_symmetry_Int_Tables_number   1
_chemical_formula_structural   Pr5PtRhO12
_chemical_formula_sum   'Pr5 Pt1 Rh1 O12'
_cell_volume   289.55516737
_cell_formula_units_Z   1
loop_
 _symmetry_equiv_pos_site_id
 _symmetry_equiv_pos_as_xyz
  1  'x, y, z'
loop_
 _atom_site_type_symbol
 _atom_site_label
 _atom_site_symmetry_multiplicity
 _atom_site_fract_x
 _atom_site_fract_y
 _atom_site_fract_z
 _atom_site_occupancy
  Pr  Pr0  1  0.305758  0.301605  0.357925  1
  Pr  Pr1  1  0.698395  0.694242  0.642075  1
  Pr  Pr2  1  0.695829  0.693516  0.164473  1
  Pr  Pr3  1  0.306484  0.304171  0.835527  1
  Pr  Pr4  1  0.000652  0.999348  0.500000  1
  Pt  Pt5  1  0.751660  0.248340  0.000000  1
  Rh  Rh6  1  0.244046  0.755954  0.000000  1
  O  O7  1  0.095982  0.599424  0.575302  1
  O  O8  1  0.000289  0.998601  0.171366  1
  O  O9  1  0.400576  0.904018  0.424698  1
  O  O10  1  0.498686  0.501983  0.174743  1
  O  O11  1  0.103464  0.577402  0.079936  1
  O  O12  1  0.905061  0.402180  0.423228  1
  O  O13  1  0.001399  0.999711  0.828634  1
  O  O14  1  0.597820  0.094938  0.576772  1
  O  O15  1  0.498017  0.501314  0.825257  1
  O  O16  1  0.572119  0.098835  0.081607  1
  O  O17  1  0.422598  0.896536  0.920064  1
  O  O18  1  0.901165  0.427881  0.918393  1
