# generated using pymatgen
data_Tb6FeCl10
_symmetry_space_group_name_H-M   'P 1'
_cell_length_a   7.13687867
_cell_length_b   8.80819897
_cell_length_c   8.84676662
_cell_angle_alpha   109.40369514
_cell_angle_beta   96.71833373
_cell_angle_gamma   106.69551674
_symmetry_Int_Tables_number   1
_chemical_formula_structural   Tb6FeCl10
_chemical_formula_sum   'Tb6 Fe1 Cl10'
_cell_volume   488.34767279
_cell_formula_units_Z   1
loop_
 _symmetry_equiv_pos_site_id
 _symmetry_equiv_pos_as_xyz
  1  'x, y, z'
loop_
 _atom_site_type_symbol
 _atom_site_label
 _atom_site_symmetry_multiplicity
 _atom_site_fract_x
 _atom_site_fract_y
 _atom_site_fract_z
 _atom_site_occupancy
  Tb  Tb0  1  0.871227  0.145770  0.193619  1
  Tb  Tb1  1  0.128773  0.854230  0.806381  1
  Tb  Tb2  1  0.524935  0.700137  0.901432  1
  Tb  Tb3  1  0.475065  0.299863  0.098568  1
  Tb  Tb4  1  0.630692  0.050135  0.757521  1
  Tb  Tb5  1  0.369308  0.949865  0.242479  1
  Fe  Fe6  1  0.500000  0.000000  0.000000  1
  Cl  Cl7  1  0.744461  0.082136  0.454918  1
  Cl  Cl8  1  0.255539  0.917864  0.545082  1
  Cl  Cl9  1  0.949801  0.826764  0.076105  1
  Cl  Cl10  1  0.050199  0.173236  0.923895  1
  Cl  Cl11  1  0.299077  0.257745  0.351075  1
  Cl  Cl12  1  0.700923  0.742255  0.648925  1
  Cl  Cl13  1  0.591766  0.369456  0.836418  1
  Cl  Cl14  1  0.408234  0.630544  0.163582  1
  Cl  Cl15  1  0.857856  0.460715  0.278834  1
  Cl  Cl16  1  0.142144  0.539285  0.721166  1
