# generated using pymatgen
data_Eu3AgHg3Pt2
_symmetry_space_group_name_H-M   'P 1'
_cell_length_a   7.95007900
_cell_length_b   7.95007979
_cell_length_c   4.13164000
_cell_angle_alpha   90.00000000
_cell_angle_beta   90.00000000
_cell_angle_gamma   120.00000087
_symmetry_Int_Tables_number   1
_chemical_formula_structural   Eu3AgHg3Pt2
_chemical_formula_sum   'Eu3 Ag1 Hg3 Pt2'
_cell_volume   226.14970883
_cell_formula_units_Z   1
loop_
 _symmetry_equiv_pos_site_id
 _symmetry_equiv_pos_as_xyz
  1  'x, y, z'
loop_
 _atom_site_type_symbol
 _atom_site_label
 _atom_site_symmetry_multiplicity
 _atom_site_fract_x
 _atom_site_fract_y
 _atom_site_fract_z
 _atom_site_occupancy
  Eu  Eu0  1  0.412135  0.412135  0.500000  1
  Eu  Eu1  1  0.000000  0.587865  0.500000  1
  Eu  Eu2  1  0.587865  0.000000  0.500000  1
  Ag  Ag3  1  0.000000  0.000000  0.500000  1
  Hg  Hg4  1  0.735829  0.735829  0.000000  1
  Hg  Hg5  1  0.264171  0.000000  0.000000  1
  Hg  Hg6  1  0.000000  0.264171  0.000000  1
  Pt  Pt7  1  0.666667  0.333333  0.000000  1
  Pt  Pt8  1  0.333333  0.666667  0.000000  1
