# generated using pymatgen
data_Ba4LaNd(GaSe5)2
_symmetry_space_group_name_H-M   'P 1'
_cell_length_a   7.45519248
_cell_length_b   8.97797839
_cell_length_c   9.68864671
_cell_angle_alpha   103.79095915
_cell_angle_beta   102.86095905
_cell_angle_gamma   107.80221535
_symmetry_Int_Tables_number   1
_chemical_formula_structural   Ba4LaNd(GaSe5)2
_chemical_formula_sum   'Ba4 La1 Nd1 Ga2 Se10'
_cell_volume   568.19871882
_cell_formula_units_Z   1
loop_
 _symmetry_equiv_pos_site_id
 _symmetry_equiv_pos_as_xyz
  1  'x, y, z'
loop_
 _atom_site_type_symbol
 _atom_site_label
 _atom_site_symmetry_multiplicity
 _atom_site_fract_x
 _atom_site_fract_y
 _atom_site_fract_z
 _atom_site_occupancy
  Ba  Ba0  1  0.635989  0.979526  0.294510  1
  Ba  Ba1  1  0.364583  0.021073  0.705848  1
  Ba  Ba2  1  0.341951  0.509489  0.704759  1
  Ba  Ba3  1  0.657191  0.489705  0.294698  1
  La  La4  1  0.997255  0.733173  0.997591  1
  Nd  Nd5  1  0.002608  0.268351  0.002291  1
  Ga  Ga6  1  0.806757  0.872317  0.687101  1
  Ga  Ga7  1  0.193120  0.128068  0.312629  1
  Se  Se8  1  0.988720  0.686816  0.677304  1
  Se  Se9  1  0.010766  0.312623  0.319635  1
  Se  Se10  1  0.985807  0.148425  0.685056  1
  Se  Se11  1  0.014738  0.853204  0.318362  1
  Se  Se12  1  0.703709  0.906153  0.919350  1
  Se  Se13  1  0.296262  0.096978  0.080739  1
  Se  Se14  1  0.697047  0.404578  0.944593  1
  Se  Se15  1  0.303560  0.589430  0.055568  1
  Se  Se16  1  0.492667  0.742196  0.493673  1
  Se  Se17  1  0.507270  0.257895  0.506293  1
