# generated using pymatgen
data_CeSmSiPRh4
_symmetry_space_group_name_H-M   'P 1'
_cell_length_a   9.27963663
_cell_length_b   9.27963652
_cell_length_c   4.02835300
_cell_angle_alpha   90.00000000
_cell_angle_beta   90.00000000
_cell_angle_gamma   155.40145507
_symmetry_Int_Tables_number   1
_chemical_formula_structural   CeSmSiPRh4
_chemical_formula_sum   'Ce1 Sm1 Si1 P1 Rh4'
_cell_volume   144.39486135
_cell_formula_units_Z   1
loop_
 _symmetry_equiv_pos_site_id
 _symmetry_equiv_pos_as_xyz
  1  'x, y, z'
loop_
 _atom_site_type_symbol
 _atom_site_label
 _atom_site_symmetry_multiplicity
 _atom_site_fract_x
 _atom_site_fract_y
 _atom_site_fract_z
 _atom_site_occupancy
  Ce  Ce0  1  0.901779  0.098221  0.250000  1
  Sm  Sm1  1  0.100997  0.899003  0.750000  1
  Si  Si2  1  0.675812  0.324188  0.250000  1
  P  P3  1  0.321975  0.678025  0.750000  1
  Rh  Rh4  1  0.545431  0.454569  0.250000  1
  Rh  Rh5  1  0.449994  0.550006  0.750000  1
  Rh  Rh6  1  0.252199  0.747801  0.250000  1
  Rh  Rh7  1  0.751814  0.248186  0.750000  1
