# generated using pymatgen
data_Yb4Cu5Ru2Pt
_symmetry_space_group_name_H-M   'P 1'
_cell_length_a   5.26334410
_cell_length_b   5.13575882
_cell_length_c   8.59657100
_cell_angle_alpha   90.00000000
_cell_angle_beta   90.00000000
_cell_angle_gamma   120.18084837
_symmetry_Int_Tables_number   1
_chemical_formula_structural   Yb4Cu5Ru2Pt
_chemical_formula_sum   'Yb4 Cu5 Ru2 Pt1'
_cell_volume   200.87595143
_cell_formula_units_Z   1
loop_
 _symmetry_equiv_pos_site_id
 _symmetry_equiv_pos_as_xyz
  1  'x, y, z'
loop_
 _atom_site_type_symbol
 _atom_site_label
 _atom_site_symmetry_multiplicity
 _atom_site_fract_x
 _atom_site_fract_y
 _atom_site_fract_z
 _atom_site_occupancy
  Yb  Yb0  1  0.327453  0.664702  0.433075  1
  Yb  Yb1  1  0.671192  0.335103  0.564847  1
  Yb  Yb2  1  0.671192  0.335103  0.935153  1
  Yb  Yb3  1  0.327453  0.664702  0.066925  1
  Cu  Cu4  1  0.995392  0.998533  0.497286  1
  Cu  Cu5  1  0.995392  0.998533  0.002714  1
  Cu  Cu6  1  0.330028  0.165180  0.250000  1
  Cu  Cu7  1  0.169782  0.335275  0.750000  1
  Cu  Cu8  1  0.672477  0.836107  0.750000  1
  Ru  Ru9  1  0.834322  0.177851  0.250000  1
  Ru  Ru10  1  0.832131  0.656067  0.250000  1
  Pt  Pt11  1  0.173186  0.832843  0.750000  1
