# generated using pymatgen
data_Ho4Ga12Tc
_symmetry_space_group_name_H-M   'P 1'
_cell_length_a   7.47439577
_cell_length_b   7.47439604
_cell_length_c   7.47439600
_cell_angle_alpha   109.47121782
_cell_angle_beta   109.47121856
_cell_angle_gamma   109.47122198
_symmetry_Int_Tables_number   1
_chemical_formula_structural   Ho4Ga12Tc
_chemical_formula_sum   'Ho4 Ga12 Tc1'
_cell_volume   321.44481682
_cell_formula_units_Z   1
loop_
 _symmetry_equiv_pos_site_id
 _symmetry_equiv_pos_as_xyz
  1  'x, y, z'
loop_
 _atom_site_type_symbol
 _atom_site_label
 _atom_site_symmetry_multiplicity
 _atom_site_fract_x
 _atom_site_fract_y
 _atom_site_fract_z
 _atom_site_occupancy
  Ho  Ho0  1  0.000000  0.000000  0.500000  1
  Ho  Ho1  1  0.000000  0.500000  0.000000  1
  Ho  Ho2  1  0.500000  0.000000  0.000000  1
  Ho  Ho3  1  0.500000  0.500000  0.500000  1
  Ga  Ga4  1  0.750000  0.250000  0.500000  1
  Ga  Ga5  1  0.750000  0.500000  0.250000  1
  Ga  Ga6  1  0.500000  0.250000  0.750000  1
  Ga  Ga7  1  0.250000  0.500000  0.750000  1
  Ga  Ga8  1  0.250000  0.750000  0.500000  1
  Ga  Ga9  1  0.500000  0.750000  0.250000  1
  Ga  Ga10  1  0.709003  0.709003  0.000000  1
  Ga  Ga11  1  0.290997  0.000000  0.290997  1
  Ga  Ga12  1  0.000000  0.290997  0.290997  1
  Ga  Ga13  1  0.290997  0.290997  0.000000  1
  Ga  Ga14  1  0.709003  0.000000  0.709003  1
  Ga  Ga15  1  0.000000  0.709003  0.709003  1
  Tc  Tc16  1  0.000000  0.000000  0.000000  1
