# generated using pymatgen
data_DyEr3BeOs7
_symmetry_space_group_name_H-M   'P 1'
_cell_length_a   5.24941085
_cell_length_b   5.24941161
_cell_length_c   8.77344800
_cell_angle_alpha   90.00329120
_cell_angle_beta   89.99670672
_cell_angle_gamma   118.96022400
_symmetry_Int_Tables_number   1
_chemical_formula_structural   DyEr3BeOs7
_chemical_formula_sum   'Dy1 Er3 Be1 Os7'
_cell_volume   211.53281188
_cell_formula_units_Z   1
loop_
 _symmetry_equiv_pos_site_id
 _symmetry_equiv_pos_as_xyz
  1  'x, y, z'
loop_
 _atom_site_type_symbol
 _atom_site_label
 _atom_site_symmetry_multiplicity
 _atom_site_fract_x
 _atom_site_fract_y
 _atom_site_fract_z
 _atom_site_occupancy
  Dy  Dy0  1  0.333281  0.666719  0.065139  1
  Er  Er1  1  0.333292  0.666708  0.435283  1
  Er  Er2  1  0.669549  0.330451  0.563555  1
  Er  Er3  1  0.669608  0.330392  0.936242  1
  Be  Be4  1  0.828835  0.171165  0.250135  1
  Os  Os5  1  0.003835  0.996165  0.495843  1
  Os  Os6  1  0.003879  0.996121  0.004028  1
  Os  Os7  1  0.819882  0.654806  0.250395  1
  Os  Os8  1  0.345194  0.180118  0.250395  1
  Os  Os9  1  0.165865  0.834135  0.749676  1
  Os  Os10  1  0.173911  0.347131  0.749656  1
  Os  Os11  1  0.652869  0.826089  0.749656  1
