# generated using pymatgen
data_Y2Ho4OsPd
_symmetry_space_group_name_H-M   'P 1'
_cell_length_a   6.39892689
_cell_length_b   7.30355063
_cell_length_c   9.22449200
_cell_angle_alpha   90.00000000
_cell_angle_beta   90.00000000
_cell_angle_gamma   90.49569106
_symmetry_Int_Tables_number   1
_chemical_formula_structural   Y2Ho4OsPd
_chemical_formula_sum   'Y4 Ho8 Os2 Pd2'
_cell_volume   431.08945352
_cell_formula_units_Z   2
loop_
 _symmetry_equiv_pos_site_id
 _symmetry_equiv_pos_as_xyz
  1  'x, y, z'
loop_
 _atom_site_type_symbol
 _atom_site_label
 _atom_site_symmetry_multiplicity
 _atom_site_fract_x
 _atom_site_fract_y
 _atom_site_fract_z
 _atom_site_occupancy
  Y  Y0  1  0.620501  0.041250  0.250000  1
  Y  Y1  1  0.379499  0.958750  0.750000  1
  Y  Y2  1  0.121158  0.477154  0.750000  1
  Y  Y3  1  0.878842  0.522846  0.250000  1
  Ho  Ho4  1  0.176794  0.184408  0.061421  1
  Ho  Ho5  1  0.823206  0.815592  0.938579  1
  Ho  Ho6  1  0.662907  0.325835  0.941840  1
  Ho  Ho7  1  0.823206  0.815592  0.561421  1
  Ho  Ho8  1  0.337093  0.674165  0.058160  1
  Ho  Ho9  1  0.176794  0.184408  0.438579  1
  Ho  Ho10  1  0.337093  0.674165  0.441840  1
  Ho  Ho11  1  0.662907  0.325835  0.558160  1
  Os  Os12  1  0.452675  0.385978  0.250000  1
  Os  Os13  1  0.547325  0.614022  0.750000  1
  Pd  Pd14  1  0.948862  0.112553  0.750000  1
  Pd  Pd15  1  0.051138  0.887447  0.250000  1
