# generated using pymatgen
data_Ta6Re5Si6Pd
_symmetry_space_group_name_H-M   'P 1'
_cell_length_a   7.55527918
_cell_length_b   7.51962398
_cell_length_c   7.51962340
_cell_angle_alpha   127.61355881
_cell_angle_beta   122.75994900
_cell_angle_gamma   81.18224140
_symmetry_Int_Tables_number   1
_chemical_formula_structural   Ta6Re5Si6Pd
_chemical_formula_sum   'Ta6 Re5 Si6 Pd1'
_cell_volume   274.36073290
_cell_formula_units_Z   1
loop_
 _symmetry_equiv_pos_site_id
 _symmetry_equiv_pos_as_xyz
  1  'x, y, z'
loop_
 _atom_site_type_symbol
 _atom_site_label
 _atom_site_symmetry_multiplicity
 _atom_site_fract_x
 _atom_site_fract_y
 _atom_site_fract_z
 _atom_site_occupancy
  Ta  Ta0  1  0.556034  0.094872  0.050306  1
  Ta  Ta1  1  0.443966  0.494271  0.538838  1
  Ta  Ta2  1  0.980797  0.503190  0.046388  1
  Ta  Ta3  1  0.019203  0.065591  0.522392  1
  Ta  Ta4  1  0.760817  0.910730  0.664452  1
  Ta  Ta5  1  0.239183  0.903635  0.149913  1
  Re  Re6  1  0.000000  0.242921  0.242921  1
  Re  Re7  1  0.163344  0.750800  0.661197  1
  Re  Re8  1  0.836656  0.497853  0.587456  1
  Re  Re9  1  0.591900  0.749289  0.090958  1
  Re  Re10  1  0.408100  0.499058  0.157389  1
  Si  Si11  1  0.779815  0.527349  0.251494  1
  Si  Si12  1  0.220185  0.471679  0.747534  1
  Si  Si13  1  0.339721  0.833859  0.505159  1
  Si  Si14  1  0.660279  0.165437  0.494138  1
  Si  Si15  1  0.828404  0.824305  0.989697  1
  Si  Si16  1  0.171596  0.161293  0.995901  1
  Pd  Pd17  1  0.500000  0.246065  0.746065  1
