# generated using pymatgen
data_Tb3Si5PPd20
_symmetry_space_group_name_H-M   'P 1'
_cell_length_a   8.71952355
_cell_length_b   8.71952344
_cell_length_c   8.72002200
_cell_angle_alpha   59.99810856
_cell_angle_beta   59.99810900
_cell_angle_gamma   60.00378130
_symmetry_Int_Tables_number   1
_chemical_formula_structural   Tb3Si5PPd20
_chemical_formula_sum   'Tb3 Si5 P1 Pd20'
_cell_volume   468.80051575
_cell_formula_units_Z   1
loop_
 _symmetry_equiv_pos_site_id
 _symmetry_equiv_pos_as_xyz
  1  'x, y, z'
loop_
 _atom_site_type_symbol
 _atom_site_label
 _atom_site_symmetry_multiplicity
 _atom_site_fract_x
 _atom_site_fract_y
 _atom_site_fract_z
 _atom_site_occupancy
  Tb  Tb0  1  0.248898  0.248898  0.251102  1
  Tb  Tb1  1  0.748898  0.748898  0.751102  1
  Tb  Tb2  1  0.000841  0.000841  0.999159  1
  Si  Si3  1  0.732340  0.265837  0.267660  1
  Si  Si4  1  0.265837  0.732340  0.734163  1
  Si  Si5  1  0.265837  0.732340  0.267660  1
  Si  Si6  1  0.732340  0.265837  0.734163  1
  Si  Si7  1  0.267781  0.267781  0.732219  1
  P  P8  1  0.734686  0.734686  0.265314  1
  Pd  Pd9  1  0.383679  0.383679  0.383482  1
  Pd  Pd10  1  0.616282  0.616282  0.614538  1
  Pd  Pd11  1  0.383679  0.383679  0.849160  1
  Pd  Pd12  1  0.385462  0.847103  0.383718  1
  Pd  Pd13  1  0.616282  0.616282  0.152897  1
  Pd  Pd14  1  0.616518  0.150840  0.616321  1
  Pd  Pd15  1  0.847103  0.385462  0.383718  1
  Pd  Pd16  1  0.150840  0.616518  0.616321  1
  Pd  Pd17  1  0.345598  0.000173  0.999827  1
  Pd  Pd18  1  0.654367  0.998468  0.001532  1
  Pd  Pd19  1  0.000173  0.345598  0.654402  1
  Pd  Pd20  1  0.998468  0.654367  0.345633  1
  Pd  Pd21  1  0.000173  0.345598  0.999827  1
  Pd  Pd22  1  0.654367  0.998468  0.345633  1
  Pd  Pd23  1  0.998468  0.654367  0.001532  1
  Pd  Pd24  1  0.345598  0.000173  0.654402  1
  Pd  Pd25  1  0.001371  0.001371  0.344655  1
  Pd  Pd26  1  0.001371  0.001371  0.652603  1
  Pd  Pd27  1  0.655345  0.347397  0.998629  1
  Pd  Pd28  1  0.347397  0.655345  0.998629  1
