# generated using pymatgen
data_Ba6HgBiPb8
_symmetry_space_group_name_H-M   'P 1'
_cell_length_a   9.53474323
_cell_length_b   9.53474198
_cell_length_c   9.53474321
_cell_angle_alpha   120.28867172
_cell_angle_beta   120.28866214
_cell_angle_gamma   89.50073292
_symmetry_Int_Tables_number   1
_chemical_formula_structural   Ba6HgBiPb8
_chemical_formula_sum   'Ba6 Hg1 Bi1 Pb8'
_cell_volume   610.23208319
_cell_formula_units_Z   1
loop_
 _symmetry_equiv_pos_site_id
 _symmetry_equiv_pos_as_xyz
  1  'x, y, z'
loop_
 _atom_site_type_symbol
 _atom_site_label
 _atom_site_symmetry_multiplicity
 _atom_site_fract_x
 _atom_site_fract_y
 _atom_site_fract_z
 _atom_site_occupancy
  Ba  Ba0  1  0.250681  0.250681  0.000000  1
  Ba  Ba1  1  0.749319  0.749319  0.000000  1
  Ba  Ba2  1  0.155907  0.666818  0.822726  1
  Ba  Ba3  1  0.844093  0.333182  0.177274  1
  Ba  Ba4  1  0.666818  0.844093  0.510912  1
  Ba  Ba5  1  0.333182  0.155907  0.489088  1
  Hg  Hg6  1  0.500000  0.500000  0.000000  1
  Bi  Bi7  1  0.000000  0.000000  0.000000  1
  Pb  Pb8  1  0.830154  0.332671  0.786747  1
  Pb  Pb9  1  0.169846  0.667329  0.213253  1
  Pb  Pb10  1  0.545924  0.043406  0.213253  1
  Pb  Pb11  1  0.332671  0.545924  0.502517  1
  Pb  Pb12  1  0.956594  0.169846  0.502517  1
  Pb  Pb13  1  0.454076  0.956594  0.786747  1
  Pb  Pb14  1  0.667329  0.454076  0.497483  1
  Pb  Pb15  1  0.043406  0.830154  0.497483  1
