# generated using pymatgen
data_Tb4Tm3Lu3Pb8
_symmetry_space_group_name_H-M   'P 1'
_cell_length_a   8.14746200
_cell_length_b   8.22454601
_cell_length_c   15.51241402
_cell_angle_alpha   89.99476190
_cell_angle_beta   90.00000000
_cell_angle_gamma   90.00000000
_symmetry_Int_Tables_number   1
_chemical_formula_structural   Tb4Tm3Lu3Pb8
_chemical_formula_sum   'Tb8 Tm6 Lu6 Pb16'
_cell_volume   1039.47407777
_cell_formula_units_Z   2
loop_
 _symmetry_equiv_pos_site_id
 _symmetry_equiv_pos_as_xyz
  1  'x, y, z'
loop_
 _atom_site_type_symbol
 _atom_site_label
 _atom_site_symmetry_multiplicity
 _atom_site_fract_x
 _atom_site_fract_y
 _atom_site_fract_z
 _atom_site_occupancy
  Tb  Tb0  1  0.535188  0.322918  0.900320  1
  Tb  Tb1  1  0.035188  0.177082  0.599680  1
  Tb  Tb2  1  0.464828  0.677213  0.400502  1
  Tb  Tb3  1  0.964828  0.822787  0.099498  1
  Tb  Tb4  1  0.464830  0.677224  0.099636  1
  Tb  Tb5  1  0.964830  0.822776  0.400364  1
  Tb  Tb6  1  0.535154  0.322790  0.599629  1
  Tb  Tb7  1  0.035154  0.177210  0.900371  1
  Tm  Tm8  1  0.376012  0.841108  0.878720  1
  Tm  Tm9  1  0.876012  0.658892  0.621280  1
  Tm  Tm10  1  0.624028  0.158977  0.378700  1
  Tm  Tm11  1  0.124028  0.341023  0.121300  1
  Tm  Tm12  1  0.624023  0.158873  0.121204  1
  Tm  Tm13  1  0.124023  0.341127  0.378796  1
  Lu  Lu14  1  0.375894  0.841130  0.621343  1
  Lu  Lu15  1  0.875894  0.658870  0.878657  1
  Lu  Lu16  1  0.207404  0.505337  0.749994  1
  Lu  Lu17  1  0.707404  0.994663  0.750006  1
  Lu  Lu18  1  0.792569  0.494894  0.249984  1
  Lu  Lu19  1  0.292569  0.005106  0.250016  1
  Pb  Pb20  1  0.283386  0.034532  0.042984  1
  Pb  Pb21  1  0.783386  0.465468  0.457016  1
  Pb  Pb22  1  0.716218  0.965344  0.543062  1
  Pb  Pb23  1  0.216218  0.534656  0.956938  1
  Pb  Pb24  1  0.716870  0.965050  0.956927  1
  Pb  Pb25  1  0.216870  0.534950  0.543073  1
  Pb  Pb26  1  0.283527  0.034301  0.457251  1
  Pb  Pb27  1  0.783527  0.465699  0.042749  1
  Pb  Pb28  1  0.570156  0.628656  0.749945  1
  Pb  Pb29  1  0.070156  0.871344  0.750055  1
  Pb  Pb30  1  0.429856  0.371548  0.249998  1
  Pb  Pb31  1  0.929856  0.128452  0.250002  1
  Pb  Pb32  1  0.346022  0.152672  0.749941  1
  Pb  Pb33  1  0.846022  0.347328  0.750059  1
  Pb  Pb34  1  0.654036  0.847222  0.250003  1
  Pb  Pb35  1  0.154036  0.652778  0.249997  1
