# generated using pymatgen
data_Eu3Th(Al8Pt3)3
_symmetry_space_group_name_H-M   'P 1'
_cell_length_a   7.56179411
_cell_length_b   7.55605220
_cell_length_c   13.18543700
_cell_angle_alpha   84.55354726
_cell_angle_beta   100.96797373
_cell_angle_gamma   119.88977689
_symmetry_Int_Tables_number   1
_chemical_formula_structural   Eu3Th(Al8Pt3)3
_chemical_formula_sum   'Eu3 Th1 Al24 Pt9'
_cell_volume   641.23901661
_cell_formula_units_Z   1
loop_
 _symmetry_equiv_pos_site_id
 _symmetry_equiv_pos_as_xyz
  1  'x, y, z'
loop_
 _atom_site_type_symbol
 _atom_site_label
 _atom_site_symmetry_multiplicity
 _atom_site_fract_x
 _atom_site_fract_y
 _atom_site_fract_z
 _atom_site_occupancy
  Eu  Eu0  1  0.437664  0.832213  0.808172  1
  Eu  Eu1  1  0.562344  0.167596  0.190916  1
  Eu  Eu2  1  0.767766  0.501495  0.808615  1
  Th  Th3  1  0.232190  0.498888  0.192861  1
  Al  Al4  1  0.482009  0.166220  0.945690  1
  Al  Al5  1  0.520804  0.836336  0.053327  1
  Al  Al6  1  0.020619  0.167528  0.560945  1
  Al  Al7  1  0.979182  0.832300  0.439125  1
  Al  Al8  1  0.353322  0.834115  0.558502  1
  Al  Al9  1  0.646556  0.166526  0.440742  1
  Al  Al10  1  0.622313  0.838644  0.332841  1
  Al  Al11  1  0.382321  0.165499  0.668499  1
  Al  Al12  1  0.055080  0.493694  0.668259  1
  Al  Al13  1  0.940457  0.506070  0.332722  1
  Al  Al14  1  0.729118  0.839952  0.666815  1
  Al  Al15  1  0.271586  0.155946  0.334322  1
  Al  Al16  1  0.147665  0.500058  0.943678  1
  Al  Al17  1  0.848971  0.500177  0.053479  1
  Al  Al18  1  0.817559  0.832825  0.955153  1
  Al  Al19  1  0.181859  0.165304  0.043051  1
  Al  Al20  1  0.314762  0.500481  0.442704  1
  Al  Al21  1  0.685549  0.499363  0.558774  1
  Al  Al22  1  0.099291  0.836939  0.183423  1
  Al  Al23  1  0.899275  0.163317  0.816491  1
  Al  Al24  1  0.306025  0.367297  0.815696  1
  Al  Al25  1  0.695783  0.633250  0.184828  1
  Al  Al26  1  0.103417  0.960140  0.816582  1
  Al  Al27  1  0.896297  0.037382  0.183877  1
  Pt  Pt28  1  0.384482  0.506018  0.636691  1
  Pt  Pt29  1  0.612003  0.493988  0.362519  1
  Pt  Pt30  1  0.171034  0.828131  0.001059  1
  Pt  Pt31  1  0.831620  0.172248  0.001228  1
  Pt  Pt32  1  0.293675  0.830002  0.362208  1
  Pt  Pt33  1  0.705994  0.166937  0.635970  1
  Pt  Pt34  1  0.045207  0.827414  0.635266  1
  Pt  Pt35  1  0.957248  0.175547  0.363586  1
  Pt  Pt36  1  0.498946  0.500160  0.001381  1
