# generated using pymatgen
data_Hf6Re5Ge6W
_symmetry_space_group_name_H-M   'P 1'
_cell_length_a   7.90858045
_cell_length_b   7.89244712
_cell_length_c   7.90786117
_cell_angle_alpha   126.64901138
_cell_angle_beta   128.09730997
_cell_angle_gamma   77.69851498
_symmetry_Int_Tables_number   1
_chemical_formula_structural   Hf6Re5Ge6W
_chemical_formula_sum   'Hf6 Re5 Ge6 W1'
_cell_volume   302.08172779
_cell_formula_units_Z   1
loop_
 _symmetry_equiv_pos_site_id
 _symmetry_equiv_pos_as_xyz
  1  'x, y, z'
loop_
 _atom_site_type_symbol
 _atom_site_label
 _atom_site_symmetry_multiplicity
 _atom_site_fract_x
 _atom_site_fract_y
 _atom_site_fract_z
 _atom_site_occupancy
  Hf  Hf0  1  0.450708  0.656282  0.704221  1
  Hf  Hf1  1  0.549046  0.253481  0.203264  1
  Hf  Hf2  1  0.749971  0.850452  0.601053  1
  Hf  Hf3  1  0.249462  0.850968  0.100325  1
  Hf  Hf4  1  0.049915  0.253003  0.702785  1
  Hf  Hf5  1  0.951024  0.655215  0.204572  1
  Re  Re6  1  0.499730  0.512307  0.012709  1
  Re  Re7  1  0.000331  0.512696  0.512900  1
  Re  Re8  1  0.129261  0.253374  0.123711  1
  Re  Re9  1  0.871122  0.994146  0.124082  1
  Re  Re10  1  0.370093  0.994550  0.624315  1
  Ge  Ge11  1  0.249538  0.253723  0.502224  1
  Ge  Ge12  1  0.751080  0.253134  0.004696  1
  Ge  Ge13  1  0.332567  0.585934  0.252535  1
  Ge  Ge14  1  0.666434  0.919839  0.253670  1
  Ge  Ge15  1  0.166293  0.921194  0.754329  1
  Ge  Ge16  1  0.832951  0.585967  0.753808  1
  W  W17  1  0.630475  0.253337  0.624407  1
