# generated using pymatgen
data_Ho3TaCo3Ni5P6
_symmetry_space_group_name_H-M   'P 1'
_cell_length_a   3.75049700
_cell_length_b   10.64235500
_cell_length_c   12.33215300
_cell_angle_alpha   90.00000000
_cell_angle_beta   90.00000000
_cell_angle_gamma   90.00000000
_symmetry_Int_Tables_number   1
_chemical_formula_structural   Ho3TaCo3Ni5P6
_chemical_formula_sum   'Ho6 Ta2 Co6 Ni10 P12'
_cell_volume   492.22704087
_cell_formula_units_Z   2
loop_
 _symmetry_equiv_pos_site_id
 _symmetry_equiv_pos_as_xyz
  1  'x, y, z'
loop_
 _atom_site_type_symbol
 _atom_site_label
 _atom_site_symmetry_multiplicity
 _atom_site_fract_x
 _atom_site_fract_y
 _atom_site_fract_z
 _atom_site_occupancy
  Ho  Ho0  1  0.000000  0.500000  0.525586  1
  Ho  Ho1  1  0.500000  0.000000  0.474414  1
  Ho  Ho2  1  0.500000  0.820381  0.204349  1
  Ho  Ho3  1  0.500000  0.179619  0.204349  1
  Ho  Ho4  1  0.000000  0.679619  0.795651  1
  Ho  Ho5  1  0.000000  0.320381  0.795651  1
  Ta  Ta6  1  0.500000  0.500000  0.153197  1
  Ta  Ta7  1  0.000000  0.000000  0.846803  1
  Co  Co8  1  0.000000  0.500000  0.985472  1
  Co  Co9  1  0.500000  0.000000  0.014528  1
  Co  Co10  1  0.500000  0.333442  0.990578  1
  Co  Co11  1  0.500000  0.666558  0.990578  1
  Co  Co12  1  0.000000  0.166558  0.009422  1
  Co  Co13  1  0.000000  0.833442  0.009422  1
  Ni  Ni14  1  0.500000  0.300660  0.428341  1
  Ni  Ni15  1  0.500000  0.699340  0.428341  1
  Ni  Ni16  1  0.000000  0.199340  0.571659  1
  Ni  Ni17  1  0.000000  0.800660  0.571659  1
  Ni  Ni18  1  0.500000  0.878481  0.710754  1
  Ni  Ni19  1  0.500000  0.121519  0.710754  1
  Ni  Ni20  1  0.000000  0.621519  0.289246  1
  Ni  Ni21  1  0.000000  0.378481  0.289246  1
  Ni  Ni22  1  0.500000  0.500000  0.701911  1
  Ni  Ni23  1  0.000000  0.000000  0.298089  1
  P  P24  1  0.500000  0.314326  0.614966  1
  P  P25  1  0.500000  0.685674  0.614966  1
  P  P26  1  0.000000  0.185674  0.385034  1
  P  P27  1  0.000000  0.814326  0.385034  1
  P  P28  1  0.500000  0.500000  0.880864  1
  P  P29  1  0.000000  0.000000  0.119136  1
  P  P30  1  0.500000  0.841386  0.896372  1
  P  P31  1  0.500000  0.158614  0.896372  1
  P  P32  1  0.000000  0.658614  0.103628  1
  P  P33  1  0.000000  0.341386  0.103628  1
  P  P34  1  0.500000  0.500000  0.353912  1
  P  P35  1  0.000000  0.000000  0.646088  1
