# generated using pymatgen
data_Tm4MgCd(Ni7B2)2
_symmetry_space_group_name_H-M   'P 1'
_cell_length_a   4.97235000
_cell_length_b   4.97234964
_cell_length_c   14.18067100
_cell_angle_alpha   90.00000000
_cell_angle_beta   90.00000000
_cell_angle_gamma   120.00000240
_symmetry_Int_Tables_number   1
_chemical_formula_structural   Tm4MgCd(Ni7B2)2
_chemical_formula_sum   'Tm4 Mg1 Cd1 Ni14 B4'
_cell_volume   303.63424572
_cell_formula_units_Z   1
loop_
 _symmetry_equiv_pos_site_id
 _symmetry_equiv_pos_as_xyz
  1  'x, y, z'
loop_
 _atom_site_type_symbol
 _atom_site_label
 _atom_site_symmetry_multiplicity
 _atom_site_fract_x
 _atom_site_fract_y
 _atom_site_fract_z
 _atom_site_occupancy
  Tm  Tm0  1  0.666667  0.333333  0.470477  1
  Tm  Tm1  1  0.333333  0.666667  0.969237  1
  Tm  Tm2  1  0.333333  0.666667  0.743932  1
  Tm  Tm3  1  0.666667  0.333333  0.244739  1
  Mg  Mg4  1  0.666667  0.333333  0.033266  1
  Cd  Cd5  1  0.333333  0.666667  0.532944  1
  Ni  Ni6  1  0.000000  0.000000  0.001200  1
  Ni  Ni7  1  0.000000  0.000000  0.500376  1
  Ni  Ni8  1  0.165866  0.331731  0.146551  1
  Ni  Ni9  1  0.834484  0.668968  0.647832  1
  Ni  Ni10  1  0.668269  0.834134  0.146551  1
  Ni  Ni11  1  0.165866  0.834134  0.146551  1
  Ni  Ni12  1  0.834484  0.165516  0.647832  1
  Ni  Ni13  1  0.331032  0.165516  0.647832  1
  Ni  Ni14  1  0.833594  0.667189  0.853235  1
  Ni  Ni15  1  0.833594  0.166406  0.853235  1
  Ni  Ni16  1  0.332811  0.166406  0.853235  1
  Ni  Ni17  1  0.667711  0.833856  0.351986  1
  Ni  Ni18  1  0.166144  0.833856  0.351986  1
  Ni  Ni19  1  0.166144  0.332289  0.351986  1
  B  B20  1  0.333333  0.666667  0.249696  1
  B  B21  1  0.666667  0.333333  0.750618  1
  B  B22  1  0.000000  0.000000  0.251879  1
  B  B23  1  0.000000  0.000000  0.752824  1
