# generated using pymatgen
data_Mg4AlV(SbPt)6
_symmetry_space_group_name_H-M   'P 1'
_cell_length_a   7.71574749
_cell_length_b   7.70199982
_cell_length_c   7.72245817
_cell_angle_alpha   99.61489797
_cell_angle_beta   99.82928761
_cell_angle_gamma   119.93997354
_symmetry_Int_Tables_number   1
_chemical_formula_structural   Mg4AlV(SbPt)6
_chemical_formula_sum   'Mg4 Al1 V1 Sb6 Pt6'
_cell_volume   374.35187973
_cell_formula_units_Z   1
loop_
 _symmetry_equiv_pos_site_id
 _symmetry_equiv_pos_as_xyz
  1  'x, y, z'
loop_
 _atom_site_type_symbol
 _atom_site_label
 _atom_site_symmetry_multiplicity
 _atom_site_fract_x
 _atom_site_fract_y
 _atom_site_fract_z
 _atom_site_occupancy
  Mg  Mg0  1  0.329632  0.163405  0.499246  1
  Mg  Mg1  1  0.999976  0.503333  0.499825  1
  Mg  Mg2  1  0.163260  0.329751  0.998882  1
  Mg  Mg3  1  0.502772  0.000137  0.999425  1
  Al  Al4  1  0.832671  0.670302  0.001048  1
  V  V5  1  0.670842  0.833760  0.501976  1
  Sb  Sb6  1  0.917282  0.091494  0.248453  1
  Sb  Sb7  1  0.259250  0.749530  0.249999  1
  Sb  Sb8  1  0.576870  0.410089  0.256474  1
  Sb  Sb9  1  0.093397  0.917486  0.745734  1
  Sb  Sb10  1  0.748820  0.256584  0.746943  1
  Sb  Sb11  1  0.407587  0.575542  0.754259  1
  Pt  Pt12  1  0.191170  0.022763  0.118943  1
  Pt  Pt13  1  0.871909  0.392829  0.119814  1
  Pt  Pt14  1  0.559815  0.709159  0.133926  1
  Pt  Pt15  1  0.023080  0.191059  0.619535  1
  Pt  Pt16  1  0.391510  0.872222  0.619899  1
  Pt  Pt17  1  0.710154  0.560553  0.635617  1
