# generated using pymatgen
data_K4Mg3ZnB4(PO4)8
_symmetry_space_group_name_H-M   'P 1'
_cell_length_a   9.11501075
_cell_length_b   9.11501129
_cell_length_c   8.52347200
_cell_angle_alpha   89.07037327
_cell_angle_beta   89.07037322
_cell_angle_gamma   90.50768318
_symmetry_Int_Tables_number   1
_chemical_formula_structural   K4Mg3ZnB4(PO4)8
_chemical_formula_sum   'K4 Mg3 Zn1 B4 P8 O32'
_cell_volume   707.94336253
_cell_formula_units_Z   1
loop_
 _symmetry_equiv_pos_site_id
 _symmetry_equiv_pos_as_xyz
  1  'x, y, z'
loop_
 _atom_site_type_symbol
 _atom_site_label
 _atom_site_symmetry_multiplicity
 _atom_site_fract_x
 _atom_site_fract_y
 _atom_site_fract_z
 _atom_site_occupancy
  K  K0  1  0.028095  0.969099  0.748748  1
  K  K1  1  0.968256  0.030011  0.250495  1
  K  K2  1  0.596380  0.404513  0.250073  1
  K  K3  1  0.404770  0.596150  0.750212  1
  Mg  Mg4  1  0.312379  0.936107  0.441382  1
  Mg  Mg5  1  0.063627  0.687967  0.058622  1
  Mg  Mg6  1  0.936481  0.312204  0.941276  1
  Zn  Zn7  1  0.686097  0.066811  0.561104  1
  B  B8  1  0.795470  0.576726  0.572535  1
  B  B9  1  0.423428  0.204376  0.927593  1
  B  B10  1  0.204466  0.423441  0.427608  1
  B  B11  1  0.577032  0.795753  0.072838  1
  P  P12  1  0.689563  0.053077  0.940611  1
  P  P13  1  0.612001  0.774945  0.406915  1
  P  P14  1  0.774413  0.612797  0.905778  1
  P  P15  1  0.225684  0.387153  0.094361  1
  P  P16  1  0.053908  0.689732  0.441595  1
  P  P17  1  0.387748  0.226021  0.594516  1
  P  P18  1  0.310140  0.946399  0.058629  1
  P  P19  1  0.946040  0.310311  0.558339  1
  O  O20  1  0.428231  0.265954  0.766279  1
  O  O21  1  0.098333  0.278099  0.085952  1
  O  O22  1  0.925974  0.671161  0.566163  1
  O  O23  1  0.805954  0.471488  0.999687  1
  O  O24  1  0.574238  0.174251  0.981560  1
  O  O25  1  0.426383  0.825751  0.017829  1
  O  O26  1  0.998679  0.673224  0.275694  1
  O  O27  1  0.671104  0.992699  0.776427  1
  O  O28  1  0.194089  0.528429  0.000463  1
  O  O29  1  0.840732  0.120710  0.969915  1
  O  O30  1  0.573906  0.734732  0.234154  1
  O  O31  1  0.733841  0.572780  0.733712  1
  O  O32  1  0.279996  0.097891  0.585907  1
  O  O33  1  0.074259  0.328516  0.434062  1
  O  O34  1  0.625698  0.676938  0.967802  1
  O  O35  1  0.824916  0.425687  0.517251  1
  O  O36  1  0.326551  0.001636  0.224540  1
  O  O37  1  0.322891  0.374433  0.533173  1
  O  O38  1  0.328285  0.074496  0.934122  1
  O  O39  1  0.881516  0.157924  0.525347  1
  O  O40  1  0.266322  0.427107  0.266477  1
  O  O41  1  0.469847  0.803781  0.499636  1
  O  O42  1  0.677593  0.626324  0.467354  1
  O  O43  1  0.001042  0.326738  0.724251  1
  O  O44  1  0.529082  0.198114  0.497622  1
  O  O45  1  0.121159  0.840647  0.473254  1
  O  O46  1  0.672197  0.925977  0.066257  1
  O  O47  1  0.374575  0.323050  0.032535  1
  O  O48  1  0.159328  0.878947  0.026712  1
  O  O49  1  0.901694  0.721840  0.914233  1
  O  O50  1  0.720921  0.903222  0.415547  1
  O  O51  1  0.174683  0.573860  0.482854  1
