# generated using pymatgen
data_Tm2LuAg(Pt2O7)2
_symmetry_space_group_name_H-M   'P 1'
_cell_length_a   7.27224569
_cell_length_b   7.13741340
_cell_length_c   7.27108412
_cell_angle_alpha   59.39211954
_cell_angle_beta   59.99472855
_cell_angle_gamma   59.37310144
_symmetry_Int_Tables_number   1
_chemical_formula_structural   Tm2LuAg(Pt2O7)2
_chemical_formula_sum   'Tm2 Lu1 Ag1 Pt4 O14'
_cell_volume   264.33832382
_cell_formula_units_Z   1
loop_
 _symmetry_equiv_pos_site_id
 _symmetry_equiv_pos_as_xyz
  1  'x, y, z'
loop_
 _atom_site_type_symbol
 _atom_site_label
 _atom_site_symmetry_multiplicity
 _atom_site_fract_x
 _atom_site_fract_y
 _atom_site_fract_z
 _atom_site_occupancy
  Tm  Tm0  1  0.625000  0.625000  0.625000  1
  Tm  Tm1  1  0.125000  0.625000  0.625000  1
  Lu  Lu2  1  0.625000  0.625000  0.125000  1
  Ag  Ag3  1  0.625000  0.125000  0.625000  1
  Pt  Pt4  1  0.125000  0.125000  0.125000  1
  Pt  Pt5  1  0.625000  0.125000  0.125000  1
  Pt  Pt6  1  0.125000  0.125000  0.625000  1
  Pt  Pt7  1  0.125000  0.625000  0.125000  1
  O  O8  1  0.029862  0.473265  0.467010  1
  O  O9  1  0.782725  0.776582  0.219573  1
  O  O10  1  0.790569  0.224072  0.194791  1
  O  O11  1  0.458968  0.027317  0.458928  1
  O  O12  1  0.745798  0.759528  0.748878  1
  O  O13  1  0.028878  0.473418  0.030427  1
  O  O14  1  0.054787  0.027317  0.458928  1
  O  O15  1  0.221122  0.776582  0.219573  1
  O  O16  1  0.195213  0.222683  0.791072  1
  O  O17  1  0.791032  0.222683  0.791072  1
  O  O18  1  0.504202  0.490472  0.501122  1
  O  O19  1  0.459431  0.025928  0.055209  1
  O  O20  1  0.467275  0.473418  0.030427  1
  O  O21  1  0.220138  0.776735  0.782990  1
