# generated using pymatgen
data_HoPa(Co3P2)2
_symmetry_space_group_name_H-M   'P 1'
_cell_length_a   3.72502100
_cell_length_b   10.46058115
_cell_length_c   12.18792808
_cell_angle_alpha   90.08783740
_cell_angle_beta   90.00000000
_cell_angle_gamma   90.00000000
_symmetry_Int_Tables_number   1
_chemical_formula_structural   HoPa(Co3P2)2
_chemical_formula_sum   'Ho3 Pa3 Co18 P12'
_cell_volume   474.91283888
_cell_formula_units_Z   3
loop_
 _symmetry_equiv_pos_site_id
 _symmetry_equiv_pos_as_xyz
  1  'x, y, z'
loop_
 _atom_site_type_symbol
 _atom_site_label
 _atom_site_symmetry_multiplicity
 _atom_site_fract_x
 _atom_site_fract_y
 _atom_site_fract_z
 _atom_site_occupancy
  Ho  Ho0  1  0.500000  0.186740  0.205328  1
  Ho  Ho1  1  0.000000  0.685358  0.794578  1
  Ho  Ho2  1  0.000000  0.314558  0.792997  1
  Pa  Pa3  1  0.000000  0.499102  0.528670  1
  Pa  Pa4  1  0.500000  0.001205  0.474289  1
  Pa  Pa5  1  0.500000  0.818192  0.208246  1
  Co  Co6  1  0.500000  0.499939  0.159656  1
  Co  Co7  1  0.000000  0.999395  0.843179  1
  Co  Co8  1  0.500000  0.499160  0.695802  1
  Co  Co9  1  0.000000  0.994089  0.299952  1
  Co  Co10  1  0.000000  0.499647  0.981145  1
  Co  Co11  1  0.500000  0.000485  0.015998  1
  Co  Co12  1  0.500000  0.335118  0.992722  1
  Co  Co13  1  0.500000  0.665821  0.994352  1
  Co  Co14  1  0.000000  0.167996  0.005918  1
  Co  Co15  1  0.000000  0.834648  0.007778  1
  Co  Co16  1  0.500000  0.300813  0.430781  1
  Co  Co17  1  0.500000  0.696643  0.430621  1
  Co  Co18  1  0.000000  0.195895  0.567633  1
  Co  Co19  1  0.000000  0.803039  0.571465  1
  Co  Co20  1  0.500000  0.880669  0.712901  1
  Co  Co21  1  0.500000  0.119489  0.711898  1
  Co  Co22  1  0.000000  0.622541  0.286617  1
  Co  Co23  1  0.000000  0.380699  0.288122  1
  P  P24  1  0.500000  0.500047  0.876932  1
  P  P25  1  0.000000  0.003653  0.118739  1
  P  P26  1  0.500000  0.498624  0.343582  1
  P  P27  1  0.000000  0.999606  0.658859  1
  P  P28  1  0.500000  0.305655  0.616233  1
  P  P29  1  0.500000  0.693057  0.617878  1
  P  P30  1  0.000000  0.190744  0.381523  1
  P  P31  1  0.000000  0.806312  0.389057  1
  P  P32  1  0.500000  0.847551  0.894761  1
  P  P33  1  0.500000  0.153698  0.894242  1
  P  P34  1  0.000000  0.650283  0.102762  1
  P  P35  1  0.000000  0.349528  0.104782  1
