# generated using pymatgen
data_Hf9MnRe3W
_symmetry_space_group_name_H-M   'P 1'
_cell_length_a   8.61385100
_cell_length_b   8.61385057
_cell_length_c   8.49975000
_cell_angle_alpha   90.00000000
_cell_angle_beta   90.00000000
_cell_angle_gamma   120.00000551
_symmetry_Int_Tables_number   1
_chemical_formula_structural   Hf9MnRe3W
_chemical_formula_sum   'Hf18 Mn2 Re6 W2'
_cell_volume   546.17453576
_cell_formula_units_Z   2
loop_
 _symmetry_equiv_pos_site_id
 _symmetry_equiv_pos_as_xyz
  1  'x, y, z'
loop_
 _atom_site_type_symbol
 _atom_site_label
 _atom_site_symmetry_multiplicity
 _atom_site_fract_x
 _atom_site_fract_y
 _atom_site_fract_z
 _atom_site_occupancy
  Hf  Hf0  1  0.200642  0.799358  0.441687  1
  Hf  Hf1  1  0.200642  0.401283  0.441687  1
  Hf  Hf2  1  0.598717  0.799358  0.441687  1
  Hf  Hf3  1  0.799358  0.200642  0.558313  1
  Hf  Hf4  1  0.799358  0.598717  0.558313  1
  Hf  Hf5  1  0.401283  0.200642  0.558313  1
  Hf  Hf6  1  0.799358  0.200642  0.941687  1
  Hf  Hf7  1  0.799358  0.598717  0.941687  1
  Hf  Hf8  1  0.401283  0.200642  0.941687  1
  Hf  Hf9  1  0.200642  0.799358  0.058313  1
  Hf  Hf10  1  0.200642  0.401283  0.058313  1
  Hf  Hf11  1  0.598717  0.799358  0.058313  1
  Hf  Hf12  1  0.539818  0.460182  0.250000  1
  Hf  Hf13  1  0.539818  0.079636  0.250000  1
  Hf  Hf14  1  0.920364  0.460182  0.250000  1
  Hf  Hf15  1  0.460182  0.539818  0.750000  1
  Hf  Hf16  1  0.460182  0.920364  0.750000  1
  Hf  Hf17  1  0.079636  0.539818  0.750000  1
  Mn  Mn18  1  0.333333  0.666667  0.250000  1
  Mn  Mn19  1  0.666667  0.333333  0.750000  1
  Re  Re20  1  0.887823  0.112177  0.250000  1
  Re  Re21  1  0.887823  0.775644  0.250000  1
  Re  Re22  1  0.224356  0.112177  0.250000  1
  Re  Re23  1  0.112177  0.887823  0.750000  1
  Re  Re24  1  0.112177  0.224356  0.750000  1
  Re  Re25  1  0.775644  0.887823  0.750000  1
  W  W26  1  0.000000  0.000000  0.500000  1
  W  W27  1  0.000000  0.000000  0.000000  1
