# generated using pymatgen
data_HoTm(B3W)2
_symmetry_space_group_name_H-M   'P 1'
_cell_length_a   5.43143530
_cell_length_b   3.15706900
_cell_length_c   6.80122176
_cell_angle_alpha   90.00000000
_cell_angle_beta   101.90156754
_cell_angle_gamma   90.00000000
_symmetry_Int_Tables_number   1
_chemical_formula_structural   HoTm(B3W)2
_chemical_formula_sum   'Ho1 Tm1 B6 W2'
_cell_volume   114.11636607
_cell_formula_units_Z   1
loop_
 _symmetry_equiv_pos_site_id
 _symmetry_equiv_pos_as_xyz
  1  'x, y, z'
loop_
 _atom_site_type_symbol
 _atom_site_label
 _atom_site_symmetry_multiplicity
 _atom_site_fract_x
 _atom_site_fract_y
 _atom_site_fract_z
 _atom_site_occupancy
  Ho  Ho0  1  0.175159  0.250000  0.207247  1
  Tm  Tm1  1  0.822140  0.749999  0.790117  1
  B  B2  1  0.586297  0.250000  0.023528  1
  B  B3  1  0.082764  0.749999  0.493153  1
  B  B4  1  0.412863  0.749999  0.495291  1
  B  B5  1  0.587827  0.250000  0.506307  1
  B  B6  1  0.916597  0.250000  0.508624  1
  B  B7  1  0.416969  0.749999  0.975388  1
  W  W8  1  0.688389  0.749999  0.279668  1
  W  W9  1  0.310997  0.250000  0.720676  1
