# generated using pymatgen
data_ScNb3V4GeP3
_symmetry_space_group_name_H-M   'P 1'
_cell_length_a   3.44881200
_cell_length_b   6.52822188
_cell_length_c   7.84137054
_cell_angle_alpha   90.29487560
_cell_angle_beta   90.00000000
_cell_angle_gamma   90.00000000
_symmetry_Int_Tables_number   1
_chemical_formula_structural   ScNb3V4GeP3
_chemical_formula_sum   'Sc1 Nb3 V4 Ge1 P3'
_cell_volume   176.54306123
_cell_formula_units_Z   1
loop_
 _symmetry_equiv_pos_site_id
 _symmetry_equiv_pos_as_xyz
  1  'x, y, z'
loop_
 _atom_site_type_symbol
 _atom_site_label
 _atom_site_symmetry_multiplicity
 _atom_site_fract_x
 _atom_site_fract_y
 _atom_site_fract_z
 _atom_site_occupancy
  Sc  Sc0  1  0.250000  0.038113  0.833575  1
  Nb  Nb1  1  0.250000  0.537464  0.669340  1
  Nb  Nb2  1  0.750000  0.969302  0.166076  1
  Nb  Nb3  1  0.750000  0.446677  0.329485  1
  V  V4  1  0.250000  0.140360  0.442555  1
  V  V5  1  0.250000  0.626544  0.051741  1
  V  V6  1  0.750000  0.872924  0.563505  1
  V  V7  1  0.750000  0.371666  0.943634  1
  Ge  Ge8  1  0.250000  0.755527  0.360242  1
  P  P9  1  0.250000  0.258033  0.137585  1
  P  P10  1  0.750000  0.244005  0.642349  1
  P  P11  1  0.750000  0.739385  0.859912  1
