# generated using pymatgen
data_DyEr(RuO4)2
_symmetry_space_group_name_H-M   'P 1'
_cell_length_a   5.35229398
_cell_length_b   7.68250562
_cell_length_c   7.42970400
_cell_angle_alpha   79.84398949
_cell_angle_beta   91.04428884
_cell_angle_gamma   93.95934801
_symmetry_Int_Tables_number   1
_chemical_formula_structural   DyEr(RuO4)2
_chemical_formula_sum   'Dy2 Er2 Ru4 O16'
_cell_volume   299.99196828
_cell_formula_units_Z   2
loop_
 _symmetry_equiv_pos_site_id
 _symmetry_equiv_pos_as_xyz
  1  'x, y, z'
loop_
 _atom_site_type_symbol
 _atom_site_label
 _atom_site_symmetry_multiplicity
 _atom_site_fract_x
 _atom_site_fract_y
 _atom_site_fract_z
 _atom_site_occupancy
  Dy  Dy0  1  0.263460  0.118083  0.609772  1
  Dy  Dy1  1  0.736540  0.881917  0.390228  1
  Er  Er2  1  0.192505  0.169848  0.104254  1
  Er  Er3  1  0.807495  0.830152  0.895746  1
  Ru  Ru4  1  0.248010  0.664368  0.204690  1
  Ru  Ru5  1  0.751990  0.335632  0.795310  1
  Ru  Ru6  1  0.715259  0.336072  0.299028  1
  Ru  Ru7  1  0.284741  0.663928  0.700972  1
  O  O8  1  0.062809  0.460955  0.705231  1
  O  O9  1  0.937191  0.539045  0.294769  1
  O  O10  1  0.614441  0.326090  0.550694  1
  O  O11  1  0.385559  0.673910  0.449306  1
  O  O12  1  0.847954  0.323044  0.054810  1
  O  O13  1  0.152046  0.676956  0.945190  1
  O  O14  1  0.404482  0.437984  0.196657  1
  O  O15  1  0.595518  0.562016  0.803343  1
  O  O16  1  0.051759  0.886721  0.175347  1
  O  O17  1  0.948241  0.113279  0.824653  1
  O  O18  1  0.488595  0.108445  0.320159  1
  O  O19  1  0.511405  0.891555  0.679841  1
  O  O20  1  0.449080  0.199349  0.871178  1
  O  O21  1  0.550920  0.800651  0.128822  1
  O  O22  1  0.975951  0.163363  0.379194  1
  O  O23  1  0.024049  0.836637  0.620806  1
