# generated using pymatgen
data_Y3Al3GePt2
_symmetry_space_group_name_H-M   'P 1'
_cell_length_a   7.07511600
_cell_length_b   7.07511720
_cell_length_c   4.16611900
_cell_angle_alpha   90.00000000
_cell_angle_beta   90.00000000
_cell_angle_gamma   120.00000374
_symmetry_Int_Tables_number   1
_chemical_formula_structural   Y3Al3GePt2
_chemical_formula_sum   'Y3 Al3 Ge1 Pt2'
_cell_volume   180.60488352
_cell_formula_units_Z   1
loop_
 _symmetry_equiv_pos_site_id
 _symmetry_equiv_pos_as_xyz
  1  'x, y, z'
loop_
 _atom_site_type_symbol
 _atom_site_label
 _atom_site_symmetry_multiplicity
 _atom_site_fract_x
 _atom_site_fract_y
 _atom_site_fract_z
 _atom_site_occupancy
  Y  Y0  1  0.415779  0.418908  0.500000  1
  Y  Y1  1  0.581092  0.996871  0.500000  1
  Y  Y2  1  0.003129  0.584221  0.500000  1
  Al  Al3  1  0.016343  0.244465  0.000000  1
  Al  Al4  1  0.755535  0.771877  0.000000  1
  Al  Al5  1  0.228123  0.983657  0.000000  1
  Ge  Ge6  1  0.666667  0.333333  0.000000  1
  Pt  Pt7  1  0.000000  0.000000  0.500000  1
  Pt  Pt8  1  0.333333  0.666667  0.000000  1
