# generated using pymatgen
data_Tb4Lu2Si3Au
_symmetry_space_group_name_H-M   'P 1'
_cell_length_a   7.48744655
_cell_length_b   7.48744655
_cell_length_c   4.26516400
_cell_angle_alpha   90.00000000
_cell_angle_beta   90.00000000
_cell_angle_gamma   91.42330835
_symmetry_Int_Tables_number   1
_chemical_formula_structural   Tb4Lu2Si3Au
_chemical_formula_sum   'Tb4 Lu2 Si3 Au1'
_cell_volume   239.03923536
_cell_formula_units_Z   1
loop_
 _symmetry_equiv_pos_site_id
 _symmetry_equiv_pos_as_xyz
  1  'x, y, z'
loop_
 _atom_site_type_symbol
 _atom_site_label
 _atom_site_symmetry_multiplicity
 _atom_site_fract_x
 _atom_site_fract_y
 _atom_site_fract_z
 _atom_site_occupancy
  Tb  Tb0  1  0.315552  0.825701  0.500000  1
  Tb  Tb1  1  0.674299  0.184448  0.500000  1
  Tb  Tb2  1  0.174885  0.325115  0.500000  1
  Tb  Tb3  1  0.833561  0.666439  0.500000  1
  Lu  Lu4  1  0.998336  0.994266  0.000000  1
  Lu  Lu5  1  0.505734  0.501664  0.000000  1
  Si  Si6  1  0.372141  0.127859  0.000000  1
  Si  Si7  1  0.884692  0.379188  0.000000  1
  Si  Si8  1  0.120812  0.615308  0.000000  1
  Au  Au9  1  0.619988  0.880012  0.000000  1
