# generated using pymatgen
data_LiY16Co4Hg3
_symmetry_space_group_name_H-M   'P 1'
_cell_length_a   9.50966323
_cell_length_b   9.50327759
_cell_length_c   9.50327900
_cell_angle_alpha   59.99999858
_cell_angle_beta   60.02220879
_cell_angle_gamma   60.02220916
_symmetry_Int_Tables_number   1
_chemical_formula_structural   LiY16Co4Hg3
_chemical_formula_sum   'Li1 Y16 Co4 Hg3'
_cell_volume   607.49503921
_cell_formula_units_Z   1
loop_
 _symmetry_equiv_pos_site_id
 _symmetry_equiv_pos_as_xyz
  1  'x, y, z'
loop_
 _atom_site_type_symbol
 _atom_site_label
 _atom_site_symmetry_multiplicity
 _atom_site_fract_x
 _atom_site_fract_y
 _atom_site_fract_z
 _atom_site_occupancy
  Li  Li0  1  0.297830  0.567390  0.567390  1
  Y  Y1  1  0.349077  0.345465  0.345465  1
  Y  Y2  1  0.349077  0.345465  0.959993  1
  Y  Y3  1  0.349077  0.959993  0.345465  1
  Y  Y4  1  0.949191  0.350269  0.350269  1
  Y  Y5  1  0.809183  0.189608  0.189608  1
  Y  Y6  1  0.185077  0.814156  0.814156  1
  Y  Y7  1  0.185077  0.814156  0.186612  1
  Y  Y8  1  0.809183  0.189608  0.811602  1
  Y  Y9  1  0.185077  0.186612  0.814156  1
  Y  Y10  1  0.809183  0.811602  0.189608  1
  Y  Y11  1  0.937264  0.562312  0.562312  1
  Y  Y12  1  0.562805  0.936635  0.936635  1
  Y  Y13  1  0.562805  0.936635  0.563925  1
  Y  Y14  1  0.937264  0.562312  0.938113  1
  Y  Y15  1  0.562805  0.563925  0.936635  1
  Y  Y16  1  0.937264  0.938113  0.562312  1
  Co  Co17  1  0.137604  0.143136  0.143136  1
  Co  Co18  1  0.137604  0.143136  0.576125  1
  Co  Co19  1  0.137604  0.576125  0.143136  1
  Co  Co20  1  0.576037  0.141321  0.141321  1
  Hg  Hg21  1  0.577969  0.585802  0.585802  1
  Hg  Hg22  1  0.577969  0.585802  0.250427  1
  Hg  Hg23  1  0.577969  0.250427  0.585802  1
