# generated using pymatgen
data_TbYb6ScBi6
_symmetry_space_group_name_H-M   'P 1'
_cell_length_a   8.10688811
_cell_length_b   8.31976585
_cell_length_c   8.31976603
_cell_angle_alpha   109.98372238
_cell_angle_beta   108.95372119
_cell_angle_gamma   108.95372917
_symmetry_Int_Tables_number   1
_chemical_formula_structural   TbYb6ScBi6
_chemical_formula_sum   'Tb1 Yb6 Sc1 Bi6'
_cell_volume   434.69874604
_cell_formula_units_Z   1
loop_
 _symmetry_equiv_pos_site_id
 _symmetry_equiv_pos_as_xyz
  1  'x, y, z'
loop_
 _atom_site_type_symbol
 _atom_site_label
 _atom_site_symmetry_multiplicity
 _atom_site_fract_x
 _atom_site_fract_y
 _atom_site_fract_z
 _atom_site_occupancy
  Tb  Tb0  1  0.141794  0.500000  0.000000  1
  Yb  Yb1  1  0.502095  0.001122  0.647353  1
  Yb  Yb2  1  0.354202  0.352970  0.353382  1
  Yb  Yb3  1  0.501233  0.000411  0.147030  1
  Yb  Yb4  1  0.000973  0.646232  0.498878  1
  Yb  Yb5  1  0.854742  0.852647  0.853768  1
  Yb  Yb6  1  0.000821  0.146618  0.499589  1
  Sc  Sc7  1  0.639432  0.500000  0.000000  1
  Bi  Bi8  1  0.381435  0.619321  0.759853  1
  Bi  Bi9  1  0.872517  0.256797  0.121179  1
  Bi  Bi10  1  0.621582  0.740147  0.359468  1
  Bi  Bi11  1  0.115720  0.864382  0.243203  1
  Bi  Bi12  1  0.262114  0.140532  0.880679  1
  Bi  Bi13  1  0.751338  0.378821  0.635618  1
