# generated using pymatgen
data_Tb10Er2Si11Ni
_symmetry_space_group_name_H-M   'P 1'
_cell_length_a   3.86642500
_cell_length_b   5.72664521
_cell_length_c   23.84179487
_cell_angle_alpha   82.77771898
_cell_angle_beta   90.00000000
_cell_angle_gamma   90.00000000
_symmetry_Int_Tables_number   1
_chemical_formula_structural   Tb10Er2Si11Ni
_chemical_formula_sum   'Tb10 Er2 Si11 Ni1'
_cell_volume   523.70814852
_cell_formula_units_Z   1
loop_
 _symmetry_equiv_pos_site_id
 _symmetry_equiv_pos_as_xyz
  1  'x, y, z'
loop_
 _atom_site_type_symbol
 _atom_site_label
 _atom_site_symmetry_multiplicity
 _atom_site_fract_x
 _atom_site_fract_y
 _atom_site_fract_z
 _atom_site_occupancy
  Tb  Tb0  1  0.250000  0.660677  0.941449  1
  Tb  Tb1  1  0.250000  0.469001  0.773875  1
  Tb  Tb2  1  0.750000  0.167435  0.392026  1
  Tb  Tb3  1  0.250000  0.827850  0.606431  1
  Tb  Tb4  1  0.750000  0.352267  0.559288  1
  Tb  Tb5  1  0.250000  0.643549  0.438633  1
  Tb  Tb6  1  0.750000  0.995278  0.727002  1
  Tb  Tb7  1  0.250000  0.995077  0.271457  1
  Tb  Tb8  1  0.750000  0.169542  0.894205  1
  Tb  Tb9  1  0.250000  0.836443  0.108718  1
  Er  Er10  1  0.750000  0.355123  0.066941  1
  Er  Er11  1  0.750000  0.519417  0.220192  1
  Si  Si12  1  0.750000  0.877553  0.014248  1
  Si  Si13  1  0.250000  0.148778  0.990244  1
  Si  Si14  1  0.750000  0.055167  0.178493  1
  Si  Si15  1  0.250000  0.955018  0.821747  1
  Si  Si16  1  0.750000  0.701601  0.343736  1
  Si  Si17  1  0.250000  0.290939  0.654099  1
  Si  Si18  1  0.750000  0.864392  0.511595  1
  Si  Si19  1  0.250000  0.132266  0.486599  1
  Si  Si20  1  0.750000  0.533052  0.679145  1
  Si  Si21  1  0.250000  0.462425  0.317529  1
  Si  Si22  1  0.750000  0.683735  0.846517  1
  Ni  Ni23  1  0.250000  0.303414  0.155829  1
