# generated using pymatgen
data_TbY6Ho(CdPd)2
_symmetry_space_group_name_H-M   'P 1'
_cell_length_a   9.72879993
_cell_length_b   9.72870994
_cell_length_c   9.73462300
_cell_angle_alpha   59.98086203
_cell_angle_beta   59.98118446
_cell_angle_gamma   59.98618935
_symmetry_Int_Tables_number   1
_chemical_formula_structural   TbY6Ho(CdPd)2
_chemical_formula_sum   'Tb2 Y12 Ho2 Cd4 Pd4'
_cell_volume   651.25146488
_cell_formula_units_Z   2
loop_
 _symmetry_equiv_pos_site_id
 _symmetry_equiv_pos_as_xyz
  1  'x, y, z'
loop_
 _atom_site_type_symbol
 _atom_site_label
 _atom_site_symmetry_multiplicity
 _atom_site_fract_x
 _atom_site_fract_y
 _atom_site_fract_z
 _atom_site_occupancy
  Tb  Tb0  1  0.354053  0.354047  0.351607  1
  Tb  Tb1  1  0.354050  0.354049  0.940284  1
  Y  Y2  1  0.810955  0.189333  0.189944  1
  Y  Y3  1  0.189334  0.810961  0.809765  1
  Y  Y4  1  0.189347  0.810943  0.189952  1
  Y  Y5  1  0.810956  0.189350  0.809757  1
  Y  Y6  1  0.190166  0.190147  0.809835  1
  Y  Y7  1  0.810781  0.810777  0.189226  1
  Y  Y8  1  0.935063  0.564657  0.565152  1
  Y  Y9  1  0.564641  0.935063  0.935128  1
  Y  Y10  1  0.564642  0.935067  0.565156  1
  Y  Y11  1  0.935061  0.564633  0.935135  1
  Y  Y12  1  0.565654  0.565673  0.934326  1
  Y  Y13  1  0.935869  0.935856  0.564125  1
  Ho  Ho14  1  0.356490  0.936070  0.353757  1
  Ho  Ho15  1  0.936032  0.356476  0.353779  1
  Cd  Cd16  1  0.582128  0.582131  0.582207  1
  Cd  Cd17  1  0.582132  0.582130  0.253526  1
  Cd  Cd18  1  0.582033  0.253423  0.582268  1
  Cd  Cd19  1  0.253421  0.582034  0.582266  1
  Pd  Pd20  1  0.144734  0.144734  0.148425  1
  Pd  Pd21  1  0.144739  0.144735  0.562103  1
  Pd  Pd22  1  0.142891  0.564817  0.146142  1
  Pd  Pd23  1  0.564828  0.142893  0.146132  1
