# generated using pymatgen
data_LuU(Al3Ir)3
_symmetry_space_group_name_H-M   'P 1'
_cell_length_a   7.56124022
_cell_length_b   7.57129994
_cell_length_c   9.38133100
_cell_angle_alpha   90.00000000
_cell_angle_beta   90.00000000
_cell_angle_gamma   119.51736551
_symmetry_Int_Tables_number   1
_chemical_formula_structural   LuU(Al3Ir)3
_chemical_formula_sum   'Lu2 U2 Al18 Ir6'
_cell_volume   467.35858429
_cell_formula_units_Z   2
loop_
 _symmetry_equiv_pos_site_id
 _symmetry_equiv_pos_as_xyz
  1  'x, y, z'
loop_
 _atom_site_type_symbol
 _atom_site_label
 _atom_site_symmetry_multiplicity
 _atom_site_fract_x
 _atom_site_fract_y
 _atom_site_fract_z
 _atom_site_occupancy
  Lu  Lu0  1  0.671056  0.995253  0.250000  1
  Lu  Lu1  1  0.328944  0.004747  0.750000  1
  U  U2  1  0.994864  0.670204  0.250000  1
  U  U3  1  0.005136  0.329796  0.750000  1
  Al  Al4  1  0.128486  0.128545  0.250000  1
  Al  Al5  1  0.871514  0.871455  0.750000  1
  Al  Al6  1  0.999557  0.333022  0.075677  1
  Al  Al7  1  0.000443  0.666978  0.924323  1
  Al  Al8  1  0.000443  0.666978  0.575677  1
  Al  Al9  1  0.338121  0.003015  0.424091  1
  Al  Al10  1  0.999557  0.333022  0.424323  1
  Al  Al11  1  0.661879  0.996985  0.575909  1
  Al  Al12  1  0.661879  0.996985  0.924091  1
  Al  Al13  1  0.338121  0.003015  0.075909  1
  Al  Al14  1  0.334807  0.333031  0.555560  1
  Al  Al15  1  0.665193  0.666969  0.444440  1
  Al  Al16  1  0.665193  0.666969  0.055560  1
  Al  Al17  1  0.334807  0.333031  0.944440  1
  Al  Al18  1  0.339350  0.548514  0.250000  1
  Al  Al19  1  0.660650  0.451486  0.750000  1
  Al  Al20  1  0.547843  0.339941  0.250000  1
  Al  Al21  1  0.452157  0.660059  0.750000  1
  Ir  Ir22  1  0.672245  0.327449  0.999802  1
  Ir  Ir23  1  0.327755  0.672551  0.000198  1
  Ir  Ir24  1  0.327755  0.672551  0.499802  1
  Ir  Ir25  1  0.672245  0.327449  0.500198  1
  Ir  Ir26  1  0.000000  0.000000  0.000000  1
  Ir  Ir27  1  0.000000  0.000000  0.500000  1
