# generated using pymatgen
data_Dy5HoRh18
_symmetry_space_group_name_H-M   'P 1'
_cell_length_a   5.25478100
_cell_length_b   5.25478052
_cell_length_c   17.57145200
_cell_angle_alpha   90.00000000
_cell_angle_beta   90.00000000
_cell_angle_gamma   120.00000929
_symmetry_Int_Tables_number   1
_chemical_formula_structural   Dy5HoRh18
_chemical_formula_sum   'Dy5 Ho1 Rh18'
_cell_volume   420.19167539
_cell_formula_units_Z   1
loop_
 _symmetry_equiv_pos_site_id
 _symmetry_equiv_pos_as_xyz
  1  'x, y, z'
loop_
 _atom_site_type_symbol
 _atom_site_label
 _atom_site_symmetry_multiplicity
 _atom_site_fract_x
 _atom_site_fract_y
 _atom_site_fract_z
 _atom_site_occupancy
  Dy  Dy0  1  0.333333  0.666667  0.542177  1
  Dy  Dy1  1  0.666667  0.333333  0.041478  1
  Dy  Dy2  1  0.666667  0.333333  0.458522  1
  Dy  Dy3  1  0.333333  0.666667  0.957823  1
  Dy  Dy4  1  0.333333  0.666667  0.750000  1
  Ho  Ho5  1  0.666667  0.333333  0.250000  1
  Rh  Rh6  1  0.167362  0.334722  0.125346  1
  Rh  Rh7  1  0.832736  0.665473  0.625883  1
  Rh  Rh8  1  0.665278  0.832638  0.125346  1
  Rh  Rh9  1  0.167362  0.832638  0.125346  1
  Rh  Rh10  1  0.832736  0.167264  0.625883  1
  Rh  Rh11  1  0.334527  0.167264  0.625883  1
  Rh  Rh12  1  0.832736  0.665473  0.874117  1
  Rh  Rh13  1  0.832736  0.167264  0.874117  1
  Rh  Rh14  1  0.334527  0.167264  0.874117  1
  Rh  Rh15  1  0.665278  0.832638  0.374654  1
  Rh  Rh16  1  0.167362  0.832638  0.374654  1
  Rh  Rh17  1  0.167362  0.334722  0.374654  1
  Rh  Rh18  1  0.000000  0.000000  0.250000  1
  Rh  Rh19  1  0.000000  0.000000  0.750000  1
  Rh  Rh20  1  0.333333  0.666667  0.250000  1
  Rh  Rh21  1  0.666667  0.333333  0.750000  1
  Rh  Rh22  1  0.000000  0.000000  0.999683  1
  Rh  Rh23  1  0.000000  0.000000  0.500317  1
