# generated using pymatgen
data_Y4LuHf3Ir4
_symmetry_space_group_name_H-M   'P 1'
_cell_length_a   4.53879000
_cell_length_b   7.07197833
_cell_length_c   8.43305689
_cell_angle_alpha   90.10418403
_cell_angle_beta   90.00000000
_cell_angle_gamma   90.00000000
_symmetry_Int_Tables_number   1
_chemical_formula_structural   Y4LuHf3Ir4
_chemical_formula_sum   'Y4 Lu1 Hf3 Ir4'
_cell_volume   270.68570601
_cell_formula_units_Z   1
loop_
 _symmetry_equiv_pos_site_id
 _symmetry_equiv_pos_as_xyz
  1  'x, y, z'
loop_
 _atom_site_type_symbol
 _atom_site_label
 _atom_site_symmetry_multiplicity
 _atom_site_fract_x
 _atom_site_fract_y
 _atom_site_fract_z
 _atom_site_occupancy
  Y  Y0  1  0.250000  0.984970  0.330086  1
  Y  Y1  1  0.250000  0.491216  0.174003  1
  Y  Y2  1  0.750000  0.014946  0.678770  1
  Y  Y3  1  0.750000  0.513516  0.820184  1
  Lu  Lu4  1  0.750000  0.143961  0.075975  1
  Hf  Hf5  1  0.250000  0.361331  0.570780  1
  Hf  Hf6  1  0.250000  0.856233  0.929337  1
  Hf  Hf7  1  0.750000  0.644168  0.427506  1
  Ir  Ir8  1  0.250000  0.231607  0.891472  1
  Ir  Ir9  1  0.250000  0.731299  0.594076  1
  Ir  Ir10  1  0.750000  0.755412  0.091687  1
  Ir  Ir11  1  0.750000  0.271342  0.416123  1
