# generated using pymatgen
data_Ba2LuPa3S10
_symmetry_space_group_name_H-M   'P 1'
_cell_length_a   7.49312700
_cell_length_b   8.43545581
_cell_length_c   11.78692500
_cell_angle_alpha   89.61160221
_cell_angle_beta   90.00000000
_cell_angle_gamma   90.00000000
_symmetry_Int_Tables_number   1
_chemical_formula_structural   Ba2LuPa3S10
_chemical_formula_sum   'Ba4 Lu2 Pa6 S20'
_cell_volume   745.01015059
_cell_formula_units_Z   2
loop_
 _symmetry_equiv_pos_site_id
 _symmetry_equiv_pos_as_xyz
  1  'x, y, z'
loop_
 _atom_site_type_symbol
 _atom_site_label
 _atom_site_symmetry_multiplicity
 _atom_site_fract_x
 _atom_site_fract_y
 _atom_site_fract_z
 _atom_site_occupancy
  Ba  Ba0  1  0.057920  0.492416  0.333834  1
  Ba  Ba1  1  0.557920  0.507584  0.166166  1
  Ba  Ba2  1  0.946261  0.508803  0.670015  1
  Ba  Ba3  1  0.446261  0.491197  0.829985  1
  Lu  Lu4  1  0.933816  0.245167  0.994036  1
  Lu  Lu5  1  0.433816  0.754833  0.505964  1
  Pa  Pa6  1  0.024151  0.997329  0.320148  1
  Pa  Pa7  1  0.524151  0.002671  0.179852  1
  Pa  Pa8  1  0.974583  0.000733  0.683544  1
  Pa  Pa9  1  0.474583  0.999267  0.816456  1
  Pa  Pa10  1  0.064080  0.754832  0.008048  1
  Pa  Pa11  1  0.564080  0.245168  0.491952  1
  S  S12  1  0.663693  0.960631  0.400164  1
  S  S13  1  0.163693  0.039369  0.099836  1
  S  S14  1  0.336047  0.041927  0.596348  1
  S  S15  1  0.836047  0.958073  0.903652  1
  S  S16  1  0.448108  0.794380  0.001006  1
  S  S17  1  0.948108  0.205620  0.498994  1
  S  S18  1  0.549851  0.206090  0.995832  1
  S  S19  1  0.049851  0.793910  0.504168  1
  S  S20  1  0.838204  0.784143  0.187770  1
  S  S21  1  0.338204  0.215857  0.312230  1
  S  S22  1  0.159976  0.212460  0.813829  1
  S  S23  1  0.659976  0.787540  0.686171  1
  S  S24  1  0.313954  0.778526  0.286377  1
  S  S25  1  0.813954  0.221474  0.213623  1
  S  S26  1  0.686658  0.223342  0.711763  1
  S  S27  1  0.186658  0.776658  0.788237  1
  S  S28  1  0.176967  0.469410  0.072968  1
  S  S29  1  0.676967  0.530590  0.427032  1
  S  S30  1  0.825731  0.534991  0.929285  1
  S  S31  1  0.325731  0.465009  0.570715  1
