# generated using pymatgen
data_Y5Lu5(In2Bi)2
_symmetry_space_group_name_H-M   'P 1'
_cell_length_a   6.55288567
_cell_length_b   8.98645824
_cell_length_c   8.95246702
_cell_angle_alpha   120.11975677
_cell_angle_beta   90.00157986
_cell_angle_gamma   89.99467493
_symmetry_Int_Tables_number   1
_chemical_formula_structural   Y5Lu5(In2Bi)2
_chemical_formula_sum   'Y5 Lu5 In4 Bi2'
_cell_volume   456.00453380
_cell_formula_units_Z   1
loop_
 _symmetry_equiv_pos_site_id
 _symmetry_equiv_pos_as_xyz
  1  'x, y, z'
loop_
 _atom_site_type_symbol
 _atom_site_label
 _atom_site_symmetry_multiplicity
 _atom_site_fract_x
 _atom_site_fract_y
 _atom_site_fract_z
 _atom_site_occupancy
  Y  Y0  1  0.750059  0.233674  0.999276  1
  Y  Y1  1  0.750005  0.768427  0.756822  1
  Y  Y2  1  0.750070  0.010322  0.245332  1
  Y  Y3  1  0.249933  0.765969  0.999655  1
  Y  Y4  1  0.250019  0.232129  0.243079  1
  Lu  Lu5  1  0.499840  0.326669  0.654068  1
  Lu  Lu6  1  0.499584  0.673954  0.346668  1
  Lu  Lu7  1  0.000433  0.673582  0.346183  1
  Lu  Lu8  1  0.000126  0.327078  0.654473  1
  Lu  Lu9  1  0.249986  0.988557  0.754441  1
  In  In10  1  0.750212  0.404470  0.399815  1
  In  In11  1  0.750465  0.005780  0.601606  1
  In  In12  1  0.249718  0.596999  0.600548  1
  In  In13  1  0.249701  0.994643  0.399801  1
  Bi  Bi14  1  0.749735  0.606149  0.999755  1
  Bi  Bi15  1  0.250117  0.391603  0.998477  1
