# generated using pymatgen
data_Nb9Mo5Ru4
_symmetry_space_group_name_H-M   'P 1'
_cell_length_a   7.85912501
_cell_length_b   7.85912472
_cell_length_c   5.56809213
_cell_angle_alpha   89.99210806
_cell_angle_beta   89.99210251
_cell_angle_gamma   120.00486476
_symmetry_Int_Tables_number   1
_chemical_formula_structural   Nb9Mo5Ru4
_chemical_formula_sum   'Nb9 Mo5 Ru4'
_cell_volume   297.82703239
_cell_formula_units_Z   1
loop_
 _symmetry_equiv_pos_site_id
 _symmetry_equiv_pos_as_xyz
  1  'x, y, z'
loop_
 _atom_site_type_symbol
 _atom_site_label
 _atom_site_symmetry_multiplicity
 _atom_site_fract_x
 _atom_site_fract_y
 _atom_site_fract_z
 _atom_site_occupancy
  Nb  Nb0  1  0.666198  0.001902  0.225322  1
  Nb  Nb1  1  0.331699  0.331698  0.224864  1
  Nb  Nb2  1  0.001902  0.666199  0.225322  1
  Nb  Nb3  1  0.666624  0.332559  0.557648  1
  Nb  Nb4  1  0.332560  0.666625  0.557648  1
  Nb  Nb5  1  0.000860  0.000860  0.560019  1
  Nb  Nb6  1  0.332929  0.999915  0.892268  1
  Nb  Nb7  1  0.999915  0.332928  0.892268  1
  Nb  Nb8  1  0.667206  0.667206  0.893448  1
  Mo  Mo9  1  0.666697  0.335385  0.056458  1
  Mo  Mo10  1  0.335386  0.666698  0.056458  1
  Mo  Mo11  1  0.997670  0.997670  0.057870  1
  Mo  Mo12  1  0.333023  0.000054  0.394495  1
  Mo  Mo13  1  0.000054  0.333022  0.394495  1
  Ru  Ru14  1  0.667081  0.667081  0.395595  1
  Ru  Ru15  1  0.666086  0.998605  0.724601  1
  Ru  Ru16  1  0.335508  0.335508  0.724463  1
  Ru  Ru17  1  0.998605  0.666086  0.724601  1
