# generated using pymatgen
data_NdEuDyGa8Ag3
_symmetry_space_group_name_H-M   'P 1'
_cell_length_a   4.40479494
_cell_length_b   8.45891323
_cell_length_c   8.45873514
_cell_angle_alpha   69.59180529
_cell_angle_beta   74.90800185
_cell_angle_gamma   74.90832651
_symmetry_Int_Tables_number   1
_chemical_formula_structural   NdEuDyGa8Ag3
_chemical_formula_sum   'Nd1 Eu1 Dy1 Ga8 Ag3'
_cell_volume   280.14755352
_cell_formula_units_Z   1
loop_
 _symmetry_equiv_pos_site_id
 _symmetry_equiv_pos_as_xyz
  1  'x, y, z'
loop_
 _atom_site_type_symbol
 _atom_site_label
 _atom_site_symmetry_multiplicity
 _atom_site_fract_x
 _atom_site_fract_y
 _atom_site_fract_z
 _atom_site_occupancy
  Nd  Nd0  1  0.499017  0.500986  0.500982  1
  Eu  Eu1  1  0.799331  0.200665  0.200673  1
  Dy  Dy2  1  0.200881  0.799113  0.799125  1
  Ga  Ga3  1  0.643694  0.072510  0.640100  1
  Ga  Ga4  1  0.354916  0.924331  0.365838  1
  Ga  Ga5  1  0.643695  0.640094  0.072515  1
  Ga  Ga6  1  0.354913  0.365846  0.924329  1
  Ga  Ga7  1  0.839147  0.792047  0.529660  1
  Ga  Ga8  1  0.160542  0.205186  0.473730  1
  Ga  Ga9  1  0.839146  0.529663  0.792046  1
  Ga  Ga10  1  0.160541  0.473738  0.205178  1
  Ag  Ag11  1  0.502472  0.997527  0.997529  1
  Ag  Ag12  1  0.000853  0.804420  0.193874  1
  Ag  Ag13  1  0.000851  0.193876  0.804422  1
