# generated using pymatgen
data_Sr2Lu2Si7GeN14
_symmetry_space_group_name_H-M   'P 1'
_cell_length_a   6.02656300
_cell_length_b   6.02656168
_cell_length_c   9.89964600
_cell_angle_alpha   90.00000000
_cell_angle_beta   90.00000000
_cell_angle_gamma   119.99999077
_symmetry_Int_Tables_number   1
_chemical_formula_structural   Sr2Lu2Si7GeN14
_chemical_formula_sum   'Sr2 Lu2 Si7 Ge1 N14'
_cell_volume   311.37923260
_cell_formula_units_Z   1
loop_
 _symmetry_equiv_pos_site_id
 _symmetry_equiv_pos_as_xyz
  1  'x, y, z'
loop_
 _atom_site_type_symbol
 _atom_site_label
 _atom_site_symmetry_multiplicity
 _atom_site_fract_x
 _atom_site_fract_y
 _atom_site_fract_z
 _atom_site_occupancy
  Sr  Sr0  1  0.666667  0.333333  0.583605  1
  Sr  Sr1  1  0.333333  0.666667  0.079513  1
  Lu  Lu2  1  0.666667  0.333333  0.950749  1
  Lu  Lu3  1  0.333333  0.666667  0.449189  1
  Si  Si4  1  0.174954  0.349907  0.763313  1
  Si  Si5  1  0.825453  0.174547  0.256824  1
  Si  Si6  1  0.349093  0.174547  0.256824  1
  Si  Si7  1  0.650093  0.825046  0.763313  1
  Si  Si8  1  0.174954  0.825046  0.763313  1
  Si  Si9  1  0.825453  0.650907  0.256824  1
  Si  Si10  1  0.000000  0.000000  0.026233  1
  Ge  Ge11  1  0.000000  0.000000  0.524599  1
  N  N12  1  0.000000  0.000000  0.835157  1
  N  N13  1  0.000000  0.000000  0.326043  1
  N  N14  1  0.845035  0.690068  0.083971  1
  N  N15  1  0.162440  0.837560  0.589755  1
  N  N16  1  0.675119  0.837560  0.589755  1
  N  N17  1  0.309932  0.154965  0.083971  1
  N  N18  1  0.845035  0.154965  0.083971  1
  N  N19  1  0.162440  0.324881  0.589755  1
  N  N20  1  0.489867  0.510133  0.817814  1
  N  N21  1  0.980058  0.490028  0.311841  1
  N  N22  1  0.509972  0.019942  0.311841  1
  N  N23  1  0.489867  0.979735  0.817814  1
  N  N24  1  0.509972  0.490028  0.311841  1
  N  N25  1  0.020265  0.510133  0.817814  1
