# generated using pymatgen
data_Sr2Li(CuP2)2
_symmetry_space_group_name_H-M   'P 1'
_cell_length_a   8.23898319
_cell_length_b   8.23898321
_cell_length_c   8.23896000
_cell_angle_alpha   137.14460483
_cell_angle_beta   110.12573946
_cell_angle_gamma   85.57517158
_symmetry_Int_Tables_number   1
_chemical_formula_structural   Sr2Li(CuP2)2
_chemical_formula_sum   'Sr4 Li2 Cu4 P8'
_cell_volume   343.47444352
_cell_formula_units_Z   2
loop_
 _symmetry_equiv_pos_site_id
 _symmetry_equiv_pos_as_xyz
  1  'x, y, z'
loop_
 _atom_site_type_symbol
 _atom_site_label
 _atom_site_symmetry_multiplicity
 _atom_site_fract_x
 _atom_site_fract_y
 _atom_site_fract_z
 _atom_site_occupancy
  Sr  Sr0  1  0.095588  0.888012  0.207665  1
  Sr  Sr1  1  0.904412  0.111988  0.792335  1
  Sr  Sr2  1  0.319702  0.612045  0.707714  1
  Sr  Sr3  1  0.680298  0.387955  0.292286  1
  Li  Li4  1  0.500031  0.750074  0.250099  1
  Li  Li5  1  0.499969  0.249926  0.749901  1
  Cu  Cu6  1  0.272115  0.022435  0.750089  1
  Cu  Cu7  1  0.727915  0.478334  0.750465  1
  Cu  Cu8  1  0.272085  0.521666  0.249535  1
  Cu  Cu9  1  0.727885  0.977565  0.249911  1
  P  P10  1  0.484057  0.125445  0.358772  1
  P  P11  1  0.515943  0.874555  0.641228  1
  P  P12  1  0.233369  0.374589  0.858834  1
  P  P13  1  0.766631  0.625411  0.141166  1
  P  P14  1  0.975798  0.351143  0.624713  1
  P  P15  1  0.024202  0.648857  0.375287  1
  P  P16  1  0.726347  0.851018  0.875356  1
  P  P17  1  0.273653  0.148982  0.124644  1
