# generated using pymatgen
data_Tb2U2As6Ru7
_symmetry_space_group_name_H-M   'P 1'
_cell_length_a   7.20905221
_cell_length_b   7.20905168
_cell_length_c   7.27496526
_cell_angle_alpha   109.30861442
_cell_angle_beta   109.30861429
_cell_angle_gamma   109.42914373
_symmetry_Int_Tables_number   1
_chemical_formula_structural   Tb2U2As6Ru7
_chemical_formula_sum   'Tb2 U2 As6 Ru7'
_cell_volume   292.35999627
_cell_formula_units_Z   1
loop_
 _symmetry_equiv_pos_site_id
 _symmetry_equiv_pos_as_xyz
  1  'x, y, z'
loop_
 _atom_site_type_symbol
 _atom_site_label
 _atom_site_symmetry_multiplicity
 _atom_site_fract_x
 _atom_site_fract_y
 _atom_site_fract_z
 _atom_site_occupancy
  Tb  Tb0  1  0.500000  0.000000  0.000000  1
  Tb  Tb1  1  0.000000  0.500000  0.000000  1
  U  U2  1  0.000000  0.000000  0.500000  1
  U  U3  1  0.500000  0.500000  0.500000  1
  As  As4  1  0.314077  0.996896  0.310974  1
  As  As5  1  0.996896  0.314077  0.310974  1
  As  As6  1  0.003104  0.685923  0.689026  1
  As  As7  1  0.314119  0.314119  0.000000  1
  As  As8  1  0.685881  0.685881  0.000000  1
  As  As9  1  0.685923  0.003104  0.689026  1
  Ru  Ru10  1  0.750449  0.508011  0.258460  1
  Ru  Ru11  1  0.508011  0.750449  0.258460  1
  Ru  Ru12  1  0.491989  0.249551  0.741540  1
  Ru  Ru13  1  0.750000  0.250000  0.500000  1
  Ru  Ru14  1  0.250000  0.750000  0.500000  1
  Ru  Ru15  1  0.249551  0.491989  0.741540  1
  Ru  Ru16  1  0.000000  0.000000  0.000000  1
