# generated using pymatgen
data_YIn6IrCl12
_symmetry_space_group_name_H-M   'P 1'
_cell_length_a   8.87376547
_cell_length_b   8.87376439
_cell_length_c   8.87376547
_cell_angle_alpha   104.85394230
_cell_angle_beta   104.85395396
_cell_angle_gamma   104.85395265
_symmetry_Int_Tables_number   1
_chemical_formula_structural   YIn6IrCl12
_chemical_formula_sum   'Y1 In6 Ir1 Cl12'
_cell_volume   612.81496245
_cell_formula_units_Z   1
loop_
 _symmetry_equiv_pos_site_id
 _symmetry_equiv_pos_as_xyz
  1  'x, y, z'
loop_
 _atom_site_type_symbol
 _atom_site_label
 _atom_site_symmetry_multiplicity
 _atom_site_fract_x
 _atom_site_fract_y
 _atom_site_fract_z
 _atom_site_occupancy
  Y  Y0  1  0.500000  0.500000  0.500000  1
  In  In1  1  0.053904  0.062683  0.318454  1
  In  In2  1  0.318454  0.053904  0.062683  1
  In  In3  1  0.062683  0.318454  0.053904  1
  In  In4  1  0.946096  0.937317  0.681546  1
  In  In5  1  0.681546  0.946096  0.937317  1
  In  In6  1  0.937317  0.681546  0.946096  1
  Ir  Ir7  1  0.000000  0.000000  0.000000  1
  Cl  Cl8  1  0.985199  0.563292  0.190114  1
  Cl  Cl9  1  0.190114  0.985199  0.563292  1
  Cl  Cl10  1  0.563292  0.190114  0.985199  1
  Cl  Cl11  1  0.014801  0.436708  0.809886  1
  Cl  Cl12  1  0.809886  0.014801  0.436708  1
  Cl  Cl13  1  0.436708  0.809886  0.014801  1
  Cl  Cl14  1  0.490588  0.188393  0.383408  1
  Cl  Cl15  1  0.383408  0.490588  0.188393  1
  Cl  Cl16  1  0.188393  0.383408  0.490588  1
  Cl  Cl17  1  0.509412  0.811607  0.616592  1
  Cl  Cl18  1  0.616592  0.509412  0.811607  1
  Cl  Cl19  1  0.811607  0.616592  0.509412  1
