# generated using pymatgen
data_Zr24P7Se
_symmetry_space_group_name_H-M   'P 1'
_cell_length_a   10.88017305
_cell_length_b   10.88012904
_cell_length_c   5.39806400
_cell_angle_alpha   89.93981833
_cell_angle_beta   90.03534982
_cell_angle_gamma   90.03604508
_symmetry_Int_Tables_number   1
_chemical_formula_structural   Zr24P7Se
_chemical_formula_sum   'Zr24 P7 Se1'
_cell_volume   639.00972933
_cell_formula_units_Z   1
loop_
 _symmetry_equiv_pos_site_id
 _symmetry_equiv_pos_as_xyz
  1  'x, y, z'
loop_
 _atom_site_type_symbol
 _atom_site_label
 _atom_site_symmetry_multiplicity
 _atom_site_fract_x
 _atom_site_fract_y
 _atom_site_fract_z
 _atom_site_occupancy
  Zr  Zr0  1  0.027760  0.862305  0.278670  1
  Zr  Zr1  1  0.359774  0.476351  0.780452  1
  Zr  Zr2  1  0.638228  0.532365  0.778959  1
  Zr  Zr3  1  0.973039  0.137320  0.278643  1
  Zr  Zr4  1  0.471921  0.637725  0.222528  1
  Zr  Zr5  1  0.136890  0.027624  0.722230  1
  Zr  Zr6  1  0.863199  0.972104  0.720675  1
  Zr  Zr7  1  0.527235  0.365729  0.219249  1
  Zr  Zr8  1  0.284799  0.820346  0.984498  1
  Zr  Zr9  1  0.317159  0.214150  0.481251  1
  Zr  Zr10  1  0.679504  0.785081  0.484410  1
  Zr  Zr11  1  0.718230  0.178246  0.988672  1
  Zr  Zr12  1  0.214549  0.679845  0.514769  1
  Zr  Zr13  1  0.179528  0.285107  0.014503  1
  Zr  Zr14  1  0.821192  0.715258  0.015704  1
  Zr  Zr15  1  0.788027  0.320896  0.513263  1
  Zr  Zr16  1  0.893505  0.414774  0.038759  1
  Zr  Zr17  1  0.915168  0.606904  0.538113  1
  Zr  Zr18  1  0.085005  0.393150  0.538531  1
  Zr  Zr19  1  0.106631  0.585241  0.038164  1
  Zr  Zr20  1  0.608441  0.081446  0.456034  1
  Zr  Zr21  1  0.585339  0.893050  0.961170  1
  Zr  Zr22  1  0.412491  0.102913  0.967367  1
  Zr  Zr23  1  0.393263  0.914514  0.461706  1
  P  P24  1  0.794737  0.958249  0.212175  1
  P  P25  1  0.205307  0.039413  0.213792  1
  P  P26  1  0.459132  0.707041  0.713773  1
  P  P27  1  0.959617  0.206183  0.787310  1
  P  P28  1  0.706995  0.540948  0.287336  1
  P  P29  1  0.292997  0.459793  0.286906  1
  P  P30  1  0.040790  0.793502  0.786880  1
  Se  Se31  1  0.539546  0.292429  0.713510  1
