# generated using pymatgen
data_U3Al24BiPt9
_symmetry_space_group_name_H-M   'P 1'
_cell_length_a   7.57992391
_cell_length_b   7.58893564
_cell_length_c   13.22692063
_cell_angle_alpha   84.38414710
_cell_angle_beta   79.00199994
_cell_angle_gamma   59.90300611
_symmetry_Int_Tables_number   1
_chemical_formula_structural   U3Al24BiPt9
_chemical_formula_sum   'U3 Al24 Bi1 Pt9'
_cell_volume   646.18648884
_cell_formula_units_Z   1
loop_
 _symmetry_equiv_pos_site_id
 _symmetry_equiv_pos_as_xyz
  1  'x, y, z'
loop_
 _atom_site_type_symbol
 _atom_site_label
 _atom_site_symmetry_multiplicity
 _atom_site_fract_x
 _atom_site_fract_y
 _atom_site_fract_z
 _atom_site_occupancy
  U  U0  1  0.604379  0.833444  0.194580  1
  U  U1  1  0.735068  0.497894  0.805678  1
  U  U2  1  0.265071  0.499474  0.195126  1
  Al  Al3  1  0.677594  0.836225  0.948151  1
  Al  Al4  1  0.317572  0.164530  0.055240  1
  Al  Al5  1  0.145996  0.833453  0.559769  1
  Al  Al6  1  0.853674  0.167307  0.437374  1
  Al  Al7  1  0.484634  0.166351  0.552722  1
  Al  Al8  1  0.519321  0.834366  0.440193  1
  Al  Al9  1  0.215861  0.165818  0.328829  1
  Al  Al10  1  0.787039  0.832247  0.668365  1
  Al  Al11  1  0.437462  0.509947  0.667840  1
  Al  Al12  1  0.562753  0.494733  0.329065  1
  Al  Al13  1  0.109159  0.156841  0.666308  1
  Al  Al14  1  0.890255  0.842633  0.330381  1
  Al  Al15  1  0.353487  0.493795  0.948242  1
  Al  Al16  1  0.646399  0.500797  0.054817  1
  Al  Al17  1  0.018335  0.168077  0.955087  1
  Al  Al18  1  0.984413  0.829783  0.050509  1
  Al  Al19  1  0.187326  0.499809  0.440516  1
  Al  Al20  1  0.814178  0.499666  0.558122  1
  Al  Al21  1  0.736757  0.164832  0.183091  1
  Al  Al22  1  0.269866  0.825722  0.820133  1
  Al  Al23  1  0.049822  0.637283  0.818900  1
  Al  Al24  1  0.937751  0.369647  0.184941  1
  Al  Al25  1  0.859831  0.044533  0.819698  1
  Al  Al26  1  0.143582  0.960130  0.184520  1
  Bi  Bi27  1  0.394784  0.172290  0.792915  1
  Pt  Pt28  1  0.122977  0.491939  0.637418  1
  Pt  Pt29  1  0.878976  0.508600  0.362662  1
  Pt  Pt30  1  0.662742  0.167464  0.003470  1
  Pt  Pt31  1  0.337566  0.826287  0.004433  1
  Pt  Pt32  1  0.537702  0.168521  0.359620  1
  Pt  Pt33  1  0.461808  0.833693  0.637102  1
  Pt  Pt34  1  0.780410  0.172226  0.636208  1
  Pt  Pt35  1  0.218974  0.827000  0.364247  1
  Pt  Pt36  1  0.996477  0.502642  0.003728  1
