# generated using pymatgen
data_Tm6TaO12
_symmetry_space_group_name_H-M   'P 1'
_cell_length_a   6.39489055
_cell_length_b   6.39459598
_cell_length_c   6.39466159
_cell_angle_alpha   98.86008648
_cell_angle_beta   98.85987566
_cell_angle_gamma   98.86212443
_symmetry_Int_Tables_number   1
_chemical_formula_structural   Tm6TaO12
_chemical_formula_sum   'Tm6 Ta1 O12'
_cell_volume   251.02354105
_cell_formula_units_Z   1
loop_
 _symmetry_equiv_pos_site_id
 _symmetry_equiv_pos_as_xyz
  1  'x, y, z'
loop_
 _atom_site_type_symbol
 _atom_site_label
 _atom_site_symmetry_multiplicity
 _atom_site_fract_x
 _atom_site_fract_y
 _atom_site_fract_z
 _atom_site_occupancy
  Tm  Tm0  1  0.611008  0.306218  0.138846  1
  Tm  Tm1  1  0.138836  0.611003  0.306219  1
  Tm  Tm2  1  0.693776  0.861161  0.388994  1
  Tm  Tm3  1  0.306224  0.138839  0.611006  1
  Tm  Tm4  1  0.861164  0.388997  0.693781  1
  Tm  Tm5  1  0.388992  0.693782  0.861154  1
  Ta  Ta6  1  0.000000  0.000000  0.000000  1
  O  O7  1  0.693943  0.922658  0.043439  1
  O  O8  1  0.956562  0.306059  0.077339  1
  O  O9  1  0.433095  0.585976  0.178789  1
  O  O10  1  0.077339  0.956561  0.306057  1
  O  O11  1  0.821216  0.566912  0.414016  1
  O  O12  1  0.585985  0.178791  0.433090  1
  O  O13  1  0.414015  0.821209  0.566910  1
  O  O14  1  0.178784  0.433088  0.585984  1
  O  O15  1  0.922661  0.043439  0.693943  1
  O  O16  1  0.566905  0.414024  0.821211  1
  O  O17  1  0.043438  0.693941  0.922661  1
  O  O18  1  0.306057  0.077341  0.956561  1
