# generated using pymatgen
data_Rb3AgF6
_symmetry_space_group_name_H-M   'P 1'
_cell_length_a   6.54699895
_cell_length_b   6.54691981
_cell_length_c   6.54690866
_cell_angle_alpha   62.56982765
_cell_angle_beta   62.56914710
_cell_angle_gamma   62.56969949
_symmetry_Int_Tables_number   1
_chemical_formula_structural   Rb3AgF6
_chemical_formula_sum   'Rb3 Ag1 F6'
_cell_volume   209.78355399
_cell_formula_units_Z   1
loop_
 _symmetry_equiv_pos_site_id
 _symmetry_equiv_pos_as_xyz
  1  'x, y, z'
loop_
 _atom_site_type_symbol
 _atom_site_label
 _atom_site_symmetry_multiplicity
 _atom_site_fract_x
 _atom_site_fract_y
 _atom_site_fract_z
 _atom_site_occupancy
  Rb  Rb0  1  0.912634  0.912631  0.912637  1
  Rb  Rb1  1  0.649400  0.649397  0.649398  1
  Rb  Rb2  1  0.387442  0.387446  0.387436  1
  Ag  Ag3  1  0.149872  0.149869  0.149872  1
  F  F4  1  0.280665  0.452724  0.953223  1
  F  F5  1  0.953222  0.280659  0.452718  1
  F  F6  1  0.452714  0.953214  0.280672  1
  F  F7  1  0.348768  0.018031  0.847258  1
  F  F8  1  0.018024  0.847253  0.348766  1
  F  F9  1  0.847260  0.348775  0.018020  1
