# generated using pymatgen
data_Hf2Ga2Ru3Rh
_symmetry_space_group_name_H-M   'P 1'
_cell_length_a   4.44705203
_cell_length_b   6.29928904
_cell_length_c   13.28895003
_cell_angle_alpha   89.99422143
_cell_angle_beta   90.00447053
_cell_angle_gamma   90.01188815
_symmetry_Int_Tables_number   1
_chemical_formula_structural   Hf2Ga2Ru3Rh
_chemical_formula_sum   'Hf6 Ga6 Ru9 Rh3'
_cell_volume   372.26688232
_cell_formula_units_Z   3
loop_
 _symmetry_equiv_pos_site_id
 _symmetry_equiv_pos_as_xyz
  1  'x, y, z'
loop_
 _atom_site_type_symbol
 _atom_site_label
 _atom_site_symmetry_multiplicity
 _atom_site_fract_x
 _atom_site_fract_y
 _atom_site_fract_z
 _atom_site_occupancy
  Hf  Hf0  1  0.000020  0.999733  0.002777  1
  Hf  Hf1  1  0.500069  0.500751  0.166885  1
  Hf  Hf2  1  0.000079  0.999832  0.333130  1
  Hf  Hf3  1  0.500001  0.498340  0.498290  1
  Hf  Hf4  1  0.999966  0.002001  0.664107  1
  Hf  Hf5  1  0.499962  0.498910  0.834881  1
  Ga  Ga6  1  0.999997  0.499633  0.002642  1
  Ga  Ga7  1  0.500042  0.999782  0.166474  1
  Ga  Ga8  1  0.000049  0.499719  0.333414  1
  Ga  Ga9  1  0.500012  0.002187  0.498778  1
  Ga  Ga10  1  0.999924  0.496954  0.664018  1
  Ga  Ga11  1  0.499951  0.002122  0.834663  1
  Ru  Ru12  1  0.500142  0.249993  0.998264  1
  Ru  Ru13  1  0.499854  0.750223  0.997648  1
  Ru  Ru14  1  0.999991  0.250507  0.166232  1
  Ru  Ru15  1  0.000147  0.749796  0.166213  1
  Ru  Ru16  1  0.500119  0.249366  0.333217  1
  Ru  Ru17  1  0.499976  0.750881  0.333898  1
  Ru  Ru18  1  0.999757  0.249572  0.501361  1
  Ru  Ru19  1  0.000176  0.750117  0.501359  1
  Ru  Ru20  1  0.499971  0.249559  0.668392  1
  Rh  Rh21  1  0.499902  0.750497  0.668175  1
  Rh  Rh22  1  0.999924  0.251317  0.832758  1
  Rh  Rh23  1  0.999971  0.748221  0.832424  1
