# generated using pymatgen
data_ErTm15(In3Fe)2
_symmetry_space_group_name_H-M   'P 1'
_cell_length_a   10.18124200
_cell_length_b   10.18124181
_cell_length_c   6.90703300
_cell_angle_alpha   90.00000000
_cell_angle_beta   90.00000000
_cell_angle_gamma   120.00000060
_symmetry_Int_Tables_number   1
_chemical_formula_structural   ErTm15(In3Fe)2
_chemical_formula_sum   'Er1 Tm15 In6 Fe2'
_cell_volume   620.04566129
_cell_formula_units_Z   1
loop_
 _symmetry_equiv_pos_site_id
 _symmetry_equiv_pos_as_xyz
  1  'x, y, z'
loop_
 _atom_site_type_symbol
 _atom_site_label
 _atom_site_symmetry_multiplicity
 _atom_site_fract_x
 _atom_site_fract_y
 _atom_site_fract_z
 _atom_site_occupancy
  Er  Er0  1  0.000000  0.000000  0.279340  1
  Tm  Tm1  1  0.534523  0.069045  0.792519  1
  Tm  Tm2  1  0.930955  0.465477  0.792519  1
  Tm  Tm3  1  0.534523  0.465477  0.792519  1
  Tm  Tm4  1  0.465488  0.930977  0.292505  1
  Tm  Tm5  1  0.069023  0.534512  0.292505  1
  Tm  Tm6  1  0.465488  0.534512  0.292505  1
  Tm  Tm7  1  0.820876  0.641753  0.498257  1
  Tm  Tm8  1  0.358247  0.179124  0.498257  1
  Tm  Tm9  1  0.820876  0.179124  0.498257  1
  Tm  Tm10  1  0.179099  0.358196  0.997970  1
  Tm  Tm11  1  0.641804  0.820901  0.997970  1
  Tm  Tm12  1  0.179099  0.820901  0.997970  1
  Tm  Tm13  1  0.666667  0.333333  0.179074  1
  Tm  Tm14  1  0.333333  0.666667  0.679238  1
  Tm  Tm15  1  0.000000  0.000000  0.779326  1
  In  In16  1  0.837016  0.674033  0.039483  1
  In  In17  1  0.325967  0.162984  0.039483  1
  In  In18  1  0.837016  0.162984  0.039483  1
  In  In19  1  0.162974  0.325946  0.540040  1
  In  In20  1  0.674054  0.837026  0.540040  1
  In  In21  1  0.162974  0.837026  0.540040  1
  Fe  Fe22  1  0.666667  0.333333  0.568222  1
  Fe  Fe23  1  0.333333  0.666667  0.068386  1
