# generated using pymatgen
data_Nd4DyP12Ir9Ru10
_symmetry_space_group_name_H-M   'P 1'
_cell_length_a   12.67853224
_cell_length_b   12.64691718
_cell_length_c   3.99798900
_cell_angle_alpha   90.00000000
_cell_angle_beta   90.00000000
_cell_angle_gamma   119.84464045
_symmetry_Int_Tables_number   1
_chemical_formula_structural   Nd4DyP12Ir9Ru10
_chemical_formula_sum   'Nd4 Dy1 P12 Ir9 Ru10'
_cell_volume   556.03693951
_cell_formula_units_Z   1
loop_
 _symmetry_equiv_pos_site_id
 _symmetry_equiv_pos_as_xyz
  1  'x, y, z'
loop_
 _atom_site_type_symbol
 _atom_site_label
 _atom_site_symmetry_multiplicity
 _atom_site_fract_x
 _atom_site_fract_y
 _atom_site_fract_z
 _atom_site_occupancy
  Nd  Nd0  1  0.667452  0.332396  0.000000  1
  Nd  Nd1  1  0.812606  0.000727  0.500000  1
  Nd  Nd2  1  0.185448  0.187615  0.500000  1
  Nd  Nd3  1  0.000376  0.813762  0.500000  1
  Dy  Dy4  1  0.333467  0.666740  0.000000  1
  P  P5  1  0.629374  0.997306  0.000000  1
  P  P6  1  0.366758  0.372976  0.000000  1
  P  P7  1  0.006415  0.633347  0.000000  1
  P  P8  1  0.690081  0.520448  0.500000  1
  P  P9  1  0.830146  0.306107  0.500000  1
  P  P10  1  0.312033  0.828377  0.500000  1
  P  P11  1  0.516336  0.687710  0.500000  1
  P  P12  1  0.183157  0.000848  0.000000  1
  P  P13  1  0.815986  0.816611  0.000000  1
  P  P14  1  0.997415  0.184631  0.000000  1
  P  P15  1  0.478968  0.167460  0.500000  1
  P  P16  1  0.172059  0.484293  0.500000  1
  Ir  Ir17  1  0.620294  0.800937  0.000000  1
  Ir  Ir18  1  0.181722  0.380441  0.000000  1
  Ir  Ir19  1  0.376592  0.183761  0.000000  1
  Ir  Ir20  1  0.198663  0.820235  0.000000  1
  Ir  Ir21  1  0.807064  0.623204  0.000000  1
  Ir  Ir22  1  0.871400  0.507080  0.500000  1
  Ir  Ir23  1  0.492151  0.362110  0.500000  1
  Ir  Ir24  1  0.635357  0.125401  0.500000  1
  Ir  Ir25  1  0.999390  0.000249  0.000000  1
  Ru  Ru26  1  0.127589  0.638703  0.500000  1
  Ru  Ru27  1  0.362765  0.489829  0.500000  1
  Ru  Ru28  1  0.509116  0.870577  0.500000  1
  Ru  Ru29  1  0.712008  0.711313  0.500000  1
  Ru  Ru30  1  0.001697  0.289370  0.500000  1
  Ru  Ru31  1  0.450420  0.000850  0.000000  1
  Ru  Ru32  1  0.551128  0.547445  0.000000  1
  Ru  Ru33  1  0.999373  0.450524  0.000000  1
  Ru  Ru34  1  0.817217  0.195865  0.000000  1
  Ru  Ru35  1  0.287980  0.000751  0.500000  1
