# generated using pymatgen
data_Tb4Ga18Co3IrPt2
_symmetry_space_group_name_H-M   'P 1'
_cell_length_a   7.53223982
_cell_length_b   7.53220114
_cell_length_c   9.46914857
_cell_angle_alpha   89.93716011
_cell_angle_beta   89.93748514
_cell_angle_gamma   119.68524130
_symmetry_Int_Tables_number   1
_chemical_formula_structural   Tb4Ga18Co3IrPt2
_chemical_formula_sum   'Tb4 Ga18 Co3 Ir1 Pt2'
_cell_volume   466.71882743
_cell_formula_units_Z   1
loop_
 _symmetry_equiv_pos_site_id
 _symmetry_equiv_pos_as_xyz
  1  'x, y, z'
loop_
 _atom_site_type_symbol
 _atom_site_label
 _atom_site_symmetry_multiplicity
 _atom_site_fract_x
 _atom_site_fract_y
 _atom_site_fract_z
 _atom_site_occupancy
  Tb  Tb0  1  0.992410  0.673568  0.249455  1
  Tb  Tb1  1  0.998924  0.320773  0.749962  1
  Tb  Tb2  1  0.679227  0.001075  0.250037  1
  Tb  Tb3  1  0.326431  0.007590  0.750545  1
  Ga  Ga4  1  0.142812  0.141833  0.249236  1
  Ga  Ga5  1  0.858167  0.857187  0.750764  1
  Ga  Ga6  1  0.998740  0.345678  0.075502  1
  Ga  Ga7  1  0.004808  0.655758  0.924043  1
  Ga  Ga8  1  0.010990  0.661240  0.578261  1
  Ga  Ga9  1  0.338760  0.989011  0.421739  1
  Ga  Ga10  1  0.010579  0.347512  0.422227  1
  Ga  Ga11  1  0.652487  0.989420  0.577774  1
  Ga  Ga12  1  0.654323  0.001261  0.924497  1
  Ga  Ga13  1  0.344242  0.995191  0.075956  1
  Ga  Ga14  1  0.338755  0.345092  0.565825  1
  Ga  Ga15  1  0.654909  0.661245  0.434177  1
  Ga  Ga16  1  0.656254  0.658049  0.062662  1
  Ga  Ga17  1  0.341951  0.343746  0.937338  1
  Ga  Ga18  1  0.335536  0.561294  0.248431  1
  Ga  Ga19  1  0.665755  0.449706  0.756179  1
  Ga  Ga20  1  0.550294  0.334245  0.243821  1
  Ga  Ga21  1  0.438704  0.664464  0.751569  1
  Co  Co22  1  0.670803  0.329197  0.000000  1
  Co  Co23  1  0.330008  0.669992  0.000000  1
  Co  Co24  1  0.330635  0.669366  0.500000  1
  Ir  Ir25  1  0.672326  0.327673  0.500000  1
  Pt  Pt26  1  0.000477  0.999524  0.000000  1
  Pt  Pt27  1  0.000691  0.999311  0.500001  1
