# generated using pymatgen
data_YEr(OsO3)6
_symmetry_space_group_name_H-M   'P 1'
_cell_length_a   7.37019300
_cell_length_b   5.19451786
_cell_length_c   8.21547705
_cell_angle_alpha   85.44306489
_cell_angle_beta   90.00000000
_cell_angle_gamma   90.00000000
_symmetry_Int_Tables_number   1
_chemical_formula_structural   YEr(OsO3)6
_chemical_formula_sum   'Y1 Er1 Os6 O18'
_cell_volume   313.53198971
_cell_formula_units_Z   1
loop_
 _symmetry_equiv_pos_site_id
 _symmetry_equiv_pos_as_xyz
  1  'x, y, z'
loop_
 _atom_site_type_symbol
 _atom_site_label
 _atom_site_symmetry_multiplicity
 _atom_site_fract_x
 _atom_site_fract_y
 _atom_site_fract_z
 _atom_site_occupancy
  Y  Y0  1  0.750000  0.027963  0.572013  1
  Er  Er1  1  0.250000  0.970307  0.427633  1
  Os  Os2  1  0.000231  0.999718  0.000381  1
  Os  Os3  1  0.499769  0.999718  0.000381  1
  Os  Os4  1  0.494915  0.538282  0.692361  1
  Os  Os5  1  0.005085  0.538282  0.692361  1
  Os  Os6  1  0.996151  0.460873  0.307229  1
  Os  Os7  1  0.503849  0.460873  0.307229  1
  O  O8  1  0.250000  0.899213  0.983974  1
  O  O9  1  0.934690  0.851897  0.789893  1
  O  O10  1  0.565310  0.851897  0.789893  1
  O  O11  1  0.961383  0.741323  0.470597  1
  O  O12  1  0.538617  0.741323  0.470597  1
  O  O13  1  0.250000  0.670801  0.662964  1
  O  O14  1  0.955689  0.683886  0.122008  1
  O  O15  1  0.544311  0.683886  0.122008  1
  O  O16  1  0.250000  0.587468  0.312459  1
  O  O17  1  0.750000  0.416567  0.687216  1
  O  O18  1  0.044452  0.315274  0.878423  1
  O  O19  1  0.455548  0.315274  0.878423  1
  O  O20  1  0.750000  0.334733  0.334871  1
  O  O21  1  0.042490  0.259010  0.528292  1
  O  O22  1  0.457510  0.259010  0.528292  1
  O  O23  1  0.067109  0.145967  0.211807  1
  O  O24  1  0.432891  0.145967  0.211807  1
  O  O25  1  0.750000  0.100485  0.016890  1
