# generated using pymatgen
data_Tb8TmThIr4
_symmetry_space_group_name_H-M   'P 1'
_cell_length_a   6.47899529
_cell_length_b   7.21566913
_cell_length_c   8.68441638
_cell_angle_alpha   96.54299827
_cell_angle_beta   111.90224883
_cell_angle_gamma   89.99999770
_symmetry_Int_Tables_number   1
_chemical_formula_structural   Tb8TmThIr4
_chemical_formula_sum   'Tb8 Tm1 Th1 Ir4'
_cell_volume   373.84294814
_cell_formula_units_Z   1
loop_
 _symmetry_equiv_pos_site_id
 _symmetry_equiv_pos_as_xyz
  1  'x, y, z'
loop_
 _atom_site_type_symbol
 _atom_site_label
 _atom_site_symmetry_multiplicity
 _atom_site_fract_x
 _atom_site_fract_y
 _atom_site_fract_z
 _atom_site_occupancy
  Tb  Tb0  1  0.977156  0.922218  0.185220  1
  Tb  Tb1  1  0.791935  0.577782  0.814780  1
  Tb  Tb2  1  0.018439  0.085529  0.815648  1
  Tb  Tb3  1  0.202792  0.414471  0.184352  1
  Tb  Tb4  1  0.660840  0.814515  0.445502  1
  Tb  Tb5  1  0.215340  0.685485  0.554498  1
  Tb  Tb6  1  0.352433  0.185743  0.563264  1
  Tb  Tb7  1  0.789168  0.314257  0.436736  1
  Tm  Tm8  1  0.568673  0.250000  0.000000  1
  Th  Th9  1  0.422091  0.750000  0.000000  1
  Ir  Ir10  1  0.813871  0.574268  0.215697  1
  Ir  Ir11  1  0.598174  0.925732  0.784303  1
  Ir  Ir12  1  0.184853  0.430127  0.780617  1
  Ir  Ir13  1  0.404235  0.069873  0.219383  1
