# generated using pymatgen
data_Ho3Er(Sc3Ge4)2
_symmetry_space_group_name_H-M   'P 1'
_cell_length_a   7.23176536
_cell_length_b   7.46441114
_cell_length_c   14.06529373
_cell_angle_alpha   90.00334253
_cell_angle_beta   90.22900638
_cell_angle_gamma   89.88585838
_symmetry_Int_Tables_number   1
_chemical_formula_structural   Ho3Er(Sc3Ge4)2
_chemical_formula_sum   'Ho6 Er2 Sc12 Ge16'
_cell_volume   759.24921890
_cell_formula_units_Z   2
loop_
 _symmetry_equiv_pos_site_id
 _symmetry_equiv_pos_as_xyz
  1  'x, y, z'
loop_
 _atom_site_type_symbol
 _atom_site_label
 _atom_site_symmetry_multiplicity
 _atom_site_fract_x
 _atom_site_fract_y
 _atom_site_fract_z
 _atom_site_occupancy
  Ho  Ho0  1  0.501311  0.677671  0.903899  1
  Ho  Ho1  1  0.000223  0.823608  0.596420  1
  Ho  Ho2  1  0.498689  0.322329  0.096101  1
  Ho  Ho3  1  0.999777  0.176392  0.403580  1
  Ho  Ho4  1  0.499786  0.323150  0.403331  1
  Ho  Ho5  1  0.500214  0.676850  0.596669  1
  Er  Er6  1  0.998128  0.176680  0.096201  1
  Er  Er7  1  0.001872  0.823320  0.903799  1
  Sc  Sc8  1  0.175327  0.499815  0.750605  1
  Sc  Sc9  1  0.824673  0.500185  0.249395  1
  Sc  Sc10  1  0.324338  0.999714  0.249346  1
  Sc  Sc11  1  0.675662  0.000286  0.750654  1
  Sc  Sc12  1  0.341378  0.168631  0.624696  1
  Sc  Sc13  1  0.658622  0.831369  0.375304  1
  Sc  Sc14  1  0.158768  0.668577  0.374844  1
  Sc  Sc15  1  0.657287  0.832204  0.124022  1
  Sc  Sc16  1  0.841232  0.331423  0.625156  1
  Sc  Sc17  1  0.342713  0.167796  0.875978  1
  Sc  Sc18  1  0.843175  0.331833  0.875272  1
  Sc  Sc19  1  0.156825  0.668167  0.124728  1
  Ge  Ge20  1  0.040787  0.124835  0.749945  1
  Ge  Ge21  1  0.959213  0.875165  0.250055  1
  Ge  Ge22  1  0.459997  0.625544  0.249935  1
  Ge  Ge23  1  0.540003  0.374456  0.750065  1
  Ge  Ge24  1  0.306692  0.861352  0.750063  1
  Ge  Ge25  1  0.693308  0.138648  0.249937  1
  Ge  Ge26  1  0.193110  0.360171  0.249699  1
  Ge  Ge27  1  0.806890  0.639829  0.750301  1
  Ge  Ge28  1  0.177378  0.459462  0.541569  1
  Ge  Ge29  1  0.822622  0.540538  0.458431  1
  Ge  Ge30  1  0.321717  0.959067  0.458350  1
  Ge  Ge31  1  0.819646  0.539994  0.041763  1
  Ge  Ge32  1  0.678283  0.040933  0.541650  1
  Ge  Ge33  1  0.180354  0.460006  0.958237  1
  Ge  Ge34  1  0.683112  0.041071  0.958236  1
  Ge  Ge35  1  0.316888  0.958929  0.041764  1
