# generated using pymatgen
data_Y3Tm3MgCo17P12
_symmetry_space_group_name_H-M   'P 1'
_cell_length_a   3.70618200
_cell_length_b   10.55083616
_cell_length_c   12.21170618
_cell_angle_alpha   90.01994670
_cell_angle_beta   90.00000000
_cell_angle_gamma   90.00000000
_symmetry_Int_Tables_number   1
_chemical_formula_structural   Y3Tm3MgCo17P12
_chemical_formula_sum   'Y3 Tm3 Mg1 Co17 P12'
_cell_volume   477.51821429
_cell_formula_units_Z   1
loop_
 _symmetry_equiv_pos_site_id
 _symmetry_equiv_pos_as_xyz
  1  'x, y, z'
loop_
 _atom_site_type_symbol
 _atom_site_label
 _atom_site_symmetry_multiplicity
 _atom_site_fract_x
 _atom_site_fract_y
 _atom_site_fract_z
 _atom_site_occupancy
  Y  Y0  1  0.000000  0.500296  0.525057  1
  Y  Y1  1  0.500000  0.999932  0.477984  1
  Y  Y2  1  0.000000  0.317668  0.794893  1
  Tm  Tm3  1  0.500000  0.822055  0.207482  1
  Tm  Tm4  1  0.500000  0.177751  0.206832  1
  Tm  Tm5  1  0.000000  0.682494  0.794884  1
  Mg  Mg6  1  0.500000  0.500157  0.152815  1
  Co  Co7  1  0.000000  0.999756  0.838794  1
  Co  Co8  1  0.500000  0.501431  0.705348  1
  Co  Co9  1  0.000000  0.999750  0.294909  1
  Co  Co10  1  0.000000  0.500684  0.986827  1
  Co  Co11  1  0.500000  0.999330  0.012828  1
  Co  Co12  1  0.500000  0.329023  0.993663  1
  Co  Co13  1  0.500000  0.671438  0.993401  1
  Co  Co14  1  0.000000  0.162725  0.002619  1
  Co  Co15  1  0.000000  0.836585  0.002002  1
  Co  Co16  1  0.500000  0.295428  0.431862  1
  Co  Co17  1  0.500000  0.704732  0.432719  1
  Co  Co18  1  0.000000  0.202384  0.569628  1
  Co  Co19  1  0.000000  0.797575  0.570690  1
  Co  Co20  1  0.500000  0.879189  0.709289  1
  Co  Co21  1  0.500000  0.119669  0.708426  1
  Co  Co22  1  0.000000  0.623655  0.292530  1
  Co  Co23  1  0.000000  0.376473  0.292101  1
  P  P24  1  0.500000  0.501251  0.884018  1
  P  P25  1  0.000000  0.999597  0.116702  1
  P  P26  1  0.500000  0.500082  0.353381  1
  P  P27  1  0.000000  0.000017  0.655360  1
  P  P28  1  0.500000  0.309735  0.616873  1
  P  P29  1  0.500000  0.690594  0.618301  1
  P  P30  1  0.000000  0.188984  0.384046  1
  P  P31  1  0.000000  0.810794  0.384766  1
  P  P32  1  0.500000  0.848778  0.889834  1
  P  P33  1  0.500000  0.149792  0.890426  1
  P  P34  1  0.000000  0.663903  0.104585  1
  P  P35  1  0.000000  0.336292  0.104124  1
