# generated using pymatgen
data_PrTi4BiO12
_symmetry_space_group_name_H-M   'P 1'
_cell_length_a   5.32127711
_cell_length_b   6.71011536
_cell_length_c   7.50438447
_cell_angle_alpha   67.63704584
_cell_angle_beta   68.93831108
_cell_angle_gamma   81.91102449
_symmetry_Int_Tables_number   1
_chemical_formula_structural   PrTi4BiO12
_chemical_formula_sum   'Pr1 Ti4 Bi1 O12'
_cell_volume   231.24505259
_cell_formula_units_Z   1
loop_
 _symmetry_equiv_pos_site_id
 _symmetry_equiv_pos_as_xyz
  1  'x, y, z'
loop_
 _atom_site_type_symbol
 _atom_site_label
 _atom_site_symmetry_multiplicity
 _atom_site_fract_x
 _atom_site_fract_y
 _atom_site_fract_z
 _atom_site_occupancy
  Pr  Pr0  1  0.746167  0.496771  0.749763  1
  Ti  Ti1  1  0.287254  0.893092  0.462193  1
  Ti  Ti2  1  0.800579  0.894952  0.969049  1
  Ti  Ti3  1  0.701165  0.105065  0.530960  1
  Ti  Ti4  1  0.212632  0.106576  0.038789  1
  Bi  Bi5  1  0.251623  0.500536  0.250119  1
  O  O6  1  0.202126  0.609575  0.496696  1
  O  O7  1  0.855482  0.384603  0.451280  1
  O  O8  1  0.010247  0.059296  0.320217  1
  O  O9  1  0.955904  0.884435  0.696058  1
  O  O10  1  0.295939  0.389229  0.006220  1
  O  O11  1  0.645920  0.616273  0.044567  1
  O  O12  1  0.541491  0.822693  0.590224  1
  O  O13  1  0.419046  0.199424  0.415854  1
  O  O14  1  0.489549  0.938090  0.180327  1
  O  O15  1  0.544853  0.121542  0.802629  1
  O  O16  1  0.957344  0.177430  0.911932  1
  O  O17  1  0.082680  0.800419  0.083125  1
