# generated using pymatgen
data_Ca3Yb2(GaSb3)2
_symmetry_space_group_name_H-M   'P 1'
_cell_length_a   4.48704400
_cell_length_b   12.12144300
_cell_length_c   14.03355400
_cell_angle_alpha   90.00000000
_cell_angle_beta   90.00000000
_cell_angle_gamma   90.00000000
_symmetry_Int_Tables_number   1
_chemical_formula_structural   Ca3Yb2(GaSb3)2
_chemical_formula_sum   'Ca6 Yb4 Ga4 Sb12'
_cell_volume   763.27725672
_cell_formula_units_Z   2
loop_
 _symmetry_equiv_pos_site_id
 _symmetry_equiv_pos_as_xyz
  1  'x, y, z'
loop_
 _atom_site_type_symbol
 _atom_site_label
 _atom_site_symmetry_multiplicity
 _atom_site_fract_x
 _atom_site_fract_y
 _atom_site_fract_z
 _atom_site_occupancy
  Ca  Ca0  1  0.500000  0.000000  0.500000  1
  Ca  Ca1  1  0.500000  0.500000  0.000000  1
  Ca  Ca2  1  0.500000  0.908662  0.252861  1
  Ca  Ca3  1  0.500000  0.091338  0.747139  1
  Ca  Ca4  1  0.500000  0.408662  0.247139  1
  Ca  Ca5  1  0.500000  0.591338  0.752861  1
  Yb  Yb6  1  0.500000  0.670872  0.481224  1
  Yb  Yb7  1  0.500000  0.329128  0.518776  1
  Yb  Yb8  1  0.500000  0.829128  0.981224  1
  Yb  Yb9  1  0.500000  0.170872  0.018776  1
  Ga  Ga10  1  0.000000  0.330468  0.711230  1
  Ga  Ga11  1  0.000000  0.669532  0.288770  1
  Ga  Ga12  1  0.000000  0.830468  0.788770  1
  Ga  Ga13  1  0.000000  0.169532  0.211230  1
  Sb  Sb14  1  0.000000  0.973941  0.100109  1
  Sb  Sb15  1  0.000000  0.026059  0.899891  1
  Sb  Sb16  1  0.000000  0.473941  0.399891  1
  Sb  Sb17  1  0.000000  0.526059  0.600109  1
  Sb  Sb18  1  0.500000  0.162848  0.323302  1
  Sb  Sb19  1  0.500000  0.837152  0.676698  1
  Sb  Sb20  1  0.500000  0.662848  0.176698  1
  Sb  Sb21  1  0.500000  0.337152  0.823302  1
  Sb  Sb22  1  0.000000  0.344798  0.090715  1
  Sb  Sb23  1  0.000000  0.655202  0.909285  1
  Sb  Sb24  1  0.000000  0.844798  0.409285  1
  Sb  Sb25  1  0.000000  0.155202  0.590715  1
