# generated using pymatgen
data_Ti6VTc12Mo5
_symmetry_space_group_name_H-M   'P 1'
_cell_length_a   4.37546500
_cell_length_b   6.22209100
_cell_length_c   13.25160200
_cell_angle_alpha   90.00000000
_cell_angle_beta   89.99988709
_cell_angle_gamma   90.00000000
_symmetry_Int_Tables_number   1
_chemical_formula_structural   Ti6VTc12Mo5
_chemical_formula_sum   'Ti6 V1 Tc12 Mo5'
_cell_volume   360.76878723
_cell_formula_units_Z   1
loop_
 _symmetry_equiv_pos_site_id
 _symmetry_equiv_pos_as_xyz
  1  'x, y, z'
loop_
 _atom_site_type_symbol
 _atom_site_label
 _atom_site_symmetry_multiplicity
 _atom_site_fract_x
 _atom_site_fract_y
 _atom_site_fract_z
 _atom_site_occupancy
  Ti  Ti0  1  0.000000  0.500000  0.000000  1
  Ti  Ti1  1  0.499941  0.000000  0.164149  1
  Ti  Ti2  1  0.999944  0.500000  0.331865  1
  Ti  Ti3  1  0.500000  0.000000  0.500000  1
  Ti  Ti4  1  0.000056  0.500000  0.668135  1
  Ti  Ti5  1  0.500058  0.000000  0.835851  1
  V  V6  1  0.000000  0.000000  0.000000  1
  Tc  Tc7  1  0.500000  0.246980  0.000000  1
  Tc  Tc8  1  0.500000  0.753020  0.000000  1
  Tc  Tc9  1  0.999949  0.248485  0.165422  1
  Tc  Tc10  1  0.999949  0.751515  0.165422  1
  Tc  Tc11  1  0.499954  0.249677  0.332990  1
  Tc  Tc12  1  0.499954  0.750322  0.332990  1
  Tc  Tc13  1  0.000000  0.250403  0.500000  1
  Tc  Tc14  1  0.000000  0.749597  0.500000  1
  Tc  Tc15  1  0.500047  0.249677  0.667010  1
  Tc  Tc16  1  0.500047  0.750322  0.667010  1
  Tc  Tc17  1  0.000049  0.248485  0.834578  1
  Tc  Tc18  1  0.000049  0.751515  0.834578  1
  Mo  Mo19  1  0.499949  0.500000  0.164776  1
  Mo  Mo20  1  0.999947  0.000000  0.332000  1
  Mo  Mo21  1  0.500000  0.500000  0.500000  1
  Mo  Mo22  1  0.000054  0.000000  0.668000  1
  Mo  Mo23  1  0.500051  0.500000  0.835224  1
