# generated using pymatgen
data_Pr2Co9Mo3As7
_symmetry_space_group_name_H-M   'P 1'
_cell_length_a   3.89426700
_cell_length_b   9.46457168
_cell_length_c   9.46457200
_cell_angle_alpha   119.99999412
_cell_angle_beta   90.00000000
_cell_angle_gamma   90.00000000
_symmetry_Int_Tables_number   1
_chemical_formula_structural   Pr2Co9Mo3As7
_chemical_formula_sum   'Pr2 Co9 Mo3 As7'
_cell_volume   302.10528731
_cell_formula_units_Z   1
loop_
 _symmetry_equiv_pos_site_id
 _symmetry_equiv_pos_as_xyz
  1  'x, y, z'
loop_
 _atom_site_type_symbol
 _atom_site_label
 _atom_site_symmetry_multiplicity
 _atom_site_fract_x
 _atom_site_fract_y
 _atom_site_fract_z
 _atom_site_occupancy
  Pr  Pr0  1  0.000000  0.666667  0.333333  1
  Pr  Pr1  1  0.500000  0.333333  0.666667  1
  Co  Co2  1  0.000000  0.572428  0.940867  1
  Co  Co3  1  0.000000  0.368439  0.427572  1
  Co  Co4  1  0.000000  0.059133  0.631561  1
  Co  Co5  1  0.000000  0.876010  0.155223  1
  Co  Co6  1  0.000000  0.279213  0.123990  1
  Co  Co7  1  0.000000  0.844777  0.720787  1
  Co  Co8  1  0.500000  0.949948  0.379740  1
  Co  Co9  1  0.500000  0.429791  0.050052  1
  Co  Co10  1  0.500000  0.620260  0.570209  1
  Mo  Mo11  1  0.500000  0.784345  0.901681  1
  Mo  Mo12  1  0.500000  0.117337  0.215655  1
  Mo  Mo13  1  0.500000  0.098319  0.882663  1
  As  As14  1  0.000000  0.000000  0.000000  1
  As  As15  1  0.500000  0.705883  0.113831  1
  As  As16  1  0.500000  0.407949  0.294117  1
  As  As17  1  0.500000  0.886169  0.592051  1
  As  As18  1  0.000000  0.589485  0.698056  1
  As  As19  1  0.000000  0.108573  0.410515  1
  As  As20  1  0.000000  0.301944  0.891427  1
