# generated using pymatgen
data_Zr6Ti3Al13Pt6Rh
_symmetry_space_group_name_H-M   'P 1'
_cell_length_a   8.83766310
_cell_length_b   8.83766282
_cell_length_c   8.83766240
_cell_angle_alpha   59.79405846
_cell_angle_beta   59.79405861
_cell_angle_gamma   59.79405729
_symmetry_Int_Tables_number   1
_chemical_formula_structural   Zr6Ti3Al13Pt6Rh
_chemical_formula_sum   'Zr6 Ti3 Al13 Pt6 Rh1'
_cell_volume   485.80512503
_cell_formula_units_Z   1
loop_
 _symmetry_equiv_pos_site_id
 _symmetry_equiv_pos_as_xyz
  1  'x, y, z'
loop_
 _atom_site_type_symbol
 _atom_site_label
 _atom_site_symmetry_multiplicity
 _atom_site_fract_x
 _atom_site_fract_y
 _atom_site_fract_z
 _atom_site_occupancy
  Zr  Zr0  1  0.689339  0.689339  0.309612  1
  Zr  Zr1  1  0.311274  0.687629  0.311274  1
  Zr  Zr2  1  0.687629  0.311274  0.311274  1
  Zr  Zr3  1  0.311274  0.311274  0.687629  1
  Zr  Zr4  1  0.689339  0.309612  0.689339  1
  Zr  Zr5  1  0.309612  0.689339  0.689339  1
  Ti  Ti6  1  0.880455  0.880455  0.356885  1
  Ti  Ti7  1  0.880455  0.356885  0.880455  1
  Ti  Ti8  1  0.356885  0.880455  0.880455  1
  Al  Al9  1  0.882711  0.882711  0.882711  1
  Al  Al10  1  0.118985  0.118985  0.643361  1
  Al  Al11  1  0.118985  0.643361  0.118985  1
  Al  Al12  1  0.643361  0.118985  0.118985  1
  Al  Al13  1  0.119857  0.119857  0.119857  1
  Al  Al14  1  0.665506  0.665506  0.003574  1
  Al  Al15  1  0.665506  0.003574  0.665506  1
  Al  Al16  1  0.003574  0.665506  0.665506  1
  Al  Al17  1  0.663971  0.663971  0.663971  1
  Al  Al18  1  0.335129  0.335129  0.995494  1
  Al  Al19  1  0.335129  0.995494  0.335129  1
  Al  Al20  1  0.995494  0.335129  0.335129  1
  Al  Al21  1  0.334315  0.334315  0.334315  1
  Pt  Pt22  1  0.999150  0.999150  0.500270  1
  Pt  Pt23  1  0.500445  0.999464  0.500445  1
  Pt  Pt24  1  0.999464  0.500445  0.500445  1
  Pt  Pt25  1  0.500445  0.500445  0.999464  1
  Pt  Pt26  1  0.999150  0.500270  0.999150  1
  Pt  Pt27  1  0.500270  0.999150  0.999150  1
  Rh  Rh28  1  0.002290  0.002290  0.002290  1
