# generated using pymatgen
data_La2SmThSe6
_symmetry_space_group_name_H-M   'P 1'
_cell_length_a   4.23229000
_cell_length_b   11.20376064
_cell_length_c   11.48764330
_cell_angle_alpha   90.49314754
_cell_angle_beta   90.00000000
_cell_angle_gamma   90.00000000
_symmetry_Int_Tables_number   1
_chemical_formula_structural   La2SmThSe6
_chemical_formula_sum   'La4 Sm2 Th2 Se12'
_cell_volume   544.69588642
_cell_formula_units_Z   2
loop_
 _symmetry_equiv_pos_site_id
 _symmetry_equiv_pos_as_xyz
  1  'x, y, z'
loop_
 _atom_site_type_symbol
 _atom_site_label
 _atom_site_symmetry_multiplicity
 _atom_site_fract_x
 _atom_site_fract_y
 _atom_site_fract_z
 _atom_site_occupancy
  La  La0  1  0.250000  0.000121  0.695539  1
  La  La1  1  0.750000  0.999879  0.304461  1
  La  La2  1  0.750000  0.493927  0.809116  1
  La  La3  1  0.250000  0.506073  0.190884  1
  Sm  Sm4  1  0.750000  0.813717  0.986422  1
  Sm  Sm5  1  0.250000  0.186283  0.013578  1
  Th  Th6  1  0.250000  0.312301  0.511702  1
  Th  Th7  1  0.750000  0.687699  0.488298  1
  Se  Se8  1  0.750000  0.054623  0.884429  1
  Se  Se9  1  0.250000  0.945377  0.115571  1
  Se  Se10  1  0.250000  0.555669  0.619144  1
  Se  Se11  1  0.750000  0.444331  0.380856  1
  Se  Se12  1  0.250000  0.870657  0.453103  1
  Se  Se13  1  0.750000  0.129343  0.546897  1
  Se  Se14  1  0.750000  0.367920  0.047592  1
  Se  Se15  1  0.250000  0.632080  0.952408  1
  Se  Se16  1  0.250000  0.293923  0.769351  1
  Se  Se17  1  0.750000  0.706077  0.230649  1
  Se  Se18  1  0.750000  0.796973  0.725202  1
  Se  Se19  1  0.250000  0.203027  0.274798  1
