# generated using pymatgen
data_La5Dy3(Sc3Pt4)4
_symmetry_space_group_name_H-M   'P 1'
_cell_length_a   7.54722228
_cell_length_b   7.50176268
_cell_length_c   13.81944850
_cell_angle_alpha   89.84882739
_cell_angle_beta   90.33046232
_cell_angle_gamma   90.03269139
_symmetry_Int_Tables_number   1
_chemical_formula_structural   La5Dy3(Sc3Pt4)4
_chemical_formula_sum   'La5 Dy3 Sc12 Pt16'
_cell_volume   782.40635824
_cell_formula_units_Z   1
loop_
 _symmetry_equiv_pos_site_id
 _symmetry_equiv_pos_as_xyz
  1  'x, y, z'
loop_
 _atom_site_type_symbol
 _atom_site_label
 _atom_site_symmetry_multiplicity
 _atom_site_fract_x
 _atom_site_fract_y
 _atom_site_fract_z
 _atom_site_occupancy
  La  La0  1  0.007810  0.175073  0.097727  1
  La  La1  1  0.992019  0.825172  0.903089  1
  La  La2  1  0.492226  0.675188  0.903624  1
  La  La3  1  0.990637  0.826276  0.593377  1
  La  La4  1  0.507787  0.324518  0.097578  1
  Dy  Dy5  1  0.009569  0.177544  0.402569  1
  Dy  Dy6  1  0.508774  0.325572  0.404242  1
  Dy  Dy7  1  0.489350  0.672989  0.595700  1
  Sc  Sc8  1  0.167044  0.493314  0.745997  1
  Sc  Sc9  1  0.834191  0.505406  0.254634  1
  Sc  Sc10  1  0.334125  0.995528  0.254616  1
  Sc  Sc11  1  0.663041  0.005677  0.746150  1
  Sc  Sc12  1  0.335696  0.166905  0.621976  1
  Sc  Sc13  1  0.665891  0.835419  0.378212  1
  Sc  Sc14  1  0.170503  0.662015  0.376582  1
  Sc  Sc15  1  0.665839  0.837057  0.129695  1
  Sc  Sc16  1  0.832331  0.335609  0.621523  1
  Sc  Sc17  1  0.335382  0.163297  0.871757  1
  Sc  Sc18  1  0.834265  0.337515  0.871586  1
  Sc  Sc19  1  0.165159  0.663553  0.129403  1
  Pt  Pt20  1  0.034217  0.134770  0.748272  1
  Pt  Pt21  1  0.967703  0.869156  0.254490  1
  Pt  Pt22  1  0.468319  0.630804  0.253396  1
  Pt  Pt23  1  0.532126  0.368428  0.746637  1
  Pt  Pt24  1  0.298697  0.860747  0.745790  1
  Pt  Pt25  1  0.705005  0.140028  0.256431  1
  Pt  Pt26  1  0.205387  0.359727  0.255849  1
  Pt  Pt27  1  0.792400  0.637204  0.746127  1
  Pt  Pt28  1  0.173213  0.451494  0.541716  1
  Pt  Pt29  1  0.826290  0.537748  0.454242  1
  Pt  Pt30  1  0.329483  0.959288  0.454089  1
  Pt  Pt31  1  0.832374  0.548950  0.046156  1
  Pt  Pt32  1  0.664892  0.047480  0.542580  1
  Pt  Pt33  1  0.167797  0.450601  0.954042  1
  Pt  Pt34  1  0.667873  0.048793  0.953962  1
  Pt  Pt35  1  0.332585  0.951155  0.046185  1
