# generated using pymatgen
data_Lu12InFe3Hg
_symmetry_space_group_name_H-M   'P 1'
_cell_length_a   8.15387140
_cell_length_b   8.15387207
_cell_length_c   8.15387111
_cell_angle_alpha   107.44115764
_cell_angle_beta   109.04374873
_cell_angle_gamma   111.96151654
_symmetry_Int_Tables_number   1
_chemical_formula_structural   Lu12InFe3Hg
_chemical_formula_sum   'Lu12 In1 Fe3 Hg1'
_cell_volume   416.64850606
_cell_formula_units_Z   1
loop_
 _symmetry_equiv_pos_site_id
 _symmetry_equiv_pos_as_xyz
  1  'x, y, z'
loop_
 _atom_site_type_symbol
 _atom_site_label
 _atom_site_symmetry_multiplicity
 _atom_site_fract_x
 _atom_site_fract_y
 _atom_site_fract_z
 _atom_site_occupancy
  Lu  Lu0  1  0.308133  0.309028  0.617161  1
  Lu  Lu1  1  0.691867  0.690972  0.382839  1
  Lu  Lu2  1  0.691867  0.309028  0.000895  1
  Lu  Lu3  1  0.308133  0.690972  0.999105  1
  Lu  Lu4  1  0.189082  0.420759  0.231676  1
  Lu  Lu5  1  0.810918  0.579241  0.768324  1
  Lu  Lu6  1  0.189082  0.957405  0.768324  1
  Lu  Lu7  1  0.948910  0.189322  0.759590  1
  Lu  Lu8  1  0.810918  0.042595  0.231676  1
  Lu  Lu9  1  0.051090  0.810678  0.240410  1
  Lu  Lu10  1  0.429732  0.189322  0.240410  1
  Lu  Lu11  1  0.570268  0.810678  0.759590  1
  In  In12  1  0.000000  0.500000  0.500000  1
  Fe  Fe13  1  0.383065  0.383065  0.000000  1
  Fe  Fe14  1  0.616935  0.616935  0.000000  1
  Fe  Fe15  1  0.000000  0.000000  0.000000  1
  Hg  Hg16  1  0.500000  0.000000  0.500000  1
