# generated using pymatgen
data_Dy3InSn2Pt3
_symmetry_space_group_name_H-M   'P 1'
_cell_length_a   7.67277937
_cell_length_b   7.67277890
_cell_length_c   3.87961900
_cell_angle_alpha   90.00000000
_cell_angle_beta   90.00000000
_cell_angle_gamma   120.06859201
_symmetry_Int_Tables_number   1
_chemical_formula_structural   Dy3InSn2Pt3
_chemical_formula_sum   'Dy3 In1 Sn2 Pt3'
_cell_volume   197.66260450
_cell_formula_units_Z   1
loop_
 _symmetry_equiv_pos_site_id
 _symmetry_equiv_pos_as_xyz
  1  'x, y, z'
loop_
 _atom_site_type_symbol
 _atom_site_label
 _atom_site_symmetry_multiplicity
 _atom_site_fract_x
 _atom_site_fract_y
 _atom_site_fract_z
 _atom_site_occupancy
  Dy  Dy0  1  0.407359  0.407359  0.500000  1
  Dy  Dy1  1  0.595472  0.997371  0.500000  1
  Dy  Dy2  1  0.997371  0.595472  0.500000  1
  In  In3  1  0.738060  0.738060  0.000000  1
  Sn  Sn4  1  0.260117  0.998167  0.000000  1
  Sn  Sn5  1  0.998167  0.260117  0.000000  1
  Pt  Pt6  1  0.666518  0.331732  0.000000  1
  Pt  Pt7  1  0.331732  0.666518  0.000000  1
  Pt  Pt8  1  0.005205  0.005205  0.500000  1
