# generated using pymatgen
data_Y3Mg(Co4P3)2
_symmetry_space_group_name_H-M   'P 1'
_cell_length_a   3.73345600
_cell_length_b   10.64474200
_cell_length_c   12.27394400
_cell_angle_alpha   90.00000000
_cell_angle_beta   90.00000000
_cell_angle_gamma   90.00000000
_symmetry_Int_Tables_number   1
_chemical_formula_structural   Y3Mg(Co4P3)2
_chemical_formula_sum   'Y6 Mg2 Co16 P12'
_cell_volume   487.78710432
_cell_formula_units_Z   2
loop_
 _symmetry_equiv_pos_site_id
 _symmetry_equiv_pos_as_xyz
  1  'x, y, z'
loop_
 _atom_site_type_symbol
 _atom_site_label
 _atom_site_symmetry_multiplicity
 _atom_site_fract_x
 _atom_site_fract_y
 _atom_site_fract_z
 _atom_site_occupancy
  Y  Y0  1  0.000000  0.500000  0.526096  1
  Y  Y1  1  0.500000  0.000000  0.473904  1
  Y  Y2  1  0.500000  0.821997  0.206249  1
  Y  Y3  1  0.500000  0.178003  0.206249  1
  Y  Y4  1  0.000000  0.678003  0.793751  1
  Y  Y5  1  0.000000  0.321997  0.793751  1
  Mg  Mg6  1  0.500000  0.500000  0.156432  1
  Mg  Mg7  1  0.000000  0.000000  0.843568  1
  Co  Co8  1  0.500000  0.500000  0.705089  1
  Co  Co9  1  0.000000  0.000000  0.294911  1
  Co  Co10  1  0.000000  0.500000  0.989249  1
  Co  Co11  1  0.500000  0.000000  0.010751  1
  Co  Co12  1  0.500000  0.332494  0.996935  1
  Co  Co13  1  0.500000  0.667506  0.996935  1
  Co  Co14  1  0.000000  0.167506  0.003065  1
  Co  Co15  1  0.000000  0.832494  0.003065  1
  Co  Co16  1  0.500000  0.296317  0.432049  1
  Co  Co17  1  0.500000  0.703683  0.432049  1
  Co  Co18  1  0.000000  0.203683  0.567951  1
  Co  Co19  1  0.000000  0.796317  0.567951  1
  Co  Co20  1  0.500000  0.877882  0.705313  1
  Co  Co21  1  0.500000  0.122118  0.705313  1
  Co  Co22  1  0.000000  0.622118  0.294687  1
  Co  Co23  1  0.000000  0.377882  0.294687  1
  P  P24  1  0.500000  0.500000  0.885471  1
  P  P25  1  0.000000  0.000000  0.114529  1
  P  P26  1  0.500000  0.500000  0.354918  1
  P  P27  1  0.000000  0.000000  0.645082  1
  P  P28  1  0.500000  0.309469  0.615410  1
  P  P29  1  0.500000  0.690531  0.615410  1
  P  P30  1  0.000000  0.190531  0.384590  1
  P  P31  1  0.000000  0.809469  0.384590  1
  P  P32  1  0.500000  0.838939  0.892932  1
  P  P33  1  0.500000  0.161061  0.892932  1
  P  P34  1  0.000000  0.661061  0.107068  1
  P  P35  1  0.000000  0.338939  0.107068  1
