# generated using pymatgen
data_Ca7Dy(AgSn)4
_symmetry_space_group_name_H-M   'P 1'
_cell_length_a   7.58643601
_cell_length_b   5.30947800
_cell_length_c   10.62711203
_cell_angle_alpha   90.00000000
_cell_angle_beta   89.99251789
_cell_angle_gamma   90.00000000
_symmetry_Int_Tables_number   1
_chemical_formula_structural   Ca7Dy(AgSn)4
_chemical_formula_sum   'Ca7 Dy1 Ag4 Sn4'
_cell_volume   428.06022938
_cell_formula_units_Z   1
loop_
 _symmetry_equiv_pos_site_id
 _symmetry_equiv_pos_as_xyz
  1  'x, y, z'
loop_
 _atom_site_type_symbol
 _atom_site_label
 _atom_site_symmetry_multiplicity
 _atom_site_fract_x
 _atom_site_fract_y
 _atom_site_fract_z
 _atom_site_occupancy
  Ca  Ca0  1  0.497184  0.750000  0.125933  1
  Ca  Ca1  1  0.000563  0.250000  0.376432  1
  Ca  Ca2  1  0.500006  0.250000  0.374092  1
  Ca  Ca3  1  0.501955  0.750000  0.625796  1
  Ca  Ca4  1  0.000796  0.750000  0.625878  1
  Ca  Ca5  1  0.499571  0.250000  0.874221  1
  Ca  Ca6  1  0.000170  0.250000  0.871844  1
  Dy  Dy7  1  0.999580  0.750000  0.125664  1
  Ag  Ag8  1  0.755621  0.250000  0.122831  1
  Ag  Ag9  1  0.247312  0.750000  0.373847  1
  Ag  Ag10  1  0.749994  0.250000  0.622872  1
  Ag  Ag11  1  0.246677  0.750000  0.880246  1
  Sn  Sn12  1  0.243262  0.250000  0.123762  1
  Sn  Sn13  1  0.753120  0.750000  0.373218  1
  Sn  Sn14  1  0.251035  0.250000  0.623543  1
  Sn  Sn15  1  0.753152  0.750000  0.879821  1
