# generated using pymatgen
data_Tb6Tm6Co4SnRh
_symmetry_space_group_name_H-M   'P 1'
_cell_length_a   8.27002325
_cell_length_b   8.27002287
_cell_length_c   8.25274435
_cell_angle_alpha   111.10314407
_cell_angle_beta   110.51675887
_cell_angle_gamma   106.91514230
_symmetry_Int_Tables_number   1
_chemical_formula_structural   Tb6Tm6Co4SnRh
_chemical_formula_sum   'Tb6 Tm6 Co4 Sn1 Rh1'
_cell_volume   433.34363060
_cell_formula_units_Z   1
loop_
 _symmetry_equiv_pos_site_id
 _symmetry_equiv_pos_as_xyz
  1  'x, y, z'
loop_
 _atom_site_type_symbol
 _atom_site_label
 _atom_site_symmetry_multiplicity
 _atom_site_fract_x
 _atom_site_fract_y
 _atom_site_fract_z
 _atom_site_occupancy
  Tb  Tb0  1  0.410990  0.214217  0.194609  1
  Tb  Tb1  1  0.589010  0.785783  0.805391  1
  Tb  Tb2  1  0.019609  0.216381  0.805391  1
  Tb  Tb3  1  0.980391  0.783619  0.194609  1
  Tb  Tb4  1  0.184249  0.290097  0.474346  1
  Tb  Tb5  1  0.815751  0.709903  0.525654  1
  Tm  Tm6  1  0.185466  0.711206  0.896671  1
  Tm  Tm7  1  0.814534  0.288794  0.103329  1
  Tm  Tm8  1  0.314371  0.623976  0.307104  1
  Tm  Tm9  1  0.685629  0.376024  0.692896  1
  Tm  Tm10  1  0.316869  0.007267  0.692896  1
  Tm  Tm11  1  0.683131  0.992733  0.307104  1
  Co  Co12  1  0.377103  0.999417  0.376520  1
  Co  Co13  1  0.622897  0.000583  0.623480  1
  Co  Co14  1  0.112147  0.612147  0.500000  1
  Co  Co15  1  0.887853  0.387853  0.500000  1
  Sn  Sn16  1  0.500000  0.500000  0.000000  1
  Rh  Rh17  1  0.000000  0.000000  0.000000  1
