# generated using pymatgen
data_Zr6Ti4Si5Ge
_symmetry_space_group_name_H-M   'P 1'
_cell_length_a   7.83184111
_cell_length_b   7.83184154
_cell_length_c   5.34173800
_cell_angle_alpha   90.00000000
_cell_angle_beta   90.00000000
_cell_angle_gamma   120.01890595
_symmetry_Int_Tables_number   1
_chemical_formula_structural   Zr6Ti4Si5Ge
_chemical_formula_sum   'Zr6 Ti4 Si5 Ge1'
_cell_volume   283.69926202
_cell_formula_units_Z   1
loop_
 _symmetry_equiv_pos_site_id
 _symmetry_equiv_pos_as_xyz
  1  'x, y, z'
loop_
 _atom_site_type_symbol
 _atom_site_label
 _atom_site_symmetry_multiplicity
 _atom_site_fract_x
 _atom_site_fract_y
 _atom_site_fract_z
 _atom_site_occupancy
  Zr  Zr0  1  0.751507  0.751507  0.750000  1
  Zr  Zr1  1  0.250367  0.997090  0.750000  1
  Zr  Zr2  1  0.997090  0.250367  0.750000  1
  Zr  Zr3  1  0.249970  0.249970  0.250000  1
  Zr  Zr4  1  0.748663  0.000043  0.250000  1
  Zr  Zr5  1  0.000043  0.748663  0.250000  1
  Ti  Ti6  1  0.668105  0.332859  0.001208  1
  Ti  Ti7  1  0.332859  0.668105  0.001208  1
  Ti  Ti8  1  0.332859  0.668105  0.498792  1
  Ti  Ti9  1  0.668105  0.332859  0.498792  1
  Si  Si10  1  0.601187  0.999661  0.750000  1
  Si  Si11  1  0.999661  0.601187  0.750000  1
  Si  Si12  1  0.602424  0.602424  0.250000  1
  Si  Si13  1  0.398407  0.000454  0.250000  1
  Si  Si14  1  0.000454  0.398407  0.250000  1
  Ge  Ge15  1  0.398299  0.398299  0.750000  1
