# generated using pymatgen
data_DyPa3(TcB4)4
_symmetry_space_group_name_H-M   'P 1'
_cell_length_a   3.64685600
_cell_length_b   5.96994050
_cell_length_c   11.55471446
_cell_angle_alpha   89.94320542
_cell_angle_beta   90.00000000
_cell_angle_gamma   90.00000000
_symmetry_Int_Tables_number   1
_chemical_formula_structural   DyPa3(TcB4)4
_chemical_formula_sum   'Dy1 Pa3 Tc4 B16'
_cell_volume   251.56349643
_cell_formula_units_Z   1
loop_
 _symmetry_equiv_pos_site_id
 _symmetry_equiv_pos_as_xyz
  1  'x, y, z'
loop_
 _atom_site_type_symbol
 _atom_site_label
 _atom_site_symmetry_multiplicity
 _atom_site_fract_x
 _atom_site_fract_y
 _atom_site_fract_z
 _atom_site_occupancy
  Dy  Dy0  1  0.000000  0.872157  0.850622  1
  Pa  Pa1  1  0.000000  0.628195  0.349929  1
  Pa  Pa2  1  0.000000  0.371968  0.651594  1
  Pa  Pa3  1  0.000000  0.127824  0.148629  1
  Tc  Tc4  1  0.000000  0.637646  0.094138  1
  Tc  Tc5  1  0.000000  0.361706  0.909064  1
  Tc  Tc6  1  0.000000  0.138663  0.405841  1
  Tc  Tc7  1  0.000000  0.861520  0.591998  1
  B  B8  1  0.500000  0.789648  0.186303  1
  B  B9  1  0.500000  0.213508  0.813344  1
  B  B10  1  0.500000  0.289389  0.312689  1
  B  B11  1  0.500000  0.710787  0.685844  1
  B  B12  1  0.500000  0.864501  0.032314  1
  B  B13  1  0.500000  0.137216  0.968258  1
  B  B14  1  0.500000  0.364141  0.468282  1
  B  B15  1  0.500000  0.634020  0.532116  1
  B  B16  1  0.500000  0.886996  0.454311  1
  B  B17  1  0.500000  0.111899  0.546655  1
  B  B18  1  0.500000  0.388125  0.045301  1
  B  B19  1  0.500000  0.613718  0.953354  1
  B  B20  1  0.500000  0.972916  0.308519  1
  B  B21  1  0.500000  0.026612  0.691264  1
  B  B22  1  0.500000  0.472769  0.191118  1
  B  B23  1  0.500000  0.524076  0.808515  1
