# generated using pymatgen
data_Tm3Lu5Au4
_symmetry_space_group_name_H-M   'P 1'
_cell_length_a   4.83998700
_cell_length_b   7.00434511
_cell_length_c   8.78991013
_cell_angle_alpha   89.98011424
_cell_angle_beta   90.00000000
_cell_angle_gamma   90.00000000
_symmetry_Int_Tables_number   1
_chemical_formula_structural   Tm3Lu5Au4
_chemical_formula_sum   'Tm3 Lu5 Au4'
_cell_volume   297.98619150
_cell_formula_units_Z   1
loop_
 _symmetry_equiv_pos_site_id
 _symmetry_equiv_pos_as_xyz
  1  'x, y, z'
loop_
 _atom_site_type_symbol
 _atom_site_label
 _atom_site_symmetry_multiplicity
 _atom_site_fract_x
 _atom_site_fract_y
 _atom_site_fract_z
 _atom_site_occupancy
  Tm  Tm0  1  0.250000  0.981869  0.321212  1
  Tm  Tm1  1  0.750000  0.518134  0.821358  1
  Tm  Tm2  1  0.750000  0.018191  0.678701  1
  Lu  Lu3  1  0.250000  0.849961  0.923567  1
  Lu  Lu4  1  0.250000  0.350074  0.576393  1
  Lu  Lu5  1  0.750000  0.150147  0.076575  1
  Lu  Lu6  1  0.750000  0.649885  0.423288  1
  Lu  Lu7  1  0.250000  0.481819  0.178615  1
  Au  Au8  1  0.250000  0.256218  0.897970  1
  Au  Au9  1  0.250000  0.756147  0.602280  1
  Au  Au10  1  0.750000  0.743641  0.102334  1
  Au  Au11  1  0.750000  0.243913  0.397708  1
