# generated using pymatgen
data_Th2Ga2Ir5
_symmetry_space_group_name_H-M   'P 1'
_cell_length_a   5.55713996
_cell_length_b   5.55714080
_cell_length_c   12.71773224
_cell_angle_alpha   77.38021806
_cell_angle_beta   77.38022640
_cell_angle_gamma   59.99999891
_symmetry_Int_Tables_number   1
_chemical_formula_structural   Th2Ga2Ir5
_chemical_formula_sum   'Th4 Ga4 Ir10'
_cell_volume   329.12689052
_cell_formula_units_Z   2
loop_
 _symmetry_equiv_pos_site_id
 _symmetry_equiv_pos_as_xyz
  1  'x, y, z'
loop_
 _atom_site_type_symbol
 _atom_site_label
 _atom_site_symmetry_multiplicity
 _atom_site_fract_x
 _atom_site_fract_y
 _atom_site_fract_z
 _atom_site_occupancy
  Th  Th0  1  0.951395  0.951395  0.145814  1
  Th  Th1  1  0.048605  0.048605  0.854186  1
  Th  Th2  1  0.852318  0.852318  0.443045  1
  Th  Th3  1  0.147682  0.147682  0.556955  1
  Ga  Ga4  1  0.720728  0.720728  0.837816  1
  Ga  Ga5  1  0.279272  0.279272  0.162184  1
  Ga  Ga6  1  0.611997  0.611997  0.164009  1
  Ga  Ga7  1  0.388003  0.388003  0.835991  1
  Ir  Ir8  1  0.500000  0.500000  0.500000  1
  Ir  Ir9  1  0.000000  0.500000  0.000000  1
  Ir  Ir10  1  0.500000  0.000000  0.000000  1
  Ir  Ir11  1  0.500000  0.500000  0.000000  1
  Ir  Ir12  1  0.389725  0.389725  0.327523  1
  Ir  Ir13  1  0.893027  0.389725  0.327523  1
  Ir  Ir14  1  0.389725  0.893027  0.327523  1
  Ir  Ir15  1  0.610275  0.610275  0.672477  1
  Ir  Ir16  1  0.106973  0.610275  0.672477  1
  Ir  Ir17  1  0.610275  0.106973  0.672477  1
