# generated using pymatgen
data_Er6MnCo16ReP12
_symmetry_space_group_name_H-M   'P 1'
_cell_length_a   3.69924000
_cell_length_b   10.51307000
_cell_length_c   12.18271100
_cell_angle_alpha   90.00000000
_cell_angle_beta   90.00000000
_cell_angle_gamma   90.00000000
_symmetry_Int_Tables_number   1
_chemical_formula_structural   Er6MnCo16ReP12
_chemical_formula_sum   'Er6 Mn1 Co16 Re1 P12'
_cell_volume   473.79012702
_cell_formula_units_Z   1
loop_
 _symmetry_equiv_pos_site_id
 _symmetry_equiv_pos_as_xyz
  1  'x, y, z'
loop_
 _atom_site_type_symbol
 _atom_site_label
 _atom_site_symmetry_multiplicity
 _atom_site_fract_x
 _atom_site_fract_y
 _atom_site_fract_z
 _atom_site_occupancy
  Er  Er0  1  0.750000  0.250000  0.475401  1
  Er  Er1  1  0.250000  0.750000  0.522641  1
  Er  Er2  1  0.250000  0.931441  0.793952  1
  Er  Er3  1  0.250000  0.568559  0.793952  1
  Er  Er4  1  0.750000  0.068283  0.204991  1
  Er  Er5  1  0.750000  0.431717  0.204991  1
  Mn  Mn6  1  0.750000  0.750000  0.158970  1
  Co  Co7  1  0.250000  0.250000  0.298334  1
  Co  Co8  1  0.750000  0.750000  0.702607  1
  Co  Co9  1  0.750000  0.250000  0.012304  1
  Co  Co10  1  0.250000  0.750000  0.985365  1
  Co  Co11  1  0.250000  0.417494  0.009708  1
  Co  Co12  1  0.250000  0.082506  0.009708  1
  Co  Co13  1  0.750000  0.583076  0.993414  1
  Co  Co14  1  0.750000  0.916924  0.993414  1
  Co  Co15  1  0.250000  0.453512  0.569093  1
  Co  Co16  1  0.250000  0.046488  0.569093  1
  Co  Co17  1  0.750000  0.546970  0.430988  1
  Co  Co18  1  0.750000  0.953030  0.430988  1
  Co  Co19  1  0.250000  0.871766  0.291347  1
  Co  Co20  1  0.250000  0.628234  0.291347  1
  Co  Co21  1  0.750000  0.128869  0.708056  1
  Co  Co22  1  0.750000  0.371131  0.708056  1
  Re  Re23  1  0.250000  0.250000  0.842926  1
  P  P24  1  0.250000  0.250000  0.120087  1
  P  P25  1  0.750000  0.750000  0.881859  1
  P  P26  1  0.250000  0.250000  0.649688  1
  P  P27  1  0.750000  0.750000  0.345503  1
  P  P28  1  0.250000  0.438427  0.383359  1
  P  P29  1  0.250000  0.061573  0.383359  1
  P  P30  1  0.750000  0.562110  0.616025  1
  P  P31  1  0.750000  0.937890  0.616025  1
  P  P32  1  0.250000  0.901564  0.108585  1
  P  P33  1  0.250000  0.598436  0.108585  1
  P  P34  1  0.750000  0.093952  0.892638  1
  P  P35  1  0.750000  0.406048  0.892638  1
