# generated using pymatgen
data_Ca5Er(CdIn)3
_symmetry_space_group_name_H-M   'P 1'
_cell_length_a   5.42493210
_cell_length_b   7.61325700
_cell_length_c   16.29417314
_cell_angle_alpha   90.00000000
_cell_angle_beta   89.73055122
_cell_angle_gamma   90.00000000
_symmetry_Int_Tables_number   1
_chemical_formula_structural   Ca5Er(CdIn)3
_chemical_formula_sum   'Ca10 Er2 Cd6 In6'
_cell_volume   672.96475818
_cell_formula_units_Z   2
loop_
 _symmetry_equiv_pos_site_id
 _symmetry_equiv_pos_as_xyz
  1  'x, y, z'
loop_
 _atom_site_type_symbol
 _atom_site_label
 _atom_site_symmetry_multiplicity
 _atom_site_fract_x
 _atom_site_fract_y
 _atom_site_fract_z
 _atom_site_occupancy
  Ca  Ca0  1  0.000037  0.250340  0.167919  1
  Ca  Ca1  1  0.000037  0.749660  0.167919  1
  Ca  Ca2  1  0.500009  0.249626  0.332911  1
  Ca  Ca3  1  0.500009  0.750375  0.332911  1
  Ca  Ca4  1  0.000012  0.250743  0.499989  1
  Ca  Ca5  1  0.000012  0.749258  0.499989  1
  Ca  Ca6  1  0.499993  0.249622  0.667061  1
  Ca  Ca7  1  0.499993  0.750379  0.667061  1
  Ca  Ca8  1  0.999965  0.250331  0.832069  1
  Ca  Ca9  1  0.999965  0.749669  0.832069  1
  Er  Er10  1  0.499983  0.250706  0.000002  1
  Er  Er11  1  0.499983  0.749293  0.000002  1
  Cd  Cd12  1  0.999983  0.000000  0.000037  1
  Cd  Cd13  1  0.499959  0.500000  0.165653  1
  Cd  Cd14  1  0.000027  0.000000  0.333273  1
  Cd  Cd15  1  0.499984  0.500000  0.500009  1
  Cd  Cd16  1  0.999954  0.000000  0.666741  1
  Cd  Cd17  1  0.500131  0.500000  0.834387  1
  In  In18  1  0.999913  0.500000  0.000063  1
  In  In19  1  0.500191  0.000000  0.161965  1
  In  In20  1  0.000018  0.500000  0.332197  1
  In  In21  1  0.500025  0.000000  0.500014  1
  In  In22  1  0.999968  0.500000  0.667816  1
  In  In23  1  0.499844  0.000000  0.837945  1
