# generated using pymatgen
data_Sm2Ta3P7Rh9
_symmetry_space_group_name_H-M   'P 1'
_cell_length_a   3.94538100
_cell_length_b   9.66942373
_cell_length_c   9.66907244
_cell_angle_alpha   120.00439589
_cell_angle_beta   90.00001373
_cell_angle_gamma   89.99955714
_symmetry_Int_Tables_number   1
_chemical_formula_structural   Sm2Ta3P7Rh9
_chemical_formula_sum   'Sm2 Ta3 P7 Rh9'
_cell_volume   319.43738923
_cell_formula_units_Z   1
loop_
 _symmetry_equiv_pos_site_id
 _symmetry_equiv_pos_as_xyz
  1  'x, y, z'
loop_
 _atom_site_type_symbol
 _atom_site_label
 _atom_site_symmetry_multiplicity
 _atom_site_fract_x
 _atom_site_fract_y
 _atom_site_fract_z
 _atom_site_occupancy
  Sm  Sm0  1  0.261701  0.666639  0.333329  1
  Sm  Sm1  1  0.762015  0.333387  0.666700  1
  Ta  Ta2  1  0.761976  0.094907  0.873768  1
  Ta  Ta3  1  0.761973  0.126197  0.221009  1
  Ta  Ta4  1  0.761978  0.778877  0.905097  1
  P  P5  1  0.262241  0.000034  0.000063  1
  P  P6  1  0.761743  0.879666  0.590883  1
  P  P7  1  0.761754  0.409130  0.288734  1
  P  P8  1  0.761758  0.711283  0.120451  1
  P  P9  1  0.262009  0.115852  0.414746  1
  P  P10  1  0.262013  0.585111  0.701172  1
  P  P11  1  0.261999  0.298844  0.883984  1
  Rh  Rh12  1  0.261876  0.885399  0.160411  1
  Rh  Rh13  1  0.261878  0.839586  0.725119  1
  Rh  Rh14  1  0.261878  0.275033  0.114532  1
  Rh  Rh15  1  0.761846  0.612033  0.559678  1
  Rh  Rh16  1  0.761850  0.440412  0.052328  1
  Rh  Rh17  1  0.761847  0.947756  0.387999  1
  Rh  Rh18  1  0.261893  0.367116  0.437004  1
  Rh  Rh19  1  0.261878  0.562987  0.930246  1
  Rh  Rh20  1  0.261893  0.069754  0.632742  1
