# generated using pymatgen
data_Tm15Lu(ScBi3)4
_symmetry_space_group_name_H-M   'P 1'
_cell_length_a   8.04508423
_cell_length_b   9.35274903
_cell_length_c   11.81474330
_cell_angle_alpha   90.00190517
_cell_angle_beta   89.97426803
_cell_angle_gamma   89.99106890
_symmetry_Int_Tables_number   1
_chemical_formula_structural   Tm15Lu(ScBi3)4
_chemical_formula_sum   'Tm15 Lu1 Sc4 Bi12'
_cell_volume   888.98435244
_cell_formula_units_Z   1
loop_
 _symmetry_equiv_pos_site_id
 _symmetry_equiv_pos_as_xyz
  1  'x, y, z'
loop_
 _atom_site_type_symbol
 _atom_site_label
 _atom_site_symmetry_multiplicity
 _atom_site_fract_x
 _atom_site_fract_y
 _atom_site_fract_z
 _atom_site_occupancy
  Tm  Tm0  1  0.355390  0.249877  0.283201  1
  Tm  Tm1  1  0.644490  0.749820  0.716667  1
  Tm  Tm2  1  0.144956  0.749735  0.783101  1
  Tm  Tm3  1  0.855311  0.249943  0.216744  1
  Tm  Tm4  1  0.185896  0.249993  0.781355  1
  Tm  Tm5  1  0.814078  0.749984  0.218686  1
  Tm  Tm6  1  0.314089  0.749846  0.281467  1
  Tm  Tm7  1  0.686006  0.250001  0.718660  1
  Tm  Tm8  1  0.195286  0.066175  0.058556  1
  Tm  Tm9  1  0.804691  0.933820  0.941453  1
  Tm  Tm10  1  0.304629  0.933662  0.558496  1
  Tm  Tm11  1  0.804694  0.566181  0.941444  1
  Tm  Tm12  1  0.695185  0.066193  0.441532  1
  Tm  Tm13  1  0.195339  0.433862  0.058511  1
  Tm  Tm14  1  0.695429  0.433858  0.441452  1
  Lu  Lu15  1  0.304422  0.567080  0.558507  1
  Sc  Sc16  1  0.023703  0.249976  0.512041  1
  Sc  Sc17  1  0.976806  0.749773  0.488037  1
  Sc  Sc18  1  0.476353  0.749990  0.012002  1
  Sc  Sc19  1  0.523664  0.249918  0.987927  1
  Bi  Bi20  1  0.400535  0.251118  0.543103  1
  Bi  Bi21  1  0.598991  0.749733  0.457147  1
  Bi  Bi22  1  0.099183  0.750022  0.042908  1
  Bi  Bi23  1  0.900852  0.250000  0.957059  1
  Bi  Bi24  1  0.066050  0.003685  0.329833  1
  Bi  Bi25  1  0.934018  0.996137  0.670158  1
  Bi  Bi26  1  0.433960  0.996153  0.829708  1
  Bi  Bi27  1  0.934257  0.503708  0.670113  1
  Bi  Bi28  1  0.565960  0.003693  0.170242  1
  Bi  Bi29  1  0.065956  0.496147  0.329902  1
  Bi  Bi30  1  0.565893  0.496223  0.170281  1
  Bi  Bi31  1  0.433927  0.503692  0.829706  1
