# generated using pymatgen
data_Zr2TaRe3SiGe2
_symmetry_space_group_name_H-M   'P 1'
_cell_length_a   7.02663192
_cell_length_b   7.04836216
_cell_length_c   3.41338800
_cell_angle_alpha   90.00000000
_cell_angle_beta   90.00000000
_cell_angle_gamma   120.10236580
_symmetry_Int_Tables_number   1
_chemical_formula_structural   Zr2TaRe3SiGe2
_chemical_formula_sum   'Zr2 Ta1 Re3 Si1 Ge2'
_cell_volume   146.25233286
_cell_formula_units_Z   1
loop_
 _symmetry_equiv_pos_site_id
 _symmetry_equiv_pos_as_xyz
  1  'x, y, z'
loop_
 _atom_site_type_symbol
 _atom_site_label
 _atom_site_symmetry_multiplicity
 _atom_site_fract_x
 _atom_site_fract_y
 _atom_site_fract_z
 _atom_site_occupancy
  Zr  Zr0  1  0.400700  0.400741  0.500000  1
  Zr  Zr1  1  0.599300  0.000041  0.500000  1
  Ta  Ta2  1  0.000000  0.603516  0.500000  1
  Re  Re3  1  0.753687  0.747164  0.000000  1
  Re  Re4  1  0.246313  0.993478  0.000000  1
  Re  Re5  1  0.000000  0.253134  0.000000  1
  Si  Si6  1  0.000000  0.000367  0.500000  1
  Ge  Ge7  1  0.671971  0.336765  0.000000  1
  Ge  Ge8  1  0.328029  0.664795  0.000000  1
