# generated using pymatgen
data_Cs4NdPaTe6
_symmetry_space_group_name_H-M   'P 1'
_cell_length_a   8.46600282
_cell_length_b   8.46600364
_cell_length_c   9.36352766
_cell_angle_alpha   81.16099857
_cell_angle_beta   81.16100240
_cell_angle_gamma   119.88987738
_symmetry_Int_Tables_number   1
_chemical_formula_structural   Cs4NdPaTe6
_chemical_formula_sum   'Cs4 Nd1 Pa1 Te6'
_cell_volume   553.78443473
_cell_formula_units_Z   1
loop_
 _symmetry_equiv_pos_site_id
 _symmetry_equiv_pos_as_xyz
  1  'x, y, z'
loop_
 _atom_site_type_symbol
 _atom_site_label
 _atom_site_symmetry_multiplicity
 _atom_site_fract_x
 _atom_site_fract_y
 _atom_site_fract_z
 _atom_site_occupancy
  Cs  Cs0  1  0.499942  0.500058  0.000000  1
  Cs  Cs1  1  0.652369  0.347631  0.500000  1
  Cs  Cs2  1  0.346582  0.653418  0.500000  1
  Cs  Cs3  1  0.001132  0.998868  0.500000  1
  Nd  Nd4  1  0.168180  0.831820  0.000000  1
  Pa  Pa5  1  0.831818  0.168182  0.000000  1
  Te  Te6  1  0.811910  0.827355  0.192347  1
  Te  Te7  1  0.172645  0.188090  0.807653  1
  Te  Te8  1  0.448562  0.054420  0.197334  1
  Te  Te9  1  0.583546  0.962265  0.802817  1
  Te  Te10  1  0.945580  0.551438  0.802666  1
  Te  Te11  1  0.037735  0.416454  0.197183  1
