# generated using pymatgen
data_HfTi2NbSi2
_symmetry_space_group_name_H-M   'P 1'
_cell_length_a   3.62411300
_cell_length_b   6.91099671
_cell_length_c   11.94703957
_cell_angle_alpha   89.88443188
_cell_angle_beta   90.00000000
_cell_angle_gamma   90.00000000
_symmetry_Int_Tables_number   1
_chemical_formula_structural   HfTi2NbSi2
_chemical_formula_sum   'Hf3 Ti6 Nb3 Si6'
_cell_volume   299.22772855
_cell_formula_units_Z   3
loop_
 _symmetry_equiv_pos_site_id
 _symmetry_equiv_pos_as_xyz
  1  'x, y, z'
loop_
 _atom_site_type_symbol
 _atom_site_label
 _atom_site_symmetry_multiplicity
 _atom_site_fract_x
 _atom_site_fract_y
 _atom_site_fract_z
 _atom_site_occupancy
  Hf  Hf0  1  0.500000  0.296030  0.295883  1
  Hf  Hf1  1  0.500000  0.295158  0.705345  1
  Hf  Hf2  1  0.500000  0.796599  0.203223  1
  Ti  Ti3  1  0.000000  0.750700  0.998040  1
  Ti  Ti4  1  0.000000  0.247548  0.502225  1
  Ti  Ti5  1  0.000000  0.626271  0.627719  1
  Ti  Ti6  1  0.000000  0.124221  0.125114  1
  Ti  Ti7  1  0.000000  0.127281  0.872564  1
  Ti  Ti8  1  0.000000  0.624651  0.373276  1
  Nb  Nb9  1  0.500000  0.408657  0.997600  1
  Nb  Nb10  1  0.500000  0.906303  0.502881  1
  Nb  Nb11  1  0.500000  0.795034  0.796279  1
  Si  Si12  1  0.000000  0.994827  0.667091  1
  Si  Si13  1  0.000000  0.497883  0.161905  1
  Si  Si14  1  0.000000  0.503431  0.835513  1
  Si  Si15  1  0.000000  0.997390  0.337626  1
  Si  Si16  1  0.500000  0.004306  0.997628  1
  Si  Si17  1  0.500000  0.503911  0.500088  1
