# generated using pymatgen
data_Cs4Na2HoInP4
_symmetry_space_group_name_H-M   'P 1'
_cell_length_a   9.74722652
_cell_length_b   9.74722624
_cell_length_c   9.74722658
_cell_angle_alpha   137.73155321
_cell_angle_beta   60.04512403
_cell_angle_gamma   139.40395189
_symmetry_Int_Tables_number   1
_chemical_formula_structural   Cs4Na2HoInP4
_chemical_formula_sum   'Cs4 Na2 Ho1 In1 P4'
_cell_volume   401.15644559
_cell_formula_units_Z   1
loop_
 _symmetry_equiv_pos_site_id
 _symmetry_equiv_pos_as_xyz
  1  'x, y, z'
loop_
 _atom_site_type_symbol
 _atom_site_label
 _atom_site_symmetry_multiplicity
 _atom_site_fract_x
 _atom_site_fract_y
 _atom_site_fract_z
 _atom_site_occupancy
  Cs  Cs0  1  0.320529  0.727259  0.055301  1
  Cs  Cs1  1  0.179471  0.234772  0.406731  1
  Cs  Cs2  1  0.828041  0.772741  0.593268  1
  Cs  Cs3  1  0.671959  0.265228  0.944699  1
  Na  Na4  1  0.249999  0.249999  0.000000  1
  Na  Na5  1  0.750000  0.750000  0.000000  1
  Ho  Ho6  1  0.749999  0.249999  0.500000  1
  In  In7  1  0.249999  0.749999  0.500000  1
  P  P8  1  0.917645  0.289442  0.195693  1
  P  P9  1  0.582356  0.778049  0.371797  1
  P  P10  1  0.406251  0.210558  0.628203  1
  P  P11  1  0.093748  0.721951  0.804306  1
