# generated using pymatgen
data_Zr4Ta3Si4W
_symmetry_space_group_name_H-M   'P 1'
_cell_length_a   3.62951100
_cell_length_b   7.01280848
_cell_length_c   8.42539433
_cell_angle_alpha   90.10047259
_cell_angle_beta   90.00000000
_cell_angle_gamma   90.00000000
_symmetry_Int_Tables_number   1
_chemical_formula_structural   Zr4Ta3Si4W
_chemical_formula_sum   'Zr4 Ta3 Si4 W1'
_cell_volume   214.45178410
_cell_formula_units_Z   1
loop_
 _symmetry_equiv_pos_site_id
 _symmetry_equiv_pos_as_xyz
  1  'x, y, z'
loop_
 _atom_site_type_symbol
 _atom_site_label
 _atom_site_symmetry_multiplicity
 _atom_site_fract_x
 _atom_site_fract_y
 _atom_site_fract_z
 _atom_site_occupancy
  Zr  Zr0  1  0.250000  0.545100  0.165675  1
  Zr  Zr1  1  0.250000  0.041349  0.330801  1
  Zr  Zr2  1  0.750000  0.458670  0.832519  1
  Zr  Zr3  1  0.750000  0.958353  0.668561  1
  Ta  Ta4  1  0.250000  0.634151  0.559454  1
  Ta  Ta5  1  0.250000  0.128191  0.941305  1
  Ta  Ta6  1  0.750000  0.367955  0.440000  1
  Si  Si7  1  0.250000  0.755659  0.863773  1
  Si  Si8  1  0.250000  0.255495  0.640831  1
  Si  Si9  1  0.750000  0.242442  0.140752  1
  Si  Si10  1  0.750000  0.745292  0.357150  1
  W  W11  1  0.750000  0.867341  0.059181  1
