# generated using pymatgen
data_Ho3Co7NiP6W
_symmetry_space_group_name_H-M   'P 1'
_cell_length_a   3.73321400
_cell_length_b   10.53506800
_cell_length_c   12.23272900
_cell_angle_alpha   90.00000000
_cell_angle_beta   90.00000000
_cell_angle_gamma   90.00000000
_symmetry_Int_Tables_number   1
_chemical_formula_structural   Ho3Co7NiP6W
_chemical_formula_sum   'Ho6 Co14 Ni2 P12 W2'
_cell_volume   481.10911340
_cell_formula_units_Z   2
loop_
 _symmetry_equiv_pos_site_id
 _symmetry_equiv_pos_as_xyz
  1  'x, y, z'
loop_
 _atom_site_type_symbol
 _atom_site_label
 _atom_site_symmetry_multiplicity
 _atom_site_fract_x
 _atom_site_fract_y
 _atom_site_fract_z
 _atom_site_occupancy
  Ho  Ho0  1  0.000000  0.500000  0.523127  1
  Ho  Ho1  1  0.500000  0.000000  0.476873  1
  Ho  Ho2  1  0.500000  0.818388  0.204535  1
  Ho  Ho3  1  0.500000  0.181612  0.204535  1
  Ho  Ho4  1  0.000000  0.681612  0.795465  1
  Ho  Ho5  1  0.000000  0.318388  0.795465  1
  Co  Co6  1  0.000000  0.500000  0.987762  1
  Co  Co7  1  0.500000  0.000000  0.012238  1
  Co  Co8  1  0.500000  0.297473  0.431967  1
  Co  Co9  1  0.500000  0.702527  0.431967  1
  Co  Co10  1  0.000000  0.202527  0.568033  1
  Co  Co11  1  0.000000  0.797473  0.568033  1
  Co  Co12  1  0.500000  0.878279  0.708201  1
  Co  Co13  1  0.500000  0.121721  0.708201  1
  Co  Co14  1  0.000000  0.621721  0.291799  1
  Co  Co15  1  0.000000  0.378279  0.291799  1
  Co  Co16  1  0.500000  0.332707  0.990248  1
  Co  Co17  1  0.500000  0.667293  0.990248  1
  Co  Co18  1  0.000000  0.167293  0.009752  1
  Co  Co19  1  0.000000  0.832707  0.009752  1
  Ni  Ni20  1  0.500000  0.500000  0.701389  1
  Ni  Ni21  1  0.000000  0.000000  0.298611  1
  P  P22  1  0.500000  0.310653  0.615747  1
  P  P23  1  0.500000  0.689347  0.615747  1
  P  P24  1  0.000000  0.189347  0.384253  1
  P  P25  1  0.000000  0.810653  0.384253  1
  P  P26  1  0.500000  0.500000  0.881370  1
  P  P27  1  0.000000  0.000000  0.118630  1
  P  P28  1  0.500000  0.843969  0.892551  1
  P  P29  1  0.500000  0.156031  0.892551  1
  P  P30  1  0.000000  0.656031  0.107449  1
  P  P31  1  0.000000  0.343969  0.107449  1
  P  P32  1  0.500000  0.500000  0.350311  1
  P  P33  1  0.000000  0.000000  0.649689  1
  W  W34  1  0.500000  0.500000  0.155922  1
  W  W35  1  0.000000  0.000000  0.844078  1
