# generated using pymatgen
data_Na12Cr7RuN16
_symmetry_space_group_name_H-M   'P 1'
_cell_length_a   5.56399500
_cell_length_b   9.84432004
_cell_length_c   9.42886674
_cell_angle_alpha   90.11543479
_cell_angle_beta   90.00000000
_cell_angle_gamma   90.00000000
_symmetry_Int_Tables_number   1
_chemical_formula_structural   Na12Cr7RuN16
_chemical_formula_sum   'Na12 Cr7 Ru1 N16'
_cell_volume   516.45331774
_cell_formula_units_Z   1
loop_
 _symmetry_equiv_pos_site_id
 _symmetry_equiv_pos_as_xyz
  1  'x, y, z'
loop_
 _atom_site_type_symbol
 _atom_site_label
 _atom_site_symmetry_multiplicity
 _atom_site_fract_x
 _atom_site_fract_y
 _atom_site_fract_z
 _atom_site_occupancy
  Na  Na0  1  0.638919  0.156058  0.416795  1
  Na  Na1  1  0.858935  0.842948  0.417397  1
  Na  Na2  1  0.638919  0.343942  0.083205  1
  Na  Na3  1  0.858935  0.657052  0.082603  1
  Na  Na4  1  0.359856  0.845087  0.582819  1
  Na  Na5  1  0.140795  0.158755  0.583119  1
  Na  Na6  1  0.359856  0.654913  0.917181  1
  Na  Na7  1  0.140795  0.341245  0.916881  1
  Na  Na8  1  0.750392  0.500988  0.409555  1
  Na  Na9  1  0.750392  0.999012  0.090445  1
  Na  Na10  1  0.252787  0.502774  0.589248  1
  Na  Na11  1  0.252787  0.997226  0.910752  1
  Cr  Cr12  1  0.749961  0.501167  0.737261  1
  Cr  Cr13  1  0.749961  0.998833  0.762739  1
  Cr  Cr14  1  0.249993  0.500124  0.262119  1
  Cr  Cr15  1  0.249993  0.999876  0.237881  1
  Cr  Cr16  1  0.801715  0.750000  0.750000  1
  Cr  Cr17  1  0.301684  0.750000  0.250000  1
  Cr  Cr18  1  0.198202  0.250000  0.250000  1
  Ru  Ru19  1  0.687368  0.250000  0.750000  1
  N  N20  1  0.891681  0.369925  0.636930  1
  N  N21  1  0.617545  0.642542  0.638222  1
  N  N22  1  0.891681  0.130075  0.863070  1
  N  N23  1  0.617545  0.857458  0.861778  1
  N  N24  1  0.115822  0.640099  0.360653  1
  N  N25  1  0.384546  0.360255  0.360491  1
  N  N26  1  0.115822  0.859901  0.139347  1
  N  N27  1  0.384546  0.139745  0.139509  1
  N  N28  1  0.536831  0.411641  0.841218  1
  N  N29  1  0.957222  0.609346  0.835686  1
  N  N30  1  0.536831  0.088359  0.658782  1
  N  N31  1  0.957222  0.890654  0.664314  1
  N  N32  1  0.457326  0.606602  0.164597  1
  N  N33  1  0.042906  0.393124  0.163917  1
  N  N34  1  0.457326  0.893398  0.335403  1
  N  N35  1  0.042906  0.106876  0.336083  1
