# generated using pymatgen
data_Ho5Th3(MnCd)2
_symmetry_space_group_name_H-M   'P 1'
_cell_length_a   9.53973368
_cell_length_b   9.61460217
_cell_length_c   9.61460310
_cell_angle_alpha   59.48547709
_cell_angle_beta   60.25726024
_cell_angle_gamma   60.25725684
_symmetry_Int_Tables_number   1
_chemical_formula_structural   Ho5Th3(MnCd)2
_chemical_formula_sum   'Ho10 Th6 Mn4 Cd4'
_cell_volume   623.49309338
_cell_formula_units_Z   2
loop_
 _symmetry_equiv_pos_site_id
 _symmetry_equiv_pos_as_xyz
  1  'x, y, z'
loop_
 _atom_site_type_symbol
 _atom_site_label
 _atom_site_symmetry_multiplicity
 _atom_site_fract_x
 _atom_site_fract_y
 _atom_site_fract_z
 _atom_site_occupancy
  Ho  Ho0  1  0.190913  0.809087  0.190913  1
  Ho  Ho1  1  0.809087  0.190913  0.809087  1
  Ho  Ho2  1  0.190913  0.190913  0.809087  1
  Ho  Ho3  1  0.809087  0.809087  0.190913  1
  Ho  Ho4  1  0.933630  0.566370  0.566370  1
  Ho  Ho5  1  0.566370  0.933630  0.933630  1
  Ho  Ho6  1  0.558796  0.941204  0.558796  1
  Ho  Ho7  1  0.941204  0.558796  0.941204  1
  Ho  Ho8  1  0.558796  0.558796  0.941204  1
  Ho  Ho9  1  0.941204  0.941204  0.558796  1
  Th  Th10  1  0.342290  0.345438  0.345438  1
  Th  Th11  1  0.345438  0.342290  0.966833  1
  Th  Th12  1  0.345438  0.966833  0.342290  1
  Th  Th13  1  0.966833  0.345438  0.345438  1
  Th  Th14  1  0.816208  0.183792  0.183792  1
  Th  Th15  1  0.183792  0.816208  0.816208  1
  Mn  Mn16  1  0.114099  0.152151  0.152151  1
  Mn  Mn17  1  0.152151  0.114099  0.581597  1
  Mn  Mn18  1  0.152151  0.581597  0.114099  1
  Mn  Mn19  1  0.581597  0.152151  0.152151  1
  Cd  Cd20  1  0.583412  0.580195  0.580195  1
  Cd  Cd21  1  0.580195  0.583412  0.256199  1
  Cd  Cd22  1  0.580195  0.256199  0.583412  1
  Cd  Cd23  1  0.256199  0.580195  0.580195  1
