# generated using pymatgen
data_Nd16Er4(Ir3Ru)3
_symmetry_space_group_name_H-M   'P 1'
_cell_length_a   11.17161900
_cell_length_b   11.17161900
_cell_length_c   6.53552100
_cell_angle_alpha   90.00000000
_cell_angle_beta   90.00000000
_cell_angle_gamma   90.00000000
_symmetry_Int_Tables_number   1
_chemical_formula_structural   Nd16Er4(Ir3Ru)3
_chemical_formula_sum   'Nd16 Er4 Ir9 Ru3'
_cell_volume   815.66616296
_cell_formula_units_Z   1
loop_
 _symmetry_equiv_pos_site_id
 _symmetry_equiv_pos_as_xyz
  1  'x, y, z'
loop_
 _atom_site_type_symbol
 _atom_site_label
 _atom_site_symmetry_multiplicity
 _atom_site_fract_x
 _atom_site_fract_y
 _atom_site_fract_z
 _atom_site_occupancy
  Nd  Nd0  1  0.291201  0.086307  0.380144  1
  Nd  Nd1  1  0.291282  0.913935  0.880651  1
  Nd  Nd2  1  0.708718  0.086065  0.880651  1
  Nd  Nd3  1  0.708799  0.913693  0.380144  1
  Nd  Nd4  1  0.586065  0.791282  0.880651  1
  Nd  Nd5  1  0.586307  0.208799  0.380144  1
  Nd  Nd6  1  0.413693  0.791201  0.380144  1
  Nd  Nd7  1  0.413935  0.208718  0.880651  1
  Nd  Nd8  1  0.210341  0.413015  0.620888  1
  Nd  Nd9  1  0.210198  0.586978  0.118332  1
  Nd  Nd10  1  0.789802  0.413022  0.118332  1
  Nd  Nd11  1  0.789659  0.586985  0.620888  1
  Nd  Nd12  1  0.913022  0.710198  0.118332  1
  Nd  Nd13  1  0.913015  0.289659  0.620888  1
  Nd  Nd14  1  0.086985  0.710341  0.620888  1
  Nd  Nd15  1  0.086978  0.289802  0.118332  1
  Er  Er16  1  0.000000  0.000000  0.499626  1
  Er  Er17  1  0.000000  0.000000  0.999716  1
  Er  Er18  1  0.500000  0.500000  0.999716  1
  Er  Er19  1  0.500000  0.500000  0.499626  1
  Ir  Ir20  1  0.852745  0.147865  0.250145  1
  Ir  Ir21  1  0.852458  0.852007  0.749752  1
  Ir  Ir22  1  0.147542  0.147993  0.749752  1
  Ir  Ir23  1  0.147255  0.852135  0.250145  1
  Ir  Ir24  1  0.647993  0.352458  0.749752  1
  Ir  Ir25  1  0.647865  0.647255  0.250145  1
  Ir  Ir26  1  0.352135  0.352745  0.250145  1
  Ir  Ir27  1  0.352007  0.647542  0.749752  1
  Ir  Ir28  1  0.000000  0.500000  0.382224  1
  Ru  Ru29  1  0.500000  0.000000  0.118593  1
  Ru  Ru30  1  0.500000  0.000000  0.618122  1
  Ru  Ru31  1  0.000000  0.500000  0.882727  1
