# generated using pymatgen
data_Er13Th3(InCo)4
_symmetry_space_group_name_H-M   'P 1'
_cell_length_a   9.50898423
_cell_length_b   9.56028002
_cell_length_c   9.56028000
_cell_angle_alpha   60.00000007
_cell_angle_beta   59.82139192
_cell_angle_gamma   59.82139114
_symmetry_Int_Tables_number   1
_chemical_formula_structural   Er13Th3(InCo)4
_chemical_formula_sum   'Er13 Th3 In4 Co4'
_cell_volume   612.89011088
_cell_formula_units_Z   1
loop_
 _symmetry_equiv_pos_site_id
 _symmetry_equiv_pos_as_xyz
  1  'x, y, z'
loop_
 _atom_site_type_symbol
 _atom_site_label
 _atom_site_symmetry_multiplicity
 _atom_site_fract_x
 _atom_site_fract_y
 _atom_site_fract_z
 _atom_site_occupancy
  Er  Er0  1  0.202609  0.599130  0.599130  1
  Er  Er1  1  0.064098  0.437267  0.437267  1
  Er  Er2  1  0.437553  0.062878  0.062878  1
  Er  Er3  1  0.437553  0.062878  0.436690  1
  Er  Er4  1  0.064098  0.437267  0.061368  1
  Er  Er5  1  0.437553  0.436690  0.062878  1
  Er  Er6  1  0.064098  0.061368  0.437267  1
  Er  Er7  1  0.187449  0.812333  0.812333  1
  Er  Er8  1  0.812666  0.187575  0.187575  1
  Er  Er9  1  0.812666  0.187575  0.812185  1
  Er  Er10  1  0.187449  0.812333  0.187886  1
  Er  Er11  1  0.812666  0.812185  0.187575  1
  Er  Er12  1  0.187449  0.187886  0.812333  1
  Th  Th13  1  0.591440  0.595708  0.595708  1
  Th  Th14  1  0.591440  0.595708  0.217145  1
  Th  Th15  1  0.591440  0.217145  0.595708  1
  In  In16  1  0.834156  0.833524  0.833524  1
  In  In17  1  0.834156  0.833524  0.498794  1
  In  In18  1  0.834156  0.498794  0.833524  1
  In  In19  1  0.499984  0.833338  0.833338  1
  Co  Co20  1  0.398955  0.390122  0.390122  1
  Co  Co21  1  0.398955  0.390122  0.820802  1
  Co  Co22  1  0.398955  0.820802  0.390122  1
  Co  Co23  1  0.818458  0.393847  0.393847  1
