# generated using pymatgen
data_Ca10Si10O
_symmetry_space_group_name_H-M   'P 1'
_cell_length_a   10.70009563
_cell_length_b   10.70009528
_cell_length_c   10.70009500
_cell_angle_alpha   155.47638995
_cell_angle_beta   110.52529019
_cell_angle_gamma   74.90554405
_symmetry_Int_Tables_number   1
_chemical_formula_structural   Ca10Si10O
_chemical_formula_sum   'Ca10 Si10 O1'
_cell_volume   470.77113728
_cell_formula_units_Z   1
loop_
 _symmetry_equiv_pos_site_id
 _symmetry_equiv_pos_as_xyz
  1  'x, y, z'
loop_
 _atom_site_type_symbol
 _atom_site_label
 _atom_site_symmetry_multiplicity
 _atom_site_fract_x
 _atom_site_fract_y
 _atom_site_fract_z
 _atom_site_occupancy
  Ca  Ca0  1  0.847846  0.847846  0.000000  1
  Ca  Ca1  1  0.195098  0.000000  0.195098  1
  Ca  Ca2  1  0.476886  0.810571  0.666313  1
  Ca  Ca3  1  0.855742  0.189429  0.666313  1
  Ca  Ca4  1  0.804902  0.000000  0.804902  1
  Ca  Ca5  1  0.152154  0.152154  0.000000  1
  Ca  Ca6  1  0.523114  0.189429  0.333687  1
  Ca  Ca7  1  0.500000  0.000000  0.500000  1
  Ca  Ca8  1  0.144258  0.810571  0.333687  1
  Ca  Ca9  1  0.000000  0.500000  0.500000  1
  Si  Si10  1  0.413636  0.569461  0.844175  1
  Si  Si11  1  0.274714  0.430539  0.844175  1
  Si  Si12  1  0.586364  0.430539  0.155825  1
  Si  Si13  1  0.725286  0.569461  0.155825  1
  Si  Si14  1  0.692037  0.366579  0.325458  1
  Si  Si15  1  0.649850  0.649850  0.000000  1
  Si  Si16  1  0.307963  0.633421  0.674542  1
  Si  Si17  1  0.350150  0.350150  0.000000  1
  Si  Si18  1  0.041121  0.366579  0.674542  1
  Si  Si19  1  0.958879  0.633421  0.325458  1
  O  O20  1  0.000000  0.000000  0.000000  1
