# generated using pymatgen
data_Ca3Zr(Co5As3)4
_symmetry_space_group_name_H-M   'P 1'
_cell_length_a   3.76142100
_cell_length_b   12.21472468
_cell_length_c   10.68655747
_cell_angle_alpha   89.93990890
_cell_angle_beta   90.00000000
_cell_angle_gamma   90.00000000
_symmetry_Int_Tables_number   1
_chemical_formula_structural   Ca3Zr(Co5As3)4
_chemical_formula_sum   'Ca3 Zr1 Co20 As12'
_cell_volume   490.99064116
_cell_formula_units_Z   1
loop_
 _symmetry_equiv_pos_site_id
 _symmetry_equiv_pos_as_xyz
  1  'x, y, z'
loop_
 _atom_site_type_symbol
 _atom_site_label
 _atom_site_symmetry_multiplicity
 _atom_site_fract_x
 _atom_site_fract_y
 _atom_site_fract_z
 _atom_site_occupancy
  Ca  Ca0  1  0.250000  0.297174  0.918636  1
  Ca  Ca1  1  0.250000  0.796870  0.582101  1
  Ca  Ca2  1  0.750000  0.203005  0.417992  1
  Zr  Zr3  1  0.750000  0.700482  0.078699  1
  Co  Co4  1  0.750000  0.696364  0.378423  1
  Co  Co5  1  0.250000  0.304211  0.618598  1
  Co  Co6  1  0.250000  0.801090  0.887573  1
  Co  Co7  1  0.750000  0.195602  0.117897  1
  Co  Co8  1  0.750000  0.987906  0.209083  1
  Co  Co9  1  0.250000  0.010066  0.791621  1
  Co  Co10  1  0.250000  0.512713  0.709160  1
  Co  Co11  1  0.750000  0.488871  0.289382  1
  Co  Co12  1  0.750000  0.677715  0.786133  1
  Co  Co13  1  0.250000  0.325144  0.213991  1
  Co  Co14  1  0.250000  0.821891  0.280466  1
  Co  Co15  1  0.750000  0.176566  0.715793  1
  Co  Co16  1  0.750000  0.929506  0.969311  1
  Co  Co17  1  0.250000  0.064477  0.033304  1
  Co  Co18  1  0.250000  0.567122  0.465653  1
  Co  Co19  1  0.750000  0.434383  0.533243  1
  Co  Co20  1  0.750000  0.989008  0.593397  1
  Co  Co21  1  0.250000  0.010172  0.405416  1
  Co  Co22  1  0.250000  0.517765  0.094658  1
  Co  Co23  1  0.750000  0.492067  0.909808  1
  As  As24  1  0.750000  0.615691  0.583292  1
  As  As25  1  0.250000  0.385409  0.416237  1
  As  As26  1  0.250000  0.882491  0.084130  1
  As  As27  1  0.750000  0.113112  0.916628  1
  As  As28  1  0.750000  0.890218  0.399669  1
  As  As29  1  0.250000  0.108761  0.600391  1
  As  As30  1  0.250000  0.610046  0.900369  1
  As  As31  1  0.750000  0.390736  0.099849  1
  As  As32  1  0.750000  0.869994  0.767917  1
  As  As33  1  0.250000  0.130756  0.231931  1
  As  As34  1  0.250000  0.631925  0.265888  1
  As  As35  1  0.750000  0.370689  0.733362  1
