# generated using pymatgen
data_Ho2Th2ReMoC4
_symmetry_space_group_name_H-M   'P 1'
_cell_length_a   5.25081200
_cell_length_b   6.73176800
_cell_length_c   9.91409500
_cell_angle_alpha   90.00000000
_cell_angle_beta   90.00000000
_cell_angle_gamma   90.00000000
_symmetry_Int_Tables_number   1
_chemical_formula_structural   Ho2Th2ReMoC4
_chemical_formula_sum   'Ho4 Th4 Re2 Mo2 C8'
_cell_volume   350.43597660
_cell_formula_units_Z   2
loop_
 _symmetry_equiv_pos_site_id
 _symmetry_equiv_pos_as_xyz
  1  'x, y, z'
loop_
 _atom_site_type_symbol
 _atom_site_label
 _atom_site_symmetry_multiplicity
 _atom_site_fract_x
 _atom_site_fract_y
 _atom_site_fract_z
 _atom_site_occupancy
  Ho  Ho0  1  0.250000  0.829041  0.054606  1
  Ho  Ho1  1  0.750000  0.670959  0.554606  1
  Ho  Ho2  1  0.250000  0.329537  0.445040  1
  Ho  Ho3  1  0.750000  0.170463  0.945040  1
  Th  Th4  1  0.250000  0.468282  0.788209  1
  Th  Th5  1  0.750000  0.031718  0.288209  1
  Th  Th6  1  0.250000  0.965096  0.713220  1
  Th  Th7  1  0.750000  0.534904  0.213220  1
  Re  Re8  1  0.250000  0.777768  0.365900  1
  Re  Re9  1  0.750000  0.722232  0.865900  1
  Mo  Mo10  1  0.250000  0.277674  0.134279  1
  Mo  Mo11  1  0.750000  0.222326  0.634279  1
  C  C12  1  0.250000  0.169470  0.944991  1
  C  C13  1  0.750000  0.830173  0.051323  1
  C  C14  1  0.250000  0.669827  0.551323  1
  C  C15  1  0.750000  0.330530  0.444991  1
  C  C16  1  0.250000  0.043861  0.262417  1
  C  C17  1  0.750000  0.456139  0.762417  1
  C  C18  1  0.250000  0.549271  0.240016  1
  C  C19  1  0.750000  0.950729  0.740016  1
