# generated using pymatgen
data_Eu2Re2TcB6
_symmetry_space_group_name_H-M   'P 1'
_cell_length_a   6.29430354
_cell_length_b   6.29430330
_cell_length_c   7.62775384
_cell_angle_alpha   90.39192734
_cell_angle_beta   90.39191933
_cell_angle_gamma   114.25108922
_symmetry_Int_Tables_number   1
_chemical_formula_structural   Eu2Re2TcB6
_chemical_formula_sum   'Eu4 Re4 Tc2 B12'
_cell_volume   275.50870157
_cell_formula_units_Z   2
loop_
 _symmetry_equiv_pos_site_id
 _symmetry_equiv_pos_as_xyz
  1  'x, y, z'
loop_
 _atom_site_type_symbol
 _atom_site_label
 _atom_site_symmetry_multiplicity
 _atom_site_fract_x
 _atom_site_fract_y
 _atom_site_fract_z
 _atom_site_occupancy
  Eu  Eu0  1  0.092754  0.445906  0.328026  1
  Eu  Eu1  1  0.554094  0.907246  0.171974  1
  Eu  Eu2  1  0.907246  0.554094  0.671974  1
  Eu  Eu3  1  0.445906  0.092754  0.828026  1
  Re  Re4  1  0.987725  0.806092  0.089658  1
  Re  Re5  1  0.193908  0.012275  0.410342  1
  Re  Re6  1  0.012275  0.193908  0.910342  1
  Re  Re7  1  0.806092  0.987725  0.589658  1
  Tc  Tc8  1  0.582766  0.417234  0.250000  1
  Tc  Tc9  1  0.417234  0.582766  0.750000  1
  B  B10  1  0.242209  0.157733  0.133207  1
  B  B11  1  0.842267  0.757791  0.366793  1
  B  B12  1  0.757791  0.842267  0.866793  1
  B  B13  1  0.157733  0.242209  0.633207  1
  B  B14  1  0.583921  0.155418  0.483819  1
  B  B15  1  0.844582  0.416079  0.016181  1
  B  B16  1  0.416079  0.844582  0.516181  1
  B  B17  1  0.155418  0.583921  0.983819  1
  B  B18  1  0.442249  0.350378  0.532145  1
  B  B19  1  0.649622  0.557751  0.967855  1
  B  B20  1  0.557751  0.649622  0.467855  1
  B  B21  1  0.350378  0.442249  0.032145  1
