# generated using pymatgen
data_Mn2(ReSi)3
_symmetry_space_group_name_H-M   'P 1'
_cell_length_a   6.97108500
_cell_length_b   6.97108551
_cell_length_c   4.84316800
_cell_angle_alpha   90.00000000
_cell_angle_beta   90.00000000
_cell_angle_gamma   120.00000233
_symmetry_Int_Tables_number   1
_chemical_formula_structural   Mn2(ReSi)3
_chemical_formula_sum   'Mn4 Re6 Si6'
_cell_volume   203.82663922
_cell_formula_units_Z   2
loop_
 _symmetry_equiv_pos_site_id
 _symmetry_equiv_pos_as_xyz
  1  'x, y, z'
loop_
 _atom_site_type_symbol
 _atom_site_label
 _atom_site_symmetry_multiplicity
 _atom_site_fract_x
 _atom_site_fract_y
 _atom_site_fract_z
 _atom_site_occupancy
  Mn  Mn0  1  0.333333  0.666667  0.500000  1
  Mn  Mn1  1  0.666667  0.333333  0.000000  1
  Mn  Mn2  1  0.666667  0.333333  0.500000  1
  Mn  Mn3  1  0.333333  0.666667  0.000000  1
  Re  Re4  1  0.000000  0.760557  0.750000  1
  Re  Re5  1  0.000000  0.239443  0.250000  1
  Re  Re6  1  0.760557  0.760557  0.250000  1
  Re  Re7  1  0.760557  0.000000  0.750000  1
  Re  Re8  1  0.239443  0.239443  0.750000  1
  Re  Re9  1  0.239443  0.000000  0.250000  1
  Si  Si10  1  0.404603  0.000000  0.750000  1
  Si  Si11  1  0.404603  0.404603  0.250000  1
  Si  Si12  1  0.000000  0.595397  0.250000  1
  Si  Si13  1  0.000000  0.404603  0.750000  1
  Si  Si14  1  0.595397  0.595397  0.750000  1
  Si  Si15  1  0.595397  0.000000  0.250000  1
