# generated using pymatgen
data_Ca2Ga9IrPd2
_symmetry_space_group_name_H-M   'P 1'
_cell_length_a   7.67508785
_cell_length_b   7.67508840
_cell_length_c   9.60934500
_cell_angle_alpha   89.95058809
_cell_angle_beta   89.95058808
_cell_angle_gamma   119.59450012
_symmetry_Int_Tables_number   1
_chemical_formula_structural   Ca2Ga9IrPd2
_chemical_formula_sum   'Ca4 Ga18 Ir2 Pd4'
_cell_volume   492.21021551
_cell_formula_units_Z   2
loop_
 _symmetry_equiv_pos_site_id
 _symmetry_equiv_pos_as_xyz
  1  'x, y, z'
loop_
 _atom_site_type_symbol
 _atom_site_label
 _atom_site_symmetry_multiplicity
 _atom_site_fract_x
 _atom_site_fract_y
 _atom_site_fract_z
 _atom_site_occupancy
  Ca  Ca0  1  0.996786  0.670217  0.250501  1
  Ca  Ca1  1  0.003214  0.329783  0.749499  1
  Ca  Ca2  1  0.670217  0.996786  0.250501  1
  Ca  Ca3  1  0.329783  0.003214  0.749499  1
  Ga  Ga4  1  0.130984  0.130984  0.250395  1
  Ga  Ga5  1  0.869016  0.869016  0.749605  1
  Ga  Ga6  1  0.001455  0.334874  0.081551  1
  Ga  Ga7  1  0.998545  0.665126  0.918449  1
  Ga  Ga8  1  0.002488  0.662325  0.577991  1
  Ga  Ga9  1  0.337675  0.997512  0.422009  1
  Ga  Ga10  1  0.997512  0.337675  0.422009  1
  Ga  Ga11  1  0.662325  0.002488  0.577991  1
  Ga  Ga12  1  0.665126  0.998545  0.918449  1
  Ga  Ga13  1  0.334874  0.001455  0.081551  1
  Ga  Ga14  1  0.333890  0.333890  0.556856  1
  Ga  Ga15  1  0.666110  0.666110  0.443144  1
  Ga  Ga16  1  0.665487  0.665487  0.064555  1
  Ga  Ga17  1  0.334513  0.334513  0.935445  1
  Ga  Ga18  1  0.339603  0.546033  0.252093  1
  Ga  Ga19  1  0.660397  0.453967  0.747907  1
  Ga  Ga20  1  0.546033  0.339603  0.252093  1
  Ga  Ga21  1  0.453967  0.660397  0.747907  1
  Ir  Ir22  1  0.329474  0.670526  0.500000  1
  Ir  Ir23  1  0.670526  0.329474  0.500000  1
  Pd  Pd24  1  0.670916  0.329084  0.000000  1
  Pd  Pd25  1  0.329084  0.670916  0.000000  1
  Pd  Pd26  1  0.000000  0.000000  0.000000  1
  Pd  Pd27  1  0.000000  0.000000  0.500000  1
