# generated using pymatgen
data_Yb9GdIr4
_symmetry_space_group_name_H-M   'P 1'
_cell_length_a   8.44506602
_cell_length_b   8.44506676
_cell_length_c   7.45781508
_cell_angle_alpha   83.05774772
_cell_angle_beta   83.05774769
_cell_angle_gamma   44.67697035
_symmetry_Int_Tables_number   1
_chemical_formula_structural   Yb9GdIr4
_chemical_formula_sum   'Yb9 Gd1 Ir4'
_cell_volume   370.76635756
_cell_formula_units_Z   1
loop_
 _symmetry_equiv_pos_site_id
 _symmetry_equiv_pos_as_xyz
  1  'x, y, z'
loop_
 _atom_site_type_symbol
 _atom_site_label
 _atom_site_symmetry_multiplicity
 _atom_site_fract_x
 _atom_site_fract_y
 _atom_site_fract_z
 _atom_site_occupancy
  Yb  Yb0  1  0.428826  0.571174  0.750000  1
  Yb  Yb1  1  0.357335  0.203178  0.321947  1
  Yb  Yb2  1  0.203273  0.968735  0.078606  1
  Yb  Yb3  1  0.794380  0.034999  0.920746  1
  Yb  Yb4  1  0.965001  0.205620  0.579254  1
  Yb  Yb5  1  0.640752  0.795445  0.677720  1
  Yb  Yb6  1  0.204555  0.359248  0.822280  1
  Yb  Yb7  1  0.796822  0.642665  0.178053  1
  Yb  Yb8  1  0.031265  0.796727  0.421394  1
  Gd  Gd9  1  0.566755  0.433245  0.250000  1
  Ir  Ir10  1  0.399391  0.815776  0.418828  1
  Ir  Ir11  1  0.184224  0.600609  0.081172  1
  Ir  Ir12  1  0.820833  0.393412  0.928852  1
  Ir  Ir13  1  0.606588  0.179167  0.571148  1
