# generated using pymatgen
data_Nd4In2CuAg2Rh
_symmetry_space_group_name_H-M   'P 1'
_cell_length_a   8.04061445
_cell_length_b   8.04061470
_cell_length_c   3.84487400
_cell_angle_alpha   90.00000000
_cell_angle_beta   90.00000000
_cell_angle_gamma   88.85933180
_symmetry_Int_Tables_number   1
_chemical_formula_structural   Nd4In2CuAg2Rh
_chemical_formula_sum   'Nd4 In2 Cu1 Ag2 Rh1'
_cell_volume   248.52754560
_cell_formula_units_Z   1
loop_
 _symmetry_equiv_pos_site_id
 _symmetry_equiv_pos_as_xyz
  1  'x, y, z'
loop_
 _atom_site_type_symbol
 _atom_site_label
 _atom_site_symmetry_multiplicity
 _atom_site_fract_x
 _atom_site_fract_y
 _atom_site_fract_z
 _atom_site_occupancy
  Nd  Nd0  1  0.673237  0.155389  0.500000  1
  Nd  Nd1  1  0.344611  0.826763  0.500000  1
  Nd  Nd2  1  0.806176  0.693824  0.500000  1
  Nd  Nd3  1  0.184831  0.315169  0.500000  1
  In  In4  1  0.498369  0.494429  0.000000  1
  In  In5  1  0.005571  0.001631  0.000000  1
  Cu  Cu6  1  0.378575  0.121425  0.000000  1
  Ag  Ag7  1  0.120403  0.628291  0.000000  1
  Ag  Ag8  1  0.871709  0.379597  0.000000  1
  Rh  Rh9  1  0.616518  0.883482  0.000000  1
