# generated using pymatgen
data_Sr3Ga3Si2IrO14
_symmetry_space_group_name_H-M   'P 1'
_cell_length_a   8.33935200
_cell_length_b   8.33932954
_cell_length_c   5.17285900
_cell_angle_alpha   90.00005032
_cell_angle_beta   89.99934659
_cell_angle_gamma   119.99996886
_symmetry_Int_Tables_number   1
_chemical_formula_structural   Sr3Ga3Si2IrO14
_chemical_formula_sum   'Sr3 Ga3 Si2 Ir1 O14'
_cell_volume   311.54791585
_cell_formula_units_Z   1
loop_
 _symmetry_equiv_pos_site_id
 _symmetry_equiv_pos_as_xyz
  1  'x, y, z'
loop_
 _atom_site_type_symbol
 _atom_site_label
 _atom_site_symmetry_multiplicity
 _atom_site_fract_x
 _atom_site_fract_y
 _atom_site_fract_z
 _atom_site_occupancy
  Sr  Sr0  1  0.426664  0.000002  0.999999  1
  Sr  Sr1  1  0.000000  0.426664  0.000000  1
  Sr  Sr2  1  0.573336  0.573338  0.000001  1
  Ga  Ga3  1  0.750386  0.000003  0.500002  1
  Ga  Ga4  1  0.000000  0.750386  0.500000  1
  Ga  Ga5  1  0.249613  0.249616  0.499998  1
  Si  Si6  1  0.666657  0.333324  0.464946  1
  Si  Si7  1  0.333342  0.666666  0.535055  1
  Ir  Ir8  1  0.000001  0.000008  0.000000  1
  O  O9  1  0.333339  0.666670  0.222996  1
  O  O10  1  0.127435  0.908504  0.230234  1
  O  O11  1  0.091493  0.218928  0.230230  1
  O  O12  1  0.781074  0.872564  0.230240  1
  O  O13  1  0.473296  0.306910  0.331474  1
  O  O14  1  0.693083  0.166382  0.331477  1
  O  O15  1  0.833620  0.526709  0.331477  1
  O  O16  1  0.166379  0.693088  0.668523  1
  O  O17  1  0.306915  0.473298  0.668523  1
  O  O18  1  0.526704  0.833614  0.668527  1
  O  O19  1  0.218927  0.091490  0.769762  1
  O  O20  1  0.908509  0.127436  0.769765  1
  O  O21  1  0.872567  0.781069  0.769769  1
  O  O22  1  0.666661  0.333330  0.777004  1
