# generated using pymatgen
data_Ho3Er7(GaSb2)2
_symmetry_space_group_name_H-M   'P 1'
_cell_length_a   8.81560300
_cell_length_b   8.78735965
_cell_length_c   6.38409500
_cell_angle_alpha   90.00000000
_cell_angle_beta   90.00000000
_cell_angle_gamma   119.98581783
_symmetry_Int_Tables_number   1
_chemical_formula_structural   Ho3Er7(GaSb2)2
_chemical_formula_sum   'Ho3 Er7 Ga2 Sb4'
_cell_volume   428.35362344
_cell_formula_units_Z   1
loop_
 _symmetry_equiv_pos_site_id
 _symmetry_equiv_pos_as_xyz
  1  'x, y, z'
loop_
 _atom_site_type_symbol
 _atom_site_label
 _atom_site_symmetry_multiplicity
 _atom_site_fract_x
 _atom_site_fract_y
 _atom_site_fract_z
 _atom_site_occupancy
  Ho  Ho0  1  0.011320  0.767195  0.750000  1
  Ho  Ho1  1  0.011020  0.243845  0.250000  1
  Ho  Ho2  1  0.752768  0.753632  0.250000  1
  Er  Er3  1  0.752187  0.999676  0.750000  1
  Er  Er4  1  0.244098  0.232660  0.750000  1
  Er  Er5  1  0.245405  0.011485  0.250000  1
  Er  Er6  1  0.336038  0.667815  0.500587  1
  Er  Er7  1  0.652858  0.326587  0.999803  1
  Er  Er8  1  0.652858  0.326587  0.500197  1
  Er  Er9  1  0.336038  0.667815  0.999413  1
  Ga  Ga10  1  0.395866  0.997593  0.750000  1
  Ga  Ga11  1  0.395130  0.398468  0.250000  1
  Sb  Sb12  1  0.998921  0.607243  0.250000  1
  Sb  Sb13  1  0.998665  0.390966  0.750000  1
  Sb  Sb14  1  0.608352  0.607129  0.750000  1
  Sb  Sb15  1  0.608474  0.001304  0.250000  1
