# generated using pymatgen
data_Y6Fe11P12Ir7
_symmetry_space_group_name_H-M   'P 1'
_cell_length_a   3.82824500
_cell_length_b   10.88938810
_cell_length_c   12.37573413
_cell_angle_alpha   89.91300258
_cell_angle_beta   90.00000000
_cell_angle_gamma   90.00000000
_symmetry_Int_Tables_number   1
_chemical_formula_structural   Y6Fe11P12Ir7
_chemical_formula_sum   'Y6 Fe11 P12 Ir7'
_cell_volume   515.90967289
_cell_formula_units_Z   1
loop_
 _symmetry_equiv_pos_site_id
 _symmetry_equiv_pos_as_xyz
  1  'x, y, z'
loop_
 _atom_site_type_symbol
 _atom_site_label
 _atom_site_symmetry_multiplicity
 _atom_site_fract_x
 _atom_site_fract_y
 _atom_site_fract_z
 _atom_site_occupancy
  Y  Y0  1  0.000000  0.500807  0.523827  1
  Y  Y1  1  0.500000  0.995711  0.479506  1
  Y  Y2  1  0.500000  0.816965  0.198413  1
  Y  Y3  1  0.500000  0.182104  0.195451  1
  Y  Y4  1  0.000000  0.684210  0.800286  1
  Y  Y5  1  0.000000  0.318384  0.803889  1
  Fe  Fe6  1  0.000000  0.500992  0.993199  1
  Fe  Fe7  1  0.500000  0.999891  0.006290  1
  Fe  Fe8  1  0.000000  0.798777  0.571892  1
  Fe  Fe9  1  0.500000  0.883394  0.714702  1
  Fe  Fe10  1  0.500000  0.118266  0.717184  1
  Fe  Fe11  1  0.000000  0.617345  0.285134  1
  Fe  Fe12  1  0.000000  0.381683  0.282768  1
  Fe  Fe13  1  0.500000  0.332755  0.994908  1
  Fe  Fe14  1  0.500000  0.668779  0.995359  1
  Fe  Fe15  1  0.000000  0.167385  0.003784  1
  Fe  Fe16  1  0.000000  0.831961  0.004331  1
  P  P17  1  0.500000  0.302667  0.627271  1
  P  P18  1  0.500000  0.704650  0.623763  1
  P  P19  1  0.000000  0.196092  0.373476  1
  P  P20  1  0.000000  0.805238  0.381468  1
  P  P21  1  0.500000  0.501516  0.894496  1
  P  P22  1  0.000000  0.999497  0.104835  1
  P  P23  1  0.500000  0.842139  0.898859  1
  P  P24  1  0.500000  0.158218  0.898830  1
  P  P25  1  0.000000  0.658769  0.101184  1
  P  P26  1  0.000000  0.341593  0.099648  1
  P  P27  1  0.500000  0.500834  0.338913  1
  P  P28  1  0.000000  0.989968  0.657971  1
  Ir  Ir29  1  0.500000  0.300427  0.427221  1
  Ir  Ir30  1  0.500000  0.700708  0.430211  1
  Ir  Ir31  1  0.000000  0.197529  0.573286  1
  Ir  Ir32  1  0.500000  0.500504  0.153551  1
  Ir  Ir33  1  0.000000  0.999179  0.844872  1
  Ir  Ir34  1  0.500000  0.501552  0.701213  1
  Ir  Ir35  1  0.000000  0.999509  0.298007  1
