# generated using pymatgen
data_Lu12Co4AgRh
_symmetry_space_group_name_H-M   'P 1'
_cell_length_a   8.06479905
_cell_length_b   8.06479956
_cell_length_c   8.06479804
_cell_angle_alpha   110.93392520
_cell_angle_beta   110.90142232
_cell_angle_gamma   106.61551388
_symmetry_Int_Tables_number   1
_chemical_formula_structural   Lu12Co4AgRh
_chemical_formula_sum   'Lu12 Co4 Ag1 Rh1'
_cell_volume   403.04531089
_cell_formula_units_Z   1
loop_
 _symmetry_equiv_pos_site_id
 _symmetry_equiv_pos_as_xyz
  1  'x, y, z'
loop_
 _atom_site_type_symbol
 _atom_site_label
 _atom_site_symmetry_multiplicity
 _atom_site_fract_x
 _atom_site_fract_y
 _atom_site_fract_z
 _atom_site_occupancy
  Lu  Lu0  1  0.416176  0.222032  0.194143  1
  Lu  Lu1  1  0.583824  0.777968  0.805857  1
  Lu  Lu2  1  0.027889  0.222032  0.805857  1
  Lu  Lu3  1  0.972111  0.777968  0.194143  1
  Lu  Lu4  1  0.184071  0.284174  0.468246  1
  Lu  Lu5  1  0.815929  0.715826  0.531754  1
  Lu  Lu6  1  0.184071  0.715826  0.899897  1
  Lu  Lu7  1  0.815929  0.284174  0.100103  1
  Lu  Lu8  1  0.316644  0.623666  0.307022  1
  Lu  Lu9  1  0.683356  0.376334  0.692978  1
  Lu  Lu10  1  0.316644  0.009623  0.692978  1
  Lu  Lu11  1  0.683356  0.990377  0.307022  1
  Co  Co12  1  0.369803  0.000000  0.369803  1
  Co  Co13  1  0.630197  0.000000  0.630197  1
  Co  Co14  1  0.113718  0.613718  0.500000  1
  Co  Co15  1  0.886282  0.386282  0.500000  1
  Ag  Ag16  1  0.500000  0.500000  0.000000  1
  Rh  Rh17  1  0.000000  0.000000  0.000000  1
