# generated using pymatgen
data_Pr4MnCo16(TcP4)3
_symmetry_space_group_name_H-M   'P 1'
_cell_length_a   3.73859800
_cell_length_b   10.49566634
_cell_length_c   11.92958987
_cell_angle_alpha   89.96330721
_cell_angle_beta   90.00000000
_cell_angle_gamma   90.00000000
_symmetry_Int_Tables_number   1
_chemical_formula_structural   Pr4MnCo16(TcP4)3
_chemical_formula_sum   'Pr4 Mn1 Co16 Tc3 P12'
_cell_volume   468.10600164
_cell_formula_units_Z   1
loop_
 _symmetry_equiv_pos_site_id
 _symmetry_equiv_pos_as_xyz
  1  'x, y, z'
loop_
 _atom_site_type_symbol
 _atom_site_label
 _atom_site_symmetry_multiplicity
 _atom_site_fract_x
 _atom_site_fract_y
 _atom_site_fract_z
 _atom_site_occupancy
  Pr  Pr0  1  0.250000  0.582403  0.701813  1
  Pr  Pr1  1  0.250000  0.915654  0.204018  1
  Pr  Pr2  1  0.750000  0.415410  0.296450  1
  Pr  Pr3  1  0.750000  0.083808  0.796121  1
  Mn  Mn4  1  0.750000  0.210128  0.511899  1
  Co  Co5  1  0.250000  0.404595  0.489800  1
  Co  Co6  1  0.250000  0.094537  0.990765  1
  Co  Co7  1  0.750000  0.594603  0.508202  1
  Co  Co8  1  0.750000  0.905695  0.008606  1
  Co  Co9  1  0.250000  0.220482  0.174975  1
  Co  Co10  1  0.250000  0.277639  0.675142  1
  Co  Co11  1  0.750000  0.778239  0.824392  1
  Co  Co12  1  0.750000  0.721230  0.325024  1
  Co  Co13  1  0.250000  0.885315  0.700267  1
  Co  Co14  1  0.250000  0.614889  0.201405  1
  Co  Co15  1  0.750000  0.116888  0.301422  1
  Co  Co16  1  0.750000  0.385107  0.799514  1
  Co  Co17  1  0.250000  0.465338  0.933142  1
  Co  Co18  1  0.250000  0.034153  0.432647  1
  Co  Co19  1  0.750000  0.534767  0.067396  1
  Co  Co20  1  0.750000  0.967488  0.567228  1
  Tc  Tc21  1  0.250000  0.708513  0.989316  1
  Tc  Tc22  1  0.250000  0.792012  0.490146  1
  Tc  Tc23  1  0.750000  0.291348  0.010592  1
  P  P24  1  0.250000  0.419372  0.110830  1
  P  P25  1  0.250000  0.082298  0.608926  1
  P  P26  1  0.750000  0.579694  0.889108  1
  P  P27  1  0.750000  0.920777  0.389722  1
  P  P28  1  0.250000  0.275966  0.864441  1
  P  P29  1  0.250000  0.224384  0.367327  1
  P  P30  1  0.750000  0.724259  0.135194  1
  P  P31  1  0.750000  0.776593  0.634066  1
  P  P32  1  0.250000  0.600534  0.394115  1
  P  P33  1  0.250000  0.899301  0.893046  1
  P  P34  1  0.750000  0.395320  0.605154  1
  P  P35  1  0.750000  0.101259  0.107788  1
