# generated using pymatgen
data_La3Pr3Nd2Cd2PdRh
_symmetry_space_group_name_H-M   'P 1'
_cell_length_a   10.09788124
_cell_length_b   10.11901461
_cell_length_c   10.11901300
_cell_angle_alpha   59.86187921
_cell_angle_beta   60.06904932
_cell_angle_gamma   60.06905110
_symmetry_Int_Tables_number   1
_chemical_formula_structural   La3Pr3Nd2Cd2PdRh
_chemical_formula_sum   'La6 Pr6 Nd4 Cd4 Pd2 Rh2'
_cell_volume   731.11852972
_cell_formula_units_Z   2
loop_
 _symmetry_equiv_pos_site_id
 _symmetry_equiv_pos_as_xyz
  1  'x, y, z'
loop_
 _atom_site_type_symbol
 _atom_site_label
 _atom_site_symmetry_multiplicity
 _atom_site_fract_x
 _atom_site_fract_y
 _atom_site_fract_z
 _atom_site_occupancy
  La  La0  1  0.346868  0.348238  0.355734  1
  La  La1  1  0.348238  0.346868  0.949162  1
  La  La2  1  0.345092  0.953806  0.349512  1
  La  La3  1  0.953806  0.345092  0.351591  1
  La  La4  1  0.816645  0.188857  0.188852  1
  La  La5  1  0.188857  0.816645  0.805647  1
  Pr  Pr6  1  0.934443  0.563777  0.565966  1
  Pr  Pr7  1  0.563777  0.934443  0.935815  1
  Pr  Pr8  1  0.563523  0.934775  0.565574  1
  Pr  Pr9  1  0.934775  0.563523  0.936129  1
  Pr  Pr10  1  0.564743  0.564743  0.935257  1
  Pr  Pr11  1  0.935655  0.935655  0.564345  1
  Nd  Nd12  1  0.191046  0.812904  0.190871  1
  Nd  Nd13  1  0.812904  0.191046  0.805179  1
  Nd  Nd14  1  0.189990  0.189990  0.810010  1
  Nd  Nd15  1  0.807850  0.807850  0.192150  1
  Cd  Cd16  1  0.581448  0.579421  0.579050  1
  Cd  Cd17  1  0.579421  0.581448  0.260079  1
  Cd  Cd18  1  0.579677  0.259562  0.581382  1
  Cd  Cd19  1  0.259562  0.579677  0.579377  1
  Pd  Pd20  1  0.144310  0.572364  0.140940  1
  Pd  Pd21  1  0.572364  0.144310  0.142387  1
  Rh  Rh22  1  0.140601  0.144407  0.142941  1
  Rh  Rh23  1  0.144407  0.140601  0.572052  1
