# generated using pymatgen
data_Ho2B6(IrRh2)3
_symmetry_space_group_name_H-M   'P 1'
_cell_length_a   5.61659300
_cell_length_b   5.61659219
_cell_length_c   8.62310700
_cell_angle_alpha   90.00000000
_cell_angle_beta   90.00000000
_cell_angle_gamma   120.00001064
_symmetry_Int_Tables_number   1
_chemical_formula_structural   Ho2B6(IrRh2)3
_chemical_formula_sum   'Ho2 B6 Ir3 Rh6'
_cell_volume   235.58097047
_cell_formula_units_Z   1
loop_
 _symmetry_equiv_pos_site_id
 _symmetry_equiv_pos_as_xyz
  1  'x, y, z'
loop_
 _atom_site_type_symbol
 _atom_site_label
 _atom_site_symmetry_multiplicity
 _atom_site_fract_x
 _atom_site_fract_y
 _atom_site_fract_z
 _atom_site_occupancy
  Ho  Ho0  1  0.000000  0.000000  0.701704  1
  Ho  Ho1  1  0.000000  0.000000  0.298296  1
  B  B2  1  0.666667  0.333333  0.000000  1
  B  B3  1  0.333333  0.666667  0.000000  1
  B  B4  1  0.666667  0.333333  0.668293  1
  B  B5  1  0.333333  0.666667  0.668293  1
  B  B6  1  0.333333  0.666667  0.331707  1
  B  B7  1  0.666667  0.333333  0.331707  1
  Ir  Ir8  1  0.500000  0.500000  0.500000  1
  Ir  Ir9  1  0.500000  0.000000  0.500000  1
  Ir  Ir10  1  0.000000  0.500000  0.500000  1
  Rh  Rh11  1  0.500000  0.500000  0.836833  1
  Rh  Rh12  1  0.500000  0.000000  0.836833  1
  Rh  Rh13  1  0.000000  0.500000  0.836833  1
  Rh  Rh14  1  0.500000  0.500000  0.163167  1
  Rh  Rh15  1  0.500000  0.000000  0.163167  1
  Rh  Rh16  1  0.000000  0.500000  0.163167  1
