# generated using pymatgen
data_SmCo3MoP3Rh
_symmetry_space_group_name_H-M   'P 1'
_cell_length_a   3.77316300
_cell_length_b   10.56981400
_cell_length_c   12.09827800
_cell_angle_alpha   90.00000000
_cell_angle_beta   90.00000000
_cell_angle_gamma   90.00000000
_symmetry_Int_Tables_number   1
_chemical_formula_structural   SmCo3MoP3Rh
_chemical_formula_sum   'Sm4 Co12 Mo4 P12 Rh4'
_cell_volume   482.49906016
_cell_formula_units_Z   4
loop_
 _symmetry_equiv_pos_site_id
 _symmetry_equiv_pos_as_xyz
  1  'x, y, z'
loop_
 _atom_site_type_symbol
 _atom_site_label
 _atom_site_symmetry_multiplicity
 _atom_site_fract_x
 _atom_site_fract_y
 _atom_site_fract_z
 _atom_site_occupancy
  Sm  Sm0  1  0.250000  0.583104  0.708292  1
  Sm  Sm1  1  0.250000  0.916896  0.208292  1
  Sm  Sm2  1  0.750000  0.416896  0.291708  1
  Sm  Sm3  1  0.750000  0.083104  0.791708  1
  Co  Co4  1  0.250000  0.223671  0.178972  1
  Co  Co5  1  0.250000  0.276329  0.678972  1
  Co  Co6  1  0.750000  0.776329  0.821028  1
  Co  Co7  1  0.750000  0.723671  0.321028  1
  Co  Co8  1  0.250000  0.884928  0.696498  1
  Co  Co9  1  0.250000  0.615072  0.196498  1
  Co  Co10  1  0.750000  0.115072  0.303502  1
  Co  Co11  1  0.750000  0.384928  0.803502  1
  Co  Co12  1  0.250000  0.465155  0.934858  1
  Co  Co13  1  0.250000  0.034845  0.434858  1
  Co  Co14  1  0.750000  0.534845  0.065142  1
  Co  Co15  1  0.750000  0.965155  0.565142  1
  Mo  Mo16  1  0.250000  0.704349  0.985255  1
  Mo  Mo17  1  0.250000  0.795651  0.485255  1
  Mo  Mo18  1  0.750000  0.295651  0.014745  1
  Mo  Mo19  1  0.750000  0.204349  0.514745  1
  P  P20  1  0.250000  0.420811  0.112670  1
  P  P21  1  0.250000  0.079189  0.612670  1
  P  P22  1  0.750000  0.579189  0.887330  1
  P  P23  1  0.750000  0.920811  0.387330  1
  P  P24  1  0.250000  0.276037  0.862581  1
  P  P25  1  0.250000  0.223963  0.362581  1
  P  P26  1  0.750000  0.723963  0.137419  1
  P  P27  1  0.750000  0.776037  0.637419  1
  P  P28  1  0.250000  0.605248  0.382983  1
  P  P29  1  0.250000  0.894752  0.882983  1
  P  P30  1  0.750000  0.394752  0.617017  1
  P  P31  1  0.750000  0.105248  0.117017  1
  Rh  Rh32  1  0.250000  0.402977  0.485599  1
  Rh  Rh33  1  0.250000  0.097023  0.985599  1
  Rh  Rh34  1  0.750000  0.597023  0.514401  1
  Rh  Rh35  1  0.750000  0.902977  0.014401  1
