# generated using pymatgen
data_Er11Th5(MgTc)4
_symmetry_space_group_name_H-M   'P 1'
_cell_length_a   9.67088513
_cell_length_b   9.72616768
_cell_length_c   9.72630100
_cell_angle_alpha   60.25272705
_cell_angle_beta   60.42471098
_cell_angle_gamma   60.42431248
_symmetry_Int_Tables_number   1
_chemical_formula_structural   Er11Th5(MgTc)4
_chemical_formula_sum   'Er11 Th5 Mg4 Tc4'
_cell_volume   652.27523057
_cell_formula_units_Z   1
loop_
 _symmetry_equiv_pos_site_id
 _symmetry_equiv_pos_as_xyz
  1  'x, y, z'
loop_
 _atom_site_type_symbol
 _atom_site_label
 _atom_site_symmetry_multiplicity
 _atom_site_fract_x
 _atom_site_fract_y
 _atom_site_fract_z
 _atom_site_occupancy
  Er  Er0  1  0.437744  0.062512  0.062466  1
  Er  Er1  1  0.440751  0.058389  0.438107  1
  Er  Er2  1  0.063042  0.437587  0.058504  1
  Er  Er3  1  0.440727  0.438065  0.058394  1
  Er  Er4  1  0.063046  0.058499  0.437577  1
  Er  Er5  1  0.184267  0.814721  0.814791  1
  Er  Er6  1  0.811416  0.187973  0.187981  1
  Er  Er7  1  0.809565  0.188157  0.810747  1
  Er  Er8  1  0.189712  0.810957  0.189323  1
  Er  Er9  1  0.809627  0.810710  0.188159  1
  Er  Er10  1  0.189732  0.189313  0.810997  1
  Th  Th11  1  0.592188  0.598288  0.598217  1
  Th  Th12  1  0.595237  0.596671  0.211215  1
  Th  Th13  1  0.595295  0.211177  0.596611  1
  Th  Th14  1  0.210377  0.598395  0.598328  1
  Th  Th15  1  0.064104  0.435228  0.435259  1
  Mg  Mg16  1  0.830051  0.830841  0.830874  1
  Mg  Mg17  1  0.828741  0.832723  0.508011  1
  Mg  Mg18  1  0.828756  0.507962  0.832764  1
  Mg  Mg19  1  0.507796  0.830835  0.830861  1
  Tc  Tc20  1  0.378208  0.392888  0.392869  1
  Tc  Tc21  1  0.397367  0.389700  0.822197  1
  Tc  Tc22  1  0.397318  0.822291  0.389659  1
  Tc  Tc23  1  0.834932  0.396119  0.396093  1
