# generated using pymatgen
data_Zr4Cu(B7Ir6)2
_symmetry_space_group_name_H-M   'P 1'
_cell_length_a   3.49640561
_cell_length_b   7.74482496
_cell_length_c   13.38297445
_cell_angle_alpha   90.04218934
_cell_angle_beta   90.01620281
_cell_angle_gamma   89.99574507
_symmetry_Int_Tables_number   1
_chemical_formula_structural   Zr4Cu(B7Ir6)2
_chemical_formula_sum   'Zr4 Cu1 B14 Ir12'
_cell_volume   362.39811272
_cell_formula_units_Z   1
loop_
 _symmetry_equiv_pos_site_id
 _symmetry_equiv_pos_as_xyz
  1  'x, y, z'
loop_
 _atom_site_type_symbol
 _atom_site_label
 _atom_site_symmetry_multiplicity
 _atom_site_fract_x
 _atom_site_fract_y
 _atom_site_fract_z
 _atom_site_occupancy
  Zr  Zr0  1  0.252104  0.498472  0.833326  1
  Zr  Zr1  1  0.253450  0.000989  0.332865  1
  Zr  Zr2  1  0.746550  0.999011  0.667135  1
  Zr  Zr3  1  0.747896  0.501528  0.166674  1
  Cu  Cu4  1  0.500000  0.500000  0.500000  1
  B  B5  1  0.500000  0.000000  0.000000  1
  B  B6  1  0.000000  0.000000  0.000000  1
  B  B7  1  0.753558  0.325542  0.725445  1
  B  B8  1  0.753858  0.829458  0.221897  1
  B  B9  1  0.752537  0.752755  0.803328  1
  B  B10  1  0.753453  0.249634  0.300433  1
  B  B11  1  0.749429  0.424180  0.974555  1
  B  B12  1  0.757929  0.919270  0.474310  1
  B  B13  1  0.246142  0.170542  0.778103  1
  B  B14  1  0.246442  0.674458  0.274555  1
  B  B15  1  0.246547  0.750366  0.699567  1
  B  B16  1  0.247463  0.247245  0.196672  1
  B  B17  1  0.242071  0.080730  0.525690  1
  B  B18  1  0.250571  0.575820  0.025445  1
  Ir  Ir19  1  0.749141  0.594264  0.673935  1
  Ir  Ir20  1  0.749119  0.090109  0.161725  1
  Ir  Ir21  1  0.751177  0.704753  0.963138  1
  Ir  Ir22  1  0.746136  0.197066  0.460475  1
  Ir  Ir23  1  0.748214  0.201957  0.874662  1
  Ir  Ir24  1  0.749043  0.709358  0.364855  1
  Ir  Ir25  1  0.250881  0.909891  0.838275  1
  Ir  Ir26  1  0.250859  0.405736  0.326065  1
  Ir  Ir27  1  0.253864  0.802934  0.539525  1
  Ir  Ir28  1  0.248823  0.295247  0.036862  1
  Ir  Ir29  1  0.250957  0.290642  0.635145  1
  Ir  Ir30  1  0.251786  0.798043  0.125338  1
