# generated using pymatgen
data_Y4Tm8GaCo5
_symmetry_space_group_name_H-M   'P 1'
_cell_length_a   8.15886217
_cell_length_b   8.15886309
_cell_length_c   8.15886220
_cell_angle_alpha   110.87695564
_cell_angle_beta   110.53296625
_cell_angle_gamma   107.03114432
_symmetry_Int_Tables_number   1
_chemical_formula_structural   Y4Tm8GaCo5
_chemical_formula_sum   'Y4 Tm8 Ga1 Co5'
_cell_volume   417.51767348
_cell_formula_units_Z   1
loop_
 _symmetry_equiv_pos_site_id
 _symmetry_equiv_pos_as_xyz
  1  'x, y, z'
loop_
 _atom_site_type_symbol
 _atom_site_label
 _atom_site_symmetry_multiplicity
 _atom_site_fract_x
 _atom_site_fract_y
 _atom_site_fract_z
 _atom_site_occupancy
  Y  Y0  1  0.287489  0.187320  0.474810  1
  Y  Y1  1  0.712511  0.812680  0.525190  1
  Y  Y2  1  0.287489  0.812680  0.100168  1
  Y  Y3  1  0.712511  0.187320  0.899832  1
  Tm  Tm4  1  0.620559  0.316342  0.304217  1
  Tm  Tm5  1  0.379441  0.683658  0.695783  1
  Tm  Tm6  1  0.012125  0.316342  0.695783  1
  Tm  Tm7  1  0.987875  0.683658  0.304217  1
  Tm  Tm8  1  0.216491  0.407393  0.190903  1
  Tm  Tm9  1  0.783509  0.592607  0.809097  1
  Tm  Tm10  1  0.216491  0.025588  0.809097  1
  Tm  Tm11  1  0.783509  0.974412  0.190903  1
  Ga  Ga12  1  0.500000  0.500000  0.000000  1
  Co  Co13  1  0.000000  0.375910  0.375910  1
  Co  Co14  1  0.000000  0.624090  0.624090  1
  Co  Co15  1  0.385583  0.885583  0.500000  1
  Co  Co16  1  0.614417  0.114417  0.500000  1
  Co  Co17  1  0.000000  0.000000  0.000000  1
