# generated using pymatgen
data_ErZn3HgRh
_symmetry_space_group_name_H-M   'P 1'
_cell_length_a   5.31535487
_cell_length_b   5.31535475
_cell_length_c   5.31535400
_cell_angle_alpha   58.88813921
_cell_angle_beta   58.88814000
_cell_angle_gamma   58.88814635
_symmetry_Int_Tables_number   1
_chemical_formula_structural   ErZn3HgRh
_chemical_formula_sum   'Er1 Zn3 Hg1 Rh1'
_cell_volume   103.49460267
_cell_formula_units_Z   1
loop_
 _symmetry_equiv_pos_site_id
 _symmetry_equiv_pos_as_xyz
  1  'x, y, z'
loop_
 _atom_site_type_symbol
 _atom_site_label
 _atom_site_symmetry_multiplicity
 _atom_site_fract_x
 _atom_site_fract_y
 _atom_site_fract_z
 _atom_site_occupancy
  Er  Er0  1  0.253758  0.253758  0.253758  1
  Zn  Zn1  1  0.625412  0.625412  0.122379  1
  Zn  Zn2  1  0.625412  0.122379  0.625412  1
  Zn  Zn3  1  0.122379  0.625412  0.625412  1
  Hg  Hg4  1  0.999467  0.999467  0.999467  1
  Rh  Rh5  1  0.623571  0.623571  0.623571  1
