# generated using pymatgen
data_CeHo2PaPt4
_symmetry_space_group_name_H-M   'P 1'
_cell_length_a   4.55211000
_cell_length_b   5.62898513
_cell_length_c   7.00661570
_cell_angle_alpha   91.39600898
_cell_angle_beta   90.00000000
_cell_angle_gamma   90.00000000
_symmetry_Int_Tables_number   1
_chemical_formula_structural   CeHo2PaPt4
_chemical_formula_sum   'Ce1 Ho2 Pa1 Pt4'
_cell_volume   179.48254720
_cell_formula_units_Z   1
loop_
 _symmetry_equiv_pos_site_id
 _symmetry_equiv_pos_as_xyz
  1  'x, y, z'
loop_
 _atom_site_type_symbol
 _atom_site_label
 _atom_site_symmetry_multiplicity
 _atom_site_fract_x
 _atom_site_fract_y
 _atom_site_fract_z
 _atom_site_occupancy
  Ce  Ce0  1  0.250000  0.144352  0.185737  1
  Ho  Ho1  1  0.750000  0.647612  0.317667  1
  Ho  Ho2  1  0.750000  0.850909  0.817242  1
  Pa  Pa3  1  0.250000  0.356531  0.683707  1
  Pt  Pt4  1  0.250000  0.838155  0.550955  1
  Pt  Pt5  1  0.250000  0.652258  0.037869  1
  Pt  Pt6  1  0.750000  0.171528  0.465846  1
  Pt  Pt7  1  0.750000  0.338655  0.940977  1
