# generated using pymatgen
data_AuCl(OF3)2
_symmetry_space_group_name_H-M   'P 1'
_cell_length_a   5.88261000
_cell_length_b   7.33362200
_cell_length_c   7.66242500
_cell_angle_alpha   90.00000000
_cell_angle_beta   90.00000000
_cell_angle_gamma   90.00000000
_symmetry_Int_Tables_number   1
_chemical_formula_structural   AuCl(OF3)2
_chemical_formula_sum   'Au2 Cl2 O4 F12'
_cell_volume   330.56343648
_cell_formula_units_Z   2
loop_
 _symmetry_equiv_pos_site_id
 _symmetry_equiv_pos_as_xyz
  1  'x, y, z'
loop_
 _atom_site_type_symbol
 _atom_site_label
 _atom_site_symmetry_multiplicity
 _atom_site_fract_x
 _atom_site_fract_y
 _atom_site_fract_z
 _atom_site_occupancy
  Au  Au0  1  0.018165  0.000000  0.500000  1
  Au  Au1  1  0.981835  0.500000  0.000000  1
  Cl  Cl2  1  0.666322  0.000000  0.000000  1
  Cl  Cl3  1  0.333678  0.500000  0.500000  1
  O  O4  1  0.460366  0.500000  0.658625  1
  O  O5  1  0.539634  0.000000  0.158625  1
  O  O6  1  0.539634  0.000000  0.841375  1
  O  O7  1  0.460366  0.500000  0.341375  1
  F  F8  1  0.785413  0.185888  0.500000  1
  F  F9  1  0.263691  0.183684  0.500000  1
  F  F10  1  0.977606  0.500000  0.745710  1
  F  F11  1  0.785413  0.814112  0.500000  1
  F  F12  1  0.022394  0.000000  0.245710  1
  F  F13  1  0.736309  0.316316  0.000000  1
  F  F14  1  0.022394  0.000000  0.754290  1
  F  F15  1  0.263691  0.816316  0.500000  1
  F  F16  1  0.977606  0.500000  0.254290  1
  F  F17  1  0.736309  0.683684  0.000000  1
  F  F18  1  0.214587  0.314112  0.000000  1
  F  F19  1  0.214587  0.685888  0.000000  1
