# generated using pymatgen
data_Dy2Co9P6Ru
_symmetry_space_group_name_H-M   'P 1'
_cell_length_a   3.67788900
_cell_length_b   10.33669400
_cell_length_c   11.76486900
_cell_angle_alpha   90.00000000
_cell_angle_beta   90.00000000
_cell_angle_gamma   90.00000000
_symmetry_Int_Tables_number   1
_chemical_formula_structural   Dy2Co9P6Ru
_chemical_formula_sum   'Dy4 Co18 P12 Ru2'
_cell_volume   447.26753256
_cell_formula_units_Z   2
loop_
 _symmetry_equiv_pos_site_id
 _symmetry_equiv_pos_as_xyz
  1  'x, y, z'
loop_
 _atom_site_type_symbol
 _atom_site_label
 _atom_site_symmetry_multiplicity
 _atom_site_fract_x
 _atom_site_fract_y
 _atom_site_fract_z
 _atom_site_occupancy
  Dy  Dy0  1  0.250000  0.582425  0.702342  1
  Dy  Dy1  1  0.250000  0.917575  0.202342  1
  Dy  Dy2  1  0.750000  0.414237  0.295544  1
  Dy  Dy3  1  0.750000  0.085763  0.795544  1
  Co  Co4  1  0.750000  0.283937  0.009238  1
  Co  Co5  1  0.750000  0.216063  0.509238  1
  Co  Co6  1  0.250000  0.406464  0.487828  1
  Co  Co7  1  0.250000  0.093536  0.987828  1
  Co  Co8  1  0.750000  0.591325  0.510503  1
  Co  Co9  1  0.750000  0.908675  0.010503  1
  Co  Co10  1  0.250000  0.220713  0.176742  1
  Co  Co11  1  0.250000  0.279287  0.676742  1
  Co  Co12  1  0.750000  0.778352  0.822803  1
  Co  Co13  1  0.750000  0.721648  0.322803  1
  Co  Co14  1  0.250000  0.886263  0.701449  1
  Co  Co15  1  0.250000  0.613737  0.201449  1
  Co  Co16  1  0.750000  0.116706  0.301131  1
  Co  Co17  1  0.750000  0.383294  0.801131  1
  Co  Co18  1  0.250000  0.464173  0.932602  1
  Co  Co19  1  0.250000  0.035827  0.432602  1
  Co  Co20  1  0.750000  0.532920  0.068854  1
  Co  Co21  1  0.750000  0.967080  0.568854  1
  P  P22  1  0.250000  0.417229  0.112076  1
  P  P23  1  0.250000  0.082771  0.612076  1
  P  P24  1  0.750000  0.578443  0.887057  1
  P  P25  1  0.750000  0.921557  0.387057  1
  P  P26  1  0.250000  0.270267  0.869213  1
  P  P27  1  0.250000  0.229733  0.369213  1
  P  P28  1  0.750000  0.728745  0.132599  1
  P  P29  1  0.750000  0.771255  0.632599  1
  P  P30  1  0.250000  0.595228  0.390310  1
  P  P31  1  0.250000  0.904772  0.890310  1
  P  P32  1  0.750000  0.396973  0.608598  1
  P  P33  1  0.750000  0.103027  0.108598  1
  Ru  Ru34  1  0.250000  0.714858  0.991111  1
  Ru  Ru35  1  0.250000  0.785142  0.491111  1
