# generated using pymatgen
data_Y7Tc2Sn23Ir4
_symmetry_space_group_name_H-M   'P 1'
_cell_length_a   9.90015100
_cell_length_b   9.89728152
_cell_length_c   10.14384652
_cell_angle_alpha   89.96845418
_cell_angle_beta   90.00000000
_cell_angle_gamma   120.00959448
_symmetry_Int_Tables_number   1
_chemical_formula_structural   Y7Tc2Sn23Ir4
_chemical_formula_sum   'Y7 Tc2 Sn23 Ir4'
_cell_volume   860.69436522
_cell_formula_units_Z   1
loop_
 _symmetry_equiv_pos_site_id
 _symmetry_equiv_pos_as_xyz
  1  'x, y, z'
loop_
 _atom_site_type_symbol
 _atom_site_label
 _atom_site_symmetry_multiplicity
 _atom_site_fract_x
 _atom_site_fract_y
 _atom_site_fract_z
 _atom_site_occupancy
  Y  Y0  1  0.998250  0.996499  0.995827  1
  Y  Y1  1  0.037050  0.519050  0.305367  1
  Y  Y2  1  0.480894  0.961787  0.304436  1
  Y  Y3  1  0.482000  0.519050  0.305367  1
  Y  Y4  1  0.964574  0.483985  0.693986  1
  Y  Y5  1  0.518064  0.036128  0.694304  1
  Y  Y6  1  0.519411  0.483985  0.693986  1
  Tc  Tc7  1  0.168478  0.831140  0.798396  1
  Tc  Tc8  1  0.662664  0.831140  0.798396  1
  Sn  Sn9  1  0.000367  0.000735  0.498631  1
  Sn  Sn10  1  0.117063  0.881009  0.281022  1
  Sn  Sn11  1  0.763946  0.881009  0.281022  1
  Sn  Sn12  1  0.118160  0.236321  0.278587  1
  Sn  Sn13  1  0.883044  0.116634  0.722744  1
  Sn  Sn14  1  0.233590  0.116634  0.722744  1
  Sn  Sn15  1  0.882369  0.764737  0.729159  1
  Sn  Sn16  1  0.348411  0.997203  0.999563  1
  Sn  Sn17  1  0.649155  0.652026  0.999368  1
  Sn  Sn18  1  0.999907  0.352647  0.000068  1
  Sn  Sn19  1  0.352740  0.352647  0.000068  1
  Sn  Sn20  1  0.002871  0.652026  0.999368  1
  Sn  Sn21  1  0.648792  0.997203  0.999563  1
  Sn  Sn22  1  0.778587  0.557174  0.458539  1
  Sn  Sn23  1  0.779407  0.221225  0.458578  1
  Sn  Sn24  1  0.441817  0.221225  0.458578  1
  Sn  Sn25  1  0.221303  0.442605  0.542316  1
  Sn  Sn26  1  0.220962  0.778938  0.541941  1
  Sn  Sn27  1  0.557976  0.778938  0.541941  1
  Sn  Sn28  1  0.666248  0.332495  0.177763  1
  Sn  Sn29  1  0.334571  0.669143  0.819187  1
  Sn  Sn30  1  0.666582  0.333163  0.875367  1
  Sn  Sn31  1  0.332739  0.665480  0.124555  1
  Ir  Ir32  1  0.169297  0.338592  0.800693  1
  Ir  Ir33  1  0.829716  0.169345  0.199822  1
  Ir  Ir34  1  0.339627  0.169345  0.199822  1
  Ir  Ir35  1  0.829369  0.658738  0.198927  1
