# generated using pymatgen
data_Sr21Ga8AgSn6
_symmetry_space_group_name_H-M   'P 1'
_cell_length_a   12.13971065
_cell_length_b   12.13971122
_cell_length_c   12.13971000
_cell_angle_alpha   60.00000333
_cell_angle_beta   60.00000176
_cell_angle_gamma   60.00000117
_symmetry_Int_Tables_number   1
_chemical_formula_structural   Sr21Ga8AgSn6
_chemical_formula_sum   'Sr21 Ga8 Ag1 Sn6'
_cell_volume   1265.05680215
_cell_formula_units_Z   1
loop_
 _symmetry_equiv_pos_site_id
 _symmetry_equiv_pos_as_xyz
  1  'x, y, z'
loop_
 _atom_site_type_symbol
 _atom_site_label
 _atom_site_symmetry_multiplicity
 _atom_site_fract_x
 _atom_site_fract_y
 _atom_site_fract_z
 _atom_site_occupancy
  Sr  Sr0  1  0.869438  0.869438  0.391685  1
  Sr  Sr1  1  0.608315  0.130562  0.130562  1
  Sr  Sr2  1  0.869438  0.391685  0.869438  1
  Sr  Sr3  1  0.130562  0.130562  0.130562  1
  Sr  Sr4  1  0.391685  0.869438  0.869438  1
  Sr  Sr5  1  0.869438  0.869438  0.869438  1
  Sr  Sr6  1  0.172598  0.827402  0.500000  1
  Sr  Sr7  1  0.827402  0.500000  0.500000  1
  Sr  Sr8  1  0.130562  0.130562  0.608315  1
  Sr  Sr9  1  0.827402  0.172598  0.500000  1
  Sr  Sr10  1  0.172598  0.500000  0.500000  1
  Sr  Sr11  1  0.130562  0.608315  0.130562  1
  Sr  Sr12  1  0.500000  0.500000  0.172598  1
  Sr  Sr13  1  0.500000  0.172598  0.827402  1
  Sr  Sr14  1  0.500000  0.827402  0.172598  1
  Sr  Sr15  1  0.500000  0.500000  0.827402  1
  Sr  Sr16  1  0.500000  0.172598  0.500000  1
  Sr  Sr17  1  0.172598  0.500000  0.827402  1
  Sr  Sr18  1  0.000000  0.000000  0.000000  1
  Sr  Sr19  1  0.500000  0.827402  0.500000  1
  Sr  Sr20  1  0.827402  0.500000  0.172598  1
  Ga  Ga21  1  0.693360  0.919921  0.693360  1
  Ga  Ga22  1  0.693360  0.693360  0.919921  1
  Ga  Ga23  1  0.693360  0.693360  0.693360  1
  Ga  Ga24  1  0.306640  0.080079  0.306640  1
  Ga  Ga25  1  0.919921  0.693360  0.693360  1
  Ga  Ga26  1  0.306640  0.306640  0.080079  1
  Ga  Ga27  1  0.080079  0.306640  0.306640  1
  Ga  Ga28  1  0.306640  0.306640  0.306640  1
  Ag  Ag29  1  0.500000  0.500000  0.500000  1
  Sn  Sn30  1  0.784398  0.215602  0.784398  1
  Sn  Sn31  1  0.784398  0.215602  0.215602  1
  Sn  Sn32  1  0.215602  0.784398  0.215602  1
  Sn  Sn33  1  0.215602  0.784398  0.784398  1
  Sn  Sn34  1  0.784398  0.784398  0.215602  1
  Sn  Sn35  1  0.215602  0.215602  0.784398  1
