# generated using pymatgen
data_LiHo6Co10P12Ir7
_symmetry_space_group_name_H-M   'P 1'
_cell_length_a   3.79429800
_cell_length_b   10.80921600
_cell_length_c   12.48107800
_cell_angle_alpha   90.00000000
_cell_angle_beta   90.00000000
_cell_angle_gamma   90.00000000
_symmetry_Int_Tables_number   1
_chemical_formula_structural   LiHo6Co10P12Ir7
_chemical_formula_sum   'Li1 Ho6 Co10 P12 Ir7'
_cell_volume   511.89127783
_cell_formula_units_Z   1
loop_
 _symmetry_equiv_pos_site_id
 _symmetry_equiv_pos_as_xyz
  1  'x, y, z'
loop_
 _atom_site_type_symbol
 _atom_site_label
 _atom_site_symmetry_multiplicity
 _atom_site_fract_x
 _atom_site_fract_y
 _atom_site_fract_z
 _atom_site_occupancy
  Li  Li0  1  0.500000  0.500000  0.148712  1
  Ho  Ho1  1  0.000000  0.500000  0.518332  1
  Ho  Ho2  1  0.500000  0.000000  0.478458  1
  Ho  Ho3  1  0.500000  0.816857  0.197016  1
  Ho  Ho4  1  0.500000  0.183143  0.197016  1
  Ho  Ho5  1  0.000000  0.683843  0.803114  1
  Ho  Ho6  1  0.000000  0.316157  0.803114  1
  Co  Co7  1  0.000000  0.500000  0.989735  1
  Co  Co8  1  0.500000  0.000000  0.007424  1
  Co  Co9  1  0.500000  0.879863  0.717021  1
  Co  Co10  1  0.500000  0.120137  0.717021  1
  Co  Co11  1  0.000000  0.621787  0.286524  1
  Co  Co12  1  0.000000  0.378213  0.286524  1
  Co  Co13  1  0.500000  0.331494  0.997446  1
  Co  Co14  1  0.500000  0.668506  0.997446  1
  Co  Co15  1  0.000000  0.167430  0.004185  1
  Co  Co16  1  0.000000  0.832570  0.004185  1
  P  P17  1  0.500000  0.310268  0.625057  1
  P  P18  1  0.500000  0.689732  0.625057  1
  P  P19  1  0.000000  0.192194  0.374659  1
  P  P20  1  0.000000  0.807806  0.374659  1
  P  P21  1  0.500000  0.500000  0.896233  1
  P  P22  1  0.000000  0.000000  0.105501  1
  P  P23  1  0.500000  0.842101  0.897104  1
  P  P24  1  0.500000  0.157899  0.897104  1
  P  P25  1  0.000000  0.656905  0.104840  1
  P  P26  1  0.000000  0.343095  0.104840  1
  P  P27  1  0.500000  0.500000  0.337524  1
  P  P28  1  0.000000  0.000000  0.654723  1
  Ir  Ir29  1  0.500000  0.297603  0.428300  1
  Ir  Ir30  1  0.500000  0.702397  0.428300  1
  Ir  Ir31  1  0.000000  0.201296  0.576373  1
  Ir  Ir32  1  0.000000  0.798704  0.576373  1
  Ir  Ir33  1  0.000000  0.000000  0.839211  1
  Ir  Ir34  1  0.500000  0.500000  0.709023  1
  Ir  Ir35  1  0.000000  0.000000  0.291845  1
