# generated using pymatgen
data_Ca12Sc7Ti12CrO48
_symmetry_space_group_name_H-M   'P 1'
_cell_length_a   11.06595492
_cell_length_b   11.06595375
_cell_length_c   11.05947400
_cell_angle_alpha   109.45935753
_cell_angle_beta   109.45935540
_cell_angle_gamma   109.48307883
_symmetry_Int_Tables_number   1
_chemical_formula_structural   Ca12Sc7Ti12CrO48
_chemical_formula_sum   'Ca12 Sc7 Ti12 Cr1 O48'
_cell_volume   1042.68689474
_cell_formula_units_Z   1
loop_
 _symmetry_equiv_pos_site_id
 _symmetry_equiv_pos_as_xyz
  1  'x, y, z'
loop_
 _atom_site_type_symbol
 _atom_site_label
 _atom_site_symmetry_multiplicity
 _atom_site_fract_x
 _atom_site_fract_y
 _atom_site_fract_z
 _atom_site_occupancy
  Ca  Ca0  1  0.249783  0.374863  0.124422  1
  Ca  Ca1  1  0.750217  0.625137  0.875578  1
  Ca  Ca2  1  0.748066  0.124642  0.372457  1
  Ca  Ca3  1  0.125079  0.250217  0.374639  1
  Ca  Ca4  1  0.376577  0.751934  0.124392  1
  Ca  Ca5  1  0.251934  0.875358  0.627543  1
  Ca  Ca6  1  0.874921  0.749783  0.625361  1
  Ca  Ca7  1  0.623423  0.248066  0.875608  1
  Ca  Ca8  1  0.375358  0.123423  0.247815  1
  Ca  Ca9  1  0.624642  0.876577  0.752185  1
  Ca  Ca10  1  0.125137  0.374921  0.749560  1
  Ca  Ca11  1  0.874863  0.625079  0.250440  1
  Sc  Sc12  1  0.000000  0.000000  0.000000  1
  Sc  Sc13  1  0.500000  0.000000  0.500000  1
  Sc  Sc14  1  0.000000  0.500000  0.500000  1
  Sc  Sc15  1  0.500000  0.500000  0.000000  1
  Sc  Sc16  1  0.500000  0.500000  0.500000  1
  Sc  Sc17  1  0.000000  0.000000  0.500000  1
  Sc  Sc18  1  0.000000  0.500000  0.000000  1
  Ti  Ti19  1  0.250007  0.624984  0.375064  1
  Ti  Ti20  1  0.749993  0.375016  0.624936  1
  Ti  Ti21  1  0.747378  0.875751  0.122861  1
  Ti  Ti22  1  0.374977  0.249993  0.625056  1
  Ti  Ti23  1  0.625023  0.750007  0.374944  1
  Ti  Ti24  1  0.252622  0.124249  0.877139  1
  Ti  Ti25  1  0.128373  0.752622  0.875482  1
  Ti  Ti26  1  0.871627  0.247378  0.124518  1
  Ti  Ti27  1  0.624249  0.371627  0.247110  1
  Ti  Ti28  1  0.375751  0.628373  0.752890  1
  Ti  Ti29  1  0.875016  0.125023  0.750080  1
  Ti  Ti30  1  0.124984  0.874977  0.249920  1
  Cr  Cr31  1  0.500000  0.000000  0.000000  1
  O  O32  1  0.480845  0.377526  0.293275  1
  O  O33  1  0.519155  0.622474  0.706725  1
  O  O34  1  0.582240  0.180545  0.198719  1
  O  O35  1  0.914325  0.120710  0.600659  1
  O  O36  1  0.293292  0.479149  0.378343  1
  O  O37  1  0.313794  0.914208  0.292556  1
  O  O38  1  0.417760  0.819455  0.801281  1
  O  O39  1  0.085675  0.879290  0.399341  1
  O  O40  1  0.706708  0.520851  0.621657  1
  O  O41  1  0.686206  0.085792  0.707444  1
  O  O42  1  0.020851  0.314144  0.899194  1
  O  O43  1  0.206385  0.585675  0.186334  1
  O  O44  1  0.121404  0.020571  0.206717  1
  O  O45  1  0.979149  0.685856  0.100806  1
  O  O46  1  0.793615  0.414325  0.813666  1
  O  O47  1  0.878596  0.979429  0.793283  1
  O  O48  1  0.598305  0.917760  0.116479  1
  O  O49  1  0.187434  0.482508  0.602210  1
  O  O50  1  0.401695  0.082240  0.883521  1
  O  O51  1  0.812566  0.517492  0.397790  1
  O  O52  1  0.896680  0.019155  0.312430  1
  O  O53  1  0.379029  0.585447  0.899796  1
  O  O54  1  0.103320  0.980845  0.687570  1
  O  O55  1  0.620971  0.414553  0.100204  1
  O  O56  1  0.379290  0.293615  0.479949  1
  O  O57  1  0.585792  0.899586  0.378347  1
  O  O58  1  0.620710  0.706385  0.520051  1
  O  O59  1  0.414208  0.100414  0.621653  1
  O  O60  1  0.122474  0.603320  0.915749  1
  O  O61  1  0.017492  0.204926  0.119702  1
  O  O62  1  0.877526  0.396680  0.084251  1
  O  O63  1  0.982508  0.795074  0.880298  1
  O  O64  1  0.319455  0.901695  0.018174  1
  O  O65  1  0.914553  0.293582  0.314349  1
  O  O66  1  0.680545  0.098305  0.981826  1
  O  O67  1  0.085447  0.706418  0.685651  1
  O  O68  1  0.185856  0.206708  0.585050  1
  O  O69  1  0.479429  0.600832  0.186146  1
  O  O70  1  0.814144  0.793292  0.414950  1
  O  O71  1  0.520571  0.399168  0.813854  1
  O  O72  1  0.295074  0.312566  0.914776  1
  O  O73  1  0.704926  0.687434  0.085224  1
  O  O74  1  0.206418  0.120971  0.020768  1
  O  O75  1  0.793582  0.879029  0.979232  1
  O  O76  1  0.899168  0.378596  0.585313  1
  O  O77  1  0.100832  0.621404  0.414687  1
  O  O78  1  0.600414  0.186206  0.478761  1
  O  O79  1  0.399586  0.813794  0.521239  1
