# generated using pymatgen
data_Tb2Er8In8Pd3Pt
_symmetry_space_group_name_H-M   'P 1'
_cell_length_a   3.59077500
_cell_length_b   8.13996224
_cell_length_c   18.23445455
_cell_angle_alpha   90.02789314
_cell_angle_beta   90.00000000
_cell_angle_gamma   90.00000000
_symmetry_Int_Tables_number   1
_chemical_formula_structural   Tb2Er8In8Pd3Pt
_chemical_formula_sum   'Tb2 Er8 In8 Pd3 Pt1'
_cell_volume   532.97066785
_cell_formula_units_Z   1
loop_
 _symmetry_equiv_pos_site_id
 _symmetry_equiv_pos_as_xyz
  1  'x, y, z'
loop_
 _atom_site_type_symbol
 _atom_site_label
 _atom_site_symmetry_multiplicity
 _atom_site_fract_x
 _atom_site_fract_y
 _atom_site_fract_z
 _atom_site_occupancy
  Tb  Tb0  1  0.000000  0.500573  0.500269  1
  Tb  Tb1  1  0.000000  0.999311  0.000081  1
  Er  Er2  1  0.000000  0.736280  0.280051  1
  Er  Er3  1  0.000000  0.259502  0.718854  1
  Er  Er4  1  0.000000  0.759459  0.781022  1
  Er  Er5  1  0.000000  0.245473  0.219316  1
  Er  Er6  1  0.000000  0.618313  0.084801  1
  Er  Er7  1  0.000000  0.381239  0.915851  1
  Er  Er8  1  0.000000  0.881402  0.583843  1
  Er  Er9  1  0.000000  0.118135  0.415795  1
  In  In10  1  0.500000  0.705270  0.932354  1
  In  In11  1  0.500000  0.293876  0.066513  1
  In  In12  1  0.500000  0.794395  0.432371  1
  In  In13  1  0.500000  0.205780  0.567306  1
  In  In14  1  0.500000  0.580143  0.650665  1
  In  In15  1  0.500000  0.419292  0.350810  1
  In  In16  1  0.500000  0.922730  0.151212  1
  In  In17  1  0.500000  0.079549  0.848936  1
  Pd  Pd18  1  0.500000  0.475469  0.803713  1
  Pd  Pd19  1  0.500000  0.975391  0.695845  1
  Pd  Pd20  1  0.500000  0.024124  0.304174  1
  Pt  Pt21  1  0.500000  0.524295  0.196217  1
