# generated using pymatgen
data_Sr2CdSn3Pt4
_symmetry_space_group_name_H-M   'P 1'
_cell_length_a   4.86072012
_cell_length_b   4.71684200
_cell_length_c   10.43580717
_cell_angle_alpha   90.00000000
_cell_angle_beta   92.77320082
_cell_angle_gamma   90.00000000
_symmetry_Int_Tables_number   1
_chemical_formula_structural   Sr2CdSn3Pt4
_chemical_formula_sum   'Sr2 Cd1 Sn3 Pt4'
_cell_volume   238.98413953
_cell_formula_units_Z   1
loop_
 _symmetry_equiv_pos_site_id
 _symmetry_equiv_pos_as_xyz
  1  'x, y, z'
loop_
 _atom_site_type_symbol
 _atom_site_label
 _atom_site_symmetry_multiplicity
 _atom_site_fract_x
 _atom_site_fract_y
 _atom_site_fract_z
 _atom_site_occupancy
  Sr  Sr0  1  0.764782  0.250001  0.254196  1
  Sr  Sr1  1  0.235678  0.750000  0.745837  1
  Cd  Cd2  1  0.755229  0.750000  0.002907  1
  Sn  Sn3  1  0.303548  0.750000  0.386493  1
  Sn  Sn4  1  0.696044  0.250001  0.613692  1
  Sn  Sn5  1  0.244105  0.250001  0.997681  1
  Pt  Pt6  1  0.268823  0.750000  0.131346  1
  Pt  Pt7  1  0.183723  0.250001  0.496183  1
  Pt  Pt8  1  0.817861  0.750000  0.503671  1
  Pt  Pt9  1  0.730205  0.250001  0.867992  1
