# generated using pymatgen
data_Er8Tm4CuNi4Bi
_symmetry_space_group_name_H-M   'P 1'
_cell_length_a   8.28088271
_cell_length_b   8.28088304
_cell_length_c   8.28088247
_cell_angle_alpha   112.33418033
_cell_angle_beta   109.40979856
_cell_angle_gamma   106.71848587
_symmetry_Int_Tables_number   1
_chemical_formula_structural   Er8Tm4CuNi4Bi
_chemical_formula_sum   'Er8 Tm4 Cu1 Ni4 Bi1'
_cell_volume   436.07589852
_cell_formula_units_Z   1
loop_
 _symmetry_equiv_pos_site_id
 _symmetry_equiv_pos_as_xyz
  1  'x, y, z'
loop_
 _atom_site_type_symbol
 _atom_site_label
 _atom_site_symmetry_multiplicity
 _atom_site_fract_x
 _atom_site_fract_y
 _atom_site_fract_z
 _atom_site_occupancy
  Er  Er0  1  0.021148  0.717859  0.303288  1
  Er  Er1  1  0.978852  0.282141  0.696712  1
  Er  Er2  1  0.585428  0.282141  0.303288  1
  Er  Er3  1  0.414572  0.717859  0.696712  1
  Er  Er4  1  0.677498  0.868208  0.190709  1
  Er  Er5  1  0.322502  0.513211  0.190709  1
  Er  Er6  1  0.322502  0.131792  0.809291  1
  Er  Er7  1  0.677498  0.486789  0.809291  1
  Tm  Tm8  1  0.177419  0.209250  0.386668  1
  Tm  Tm9  1  0.822581  0.209250  0.031830  1
  Tm  Tm10  1  0.177419  0.790750  0.968170  1
  Tm  Tm11  1  0.822581  0.790750  0.613332  1
  Cu  Cu12  1  0.000000  0.500000  0.500000  1
  Ni  Ni13  1  0.643383  0.500000  0.143383  1
  Ni  Ni14  1  0.356617  0.500000  0.856617  1
  Ni  Ni15  1  0.874875  0.874875  0.000000  1
  Ni  Ni16  1  0.125125  0.125125  0.000000  1
  Bi  Bi17  1  0.500000  0.000000  0.500000  1
