# generated using pymatgen
data_La4Zn(Ga2Pt)5
_symmetry_space_group_name_H-M   'P 1'
_cell_length_a   8.75966472
_cell_length_b   8.75966475
_cell_length_c   8.75966500
_cell_angle_alpha   140.03086794
_cell_angle_beta   106.93733730
_cell_angle_gamma   86.69125466
_symmetry_Int_Tables_number   1
_chemical_formula_structural   La4Zn(Ga2Pt)5
_chemical_formula_sum   'La4 Zn1 Ga10 Pt5'
_cell_volume   397.76866699
_cell_formula_units_Z   1
loop_
 _symmetry_equiv_pos_site_id
 _symmetry_equiv_pos_as_xyz
  1  'x, y, z'
loop_
 _atom_site_type_symbol
 _atom_site_label
 _atom_site_symmetry_multiplicity
 _atom_site_fract_x
 _atom_site_fract_y
 _atom_site_fract_z
 _atom_site_occupancy
  La  La0  1  0.094312  0.864173  0.227323  1
  La  La1  1  0.905677  0.132999  0.769853  1
  La  La2  1  0.636849  0.366989  0.272677  1
  La  La3  1  0.363147  0.635824  0.730147  1
  Zn  Zn4  1  0.500007  0.750007  0.250000  1
  Ga  Ga5  1  0.000034  0.750034  0.750000  1
  Ga  Ga6  1  0.999980  0.249980  0.250000  1
  Ga  Ga7  1  0.283203  0.033203  0.750000  1
  Ga  Ga8  1  0.716770  0.466770  0.750000  1
  Ga  Ga9  1  0.721541  0.971541  0.250000  1
  Ga  Ga10  1  0.278467  0.528467  0.250000  1
  Ga  Ga11  1  0.762226  0.603034  0.156392  1
  Ga  Ga12  1  0.237781  0.394173  0.840807  1
  Ga  Ga13  1  0.446643  0.105834  0.343608  1
  Ga  Ga14  1  0.553365  0.896973  0.659193  1
  Pt  Pt15  1  0.500001  0.250001  0.750000  1
  Pt  Pt16  1  0.034837  0.643442  0.398447  1
  Pt  Pt17  1  0.965154  0.363684  0.608674  1
  Pt  Pt18  1  0.244995  0.136391  0.101553  1
  Pt  Pt19  1  0.755011  0.856480  0.891326  1
