# generated using pymatgen
data_Ta6Co15Si7Rh
_symmetry_space_group_name_H-M   'P 1'
_cell_length_a   7.92645185
_cell_length_b   7.92645136
_cell_length_c   7.92645176
_cell_angle_alpha   59.81940004
_cell_angle_beta   59.81940171
_cell_angle_gamma   59.81940670
_symmetry_Int_Tables_number   1
_chemical_formula_structural   Ta6Co15Si7Rh
_chemical_formula_sum   'Ta6 Co15 Si7 Rh1'
_cell_volume   350.70141776
_cell_formula_units_Z   1
loop_
 _symmetry_equiv_pos_site_id
 _symmetry_equiv_pos_as_xyz
  1  'x, y, z'
loop_
 _atom_site_type_symbol
 _atom_site_label
 _atom_site_symmetry_multiplicity
 _atom_site_fract_x
 _atom_site_fract_y
 _atom_site_fract_z
 _atom_site_occupancy
  Ta  Ta0  1  0.200502  0.797734  0.797734  1
  Ta  Ta1  1  0.199348  0.802937  0.199348  1
  Ta  Ta2  1  0.802937  0.199348  0.199348  1
  Ta  Ta3  1  0.797734  0.200502  0.797734  1
  Ta  Ta4  1  0.797734  0.797734  0.200502  1
  Ta  Ta5  1  0.199348  0.199348  0.802937  1
  Co  Co6  1  0.497564  0.834618  0.834618  1
  Co  Co7  1  0.620874  0.620874  0.143257  1
  Co  Co8  1  0.163000  0.163000  0.505348  1
  Co  Co9  1  0.834618  0.834618  0.497564  1
  Co  Co10  1  0.166841  0.166841  0.166841  1
  Co  Co11  1  0.833840  0.833840  0.833840  1
  Co  Co12  1  0.380971  0.380971  0.856535  1
  Co  Co13  1  0.834618  0.497564  0.834618  1
  Co  Co14  1  0.619654  0.619654  0.619654  1
  Co  Co15  1  0.380971  0.856535  0.380971  1
  Co  Co16  1  0.143257  0.620874  0.620874  1
  Co  Co17  1  0.620874  0.143257  0.620874  1
  Co  Co18  1  0.163000  0.505348  0.163000  1
  Co  Co19  1  0.856535  0.380971  0.380971  1
  Co  Co20  1  0.505348  0.163000  0.163000  1
  Si  Si21  1  0.999876  0.999876  0.498971  1
  Si  Si22  1  0.500743  0.993289  0.500743  1
  Si  Si23  1  0.504257  0.504257  0.504257  1
  Si  Si24  1  0.999876  0.498971  0.999876  1
  Si  Si25  1  0.500743  0.500743  0.993289  1
  Si  Si26  1  0.498971  0.999876  0.999876  1
  Si  Si27  1  0.993289  0.500743  0.500743  1
  Rh  Rh28  1  0.382679  0.382679  0.382679  1
