# generated using pymatgen
data_Th3Si4PtRh3
_symmetry_space_group_name_H-M   'P 1'
_cell_length_a   4.10689908
_cell_length_b   4.17905038
_cell_length_c   12.73476128
_cell_angle_alpha   80.55617644
_cell_angle_beta   80.72069288
_cell_angle_gamma   90.00000636
_symmetry_Int_Tables_number   1
_chemical_formula_structural   Th3Si4PtRh3
_chemical_formula_sum   'Th3 Si4 Pt1 Rh3'
_cell_volume   212.70370663
_cell_formula_units_Z   1
loop_
 _symmetry_equiv_pos_site_id
 _symmetry_equiv_pos_as_xyz
  1  'x, y, z'
loop_
 _atom_site_type_symbol
 _atom_site_label
 _atom_site_symmetry_multiplicity
 _atom_site_fract_x
 _atom_site_fract_y
 _atom_site_fract_z
 _atom_site_occupancy
  Th  Th0  1  0.998375  0.998375  0.003250  1
  Th  Th1  1  0.854138  0.354138  0.291725  1
  Th  Th2  1  0.147440  0.647440  0.705118  1
  Si  Si3  1  0.697924  0.197924  0.604154  1
  Si  Si4  1  0.303015  0.803015  0.393968  1
  Si  Si5  1  0.451270  0.451270  0.097459  1
  Si  Si6  1  0.548021  0.548021  0.903957  1
  Pt  Pt7  1  0.598192  0.098192  0.803617  1
  Rh  Rh8  1  0.402110  0.902110  0.195780  1
  Rh  Rh9  1  0.249447  0.249447  0.501108  1
  Rh  Rh10  1  0.750068  0.750068  0.499863  1
