# generated using pymatgen
data_Tb20Co3Bi8Ru
_symmetry_space_group_name_H-M   'P 1'
_cell_length_a   8.05930578
_cell_length_b   8.92376700
_cell_length_c   12.48036838
_cell_angle_alpha   90.00000000
_cell_angle_beta   90.14825013
_cell_angle_gamma   90.00000000
_symmetry_Int_Tables_number   1
_chemical_formula_structural   Tb20Co3Bi8Ru
_chemical_formula_sum   'Tb20 Co3 Bi8 Ru1'
_cell_volume   897.57718943
_cell_formula_units_Z   1
loop_
 _symmetry_equiv_pos_site_id
 _symmetry_equiv_pos_as_xyz
  1  'x, y, z'
loop_
 _atom_site_type_symbol
 _atom_site_label
 _atom_site_symmetry_multiplicity
 _atom_site_fract_x
 _atom_site_fract_y
 _atom_site_fract_z
 _atom_site_occupancy
  Tb  Tb0  1  0.847743  0.750000  0.800924  1
  Tb  Tb1  1  0.151558  0.250000  0.197893  1
  Tb  Tb2  1  0.348402  0.250000  0.698278  1
  Tb  Tb3  1  0.652808  0.750000  0.297176  1
  Tb  Tb4  1  0.377624  0.750000  0.693408  1
  Tb  Tb5  1  0.619561  0.250000  0.309976  1
  Tb  Tb6  1  0.880384  0.250000  0.810496  1
  Tb  Tb7  1  0.119227  0.750000  0.188595  1
  Tb  Tb8  1  0.953140  0.750000  0.503548  1
  Tb  Tb9  1  0.046642  0.250000  0.496874  1
  Tb  Tb10  1  0.454256  0.250000  0.997242  1
  Tb  Tb11  1  0.546111  0.750000  0.002671  1
  Tb  Tb12  1  0.677496  0.039533  0.563903  1
  Tb  Tb13  1  0.322028  0.967534  0.436472  1
  Tb  Tb14  1  0.176678  0.966868  0.937165  1
  Tb  Tb15  1  0.322028  0.532466  0.436472  1
  Tb  Tb16  1  0.822909  0.034810  0.062812  1
  Tb  Tb17  1  0.677496  0.460467  0.563903  1
  Tb  Tb18  1  0.822909  0.465190  0.062812  1
  Tb  Tb19  1  0.176678  0.533132  0.937165  1
  Co  Co20  1  0.437956  0.250000  0.491267  1
  Co  Co21  1  0.059323  0.250000  0.991842  1
  Co  Co22  1  0.939729  0.750000  0.007633  1
  Bi  Bi23  1  0.571558  0.492155  0.826413  1
  Bi  Bi24  1  0.427940  0.507426  0.173860  1
  Bi  Bi25  1  0.071725  0.507336  0.674850  1
  Bi  Bi26  1  0.427940  0.992574  0.173860  1
  Bi  Bi27  1  0.929418  0.492221  0.325536  1
  Bi  Bi28  1  0.571558  0.007845  0.826413  1
  Bi  Bi29  1  0.929418  0.007779  0.325536  1
  Bi  Bi30  1  0.071725  0.992664  0.674850  1
  Ru  Ru31  1  0.566030  0.750000  0.510157  1
