# generated using pymatgen
data_Ho6ErCo17P12
_symmetry_space_group_name_H-M   'P 1'
_cell_length_a   3.71334700
_cell_length_b   10.59453800
_cell_length_c   12.35619500
_cell_angle_alpha   90.00000000
_cell_angle_beta   90.00000000
_cell_angle_gamma   90.00000000
_symmetry_Int_Tables_number   1
_chemical_formula_structural   Ho6ErCo17P12
_chemical_formula_sum   'Ho6 Er1 Co17 P12'
_cell_volume   486.10748806
_cell_formula_units_Z   1
loop_
 _symmetry_equiv_pos_site_id
 _symmetry_equiv_pos_as_xyz
  1  'x, y, z'
loop_
 _atom_site_type_symbol
 _atom_site_label
 _atom_site_symmetry_multiplicity
 _atom_site_fract_x
 _atom_site_fract_y
 _atom_site_fract_z
 _atom_site_occupancy
  Ho  Ho0  1  0.000000  0.500000  0.532049  1
  Ho  Ho1  1  0.500000  0.000000  0.478260  1
  Ho  Ho2  1  0.500000  0.822509  0.208008  1
  Ho  Ho3  1  0.500000  0.177491  0.208008  1
  Ho  Ho4  1  0.000000  0.683689  0.795132  1
  Ho  Ho5  1  0.000000  0.316311  0.795132  1
  Er  Er6  1  0.500000  0.500000  0.155323  1
  Co  Co7  1  0.000000  0.500000  0.980663  1
  Co  Co8  1  0.500000  0.000000  0.013680  1
  Co  Co9  1  0.500000  0.292760  0.436919  1
  Co  Co10  1  0.500000  0.707240  0.436919  1
  Co  Co11  1  0.000000  0.200922  0.571065  1
  Co  Co12  1  0.000000  0.799078  0.571065  1
  Co  Co13  1  0.500000  0.880689  0.707034  1
  Co  Co14  1  0.500000  0.119311  0.707034  1
  Co  Co15  1  0.000000  0.622839  0.305293  1
  Co  Co16  1  0.000000  0.377161  0.305293  1
  Co  Co17  1  0.500000  0.324080  0.985593  1
  Co  Co18  1  0.500000  0.675920  0.985593  1
  Co  Co19  1  0.000000  0.158625  0.998430  1
  Co  Co20  1  0.000000  0.841375  0.998430  1
  Co  Co21  1  0.000000  0.000000  0.834191  1
  Co  Co22  1  0.500000  0.500000  0.702969  1
  Co  Co23  1  0.000000  0.000000  0.295426  1
  P  P24  1  0.500000  0.308308  0.618906  1
  P  P25  1  0.500000  0.691692  0.618906  1
  P  P26  1  0.000000  0.187299  0.387583  1
  P  P27  1  0.000000  0.812701  0.387583  1
  P  P28  1  0.500000  0.500000  0.881057  1
  P  P29  1  0.000000  0.000000  0.116132  1
  P  P30  1  0.500000  0.854324  0.886703  1
  P  P31  1  0.500000  0.145676  0.886703  1
  P  P32  1  0.000000  0.668972  0.094599  1
  P  P33  1  0.000000  0.331028  0.094599  1
  P  P34  1  0.500000  0.500000  0.365984  1
  P  P35  1  0.000000  0.000000  0.653734  1
