# generated using pymatgen
data_LiTbB6Ir
_symmetry_space_group_name_H-M   'P 1'
_cell_length_a   3.53407600
_cell_length_b   8.83472900
_cell_length_c   11.25836000
_cell_angle_alpha   90.00000000
_cell_angle_beta   90.00000000
_cell_angle_gamma   90.00000000
_symmetry_Int_Tables_number   1
_chemical_formula_structural   LiTbB6Ir
_chemical_formula_sum   'Li4 Tb4 B24 Ir4'
_cell_volume   351.51531288
_cell_formula_units_Z   4
loop_
 _symmetry_equiv_pos_site_id
 _symmetry_equiv_pos_as_xyz
  1  'x, y, z'
loop_
 _atom_site_type_symbol
 _atom_site_label
 _atom_site_symmetry_multiplicity
 _atom_site_fract_x
 _atom_site_fract_y
 _atom_site_fract_z
 _atom_site_occupancy
  Li  Li0  1  0.500000  0.446068  0.123224  1
  Li  Li1  1  0.500000  0.553932  0.876776  1
  Li  Li2  1  0.500000  0.053932  0.623224  1
  Li  Li3  1  0.500000  0.946068  0.376776  1
  Tb  Tb4  1  0.500000  0.316699  0.414428  1
  Tb  Tb5  1  0.500000  0.683301  0.585572  1
  Tb  Tb6  1  0.500000  0.183301  0.914428  1
  Tb  Tb7  1  0.500000  0.816699  0.085572  1
  B  B8  1  0.000000  0.090480  0.475227  1
  B  B9  1  0.000000  0.909520  0.524773  1
  B  B10  1  0.000000  0.409520  0.975227  1
  B  B11  1  0.000000  0.590480  0.024773  1
  B  B12  1  0.000000  0.124270  0.318468  1
  B  B13  1  0.000000  0.875730  0.681532  1
  B  B14  1  0.000000  0.375730  0.818468  1
  B  B15  1  0.000000  0.624270  0.181532  1
  B  B16  1  0.000000  0.055900  0.068074  1
  B  B17  1  0.000000  0.944100  0.931926  1
  B  B18  1  0.000000  0.444100  0.568074  1
  B  B19  1  0.000000  0.555900  0.431926  1
  B  B20  1  0.000000  0.479554  0.285221  1
  B  B21  1  0.000000  0.520446  0.714779  1
  B  B22  1  0.000000  0.020446  0.785221  1
  B  B23  1  0.000000  0.979554  0.214779  1
  B  B24  1  0.000000  0.258220  0.082558  1
  B  B25  1  0.000000  0.741780  0.917442  1
  B  B26  1  0.000000  0.241780  0.582558  1
  B  B27  1  0.000000  0.758220  0.417442  1
  B  B28  1  0.000000  0.293483  0.235629  1
  B  B29  1  0.000000  0.706517  0.764371  1
  B  B30  1  0.000000  0.206517  0.735629  1
  B  B31  1  0.000000  0.793483  0.264371  1
  Ir  Ir32  1  0.500000  0.140558  0.182039  1
  Ir  Ir33  1  0.500000  0.859442  0.817961  1
  Ir  Ir34  1  0.500000  0.359442  0.682039  1
  Ir  Ir35  1  0.500000  0.640558  0.317961  1
