# generated using pymatgen
data_TaMn(Cu3Se4)2
_symmetry_space_group_name_H-M   'P 1'
_cell_length_a   8.04331000
_cell_length_b   8.04331000
_cell_length_c   5.68686400
_cell_angle_alpha   90.00000000
_cell_angle_beta   90.00000000
_cell_angle_gamma   90.00000000
_symmetry_Int_Tables_number   1
_chemical_formula_structural   TaMn(Cu3Se4)2
_chemical_formula_sum   'Ta1 Mn1 Cu6 Se8'
_cell_volume   367.91073245
_cell_formula_units_Z   1
loop_
 _symmetry_equiv_pos_site_id
 _symmetry_equiv_pos_as_xyz
  1  'x, y, z'
loop_
 _atom_site_type_symbol
 _atom_site_label
 _atom_site_symmetry_multiplicity
 _atom_site_fract_x
 _atom_site_fract_y
 _atom_site_fract_z
 _atom_site_occupancy
  Ta  Ta0  1  0.500000  0.500000  0.000000  1
  Mn  Mn1  1  0.000000  0.000000  0.000000  1
  Cu  Cu2  1  0.248940  0.751060  0.000000  1
  Cu  Cu3  1  0.751060  0.248940  0.000000  1
  Cu  Cu4  1  0.248940  0.248940  0.000000  1
  Cu  Cu5  1  0.751060  0.751060  0.000000  1
  Cu  Cu6  1  0.000000  0.000000  0.500000  1
  Cu  Cu7  1  0.500000  0.500000  0.500000  1
  Se  Se8  1  0.500000  0.249826  0.750195  1
  Se  Se9  1  0.000000  0.763586  0.762579  1
  Se  Se10  1  0.500000  0.750174  0.750195  1
  Se  Se11  1  0.000000  0.236414  0.762579  1
  Se  Se12  1  0.763586  0.000000  0.237421  1
  Se  Se13  1  0.249826  0.500000  0.249805  1
  Se  Se14  1  0.236414  0.000000  0.237421  1
  Se  Se15  1  0.750174  0.500000  0.249805  1
