# generated using pymatgen
data_Ho2MnCoIr2
_symmetry_space_group_name_H-M   'P 1'
_cell_length_a   5.30828605
_cell_length_b   5.03875567
_cell_length_c   5.30828630
_cell_angle_alpha   59.85624001
_cell_angle_beta   61.94078129
_cell_angle_gamma   59.85623158
_symmetry_Int_Tables_number   1
_chemical_formula_structural   Ho2MnCoIr2
_chemical_formula_sum   'Ho2 Mn1 Co1 Ir2'
_cell_volume   101.55661588
_cell_formula_units_Z   1
loop_
 _symmetry_equiv_pos_site_id
 _symmetry_equiv_pos_as_xyz
  1  'x, y, z'
loop_
 _atom_site_type_symbol
 _atom_site_label
 _atom_site_symmetry_multiplicity
 _atom_site_fract_x
 _atom_site_fract_y
 _atom_site_fract_z
 _atom_site_occupancy
  Ho  Ho0  1  0.628344  0.620168  0.628344  1
  Ho  Ho1  1  0.371656  0.379832  0.371656  1
  Mn  Mn2  1  0.000000  0.500000  0.000000  1
  Co  Co3  1  0.000000  0.000000  0.000000  1
  Ir  Ir4  1  0.500000  0.000000  0.000000  1
  Ir  Ir5  1  0.000000  0.000000  0.500000  1
