# generated using pymatgen
data_CaY(OsO4)2
_symmetry_space_group_name_H-M   'P 1'
_cell_length_a   5.40665434
_cell_length_b   7.77592352
_cell_length_c   7.45447439
_cell_angle_alpha   78.94965055
_cell_angle_beta   91.12498358
_cell_angle_gamma   94.19533938
_symmetry_Int_Tables_number   1
_chemical_formula_structural   CaY(OsO4)2
_chemical_formula_sum   'Ca2 Y2 Os4 O16'
_cell_volume   306.75906914
_cell_formula_units_Z   2
loop_
 _symmetry_equiv_pos_site_id
 _symmetry_equiv_pos_as_xyz
  1  'x, y, z'
loop_
 _atom_site_type_symbol
 _atom_site_label
 _atom_site_symmetry_multiplicity
 _atom_site_fract_x
 _atom_site_fract_y
 _atom_site_fract_z
 _atom_site_occupancy
  Ca  Ca0  1  0.258347  0.116977  0.606830  1
  Ca  Ca1  1  0.741674  0.883051  0.393166  1
  Y  Y2  1  0.188869  0.167584  0.103464  1
  Y  Y3  1  0.811163  0.832453  0.896567  1
  Os  Os4  1  0.249479  0.663481  0.206975  1
  Os  Os5  1  0.750497  0.336479  0.793052  1
  Os  Os6  1  0.717201  0.333230  0.298091  1
  Os  Os7  1  0.282781  0.666760  0.701903  1
  O  O8  1  0.048687  0.470324  0.716881  1
  O  O9  1  0.951329  0.529720  0.283102  1
  O  O10  1  0.645496  0.331148  0.547544  1
  O  O11  1  0.354531  0.668846  0.452463  1
  O  O12  1  0.841658  0.329458  0.050251  1
  O  O13  1  0.158331  0.670558  0.949731  1
  O  O14  1  0.413723  0.442754  0.199911  1
  O  O15  1  0.586210  0.557219  0.800070  1
  O  O16  1  0.060260  0.881621  0.169909  1
  O  O17  1  0.939748  0.118393  0.830082  1
  O  O18  1  0.499570  0.119588  0.311349  1
  O  O19  1  0.500441  0.880409  0.688656  1
  O  O20  1  0.455506  0.204675  0.871830  1
  O  O21  1  0.544470  0.795271  0.128174  1
  O  O22  1  0.979586  0.171731  0.370095  1
  O  O23  1  0.020442  0.828270  0.629903  1
