# generated using pymatgen
data_Sr8Cd4Si11Ge
_symmetry_space_group_name_H-M   'P 1'
_cell_length_a   12.06020698
_cell_length_b   10.34652702
_cell_length_c   8.57525016
_cell_angle_alpha   78.46114049
_cell_angle_beta   57.21132555
_cell_angle_gamma   44.85877796
_symmetry_Int_Tables_number   1
_chemical_formula_structural   Sr8Cd4Si11Ge
_chemical_formula_sum   'Sr8 Cd4 Si11 Ge1'
_cell_volume   603.24260980
_cell_formula_units_Z   1
loop_
 _symmetry_equiv_pos_site_id
 _symmetry_equiv_pos_as_xyz
  1  'x, y, z'
loop_
 _atom_site_type_symbol
 _atom_site_label
 _atom_site_symmetry_multiplicity
 _atom_site_fract_x
 _atom_site_fract_y
 _atom_site_fract_z
 _atom_site_occupancy
  Sr  Sr0  1  0.122236  0.119654  0.877477  1
  Sr  Sr1  1  0.875644  0.876499  0.123792  1
  Sr  Sr2  1  0.127583  0.128779  0.372571  1
  Sr  Sr3  1  0.375117  0.373485  0.125017  1
  Sr  Sr4  1  0.621550  0.621964  0.379254  1
  Sr  Sr5  1  0.377997  0.376352  0.621419  1
  Sr  Sr6  1  0.627864  0.628384  0.872002  1
  Sr  Sr7  1  0.872633  0.874396  0.627809  1
  Cd  Cd8  1  0.084468  0.413208  0.075521  1
  Cd  Cd9  1  0.832613  0.168460  0.830218  1
  Cd  Cd10  1  0.168792  0.832549  0.168475  1
  Cd  Cd11  1  0.417744  0.082152  0.418739  1
  Si  Si12  1  0.066540  0.422262  0.598459  1
  Si  Si13  1  0.427988  0.068072  0.914042  1
  Si  Si14  1  0.599405  0.917379  0.059031  1
  Si  Si15  1  0.331712  0.649475  0.826398  1
  Si  Si16  1  0.651255  0.333750  0.190284  1
  Si  Si17  1  0.822179  0.181957  0.336916  1
  Si  Si18  1  0.183746  0.823284  0.657084  1
  Si  Si19  1  0.904263  0.588619  0.917091  1
  Si  Si20  1  0.578593  0.908293  0.598124  1
  Si  Si21  1  0.345462  0.663408  0.333453  1
  Si  Si22  1  0.663718  0.346155  0.656856  1
  Ge  Ge23  1  0.920901  0.601469  0.419960  1
