# generated using pymatgen
data_Nd7SmCu2Si12PdPt
_symmetry_space_group_name_H-M   'P 1'
_cell_length_a   8.17397800
_cell_length_b   8.17398022
_cell_length_c   8.53098201
_cell_angle_alpha   89.99653563
_cell_angle_beta   90.00346412
_cell_angle_gamma   119.99844410
_symmetry_Int_Tables_number   1
_chemical_formula_structural   Nd7SmCu2Si12PdPt
_chemical_formula_sum   'Nd7 Sm1 Cu2 Si12 Pd1 Pt1'
_cell_volume   493.63223517
_cell_formula_units_Z   1
loop_
 _symmetry_equiv_pos_site_id
 _symmetry_equiv_pos_as_xyz
  1  'x, y, z'
loop_
 _atom_site_type_symbol
 _atom_site_label
 _atom_site_symmetry_multiplicity
 _atom_site_fract_x
 _atom_site_fract_y
 _atom_site_fract_z
 _atom_site_occupancy
  Nd  Nd0  1  0.500786  0.499214  0.250261  1
  Nd  Nd1  1  0.999285  0.499658  0.749794  1
  Nd  Nd2  1  0.998400  0.499217  0.250282  1
  Nd  Nd3  1  0.500342  0.000715  0.749794  1
  Nd  Nd4  1  0.500783  0.001600  0.250282  1
  Nd  Nd5  1  0.999992  0.000008  0.748982  1
  Nd  Nd6  1  0.999993  0.000007  0.251037  1
  Sm  Sm7  1  0.500446  0.499554  0.750029  1
  Cu  Cu8  1  0.333592  0.666408  0.499563  1
  Cu  Cu9  1  0.666519  0.333481  0.501087  1
  Si  Si10  1  0.834120  0.165880  0.999299  1
  Si  Si11  1  0.166076  0.833924  0.000550  1
  Si  Si12  1  0.331781  0.166078  0.999115  1
  Si  Si13  1  0.169064  0.830936  0.499762  1
  Si  Si14  1  0.667718  0.833690  0.000350  1
  Si  Si15  1  0.830935  0.169065  0.500411  1
  Si  Si16  1  0.833922  0.668219  0.999115  1
  Si  Si17  1  0.661706  0.830659  0.499962  1
  Si  Si18  1  0.166310  0.332282  0.000350  1
  Si  Si19  1  0.338251  0.169349  0.500601  1
  Si  Si20  1  0.169341  0.338294  0.499962  1
  Si  Si21  1  0.830651  0.661749  0.500601  1
  Pd  Pd22  1  0.333615  0.666385  0.999877  1
  Pt  Pt23  1  0.666370  0.333630  0.998931  1
