# generated using pymatgen
data_Ho8Zn3Si12Pd
_symmetry_space_group_name_H-M   'P 1'
_cell_length_a   8.10961400
_cell_length_b   8.10961423
_cell_length_c   8.01649500
_cell_angle_alpha   90.00000000
_cell_angle_beta   90.00000000
_cell_angle_gamma   119.99999908
_symmetry_Int_Tables_number   1
_chemical_formula_structural   Ho8Zn3Si12Pd
_chemical_formula_sum   'Ho8 Zn3 Si12 Pd1'
_cell_volume   456.57858763
_cell_formula_units_Z   1
loop_
 _symmetry_equiv_pos_site_id
 _symmetry_equiv_pos_as_xyz
  1  'x, y, z'
loop_
 _atom_site_type_symbol
 _atom_site_label
 _atom_site_symmetry_multiplicity
 _atom_site_fract_x
 _atom_site_fract_y
 _atom_site_fract_z
 _atom_site_occupancy
  Ho  Ho0  1  0.501551  0.003100  0.249107  1
  Ho  Ho1  1  0.498958  0.997917  0.750895  1
  Ho  Ho2  1  0.996900  0.498449  0.249107  1
  Ho  Ho3  1  0.002083  0.501042  0.750895  1
  Ho  Ho4  1  0.501551  0.498449  0.249107  1
  Ho  Ho5  1  0.498958  0.501042  0.750895  1
  Ho  Ho6  1  0.000000  0.000000  0.249912  1
  Ho  Ho7  1  0.000000  0.000000  0.750178  1
  Zn  Zn8  1  0.333333  0.666667  0.007788  1
  Zn  Zn9  1  0.666667  0.333333  0.993013  1
  Zn  Zn10  1  0.666667  0.333333  0.502778  1
  Si  Si11  1  0.166454  0.332906  0.998325  1
  Si  Si12  1  0.832937  0.665875  0.001507  1
  Si  Si13  1  0.667094  0.833546  0.998325  1
  Si  Si14  1  0.835053  0.670108  0.501769  1
  Si  Si15  1  0.334125  0.167063  0.001507  1
  Si  Si16  1  0.167435  0.334869  0.498105  1
  Si  Si17  1  0.166454  0.833546  0.998325  1
  Si  Si18  1  0.329892  0.164947  0.501769  1
  Si  Si19  1  0.832937  0.167063  0.001507  1
  Si  Si20  1  0.665131  0.832565  0.498105  1
  Si  Si21  1  0.835053  0.164947  0.501769  1
  Si  Si22  1  0.167435  0.832565  0.498105  1
  Pd  Pd23  1  0.333333  0.666667  0.497208  1
