# generated using pymatgen
data_Tb10In3Sn3S2
_symmetry_space_group_name_H-M   'P 1'
_cell_length_a   9.15183800
_cell_length_b   9.15183612
_cell_length_c   6.68832500
_cell_angle_alpha   90.00000000
_cell_angle_beta   90.00000000
_cell_angle_gamma   119.89629455
_symmetry_Int_Tables_number   1
_chemical_formula_structural   Tb10In3Sn3S2
_chemical_formula_sum   'Tb10 In3 Sn3 S2'
_cell_volume   485.64335463
_cell_formula_units_Z   1
loop_
 _symmetry_equiv_pos_site_id
 _symmetry_equiv_pos_as_xyz
  1  'x, y, z'
loop_
 _atom_site_type_symbol
 _atom_site_label
 _atom_site_symmetry_multiplicity
 _atom_site_fract_x
 _atom_site_fract_y
 _atom_site_fract_z
 _atom_site_occupancy
  Tb  Tb0  1  0.667001  0.333485  0.000509  1
  Tb  Tb1  1  0.333485  0.667001  0.499491  1
  Tb  Tb2  1  0.667001  0.333485  0.499491  1
  Tb  Tb3  1  0.333485  0.667001  0.000509  1
  Tb  Tb4  1  0.756428  0.999520  0.750000  1
  Tb  Tb5  1  0.755995  0.755995  0.250000  1
  Tb  Tb6  1  0.000251  0.242918  0.250000  1
  Tb  Tb7  1  0.999520  0.756428  0.750000  1
  Tb  Tb8  1  0.242200  0.242200  0.750000  1
  Tb  Tb9  1  0.242918  0.000251  0.250000  1
  In  In10  1  0.599292  0.599292  0.750000  1
  In  In11  1  0.001019  0.599902  0.250000  1
  In  In12  1  0.599902  0.001019  0.250000  1
  Sn  Sn13  1  0.400479  0.000442  0.750000  1
  Sn  Sn14  1  0.000442  0.400479  0.750000  1
  Sn  Sn15  1  0.400697  0.400697  0.250000  1
  S  S16  1  0.999943  0.999943  0.500476  1
  S  S17  1  0.999943  0.999943  0.999524  1
