# generated using pymatgen
data_Ho5U7Te20
_symmetry_space_group_name_H-M   'P 1'
_cell_length_a   4.18940200
_cell_length_b   14.15855379
_cell_length_c   16.12798580
_cell_angle_alpha   89.73082063
_cell_angle_beta   90.00000000
_cell_angle_gamma   90.00000000
_symmetry_Int_Tables_number   1
_chemical_formula_structural   Ho5U7Te20
_chemical_formula_sum   'Ho5 U7 Te20'
_cell_volume   956.63500966
_cell_formula_units_Z   1
loop_
 _symmetry_equiv_pos_site_id
 _symmetry_equiv_pos_as_xyz
  1  'x, y, z'
loop_
 _atom_site_type_symbol
 _atom_site_label
 _atom_site_symmetry_multiplicity
 _atom_site_fract_x
 _atom_site_fract_y
 _atom_site_fract_z
 _atom_site_occupancy
  Ho  Ho0  1  0.250000  0.245368  0.881629  1
  Ho  Ho1  1  0.750000  0.752216  0.117801  1
  Ho  Ho2  1  0.750000  0.747808  0.619432  1
  Ho  Ho3  1  0.250000  0.251753  0.380902  1
  Ho  Ho4  1  0.250000  0.931045  0.861016  1
  U  U5  1  0.750000  0.068143  0.138126  1
  U  U6  1  0.750000  0.430741  0.638811  1
  U  U7  1  0.250000  0.568898  0.361417  1
  U  U8  1  0.250000  0.090734  0.625718  1
  U  U9  1  0.750000  0.907788  0.372870  1
  U  U10  1  0.750000  0.595338  0.872407  1
  U  U11  1  0.250000  0.408386  0.125616  1
  Te  Te12  1  0.250000  0.919337  0.078592  1
  Te  Te13  1  0.750000  0.080888  0.927928  1
  Te  Te14  1  0.750000  0.418740  0.425174  1
  Te  Te15  1  0.250000  0.580082  0.574278  1
  Te  Te16  1  0.250000  0.451937  0.787472  1
  Te  Te17  1  0.750000  0.548334  0.212733  1
  Te  Te18  1  0.750000  0.951058  0.711606  1
  Te  Te19  1  0.250000  0.049464  0.287470  1
  Te  Te20  1  0.250000  0.725983  0.763073  1
  Te  Te21  1  0.750000  0.275408  0.235971  1
  Te  Te22  1  0.750000  0.222943  0.735767  1
  Te  Te23  1  0.250000  0.774824  0.263952  1
  Te  Te24  1  0.250000  0.610478  0.025586  1
  Te  Te25  1  0.750000  0.391121  0.974774  1
  Te  Te26  1  0.750000  0.109827  0.473912  1
  Te  Te27  1  0.250000  0.889878  0.524256  1
  Te  Te28  1  0.250000  0.200695  0.068400  1
  Te  Te29  1  0.750000  0.801495  0.932805  1
  Te  Te30  1  0.750000  0.700535  0.432707  1
  Te  Te31  1  0.250000  0.298758  0.567798  1
