# generated using pymatgen
data_Tb8Dy11TmSn16
_symmetry_space_group_name_H-M   'P 1'
_cell_length_a   8.03963713
_cell_length_b   8.18483814
_cell_length_c   15.47105200
_cell_angle_alpha   90.00000000
_cell_angle_beta   90.00000000
_cell_angle_gamma   90.02082140
_symmetry_Int_Tables_number   1
_chemical_formula_structural   Tb8Dy11TmSn16
_chemical_formula_sum   'Tb8 Dy11 Tm1 Sn16'
_cell_volume   1018.04355705
_cell_formula_units_Z   1
loop_
 _symmetry_equiv_pos_site_id
 _symmetry_equiv_pos_as_xyz
  1  'x, y, z'
loop_
 _atom_site_type_symbol
 _atom_site_label
 _atom_site_symmetry_multiplicity
 _atom_site_fract_x
 _atom_site_fract_y
 _atom_site_fract_z
 _atom_site_occupancy
  Tb  Tb0  1  0.520569  0.320504  0.902636  1
  Tb  Tb1  1  0.020523  0.179519  0.597341  1
  Tb  Tb2  1  0.479378  0.679589  0.402633  1
  Tb  Tb3  1  0.979554  0.820563  0.097384  1
  Tb  Tb4  1  0.479378  0.679589  0.097367  1
  Tb  Tb5  1  0.979554  0.820563  0.402616  1
  Tb  Tb6  1  0.520569  0.320504  0.597364  1
  Tb  Tb7  1  0.020523  0.179519  0.902659  1
  Dy  Dy8  1  0.366925  0.836499  0.877652  1
  Dy  Dy9  1  0.866908  0.663479  0.622394  1
  Dy  Dy10  1  0.632875  0.163368  0.377597  1
  Dy  Dy11  1  0.133186  0.336386  0.122408  1
  Dy  Dy12  1  0.632875  0.163368  0.122403  1
  Dy  Dy13  1  0.133186  0.336386  0.377592  1
  Dy  Dy14  1  0.366925  0.836499  0.622348  1
  Dy  Dy15  1  0.866908  0.663479  0.877606  1
  Dy  Dy16  1  0.198246  0.503348  0.750000  1
  Dy  Dy17  1  0.698246  0.996672  0.750000  1
  Dy  Dy18  1  0.801805  0.496722  0.250000  1
  Tm  Tm19  1  0.301589  0.003433  0.250000  1
  Sn  Sn20  1  0.294294  0.036940  0.041907  1
  Sn  Sn21  1  0.794298  0.463055  0.458308  1
  Sn  Sn22  1  0.705689  0.963004  0.541668  1
  Sn  Sn23  1  0.205698  0.536958  0.958340  1
  Sn  Sn24  1  0.705689  0.963004  0.958332  1
  Sn  Sn25  1  0.205698  0.536958  0.541660  1
  Sn  Sn26  1  0.294294  0.036940  0.458093  1
  Sn  Sn27  1  0.794298  0.463055  0.041692  1
  Sn  Sn28  1  0.564680  0.620178  0.750000  1
  Sn  Sn29  1  0.064750  0.879853  0.750000  1
  Sn  Sn30  1  0.435208  0.379542  0.250000  1
  Sn  Sn31  1  0.935905  0.119979  0.250000  1
  Sn  Sn32  1  0.329121  0.146801  0.750000  1
  Sn  Sn33  1  0.829250  0.353086  0.750000  1
  Sn  Sn34  1  0.670586  0.853242  0.250000  1
  Sn  Sn35  1  0.170819  0.647415  0.250000  1
