# generated using pymatgen
data_Y11ThTc3Ir
_symmetry_space_group_name_H-M   'P 1'
_cell_length_a   6.37751046
_cell_length_b   7.42297826
_cell_length_c   9.31380000
_cell_angle_alpha   90.00000000
_cell_angle_beta   90.00000000
_cell_angle_gamma   89.36502890
_symmetry_Int_Tables_number   1
_chemical_formula_structural   Y11ThTc3Ir
_chemical_formula_sum   'Y11 Th1 Tc3 Ir1'
_cell_volume   440.88934765
_cell_formula_units_Z   1
loop_
 _symmetry_equiv_pos_site_id
 _symmetry_equiv_pos_as_xyz
  1  'x, y, z'
loop_
 _atom_site_type_symbol
 _atom_site_label
 _atom_site_symmetry_multiplicity
 _atom_site_fract_x
 _atom_site_fract_y
 _atom_site_fract_z
 _atom_site_occupancy
  Y  Y0  1  0.635423  0.042490  0.250000  1
  Y  Y1  1  0.128272  0.457746  0.750000  1
  Y  Y2  1  0.867426  0.542673  0.250000  1
  Y  Y3  1  0.166483  0.178964  0.065208  1
  Y  Y4  1  0.834051  0.823827  0.934634  1
  Y  Y5  1  0.663570  0.323272  0.936821  1
  Y  Y6  1  0.834051  0.823827  0.565366  1
  Y  Y7  1  0.333981  0.673225  0.065412  1
  Y  Y8  1  0.166483  0.178964  0.434792  1
  Y  Y9  1  0.333981  0.673225  0.434588  1
  Y  Y10  1  0.663570  0.323272  0.563179  1
  Th  Th11  1  0.360125  0.948048  0.750000  1
  Tc  Tc12  1  0.462874  0.383925  0.250000  1
  Tc  Tc13  1  0.523654  0.631490  0.750000  1
  Tc  Tc14  1  0.983983  0.111495  0.750000  1
  Ir  Ir15  1  0.042074  0.883555  0.250000  1
