# generated using pymatgen
data_Y5Sc3Ir4
_symmetry_space_group_name_H-M   'P 1'
_cell_length_a   4.35238000
_cell_length_b   7.21821436
_cell_length_c   8.72887800
_cell_angle_alpha   89.53241862
_cell_angle_beta   90.00000000
_cell_angle_gamma   90.00000000
_symmetry_Int_Tables_number   1
_chemical_formula_structural   Y5Sc3Ir4
_chemical_formula_sum   'Y5 Sc3 Ir4'
_cell_volume   274.22089433
_cell_formula_units_Z   1
loop_
 _symmetry_equiv_pos_site_id
 _symmetry_equiv_pos_as_xyz
  1  'x, y, z'
loop_
 _atom_site_type_symbol
 _atom_site_label
 _atom_site_symmetry_multiplicity
 _atom_site_fract_x
 _atom_site_fract_y
 _atom_site_fract_z
 _atom_site_occupancy
  Y  Y0  1  0.250000  0.998044  0.332358  1
  Y  Y1  1  0.750000  0.018465  0.678824  1
  Y  Y2  1  0.250000  0.480965  0.159635  1
  Y  Y3  1  0.750000  0.517861  0.824534  1
  Y  Y4  1  0.750000  0.643946  0.425319  1
  Sc  Sc5  1  0.250000  0.356163  0.571448  1
  Sc  Sc6  1  0.750000  0.137391  0.067591  1
  Sc  Sc7  1  0.250000  0.859422  0.932453  1
  Ir  Ir8  1  0.250000  0.235790  0.898592  1
  Ir  Ir9  1  0.750000  0.758270  0.090930  1
  Ir  Ir10  1  0.250000  0.742393  0.614465  1
  Ir  Ir11  1  0.750000  0.251292  0.403850  1
