# generated using pymatgen
data_Ce2ErIn5
_symmetry_space_group_name_H-M   'P 1'
_cell_length_a   6.55695702
_cell_length_b   6.55695650
_cell_length_c   10.41894500
_cell_angle_alpha   90.00000000
_cell_angle_beta   90.00000000
_cell_angle_gamma   102.54319231
_symmetry_Int_Tables_number   1
_chemical_formula_structural   Ce2ErIn5
_chemical_formula_sum   'Ce4 Er2 In10'
_cell_volume   437.25741998
_cell_formula_units_Z   2
loop_
 _symmetry_equiv_pos_site_id
 _symmetry_equiv_pos_as_xyz
  1  'x, y, z'
loop_
 _atom_site_type_symbol
 _atom_site_label
 _atom_site_symmetry_multiplicity
 _atom_site_fract_x
 _atom_site_fract_y
 _atom_site_fract_z
 _atom_site_occupancy
  Ce  Ce0  1  0.204361  0.795639  0.500000  1
  Ce  Ce1  1  0.204361  0.795639  0.000000  1
  Ce  Ce2  1  0.795639  0.204361  0.500000  1
  Ce  Ce3  1  0.795639  0.204361  0.000000  1
  Er  Er4  1  0.627932  0.627932  0.250000  1
  Er  Er5  1  0.372068  0.372068  0.750000  1
  In  In6  1  0.011132  0.011132  0.250000  1
  In  In7  1  0.988868  0.988868  0.750000  1
  In  In8  1  0.309772  0.309772  0.046726  1
  In  In9  1  0.690228  0.690228  0.953274  1
  In  In10  1  0.309772  0.309772  0.453274  1
  In  In11  1  0.690228  0.690228  0.546726  1
  In  In12  1  0.503550  0.069993  0.250000  1
  In  In13  1  0.930007  0.496450  0.750000  1
  In  In14  1  0.496450  0.930007  0.750000  1
  In  In15  1  0.069993  0.503550  0.250000  1
