# generated using pymatgen
data_Y6Er4(BiPb)3
_symmetry_space_group_name_H-M   'P 1'
_cell_length_a   9.10636100
_cell_length_b   9.10636128
_cell_length_c   6.46830600
_cell_angle_alpha   90.00000000
_cell_angle_beta   90.00000000
_cell_angle_gamma   120.00000261
_symmetry_Int_Tables_number   1
_chemical_formula_structural   Y6Er4(BiPb)3
_chemical_formula_sum   'Y6 Er4 Bi3 Pb3'
_cell_volume   464.52695172
_cell_formula_units_Z   1
loop_
 _symmetry_equiv_pos_site_id
 _symmetry_equiv_pos_as_xyz
  1  'x, y, z'
loop_
 _atom_site_type_symbol
 _atom_site_label
 _atom_site_symmetry_multiplicity
 _atom_site_fract_x
 _atom_site_fract_y
 _atom_site_fract_z
 _atom_site_occupancy
  Y  Y0  1  0.760745  0.760745  0.750000  1
  Y  Y1  1  0.239255  0.000000  0.750000  1
  Y  Y2  1  0.000000  0.239255  0.750000  1
  Y  Y3  1  0.239819  0.239819  0.250000  1
  Y  Y4  1  0.760181  0.000000  0.250000  1
  Y  Y5  1  0.000000  0.760181  0.250000  1
  Er  Er6  1  0.666667  0.333333  0.003288  1
  Er  Er7  1  0.333333  0.666667  0.003288  1
  Er  Er8  1  0.333333  0.666667  0.496712  1
  Er  Er9  1  0.666667  0.333333  0.496712  1
  Bi  Bi10  1  0.393833  0.393833  0.750000  1
  Bi  Bi11  1  0.606167  0.000000  0.750000  1
  Bi  Bi12  1  0.000000  0.606167  0.750000  1
  Pb  Pb13  1  0.606293  0.606293  0.250000  1
  Pb  Pb14  1  0.393707  0.000000  0.250000  1
  Pb  Pb15  1  0.000000  0.393707  0.250000  1
