# generated using pymatgen
data_EuEr5(Co3P2)6
_symmetry_space_group_name_H-M   'P 1'
_cell_length_a   3.69094700
_cell_length_b   10.49438500
_cell_length_c   12.14685700
_cell_angle_alpha   90.00000000
_cell_angle_beta   90.00000000
_cell_angle_gamma   90.00000000
_symmetry_Int_Tables_number   1
_chemical_formula_structural   EuEr5(Co3P2)6
_chemical_formula_sum   'Eu1 Er5 Co18 P12'
_cell_volume   470.49901717
_cell_formula_units_Z   1
loop_
 _symmetry_equiv_pos_site_id
 _symmetry_equiv_pos_as_xyz
  1  'x, y, z'
loop_
 _atom_site_type_symbol
 _atom_site_label
 _atom_site_symmetry_multiplicity
 _atom_site_fract_x
 _atom_site_fract_y
 _atom_site_fract_z
 _atom_site_occupancy
  Eu  Eu0  1  0.750000  0.250000  0.476627  1
  Er  Er1  1  0.250000  0.750000  0.522165  1
  Er  Er2  1  0.250000  0.932490  0.794613  1
  Er  Er3  1  0.250000  0.567510  0.794613  1
  Er  Er4  1  0.750000  0.067238  0.205129  1
  Er  Er5  1  0.750000  0.432762  0.205129  1
  Co  Co6  1  0.250000  0.250000  0.841909  1
  Co  Co7  1  0.750000  0.750000  0.158929  1
  Co  Co8  1  0.250000  0.250000  0.295467  1
  Co  Co9  1  0.750000  0.750000  0.702505  1
  Co  Co10  1  0.750000  0.250000  0.014259  1
  Co  Co11  1  0.250000  0.750000  0.985664  1
  Co  Co12  1  0.250000  0.416846  0.005834  1
  Co  Co13  1  0.250000  0.083154  0.005834  1
  Co  Co14  1  0.750000  0.583396  0.994226  1
  Co  Co15  1  0.750000  0.916604  0.994226  1
  Co  Co16  1  0.250000  0.455860  0.570176  1
  Co  Co17  1  0.250000  0.044140  0.570176  1
  Co  Co18  1  0.750000  0.549601  0.430360  1
  Co  Co19  1  0.750000  0.950399  0.430360  1
  Co  Co20  1  0.250000  0.870498  0.289963  1
  Co  Co21  1  0.250000  0.629502  0.289963  1
  Co  Co22  1  0.750000  0.128501  0.710661  1
  Co  Co23  1  0.750000  0.371499  0.710661  1
  P  P24  1  0.250000  0.250000  0.117440  1
  P  P25  1  0.750000  0.750000  0.881784  1
  P  P26  1  0.250000  0.250000  0.658383  1
  P  P27  1  0.750000  0.750000  0.344267  1
  P  P28  1  0.250000  0.442178  0.382778  1
  P  P29  1  0.250000  0.057822  0.382778  1
  P  P30  1  0.750000  0.561335  0.616345  1
  P  P31  1  0.750000  0.938665  0.616345  1
  P  P32  1  0.250000  0.902542  0.106934  1
  P  P33  1  0.250000  0.597458  0.106934  1
  P  P34  1  0.750000  0.097092  0.893282  1
  P  P35  1  0.750000  0.402908  0.893282  1
