# generated using pymatgen
data_Hf18MnRe8Ni
_symmetry_space_group_name_H-M   'P 1'
_cell_length_a   8.57278000
_cell_length_b   8.57277977
_cell_length_c   8.50335800
_cell_angle_alpha   90.00000000
_cell_angle_beta   90.00000000
_cell_angle_gamma   120.00000087
_symmetry_Int_Tables_number   1
_chemical_formula_structural   Hf18MnRe8Ni
_chemical_formula_sum   'Hf18 Mn1 Re8 Ni1'
_cell_volume   541.20828661
_cell_formula_units_Z   1
loop_
 _symmetry_equiv_pos_site_id
 _symmetry_equiv_pos_as_xyz
  1  'x, y, z'
loop_
 _atom_site_type_symbol
 _atom_site_label
 _atom_site_symmetry_multiplicity
 _atom_site_fract_x
 _atom_site_fract_y
 _atom_site_fract_z
 _atom_site_occupancy
  Hf  Hf0  1  0.199990  0.800010  0.442802  1
  Hf  Hf1  1  0.199990  0.399979  0.442802  1
  Hf  Hf2  1  0.600021  0.800010  0.442802  1
  Hf  Hf3  1  0.801984  0.198016  0.556623  1
  Hf  Hf4  1  0.801984  0.603970  0.556623  1
  Hf  Hf5  1  0.396030  0.198016  0.556623  1
  Hf  Hf6  1  0.801984  0.198016  0.943377  1
  Hf  Hf7  1  0.801984  0.603970  0.943377  1
  Hf  Hf8  1  0.396030  0.198016  0.943377  1
  Hf  Hf9  1  0.199990  0.800010  0.057198  1
  Hf  Hf10  1  0.199990  0.399979  0.057198  1
  Hf  Hf11  1  0.600021  0.800010  0.057198  1
  Hf  Hf12  1  0.539778  0.460222  0.250000  1
  Hf  Hf13  1  0.539778  0.079556  0.250000  1
  Hf  Hf14  1  0.920444  0.460222  0.250000  1
  Hf  Hf15  1  0.459470  0.540530  0.750000  1
  Hf  Hf16  1  0.459470  0.918941  0.750000  1
  Hf  Hf17  1  0.081059  0.540530  0.750000  1
  Mn  Mn18  1  0.333333  0.666667  0.250000  1
  Re  Re19  1  0.889389  0.110611  0.250000  1
  Re  Re20  1  0.889389  0.778776  0.250000  1
  Re  Re21  1  0.221224  0.110611  0.250000  1
  Re  Re22  1  0.110808  0.889192  0.750000  1
  Re  Re23  1  0.110808  0.221617  0.750000  1
  Re  Re24  1  0.778383  0.889192  0.750000  1
  Re  Re25  1  0.000000  0.000000  0.499817  1
  Re  Re26  1  0.000000  0.000000  0.000183  1
  Ni  Ni27  1  0.666667  0.333333  0.750000  1
