# generated using pymatgen
data_ErTaMn4P3
_symmetry_space_group_name_H-M   'P 1'
_cell_length_a   3.60393100
_cell_length_b   10.91484800
_cell_length_c   12.45131500
_cell_angle_alpha   90.00000000
_cell_angle_beta   90.00000000
_cell_angle_gamma   90.00000000
_symmetry_Int_Tables_number   1
_chemical_formula_structural   ErTaMn4P3
_chemical_formula_sum   'Er4 Ta4 Mn16 P12'
_cell_volume   489.78939770
_cell_formula_units_Z   4
loop_
 _symmetry_equiv_pos_site_id
 _symmetry_equiv_pos_as_xyz
  1  'x, y, z'
loop_
 _atom_site_type_symbol
 _atom_site_label
 _atom_site_symmetry_multiplicity
 _atom_site_fract_x
 _atom_site_fract_y
 _atom_site_fract_z
 _atom_site_occupancy
  Er  Er0  1  0.250000  0.586696  0.708149  1
  Er  Er1  1  0.250000  0.913304  0.208149  1
  Er  Er2  1  0.750000  0.413304  0.291851  1
  Er  Er3  1  0.750000  0.086696  0.791851  1
  Ta  Ta4  1  0.250000  0.709310  0.984156  1
  Ta  Ta5  1  0.250000  0.790690  0.484156  1
  Ta  Ta6  1  0.750000  0.290690  0.015844  1
  Ta  Ta7  1  0.750000  0.209310  0.515844  1
  Mn  Mn8  1  0.250000  0.410171  0.491937  1
  Mn  Mn9  1  0.250000  0.089830  0.991937  1
  Mn  Mn10  1  0.750000  0.589829  0.508063  1
  Mn  Mn11  1  0.750000  0.910171  0.008063  1
  Mn  Mn12  1  0.250000  0.213391  0.178707  1
  Mn  Mn13  1  0.250000  0.286609  0.678707  1
  Mn  Mn14  1  0.750000  0.786609  0.821293  1
  Mn  Mn15  1  0.750000  0.713391  0.321293  1
  Mn  Mn16  1  0.250000  0.883775  0.696548  1
  Mn  Mn17  1  0.250000  0.616225  0.196548  1
  Mn  Mn18  1  0.750000  0.116225  0.303452  1
  Mn  Mn19  1  0.750000  0.383775  0.803452  1
  Mn  Mn20  1  0.250000  0.463080  0.933651  1
  Mn  Mn21  1  0.250000  0.036920  0.433651  1
  Mn  Mn22  1  0.750000  0.536920  0.066349  1
  Mn  Mn23  1  0.750000  0.963080  0.566349  1
  P  P24  1  0.250000  0.417199  0.118666  1
  P  P25  1  0.250000  0.082801  0.618666  1
  P  P26  1  0.750000  0.582801  0.881334  1
  P  P27  1  0.750000  0.917199  0.381334  1
  P  P28  1  0.250000  0.264319  0.866833  1
  P  P29  1  0.250000  0.235681  0.366833  1
  P  P30  1  0.750000  0.735681  0.133167  1
  P  P31  1  0.750000  0.764319  0.633167  1
  P  P32  1  0.250000  0.585055  0.382182  1
  P  P33  1  0.250000  0.914945  0.882182  1
  P  P34  1  0.750000  0.414945  0.617818  1
  P  P35  1  0.750000  0.085055  0.117818  1
