# generated using pymatgen
data_Y17Ho3(Hg3Ru)2
_symmetry_space_group_name_H-M   'P 1'
_cell_length_a   9.66409609
_cell_length_b   9.66390081
_cell_length_c   9.67879200
_cell_angle_alpha   90.00252983
_cell_angle_beta   89.99798588
_cell_angle_gamma   119.98506577
_symmetry_Int_Tables_number   1
_chemical_formula_structural   Y17Ho3(Hg3Ru)2
_chemical_formula_sum   'Y17 Ho3 Hg6 Ru2'
_cell_volume   782.94422904
_cell_formula_units_Z   1
loop_
 _symmetry_equiv_pos_site_id
 _symmetry_equiv_pos_as_xyz
  1  'x, y, z'
loop_
 _atom_site_type_symbol
 _atom_site_label
 _atom_site_symmetry_multiplicity
 _atom_site_fract_x
 _atom_site_fract_y
 _atom_site_fract_z
 _atom_site_occupancy
  Y  Y0  1  0.000005  0.999992  0.499550  1
  Y  Y1  1  0.000009  0.000002  0.999975  1
  Y  Y2  1  0.790524  0.209493  0.559871  1
  Y  Y3  1  0.790522  0.581051  0.559885  1
  Y  Y4  1  0.418962  0.209490  0.559888  1
  Y  Y5  1  0.790378  0.209599  0.939848  1
  Y  Y6  1  0.790390  0.580783  0.939835  1
  Y  Y7  1  0.419232  0.209618  0.939831  1
  Y  Y8  1  0.209670  0.790333  0.060441  1
  Y  Y9  1  0.209662  0.419328  0.060452  1
  Y  Y10  1  0.580655  0.790324  0.060446  1
  Y  Y11  1  0.540924  0.459045  0.250538  1
  Y  Y12  1  0.540967  0.081928  0.250544  1
  Y  Y13  1  0.918067  0.459016  0.250537  1
  Y  Y14  1  0.458595  0.541429  0.749258  1
  Y  Y15  1  0.458551  0.917108  0.749248  1
  Y  Y16  1  0.082894  0.541461  0.749244  1
  Ho  Ho17  1  0.210408  0.789621  0.439446  1
  Ho  Ho18  1  0.210392  0.420783  0.439417  1
  Ho  Ho19  1  0.579204  0.789615  0.439439  1
  Hg  Hg20  1  0.881389  0.118642  0.250019  1
  Hg  Hg21  1  0.881378  0.762714  0.250012  1
  Hg  Hg22  1  0.237289  0.118637  0.250014  1
  Hg  Hg23  1  0.118644  0.881310  0.749899  1
  Hg  Hg24  1  0.118664  0.237371  0.749908  1
  Hg  Hg25  1  0.762622  0.881309  0.749906  1
  Ru  Ru26  1  0.333337  0.666638  0.252724  1
  Ru  Ru27  1  0.666666  0.333357  0.749825  1
