# generated using pymatgen
data_TmCo(BIr)2
_symmetry_space_group_name_H-M   'P 1'
_cell_length_a   5.22617943
_cell_length_b   5.41331188
_cell_length_c   3.09713400
_cell_angle_alpha   90.00000000
_cell_angle_beta   90.00000000
_cell_angle_gamma   121.19173560
_symmetry_Int_Tables_number   1
_chemical_formula_structural   TmCo(BIr)2
_chemical_formula_sum   'Tm1 Co1 B2 Ir2'
_cell_volume   74.95427253
_cell_formula_units_Z   1
loop_
 _symmetry_equiv_pos_site_id
 _symmetry_equiv_pos_as_xyz
  1  'x, y, z'
loop_
 _atom_site_type_symbol
 _atom_site_label
 _atom_site_symmetry_multiplicity
 _atom_site_fract_x
 _atom_site_fract_y
 _atom_site_fract_z
 _atom_site_occupancy
  Tm  Tm0  1  0.000000  0.000000  0.500000  1
  Co  Co1  1  0.000000  0.500000  0.000000  1
  B  B2  1  0.699475  0.349737  0.500000  1
  B  B3  1  0.300525  0.650263  0.500000  1
  Ir  Ir4  1  0.500000  0.000000  0.000000  1
  Ir  Ir5  1  0.500000  0.500000  0.000000  1
