# generated using pymatgen
data_NdZn3PdRh
_symmetry_space_group_name_H-M   'P 1'
_cell_length_a   5.41699300
_cell_length_b   5.41699364
_cell_length_c   4.22803700
_cell_angle_alpha   90.00000000
_cell_angle_beta   90.00000000
_cell_angle_gamma   120.00000220
_symmetry_Int_Tables_number   1
_chemical_formula_structural   NdZn3PdRh
_chemical_formula_sum   'Nd1 Zn3 Pd1 Rh1'
_cell_volume   107.44494832
_cell_formula_units_Z   1
loop_
 _symmetry_equiv_pos_site_id
 _symmetry_equiv_pos_as_xyz
  1  'x, y, z'
loop_
 _atom_site_type_symbol
 _atom_site_label
 _atom_site_symmetry_multiplicity
 _atom_site_fract_x
 _atom_site_fract_y
 _atom_site_fract_z
 _atom_site_occupancy
  Nd  Nd0  1  0.000000  0.000000  0.000000  1
  Zn  Zn1  1  0.498125  0.996250  0.500000  1
  Zn  Zn2  1  0.003750  0.501874  0.500000  1
  Zn  Zn3  1  0.498124  0.501874  0.500000  1
  Pd  Pd4  1  0.666666  0.333332  0.000000  1
  Rh  Rh5  1  0.333333  0.666667  0.000000  1
