# generated using pymatgen
data_TmLu3Sc3AlPt4
_symmetry_space_group_name_H-M   'P 1'
_cell_length_a   4.47672500
_cell_length_b   6.93094207
_cell_length_c   8.23110034
_cell_angle_alpha   87.20699837
_cell_angle_beta   90.00000000
_cell_angle_gamma   90.00000000
_symmetry_Int_Tables_number   1
_chemical_formula_structural   TmLu3Sc3AlPt4
_chemical_formula_sum   'Tm1 Lu3 Sc3 Al1 Pt4'
_cell_volume   255.09055292
_cell_formula_units_Z   1
loop_
 _symmetry_equiv_pos_site_id
 _symmetry_equiv_pos_as_xyz
  1  'x, y, z'
loop_
 _atom_site_type_symbol
 _atom_site_label
 _atom_site_symmetry_multiplicity
 _atom_site_fract_x
 _atom_site_fract_y
 _atom_site_fract_z
 _atom_site_occupancy
  Tm  Tm0  1  0.250000  0.039471  0.671257  1
  Lu  Lu1  1  0.250000  0.519349  0.816030  1
  Lu  Lu2  1  0.750000  0.991422  0.341892  1
  Lu  Lu3  1  0.750000  0.466754  0.182144  1
  Sc  Sc4  1  0.250000  0.134031  0.070898  1
  Sc  Sc5  1  0.250000  0.643933  0.435017  1
  Sc  Sc6  1  0.750000  0.858521  0.929569  1
  Al  Al7  1  0.750000  0.362050  0.567302  1
  Pt  Pt8  1  0.250000  0.262983  0.383258  1
  Pt  Pt9  1  0.250000  0.739871  0.101862  1
  Pt  Pt10  1  0.750000  0.734518  0.616034  1
  Pt  Pt11  1  0.750000  0.247100  0.884737  1
