# generated using pymatgen
data_Dy11Tm9(Bi2Ru)4
_symmetry_space_group_name_H-M   'P 1'
_cell_length_a   7.92936815
_cell_length_b   8.99200700
_cell_length_c   12.44587134
_cell_angle_alpha   90.00000000
_cell_angle_beta   89.91587847
_cell_angle_gamma   90.00000000
_symmetry_Int_Tables_number   1
_chemical_formula_structural   Dy11Tm9(Bi2Ru)4
_chemical_formula_sum   'Dy11 Tm9 Bi8 Ru4'
_cell_volume   887.40129289
_cell_formula_units_Z   1
loop_
 _symmetry_equiv_pos_site_id
 _symmetry_equiv_pos_as_xyz
  1  'x, y, z'
loop_
 _atom_site_type_symbol
 _atom_site_label
 _atom_site_symmetry_multiplicity
 _atom_site_fract_x
 _atom_site_fract_y
 _atom_site_fract_z
 _atom_site_occupancy
  Dy  Dy0  1  0.156799  0.250000  0.207164  1
  Dy  Dy1  1  0.342897  0.250000  0.707237  1
  Dy  Dy2  1  0.656983  0.750000  0.292828  1
  Dy  Dy3  1  0.376675  0.750000  0.691247  1
  Dy  Dy4  1  0.623927  0.250000  0.308807  1
  Dy  Dy5  1  0.876294  0.250000  0.808793  1
  Dy  Dy6  1  0.123823  0.750000  0.191201  1
  Dy  Dy7  1  0.945916  0.750000  0.504775  1
  Dy  Dy8  1  0.053525  0.250000  0.495674  1
  Dy  Dy9  1  0.446331  0.250000  0.995395  1
  Dy  Dy10  1  0.555052  0.750000  0.003990  1
  Tm  Tm11  1  0.843569  0.750000  0.793968  1
  Tm  Tm12  1  0.673075  0.042502  0.564078  1
  Tm  Tm13  1  0.327063  0.957417  0.436044  1
  Tm  Tm14  1  0.172363  0.956715  0.935665  1
  Tm  Tm15  1  0.327063  0.542583  0.436044  1
  Tm  Tm16  1  0.827020  0.042275  0.063757  1
  Tm  Tm17  1  0.673075  0.457498  0.564078  1
  Tm  Tm18  1  0.827020  0.457725  0.063757  1
  Tm  Tm19  1  0.172363  0.543285  0.935665  1
  Bi  Bi20  1  0.569115  0.494143  0.827127  1
  Bi  Bi21  1  0.431672  0.506669  0.172713  1
  Bi  Bi22  1  0.067338  0.507592  0.673123  1
  Bi  Bi23  1  0.431672  0.993331  0.172713  1
  Bi  Bi24  1  0.931813  0.493357  0.327402  1
  Bi  Bi25  1  0.569115  0.005857  0.827127  1
  Bi  Bi26  1  0.931813  0.006643  0.327402  1
  Bi  Bi27  1  0.067338  0.992408  0.673123  1
  Ru  Ru28  1  0.572001  0.750000  0.510111  1
  Ru  Ru29  1  0.427977  0.250000  0.489985  1
  Ru  Ru30  1  0.071959  0.250000  0.989881  1
  Ru  Ru31  1  0.927355  0.750000  0.009123  1
