# generated using pymatgen
data_Sm8SnPd13Pt11
_symmetry_space_group_name_H-M   'P 1'
_cell_length_a   8.48297200
_cell_length_b   8.48749300
_cell_length_c   8.50314400
_cell_angle_alpha   90.00000000
_cell_angle_beta   90.00000000
_cell_angle_gamma   90.00000000
_symmetry_Int_Tables_number   1
_chemical_formula_structural   Sm8SnPd13Pt11
_chemical_formula_sum   'Sm8 Sn1 Pd13 Pt11'
_cell_volume   612.21927186
_cell_formula_units_Z   1
loop_
 _symmetry_equiv_pos_site_id
 _symmetry_equiv_pos_as_xyz
  1  'x, y, z'
loop_
 _atom_site_type_symbol
 _atom_site_label
 _atom_site_symmetry_multiplicity
 _atom_site_fract_x
 _atom_site_fract_y
 _atom_site_fract_z
 _atom_site_occupancy
  Sm  Sm0  1  0.252306  0.252614  0.252759  1
  Sm  Sm1  1  0.747977  0.747358  0.747462  1
  Sm  Sm2  1  0.747977  0.747358  0.252538  1
  Sm  Sm3  1  0.747694  0.252614  0.747241  1
  Sm  Sm4  1  0.252306  0.252614  0.747241  1
  Sm  Sm5  1  0.252023  0.747358  0.252538  1
  Sm  Sm6  1  0.252023  0.747358  0.747462  1
  Sm  Sm7  1  0.747694  0.252614  0.252759  1
  Sn  Sn8  1  0.000000  0.000049  0.000000  1
  Pd  Pd9  1  0.500000  0.000133  0.266503  1
  Pd  Pd10  1  0.266026  0.000164  0.500000  1
  Pd  Pd11  1  0.500000  0.000133  0.733497  1
  Pd  Pd12  1  0.733974  0.000164  0.500000  1
  Pd  Pd13  1  0.000000  0.500068  0.265329  1
  Pd  Pd14  1  0.000000  0.500068  0.734671  1
  Pd  Pd15  1  0.500000  0.745128  0.500000  1
  Pd  Pd16  1  0.500000  0.500029  0.254975  1
  Pd  Pd17  1  0.500000  0.500029  0.745025  1
  Pd  Pd18  1  0.000000  0.310965  0.000000  1
  Pd  Pd19  1  0.000000  0.689230  0.000000  1
  Pd  Pd20  1  0.000000  0.999947  0.310595  1
  Pd  Pd21  1  0.000000  0.999947  0.689405  1
  Pt  Pt22  1  0.265368  0.500096  0.000000  1
  Pt  Pt23  1  0.734632  0.500096  0.000000  1
  Pt  Pt24  1  0.000000  0.265117  0.500000  1
  Pt  Pt25  1  0.500000  0.265180  0.000000  1
  Pt  Pt26  1  0.000000  0.734628  0.500000  1
  Pt  Pt27  1  0.500000  0.734663  0.000000  1
  Pt  Pt28  1  0.254192  0.499905  0.500000  1
  Pt  Pt29  1  0.745808  0.499905  0.500000  1
  Pt  Pt30  1  0.500000  0.254627  0.500000  1
  Pt  Pt31  1  0.310165  0.999921  0.000000  1
  Pt  Pt32  1  0.689835  0.999921  0.000000  1
