# generated using pymatgen
data_Rb8SmDy3F20
_symmetry_space_group_name_H-M   'P 1'
_cell_length_a   6.96515994
_cell_length_b   7.48193600
_cell_length_c   11.52911237
_cell_angle_alpha   90.00000000
_cell_angle_beta   90.21187877
_cell_angle_gamma   90.00000000
_symmetry_Int_Tables_number   1
_chemical_formula_structural   Rb8SmDy3F20
_chemical_formula_sum   'Rb8 Sm1 Dy3 F20'
_cell_volume   600.81115195
_cell_formula_units_Z   1
loop_
 _symmetry_equiv_pos_site_id
 _symmetry_equiv_pos_as_xyz
  1  'x, y, z'
loop_
 _atom_site_type_symbol
 _atom_site_label
 _atom_site_symmetry_multiplicity
 _atom_site_fract_x
 _atom_site_fract_y
 _atom_site_fract_z
 _atom_site_occupancy
  Rb  Rb0  1  0.531680  0.497340  0.829549  1
  Rb  Rb1  1  0.468150  0.501338  0.170418  1
  Rb  Rb2  1  0.031837  0.500753  0.672717  1
  Rb  Rb3  1  0.468150  0.998662  0.170418  1
  Rb  Rb4  1  0.968485  0.496828  0.327484  1
  Rb  Rb5  1  0.531680  0.002660  0.829549  1
  Rb  Rb6  1  0.968485  0.003172  0.327484  1
  Rb  Rb7  1  0.031837  0.999247  0.672717  1
  Sm  Sm8  1  0.561277  0.750000  0.501432  1
  Dy  Dy9  1  0.438567  0.250000  0.498942  1
  Dy  Dy10  1  0.058834  0.250000  0.999054  1
  Dy  Dy11  1  0.940472  0.750000  0.001042  1
  F  F12  1  0.845769  0.750000  0.817071  1
  F  F13  1  0.153420  0.250000  0.182574  1
  F  F14  1  0.345304  0.250000  0.682970  1
  F  F15  1  0.657124  0.750000  0.312791  1
  F  F16  1  0.371868  0.750000  0.661931  1
  F  F17  1  0.624260  0.250000  0.343037  1
  F  F18  1  0.875037  0.250000  0.842514  1
  F  F19  1  0.124306  0.750000  0.157657  1
  F  F20  1  0.884461  0.750000  0.514491  1
  F  F21  1  0.122898  0.250000  0.485221  1
  F  F22  1  0.373933  0.250000  0.984226  1
  F  F23  1  0.625583  0.750000  0.015541  1
  F  F24  1  0.640033  0.037887  0.574233  1
  F  F25  1  0.359144  0.971231  0.425226  1
  F  F26  1  0.138751  0.966482  0.928398  1
  F  F27  1  0.359144  0.528769  0.425226  1
  F  F28  1  0.860363  0.033876  0.071729  1
  F  F29  1  0.640033  0.462113  0.574233  1
  F  F30  1  0.860363  0.466124  0.071729  1
  F  F31  1  0.138751  0.533518  0.928398  1
