# generated using pymatgen
data_Zr6ScTa3Al12Rh7
_symmetry_space_group_name_H-M   'P 1'
_cell_length_a   8.86849410
_cell_length_b   8.86849385
_cell_length_c   8.86849369
_cell_angle_alpha   59.96063389
_cell_angle_beta   59.96063413
_cell_angle_gamma   59.96063547
_symmetry_Int_Tables_number   1
_chemical_formula_structural   Zr6ScTa3Al12Rh7
_chemical_formula_sum   'Zr6 Sc1 Ta3 Al12 Rh7'
_cell_volume   492.77280410
_cell_formula_units_Z   1
loop_
 _symmetry_equiv_pos_site_id
 _symmetry_equiv_pos_as_xyz
  1  'x, y, z'
loop_
 _atom_site_type_symbol
 _atom_site_label
 _atom_site_symmetry_multiplicity
 _atom_site_fract_x
 _atom_site_fract_y
 _atom_site_fract_z
 _atom_site_occupancy
  Zr  Zr0  1  0.687838  0.687838  0.313354  1
  Zr  Zr1  1  0.308751  0.690950  0.308751  1
  Zr  Zr2  1  0.690950  0.308751  0.308751  1
  Zr  Zr3  1  0.308751  0.308751  0.690950  1
  Zr  Zr4  1  0.687838  0.313354  0.687838  1
  Zr  Zr5  1  0.313354  0.687838  0.687838  1
  Sc  Sc6  1  0.881822  0.881822  0.881822  1
  Ta  Ta7  1  0.878822  0.878822  0.362269  1
  Ta  Ta8  1  0.878822  0.362269  0.878822  1
  Ta  Ta9  1  0.362269  0.878822  0.878822  1
  Al  Al10  1  0.121756  0.121756  0.634885  1
  Al  Al11  1  0.121756  0.634885  0.121756  1
  Al  Al12  1  0.634885  0.121756  0.121756  1
  Al  Al13  1  0.121878  0.121878  0.121878  1
  Al  Al14  1  0.662710  0.662710  0.014454  1
  Al  Al15  1  0.662710  0.014454  0.662710  1
  Al  Al16  1  0.014454  0.662710  0.662710  1
  Al  Al17  1  0.660945  0.660945  0.660945  1
  Al  Al18  1  0.337065  0.337065  0.989490  1
  Al  Al19  1  0.337065  0.989490  0.337065  1
  Al  Al20  1  0.989490  0.337065  0.337065  1
  Al  Al21  1  0.336528  0.336528  0.336528  1
  Rh  Rh22  1  0.004356  0.004356  0.004356  1
  Rh  Rh23  1  0.999107  0.999107  0.493285  1
  Rh  Rh24  1  0.503258  0.997167  0.503258  1
  Rh  Rh25  1  0.997167  0.503258  0.503258  1
  Rh  Rh26  1  0.503258  0.503258  0.997167  1
  Rh  Rh27  1  0.999107  0.493285  0.999107  1
  Rh  Rh28  1  0.493285  0.999107  0.999107  1
