# generated using pymatgen
data_DyU5CoNi5Sb8
_symmetry_space_group_name_H-M   'P 1'
_cell_length_a   8.13639191
_cell_length_b   8.13639257
_cell_length_c   8.13639368
_cell_angle_alpha   109.50012657
_cell_angle_beta   109.41341452
_cell_angle_gamma   109.50013841
_symmetry_Int_Tables_number   1
_chemical_formula_structural   DyU5CoNi5Sb8
_chemical_formula_sum   'Dy1 U5 Co1 Ni5 Sb8'
_cell_volume   414.64217507
_cell_formula_units_Z   1
loop_
 _symmetry_equiv_pos_site_id
 _symmetry_equiv_pos_as_xyz
  1  'x, y, z'
loop_
 _atom_site_type_symbol
 _atom_site_label
 _atom_site_symmetry_multiplicity
 _atom_site_fract_x
 _atom_site_fract_y
 _atom_site_fract_z
 _atom_site_occupancy
  Dy  Dy0  1  0.875000  0.250000  0.125000  1
  U  U1  1  0.625000  0.750000  0.375000  1
  U  U2  1  0.250424  0.124371  0.870110  1
  U  U3  1  0.745739  0.375629  0.626053  1
  U  U4  1  0.129890  0.880314  0.254261  1
  U  U5  1  0.373947  0.619686  0.749576  1
  Co  Co6  1  0.375000  0.250000  0.625000  1
  Ni  Ni7  1  0.125000  0.750000  0.875000  1
  Ni  Ni8  1  0.260131  0.630972  0.377734  1
  Ni  Ni9  1  0.746762  0.869028  0.129159  1
  Ni  Ni10  1  0.622266  0.382397  0.253238  1
  Ni  Ni11  1  0.870841  0.117603  0.739869  1
  Sb  Sb12  1  0.664188  0.499267  0.998678  1
  Sb  Sb13  1  0.499411  0.000733  0.664921  1
  Sb  Sb14  1  0.999482  0.663384  0.497735  1
  Sb  Sb15  1  0.834351  0.836616  0.836097  1
  Sb  Sb16  1  0.502265  0.001746  0.165649  1
  Sb  Sb17  1  0.163903  0.498254  0.000518  1
  Sb  Sb18  1  0.001322  0.165509  0.500589  1
  Sb  Sb19  1  0.335079  0.334491  0.335812  1
