# generated using pymatgen
data_Nd3Y(HoBi)6
_symmetry_space_group_name_H-M   'P 1'
_cell_length_a   8.34360800
_cell_length_b   9.56380500
_cell_length_c   12.26758600
_cell_angle_alpha   90.00000000
_cell_angle_beta   90.00000000
_cell_angle_gamma   90.00000000
_symmetry_Int_Tables_number   1
_chemical_formula_structural   Nd3Y(HoBi)6
_chemical_formula_sum   'Nd6 Y2 Ho12 Bi12'
_cell_volume   978.91214259
_cell_formula_units_Z   2
loop_
 _symmetry_equiv_pos_site_id
 _symmetry_equiv_pos_as_xyz
  1  'x, y, z'
loop_
 _atom_site_type_symbol
 _atom_site_label
 _atom_site_symmetry_multiplicity
 _atom_site_fract_x
 _atom_site_fract_y
 _atom_site_fract_z
 _atom_site_occupancy
  Nd  Nd0  1  0.184810  0.750000  0.721041  1
  Nd  Nd1  1  0.684810  0.750000  0.778959  1
  Nd  Nd2  1  0.817351  0.250000  0.279644  1
  Nd  Nd3  1  0.317351  0.250000  0.220356  1
  Nd  Nd4  1  0.352069  0.750000  0.215922  1
  Nd  Nd5  1  0.852069  0.750000  0.284078  1
  Y  Y6  1  0.647142  0.250000  0.783188  1
  Y  Y7  1  0.147142  0.250000  0.716812  1
  Ho  Ho8  1  0.025332  0.750000  0.986695  1
  Ho  Ho9  1  0.525332  0.750000  0.513305  1
  Ho  Ho10  1  0.974845  0.250000  0.010373  1
  Ho  Ho11  1  0.474845  0.250000  0.489627  1
  Ho  Ho12  1  0.307484  0.435742  0.939720  1
  Ho  Ho13  1  0.807484  0.064258  0.560280  1
  Ho  Ho14  1  0.692265  0.936044  0.057969  1
  Ho  Ho15  1  0.192265  0.563956  0.442031  1
  Ho  Ho16  1  0.692265  0.563956  0.057969  1
  Ho  Ho17  1  0.192265  0.936044  0.442031  1
  Ho  Ho18  1  0.307484  0.064258  0.939720  1
  Ho  Ho19  1  0.807484  0.435742  0.560280  1
  Bi  Bi20  1  0.434332  0.008281  0.671393  1
  Bi  Bi21  1  0.934332  0.491719  0.828607  1
  Bi  Bi22  1  0.565353  0.504060  0.331658  1
  Bi  Bi23  1  0.065353  0.995940  0.168342  1
  Bi  Bi24  1  0.565353  0.995940  0.331658  1
  Bi  Bi25  1  0.065353  0.504060  0.168342  1
  Bi  Bi26  1  0.434332  0.491719  0.671393  1
  Bi  Bi27  1  0.934332  0.008281  0.828607  1
  Bi  Bi28  1  0.407069  0.750000  0.957804  1
  Bi  Bi29  1  0.907069  0.750000  0.542196  1
  Bi  Bi30  1  0.592515  0.250000  0.037427  1
  Bi  Bi31  1  0.092515  0.250000  0.462573  1
