# generated using pymatgen
data_SmGeF7
_symmetry_space_group_name_H-M   'P 1'
_cell_length_a   5.49931500
_cell_length_b   8.86827907
_cell_length_c   11.84596623
_cell_angle_alpha   62.06200679
_cell_angle_beta   90.00000000
_cell_angle_gamma   90.00000000
_symmetry_Int_Tables_number   1
_chemical_formula_structural   SmGeF7
_chemical_formula_sum   'Sm4 Ge4 F28'
_cell_volume   510.39092530
_cell_formula_units_Z   4
loop_
 _symmetry_equiv_pos_site_id
 _symmetry_equiv_pos_as_xyz
  1  'x, y, z'
loop_
 _atom_site_type_symbol
 _atom_site_label
 _atom_site_symmetry_multiplicity
 _atom_site_fract_x
 _atom_site_fract_y
 _atom_site_fract_z
 _atom_site_occupancy
  Sm  Sm0  1  0.759965  0.808630  0.764622  1
  Sm  Sm1  1  0.259965  0.191370  0.735378  1
  Sm  Sm2  1  0.240035  0.191370  0.235378  1
  Sm  Sm3  1  0.740035  0.808630  0.264622  1
  Ge  Ge4  1  0.757501  0.273720  0.957228  1
  Ge  Ge5  1  0.257501  0.726280  0.542772  1
  Ge  Ge6  1  0.242499  0.726280  0.042772  1
  Ge  Ge7  1  0.742499  0.273720  0.457228  1
  F  F8  1  0.428641  0.706455  0.923040  1
  F  F9  1  0.928641  0.293545  0.576960  1
  F  F10  1  0.571359  0.293545  0.076960  1
  F  F11  1  0.071359  0.706455  0.423040  1
  F  F12  1  0.460025  0.280619  0.538055  1
  F  F13  1  0.960025  0.719381  0.961945  1
  F  F14  1  0.539975  0.719381  0.461945  1
  F  F15  1  0.039975  0.280619  0.038055  1
  F  F16  1  0.772824  0.506036  0.864767  1
  F  F17  1  0.272824  0.493964  0.635233  1
  F  F18  1  0.227176  0.493964  0.135233  1
  F  F19  1  0.727176  0.506036  0.364767  1
  F  F20  1  0.758703  0.041722  0.046186  1
  F  F21  1  0.258703  0.958278  0.453814  1
  F  F22  1  0.241297  0.958278  0.953814  1
  F  F23  1  0.741297  0.041722  0.546186  1
  F  F24  1  0.984425  0.726959  0.630658  1
  F  F25  1  0.484425  0.273041  0.869342  1
  F  F26  1  0.015575  0.273041  0.369342  1
  F  F27  1  0.515575  0.726959  0.130658  1
  F  F28  1  0.059329  0.740648  0.167367  1
  F  F29  1  0.559329  0.259352  0.332633  1
  F  F30  1  0.940671  0.259352  0.832633  1
  F  F31  1  0.440671  0.740648  0.667367  1
  F  F32  1  0.402518  0.967519  0.226936  1
  F  F33  1  0.902518  0.032481  0.273064  1
  F  F34  1  0.597482  0.032481  0.773064  1
  F  F35  1  0.097482  0.967519  0.726936  1
