# generated using pymatgen
data_NaCa2Y(ReN3)4
_symmetry_space_group_name_H-M   'P 1'
_cell_length_a   7.43443653
_cell_length_b   7.43443675
_cell_length_c   6.26595135
_cell_angle_alpha   74.49862571
_cell_angle_beta   74.49862082
_cell_angle_gamma   83.98415805
_symmetry_Int_Tables_number   1
_chemical_formula_structural   NaCa2Y(ReN3)4
_chemical_formula_sum   'Na1 Ca2 Y1 Re4 N12'
_cell_volume   321.37914739
_cell_formula_units_Z   1
loop_
 _symmetry_equiv_pos_site_id
 _symmetry_equiv_pos_as_xyz
  1  'x, y, z'
loop_
 _atom_site_type_symbol
 _atom_site_label
 _atom_site_symmetry_multiplicity
 _atom_site_fract_x
 _atom_site_fract_y
 _atom_site_fract_z
 _atom_site_occupancy
  Na  Na0  1  0.292607  0.707393  0.750000  1
  Ca  Ca1  1  0.094240  0.905760  0.250000  1
  Ca  Ca2  1  0.706772  0.293228  0.250000  1
  Y  Y3  1  0.912549  0.087451  0.750000  1
  Re  Re4  1  0.625599  0.797809  0.265736  1
  Re  Re5  1  0.202191  0.374401  0.234264  1
  Re  Re6  1  0.378266  0.206408  0.729465  1
  Re  Re7  1  0.793592  0.621734  0.770535  1
  N  N8  1  0.340622  0.350236  0.944777  1
  N  N9  1  0.010375  0.216586  0.352620  1
  N  N10  1  0.783414  0.989625  0.147380  1
  N  N11  1  0.215540  0.023634  0.836222  1
  N  N12  1  0.655110  0.639316  0.063435  1
  N  N13  1  0.880361  0.386822  0.820151  1
  N  N14  1  0.111043  0.602274  0.189026  1
  N  N15  1  0.976366  0.784460  0.663778  1
  N  N16  1  0.397726  0.888957  0.310974  1
  N  N17  1  0.649764  0.659378  0.555223  1
  N  N18  1  0.613178  0.119639  0.679849  1
  N  N19  1  0.360684  0.344890  0.436565  1
