# generated using pymatgen
data_CsAlI4
_symmetry_space_group_name_H-M   'P 1'
_cell_length_a   19.30311300
_cell_length_b   7.67006601
_cell_length_c   8.87158703
_cell_angle_alpha   71.40475090
_cell_angle_beta   90.00000000
_cell_angle_gamma   90.00000000
_symmetry_Int_Tables_number   1
_chemical_formula_structural   CsAlI4
_chemical_formula_sum   'Cs4 Al4 I16'
_cell_volume   1244.92193240
_cell_formula_units_Z   4
loop_
 _symmetry_equiv_pos_site_id
 _symmetry_equiv_pos_as_xyz
  1  'x, y, z'
loop_
 _atom_site_type_symbol
 _atom_site_label
 _atom_site_symmetry_multiplicity
 _atom_site_fract_x
 _atom_site_fract_y
 _atom_site_fract_z
 _atom_site_occupancy
  Cs  Cs0  1  0.368637  0.179445  0.703105  1
  Cs  Cs1  1  0.631363  0.820555  0.296895  1
  Cs  Cs2  1  0.131363  0.179445  0.203105  1
  Cs  Cs3  1  0.868637  0.820555  0.796895  1
  Al  Al4  1  0.127931  0.811797  0.794866  1
  Al  Al5  1  0.627931  0.188203  0.705134  1
  Al  Al6  1  0.872069  0.188203  0.205134  1
  Al  Al7  1  0.372069  0.811797  0.294866  1
  I  I8  1  0.944179  0.267445  0.417078  1
  I  I9  1  0.346610  0.160074  0.203445  1
  I  I10  1  0.742503  0.362502  0.650358  1
  I  I11  1  0.653390  0.839926  0.796555  1
  I  I12  1  0.242503  0.637498  0.849642  1
  I  I13  1  0.442460  0.729200  0.554917  1
  I  I14  1  0.846610  0.839926  0.296555  1
  I  I15  1  0.557540  0.270800  0.445083  1
  I  I16  1  0.057540  0.729200  0.054917  1
  I  I17  1  0.942460  0.270800  0.945083  1
  I  I18  1  0.153390  0.160074  0.703445  1
  I  I19  1  0.555821  0.267445  0.917078  1
  I  I20  1  0.055821  0.732555  0.582922  1
  I  I21  1  0.757497  0.362502  0.150358  1
  I  I22  1  0.444179  0.732555  0.082922  1
  I  I23  1  0.257497  0.637498  0.349642  1
