# generated using pymatgen
data_TbPr4Er5Pb6
_symmetry_space_group_name_H-M   'P 1'
_cell_length_a   9.18328846
_cell_length_b   9.18328852
_cell_length_c   6.72418500
_cell_angle_alpha   90.00000000
_cell_angle_beta   90.00000000
_cell_angle_gamma   119.51718418
_symmetry_Int_Tables_number   1
_chemical_formula_structural   TbPr4Er5Pb6
_chemical_formula_sum   'Tb1 Pr4 Er5 Pb6'
_cell_volume   493.46819337
_cell_formula_units_Z   1
loop_
 _symmetry_equiv_pos_site_id
 _symmetry_equiv_pos_as_xyz
  1  'x, y, z'
loop_
 _atom_site_type_symbol
 _atom_site_label
 _atom_site_symmetry_multiplicity
 _atom_site_fract_x
 _atom_site_fract_y
 _atom_site_fract_z
 _atom_site_occupancy
  Tb  Tb0  1  0.244152  0.244152  0.250000  1
  Pr  Pr1  1  0.238158  0.001034  0.750000  1
  Pr  Pr2  1  0.001034  0.238158  0.750000  1
  Pr  Pr3  1  0.761957  0.998438  0.250000  1
  Pr  Pr4  1  0.998438  0.761957  0.250000  1
  Er  Er5  1  0.666607  0.333123  0.999878  1
  Er  Er6  1  0.333123  0.666607  0.999878  1
  Er  Er7  1  0.333123  0.666607  0.500122  1
  Er  Er8  1  0.666607  0.333123  0.500122  1
  Er  Er9  1  0.756898  0.756898  0.750000  1
  Pb  Pb10  1  0.403865  0.403865  0.750000  1
  Pb  Pb11  1  0.602725  0.995988  0.750000  1
  Pb  Pb12  1  0.995988  0.602725  0.750000  1
  Pb  Pb13  1  0.597051  0.597051  0.250000  1
  Pb  Pb14  1  0.397666  0.002608  0.250000  1
  Pb  Pb15  1  0.002608  0.397666  0.250000  1
