# generated using pymatgen
data_PrNdRh6
_symmetry_space_group_name_H-M   'P 1'
_cell_length_a   5.35818400
_cell_length_b   5.35819436
_cell_length_c   17.70343200
_cell_angle_alpha   90.00004705
_cell_angle_beta   89.99998283
_cell_angle_gamma   119.99991301
_symmetry_Int_Tables_number   1
_chemical_formula_structural   PrNdRh6
_chemical_formula_sum   'Pr3 Nd3 Rh18'
_cell_volume   440.17418165
_cell_formula_units_Z   3
loop_
 _symmetry_equiv_pos_site_id
 _symmetry_equiv_pos_as_xyz
  1  'x, y, z'
loop_
 _atom_site_type_symbol
 _atom_site_label
 _atom_site_symmetry_multiplicity
 _atom_site_fract_x
 _atom_site_fract_y
 _atom_site_fract_z
 _atom_site_occupancy
  Pr  Pr0  1  0.333333  0.666667  0.542263  1
  Pr  Pr1  1  0.333333  0.666667  0.749734  1
  Pr  Pr2  1  0.666667  0.333333  0.250325  1
  Nd  Nd3  1  0.666667  0.333333  0.042689  1
  Nd  Nd4  1  0.666667  0.333333  0.457396  1
  Nd  Nd5  1  0.333333  0.666667  0.957609  1
  Rh  Rh6  1  0.166696  0.333391  0.127645  1
  Rh  Rh7  1  0.833357  0.666716  0.627456  1
  Rh  Rh8  1  0.666610  0.833304  0.127645  1
  Rh  Rh9  1  0.166695  0.833304  0.127645  1
  Rh  Rh10  1  0.833358  0.166642  0.627456  1
  Rh  Rh11  1  0.333284  0.166643  0.627456  1
  Rh  Rh12  1  0.833287  0.666575  0.872488  1
  Rh  Rh13  1  0.833287  0.166713  0.872489  1
  Rh  Rh14  1  0.333425  0.166713  0.872489  1
  Rh  Rh15  1  0.666763  0.833381  0.372466  1
  Rh  Rh16  1  0.166619  0.833381  0.372467  1
  Rh  Rh17  1  0.166619  0.333237  0.372467  1
  Rh  Rh18  1  0.000001  0.000001  0.250129  1
  Rh  Rh19  1  0.999999  0.999999  0.749808  1
  Rh  Rh20  1  0.333333  0.666667  0.250238  1
  Rh  Rh21  1  0.666667  0.333334  0.749758  1
  Rh  Rh22  1  0.000000  0.000000  0.000140  1
  Rh  Rh23  1  0.999999  0.000000  0.499743  1
