# generated using pymatgen
data_Tb13Gd3(InCo)4
_symmetry_space_group_name_H-M   'P 1'
_cell_length_a   9.62011894
_cell_length_b   9.61348993
_cell_length_c   9.63480600
_cell_angle_alpha   59.97218593
_cell_angle_beta   59.98397807
_cell_angle_gamma   60.12386872
_symmetry_Int_Tables_number   1
_chemical_formula_structural   Tb13Gd3(InCo)4
_chemical_formula_sum   'Tb13 Gd3 In4 Co4'
_cell_volume   630.44930162
_cell_formula_units_Z   1
loop_
 _symmetry_equiv_pos_site_id
 _symmetry_equiv_pos_as_xyz
  1  'x, y, z'
loop_
 _atom_site_type_symbol
 _atom_site_label
 _atom_site_symmetry_multiplicity
 _atom_site_fract_x
 _atom_site_fract_y
 _atom_site_fract_z
 _atom_site_occupancy
  Tb  Tb0  1  0.594819  0.595539  0.598454  1
  Tb  Tb1  1  0.596873  0.594795  0.209090  1
  Tb  Tb2  1  0.598454  0.211188  0.594819  1
  Tb  Tb3  1  0.209090  0.599241  0.596873  1
  Tb  Tb4  1  0.061248  0.437029  0.438998  1
  Tb  Tb5  1  0.438998  0.062725  0.061248  1
  Tb  Tb6  1  0.438707  0.061293  0.438707  1
  Tb  Tb7  1  0.061922  0.438078  0.061922  1
  Tb  Tb8  1  0.439656  0.437109  0.061516  1
  Tb  Tb9  1  0.061516  0.061720  0.439656  1
  Tb  Tb10  1  0.188831  0.810028  0.811631  1
  Tb  Tb11  1  0.811631  0.189508  0.188831  1
  Tb  Tb12  1  0.811004  0.188996  0.811004  1
  Gd  Gd13  1  0.189686  0.810314  0.189686  1
  Gd  Gd14  1  0.809176  0.809564  0.190254  1
  Gd  Gd15  1  0.190254  0.191005  0.809176  1
  In  In16  1  0.832175  0.833132  0.831156  1
  In  In17  1  0.832396  0.832076  0.503667  1
  In  In18  1  0.831156  0.503538  0.832175  1
  In  In19  1  0.503667  0.831862  0.832396  1
  Co  Co20  1  0.389398  0.390279  0.392257  1
  Co  Co21  1  0.389208  0.391738  0.827877  1
  Co  Co22  1  0.392257  0.828069  0.389398  1
  Co  Co23  1  0.827877  0.391178  0.389208  1
