# generated using pymatgen
data_TmP4Ru5Rh
_symmetry_space_group_name_H-M   'P 1'
_cell_length_a   6.89418600
_cell_length_b   6.94652814
_cell_length_c   3.73599900
_cell_angle_alpha   90.00000000
_cell_angle_beta   90.00000000
_cell_angle_gamma   119.75105542
_symmetry_Int_Tables_number   1
_chemical_formula_structural   TmP4Ru5Rh
_chemical_formula_sum   'Tm1 P4 Ru5 Rh1'
_cell_volume   155.33601620
_cell_formula_units_Z   1
loop_
 _symmetry_equiv_pos_site_id
 _symmetry_equiv_pos_as_xyz
  1  'x, y, z'
loop_
 _atom_site_type_symbol
 _atom_site_label
 _atom_site_symmetry_multiplicity
 _atom_site_fract_x
 _atom_site_fract_y
 _atom_site_fract_z
 _atom_site_occupancy
  Tm  Tm0  1  0.000675  0.001351  0.000000  1
  P  P1  1  0.189983  0.379966  0.500000  1
  P  P2  1  0.617532  0.813002  0.500000  1
  P  P3  1  0.195471  0.813002  0.500000  1
  P  P4  1  0.662437  0.324873  0.000000  1
  Ru  Ru5  1  0.396240  0.198057  0.500000  1
  Ru  Ru6  1  0.801816  0.198057  0.500000  1
  Ru  Ru7  1  0.464654  0.929308  0.000000  1
  Ru  Ru8  1  0.066530  0.533088  0.000000  1
  Ru  Ru9  1  0.466560  0.533088  0.000000  1
  Rh  Rh10  1  0.804770  0.609541  0.500000  1
