# generated using pymatgen
data_Yb9Pr(Si2Sn)2
_symmetry_space_group_name_H-M   'P 1'
_cell_length_a   7.75147641
_cell_length_b   9.27697164
_cell_length_c   7.75147641
_cell_angle_alpha   114.83375531
_cell_angle_beta   89.73152418
_cell_angle_gamma   114.80236197
_symmetry_Int_Tables_number   1
_chemical_formula_structural   Yb9Pr(Si2Sn)2
_chemical_formula_sum   'Yb9 Pr1 Si4 Sn2'
_cell_volume   449.14579482
_cell_formula_units_Z   1
loop_
 _symmetry_equiv_pos_site_id
 _symmetry_equiv_pos_as_xyz
  1  'x, y, z'
loop_
 _atom_site_type_symbol
 _atom_site_label
 _atom_site_symmetry_multiplicity
 _atom_site_fract_x
 _atom_site_fract_y
 _atom_site_fract_z
 _atom_site_occupancy
  Yb  Yb0  1  0.000814  0.996772  0.001036  1
  Yb  Yb1  1  0.495737  0.996772  0.495959  1
  Yb  Yb2  1  0.536718  0.722853  0.686137  1
  Yb  Yb3  1  0.186526  0.725126  0.038602  1
  Yb  Yb4  1  0.687034  0.722510  0.186453  1
  Yb  Yb5  1  0.036060  0.722510  0.535478  1
  Yb  Yb6  1  0.463126  0.277446  0.314318  1
  Yb  Yb7  1  0.315057  0.276851  0.814155  1
  Yb  Yb8  1  0.962694  0.276851  0.461792  1
  Pr  Pr9  1  0.814335  0.272834  0.958497  1
  Si  Si10  1  0.888079  0.005349  0.617270  1
  Si  Si11  1  0.111295  0.000734  0.389440  1
  Si  Si12  1  0.614036  0.000750  0.112261  1
  Si  Si13  1  0.388489  0.000750  0.886714  1
  Sn  Sn14  1  0.749759  0.500944  0.750705  1
  Sn  Sn15  1  0.250240  0.500944  0.251185  1
