# generated using pymatgen
data_SmY3Cr4F28
_symmetry_space_group_name_H-M   'P 1'
_cell_length_a   5.53859248
_cell_length_b   8.81875713
_cell_length_c   11.75092627
_cell_angle_alpha   62.99309703
_cell_angle_beta   89.93069634
_cell_angle_gamma   90.01036956
_symmetry_Int_Tables_number   1
_chemical_formula_structural   SmY3Cr4F28
_chemical_formula_sum   'Sm1 Y3 Cr4 F28'
_cell_volume   511.36694495
_cell_formula_units_Z   1
loop_
 _symmetry_equiv_pos_site_id
 _symmetry_equiv_pos_as_xyz
  1  'x, y, z'
loop_
 _atom_site_type_symbol
 _atom_site_label
 _atom_site_symmetry_multiplicity
 _atom_site_fract_x
 _atom_site_fract_y
 _atom_site_fract_z
 _atom_site_occupancy
  Sm  Sm0  1  0.264609  0.809770  0.266181  1
  Y  Y1  1  0.733462  0.190994  0.733874  1
  Y  Y2  1  0.767355  0.193783  0.233672  1
  Y  Y3  1  0.233919  0.809539  0.766209  1
  Cr  Cr4  1  0.755264  0.725311  0.041614  1
  Cr  Cr5  1  0.241648  0.275338  0.955104  1
  Cr  Cr6  1  0.257368  0.272380  0.456874  1
  Cr  Cr7  1  0.743202  0.725470  0.546421  1
  F  F8  1  0.936283  0.706379  0.425975  1
  F  F9  1  0.063637  0.293139  0.575733  1
  F  F10  1  0.436079  0.294248  0.074146  1
  F  F11  1  0.564033  0.705376  0.921856  1
  F  F12  1  0.477845  0.729647  0.133214  1
  F  F13  1  0.516751  0.269600  0.861115  1
  F  F14  1  0.980925  0.270701  0.362938  1
  F  F15  1  0.019689  0.730464  0.638981  1
  F  F16  1  0.944893  0.741949  0.166332  1
  F  F17  1  0.046618  0.255607  0.832877  1
  F  F18  1  0.452075  0.253839  0.333716  1
  F  F19  1  0.549337  0.743970  0.669256  1
  F  F20  1  0.763778  0.491149  0.136982  1
  F  F21  1  0.233774  0.508942  0.860266  1
  F  F22  1  0.269083  0.505480  0.362278  1
  F  F23  1  0.736571  0.491287  0.640030  1
  F  F24  1  0.958779  0.285311  0.043755  1
  F  F25  1  0.041056  0.715358  0.954881  1
  F  F26  1  0.461141  0.714527  0.459218  1
  F  F27  1  0.540903  0.282434  0.545279  1
  F  F28  1  0.742723  0.957435  0.455956  1
  F  F29  1  0.257284  0.040263  0.546279  1
  F  F30  1  0.240221  0.043083  0.045208  1
  F  F31  1  0.757375  0.957502  0.953146  1
  F  F32  1  0.593359  0.977157  0.227011  1
  F  F33  1  0.415472  0.024526  0.772420  1
  F  F34  1  0.087480  0.032069  0.273333  1
  F  F35  1  0.916010  0.975975  0.727874  1
