# generated using pymatgen
data_Ta6Co16Si4P3
_symmetry_space_group_name_H-M   'P 1'
_cell_length_a   7.87796128
_cell_length_b   7.88401652
_cell_length_c   7.87261200
_cell_angle_alpha   60.04783114
_cell_angle_beta   60.02245080
_cell_angle_gamma   59.86836789
_symmetry_Int_Tables_number   1
_chemical_formula_structural   Ta6Co16Si4P3
_chemical_formula_sum   'Ta6 Co16 Si4 P3'
_cell_volume   345.59009619
_cell_formula_units_Z   1
loop_
 _symmetry_equiv_pos_site_id
 _symmetry_equiv_pos_as_xyz
  1  'x, y, z'
loop_
 _atom_site_type_symbol
 _atom_site_label
 _atom_site_symmetry_multiplicity
 _atom_site_fract_x
 _atom_site_fract_y
 _atom_site_fract_z
 _atom_site_occupancy
  Ta  Ta0  1  0.199941  0.798295  0.800084  1
  Ta  Ta1  1  0.199941  0.798295  0.201680  1
  Ta  Ta2  1  0.800059  0.201705  0.199916  1
  Ta  Ta3  1  0.800059  0.201705  0.798320  1
  Ta  Ta4  1  0.800540  0.797356  0.201052  1
  Ta  Ta5  1  0.199460  0.202644  0.798948  1
  Co  Co6  1  0.383960  0.382341  0.382895  1
  Co  Co7  1  0.496914  0.840031  0.831527  1
  Co  Co8  1  0.616040  0.617659  0.149195  1
  Co  Co9  1  0.171968  0.162289  0.502776  1
  Co  Co10  1  0.828032  0.837711  0.497224  1
  Co  Co11  1  0.171968  0.162289  0.162967  1
  Co  Co12  1  0.828032  0.837711  0.837033  1
  Co  Co13  1  0.383960  0.382341  0.850805  1
  Co  Co14  1  0.833985  0.497027  0.834494  1
  Co  Co15  1  0.616040  0.617659  0.617105  1
  Co  Co16  1  0.383873  0.849076  0.383526  1
  Co  Co17  1  0.147522  0.618100  0.617189  1
  Co  Co18  1  0.616127  0.150924  0.616474  1
  Co  Co19  1  0.166015  0.502973  0.165506  1
  Co  Co20  1  0.852478  0.381900  0.382811  1
  Co  Co21  1  0.503086  0.159969  0.168473  1
  Si  Si22  1  0.000000  0.000000  0.500000  1
  Si  Si23  1  0.000000  0.500000  0.000000  1
  Si  Si24  1  0.500000  0.500000  0.000000  1
  Si  Si25  1  0.000000  0.500000  0.500000  1
  P  P26  1  0.500000  0.000000  0.500000  1
  P  P27  1  0.500000  0.500000  0.500000  1
  P  P28  1  0.500000  0.000000  0.000000  1
