# generated using pymatgen
data_Tm2Sc2PtRh
_symmetry_space_group_name_H-M   'P 1'
_cell_length_a   4.49163000
_cell_length_b   6.98596400
_cell_length_c   8.35764800
_cell_angle_alpha   90.00000000
_cell_angle_beta   90.00000000
_cell_angle_gamma   90.00000000
_symmetry_Int_Tables_number   1
_chemical_formula_structural   Tm2Sc2PtRh
_chemical_formula_sum   'Tm4 Sc4 Pt2 Rh2'
_cell_volume   262.24933351
_cell_formula_units_Z   2
loop_
 _symmetry_equiv_pos_site_id
 _symmetry_equiv_pos_as_xyz
  1  'x, y, z'
loop_
 _atom_site_type_symbol
 _atom_site_label
 _atom_site_symmetry_multiplicity
 _atom_site_fract_x
 _atom_site_fract_y
 _atom_site_fract_z
 _atom_site_occupancy
  Tm  Tm0  1  0.250000  0.978952  0.327391  1
  Tm  Tm1  1  0.750000  0.518660  0.827658  1
  Tm  Tm2  1  0.250000  0.478952  0.172609  1
  Tm  Tm3  1  0.750000  0.018660  0.672342  1
  Sc  Sc4  1  0.750000  0.640451  0.429382  1
  Sc  Sc5  1  0.750000  0.140451  0.070618  1
  Sc  Sc6  1  0.250000  0.361010  0.573253  1
  Sc  Sc7  1  0.250000  0.861010  0.926747  1
  Pt  Pt8  1  0.750000  0.752740  0.104666  1
  Pt  Pt9  1  0.750000  0.252740  0.395334  1
  Rh  Rh10  1  0.250000  0.248186  0.901099  1
  Rh  Rh11  1  0.250000  0.748186  0.598901  1
