# generated using pymatgen
data_Ca3(Al3Os)4
_symmetry_space_group_name_H-M   'P 1'
_cell_length_a   8.86292400
_cell_length_b   8.86292458
_cell_length_c   9.71288100
_cell_angle_alpha   90.00000000
_cell_angle_beta   90.00000000
_cell_angle_gamma   119.99999785
_symmetry_Int_Tables_number   1
_chemical_formula_structural   Ca3(Al3Os)4
_chemical_formula_sum   'Ca6 Al24 Os8'
_cell_volume   660.74332979
_cell_formula_units_Z   2
loop_
 _symmetry_equiv_pos_site_id
 _symmetry_equiv_pos_as_xyz
  1  'x, y, z'
loop_
 _atom_site_type_symbol
 _atom_site_label
 _atom_site_symmetry_multiplicity
 _atom_site_fract_x
 _atom_site_fract_y
 _atom_site_fract_z
 _atom_site_occupancy
  Ca  Ca0  1  0.193790  0.387580  0.250000  1
  Ca  Ca1  1  0.806210  0.612420  0.750000  1
  Ca  Ca2  1  0.612420  0.806210  0.250000  1
  Ca  Ca3  1  0.387580  0.193790  0.750000  1
  Ca  Ca4  1  0.193790  0.806210  0.250000  1
  Ca  Ca5  1  0.806210  0.193790  0.750000  1
  Al  Al6  1  0.333333  0.666667  0.002737  1
  Al  Al7  1  0.666667  0.333333  0.997263  1
  Al  Al8  1  0.666667  0.333333  0.502737  1
  Al  Al9  1  0.333333  0.666667  0.497263  1
  Al  Al10  1  0.162769  0.325538  0.570866  1
  Al  Al11  1  0.837231  0.674462  0.429134  1
  Al  Al12  1  0.674462  0.837231  0.570866  1
  Al  Al13  1  0.837231  0.674462  0.070866  1
  Al  Al14  1  0.325538  0.162769  0.429134  1
  Al  Al15  1  0.162769  0.325538  0.929134  1
  Al  Al16  1  0.162769  0.837231  0.570866  1
  Al  Al17  1  0.325538  0.162769  0.070866  1
  Al  Al18  1  0.837231  0.162769  0.429134  1
  Al  Al19  1  0.674462  0.837231  0.929134  1
  Al  Al20  1  0.837231  0.162769  0.070866  1
  Al  Al21  1  0.162769  0.837231  0.929134  1
  Al  Al22  1  0.561177  0.122354  0.250000  1
  Al  Al23  1  0.438823  0.877646  0.750000  1
  Al  Al24  1  0.877646  0.438823  0.250000  1
  Al  Al25  1  0.122354  0.561177  0.750000  1
  Al  Al26  1  0.561177  0.438823  0.250000  1
  Al  Al27  1  0.438823  0.561177  0.750000  1
  Al  Al28  1  0.000000  0.000000  0.250000  1
  Al  Al29  1  0.000000  0.000000  0.750000  1
  Os  Os30  1  0.500000  0.000000  0.000000  1
  Os  Os31  1  0.000000  0.500000  0.000000  1
  Os  Os32  1  0.500000  0.000000  0.500000  1
  Os  Os33  1  0.500000  0.500000  0.000000  1
  Os  Os34  1  0.000000  0.500000  0.500000  1
  Os  Os35  1  0.500000  0.500000  0.500000  1
  Os  Os36  1  0.000000  0.000000  0.000000  1
  Os  Os37  1  0.000000  0.000000  0.500000  1
