# generated using pymatgen
data_ErU3F15
_symmetry_space_group_name_H-M   'P 1'
_cell_length_a   8.62190213
_cell_length_b   8.62190214
_cell_length_c   8.64221303
_cell_angle_alpha   79.41590583
_cell_angle_beta   79.41590792
_cell_angle_gamma   99.66265664
_symmetry_Int_Tables_number   1
_chemical_formula_structural   ErU3F15
_chemical_formula_sum   'Er2 U6 F30'
_cell_volume   607.10424843
_cell_formula_units_Z   2
loop_
 _symmetry_equiv_pos_site_id
 _symmetry_equiv_pos_as_xyz
  1  'x, y, z'
loop_
 _atom_site_type_symbol
 _atom_site_label
 _atom_site_symmetry_multiplicity
 _atom_site_fract_x
 _atom_site_fract_y
 _atom_site_fract_z
 _atom_site_occupancy
  Er  Er0  1  0.177380  0.822620  0.250000  1
  Er  Er1  1  0.822620  0.177380  0.750000  1
  U  U2  1  0.749437  0.250563  0.250000  1
  U  U3  1  0.250563  0.749437  0.750000  1
  U  U4  1  0.754829  0.678778  0.673894  1
  U  U5  1  0.321222  0.245171  0.826106  1
  U  U6  1  0.245171  0.321222  0.326106  1
  U  U7  1  0.678778  0.754829  0.173894  1
  F  F8  1  0.466092  0.533908  0.250000  1
  F  F9  1  0.750954  0.964927  0.961021  1
  F  F10  1  0.035073  0.249046  0.538979  1
  F  F11  1  0.249046  0.035073  0.038979  1
  F  F12  1  0.964927  0.750954  0.461021  1
  F  F13  1  0.533908  0.466092  0.750000  1
  F  F14  1  0.220783  0.489215  0.775719  1
  F  F15  1  0.226430  0.725748  0.006152  1
  F  F16  1  0.989009  0.723936  0.781834  1
  F  F17  1  0.723936  0.989009  0.281834  1
  F  F18  1  0.725748  0.226430  0.506152  1
  F  F19  1  0.489215  0.220783  0.275719  1
  F  F20  1  0.779218  0.510785  0.224281  1
  F  F21  1  0.773570  0.274252  0.993848  1
  F  F22  1  0.010991  0.276064  0.218166  1
  F  F23  1  0.276064  0.010991  0.718166  1
  F  F24  1  0.274252  0.773570  0.493848  1
  F  F25  1  0.510785  0.779217  0.724281  1
  F  F26  1  0.553475  0.156529  0.812342  1
  F  F27  1  0.187287  0.052543  0.346216  1
  F  F28  1  0.649326  0.682512  0.445605  1
  F  F29  1  0.682512  0.649326  0.945605  1
  F  F30  1  0.052543  0.187287  0.846216  1
  F  F31  1  0.156529  0.553475  0.312342  1
  F  F32  1  0.446525  0.843471  0.187658  1
  F  F33  1  0.812713  0.947457  0.653784  1
  F  F34  1  0.350674  0.317488  0.554395  1
  F  F35  1  0.317488  0.350674  0.054395  1
  F  F36  1  0.947457  0.812713  0.153784  1
  F  F37  1  0.843471  0.446525  0.687658  1
