# generated using pymatgen
data_Ir5RhW2
_symmetry_space_group_name_H-M   'P 1'
_cell_length_a   5.55208800
_cell_length_b   5.54183720
_cell_length_c   4.42718700
_cell_angle_alpha   90.00000000
_cell_angle_beta   90.00000000
_cell_angle_gamma   120.06120683
_symmetry_Int_Tables_number   1
_chemical_formula_structural   Ir5RhW2
_chemical_formula_sum   'Ir5 Rh1 W2'
_cell_volume   117.89636547
_cell_formula_units_Z   1
loop_
 _symmetry_equiv_pos_site_id
 _symmetry_equiv_pos_as_xyz
  1  'x, y, z'
loop_
 _atom_site_type_symbol
 _atom_site_label
 _atom_site_symmetry_multiplicity
 _atom_site_fract_x
 _atom_site_fract_y
 _atom_site_fract_z
 _atom_site_occupancy
  Ir  Ir0  1  0.834127  0.668253  0.250000  1
  Ir  Ir1  1  0.165587  0.832775  0.750000  1
  Ir  Ir2  1  0.667187  0.832775  0.750000  1
  Ir  Ir3  1  0.332768  0.167170  0.250000  1
  Ir  Ir4  1  0.834403  0.167170  0.250000  1
  Rh  Rh5  1  0.166608  0.333218  0.750000  1
  W  W6  1  0.333110  0.666221  0.250000  1
  W  W7  1  0.666210  0.332419  0.750000  1
