# generated using pymatgen
data_GdThTc3Os
_symmetry_space_group_name_H-M   'P 1'
_cell_length_a   5.27285900
_cell_length_b   5.27285938
_cell_length_c   9.50427400
_cell_angle_alpha   90.00000000
_cell_angle_beta   90.00000000
_cell_angle_gamma   120.00000386
_symmetry_Int_Tables_number   1
_chemical_formula_structural   GdThTc3Os
_chemical_formula_sum   'Gd2 Th2 Tc6 Os2'
_cell_volume   228.84525445
_cell_formula_units_Z   2
loop_
 _symmetry_equiv_pos_site_id
 _symmetry_equiv_pos_as_xyz
  1  'x, y, z'
loop_
 _atom_site_type_symbol
 _atom_site_label
 _atom_site_symmetry_multiplicity
 _atom_site_fract_x
 _atom_site_fract_y
 _atom_site_fract_z
 _atom_site_occupancy
  Gd  Gd0  1  0.333333  0.666667  0.436659  1
  Gd  Gd1  1  0.666667  0.333333  0.563341  1
  Th  Th2  1  0.666667  0.333333  0.934426  1
  Th  Th3  1  0.333333  0.666667  0.065574  1
  Tc  Tc4  1  0.830258  0.169742  0.254469  1
  Tc  Tc5  1  0.830258  0.660516  0.254469  1
  Tc  Tc6  1  0.339484  0.169742  0.254469  1
  Tc  Tc7  1  0.169742  0.830258  0.745531  1
  Tc  Tc8  1  0.169742  0.339484  0.745531  1
  Tc  Tc9  1  0.660516  0.830258  0.745531  1
  Os  Os10  1  0.000000  0.000000  0.500000  1
  Os  Os11  1  0.000000  0.000000  0.000000  1
