# generated using pymatgen
data_Tm16TlCd(InPd2)2
_symmetry_space_group_name_H-M   'P 1'
_cell_length_a   9.59186736
_cell_length_b   9.61877483
_cell_length_c   9.61877474
_cell_angle_alpha   59.84676897
_cell_angle_beta   59.91275867
_cell_angle_gamma   59.91274392
_symmetry_Int_Tables_number   1
_chemical_formula_structural   Tm16TlCd(InPd2)2
_chemical_formula_sum   'Tm16 Tl1 Cd1 In2 Pd4'
_cell_volume   625.96428791
_cell_formula_units_Z   1
loop_
 _symmetry_equiv_pos_site_id
 _symmetry_equiv_pos_as_xyz
  1  'x, y, z'
loop_
 _atom_site_type_symbol
 _atom_site_label
 _atom_site_symmetry_multiplicity
 _atom_site_fract_x
 _atom_site_fract_y
 _atom_site_fract_z
 _atom_site_occupancy
  Tm  Tm0  1  0.350896  0.351106  0.351106  1
  Tm  Tm1  1  0.352182  0.352800  0.941612  1
  Tm  Tm2  1  0.352182  0.941612  0.352800  1
  Tm  Tm3  1  0.941188  0.352226  0.352226  1
  Tm  Tm4  1  0.809707  0.190936  0.190936  1
  Tm  Tm5  1  0.189085  0.810550  0.810550  1
  Tm  Tm6  1  0.189888  0.810973  0.189315  1
  Tm  Tm7  1  0.809635  0.189992  0.809291  1
  Tm  Tm8  1  0.189888  0.189315  0.810973  1
  Tm  Tm9  1  0.809635  0.809291  0.189992  1
  Tm  Tm10  1  0.938446  0.565279  0.565279  1
  Tm  Tm11  1  0.564716  0.935440  0.935440  1
  Tm  Tm12  1  0.565391  0.936115  0.564107  1
  Tm  Tm13  1  0.937424  0.563638  0.935107  1
  Tm  Tm14  1  0.565391  0.564107  0.936115  1
  Tm  Tm15  1  0.937424  0.935107  0.563638  1
  Tl  Tl16  1  0.584471  0.586244  0.586244  1
  Cd  Cd17  1  0.251608  0.581456  0.581456  1
  In  In18  1  0.580729  0.582694  0.251637  1
  In  In19  1  0.580729  0.251637  0.582694  1
  Pd  Pd20  1  0.145006  0.144173  0.144173  1
  Pd  Pd21  1  0.143177  0.143680  0.568228  1
  Pd  Pd22  1  0.143177  0.568228  0.143680  1
  Pd  Pd23  1  0.568032  0.143400  0.143400  1
