# generated using pymatgen
data_Tb5SiGeSe3
_symmetry_space_group_name_H-M   'P 1'
_cell_length_a   7.17184474
_cell_length_b   7.17184444
_cell_length_c   7.17399308
_cell_angle_alpha   99.13799951
_cell_angle_beta   99.78097473
_cell_angle_gamma   132.16024617
_symmetry_Int_Tables_number   1
_chemical_formula_structural   Tb5SiGeSe3
_chemical_formula_sum   'Tb5 Si1 Ge1 Se3'
_cell_volume   250.04345275
_cell_formula_units_Z   1
loop_
 _symmetry_equiv_pos_site_id
 _symmetry_equiv_pos_as_xyz
  1  'x, y, z'
loop_
 _atom_site_type_symbol
 _atom_site_label
 _atom_site_symmetry_multiplicity
 _atom_site_fract_x
 _atom_site_fract_y
 _atom_site_fract_z
 _atom_site_occupancy
  Tb  Tb0  1  0.395890  0.788322  0.184212  1
  Tb  Tb1  1  0.002323  0.995308  0.997631  1
  Tb  Tb2  1  0.597051  0.206634  0.803685  1
  Tb  Tb3  1  0.206613  0.410343  0.616956  1
  Tb  Tb4  1  0.798032  0.599463  0.397495  1
  Si  Si5  1  0.502399  0.500766  0.003165  1
  Ge  Ge6  1  0.096916  0.698993  0.795910  1
  Se  Se7  1  0.696711  0.900094  0.596804  1
  Se  Se8  1  0.300440  0.099213  0.399653  1
  Se  Se9  1  0.903625  0.300864  0.204490  1
