# generated using pymatgen
data_Dy4Y4Tc(B8Ru)3
_symmetry_space_group_name_H-M   'P 1'
_cell_length_a   3.67555300
_cell_length_b   9.15453144
_cell_length_c   11.54073900
_cell_angle_alpha   89.90262087
_cell_angle_beta   90.00000000
_cell_angle_gamma   90.00000000
_symmetry_Int_Tables_number   1
_chemical_formula_structural   Dy4Y4Tc(B8Ru)3
_chemical_formula_sum   'Dy4 Y4 Tc1 B24 Ru3'
_cell_volume   388.32182704
_cell_formula_units_Z   1
loop_
 _symmetry_equiv_pos_site_id
 _symmetry_equiv_pos_as_xyz
  1  'x, y, z'
loop_
 _atom_site_type_symbol
 _atom_site_label
 _atom_site_symmetry_multiplicity
 _atom_site_fract_x
 _atom_site_fract_y
 _atom_site_fract_z
 _atom_site_occupancy
  Dy  Dy0  1  0.000000  0.943601  0.372257  1
  Dy  Dy1  1  0.000000  0.056988  0.628408  1
  Dy  Dy2  1  0.000000  0.444264  0.128185  1
  Dy  Dy3  1  0.000000  0.556606  0.871227  1
  Y  Y4  1  0.000000  0.324631  0.413257  1
  Y  Y5  1  0.000000  0.676421  0.583542  1
  Y  Y6  1  0.000000  0.821100  0.088015  1
  Y  Y7  1  0.000000  0.176545  0.914947  1
  Tc  Tc8  1  0.000000  0.637977  0.321156  1
  B  B9  1  0.500000  0.553144  0.433018  1
  B  B10  1  0.500000  0.446101  0.567607  1
  B  B11  1  0.500000  0.053972  0.067343  1
  B  B12  1  0.500000  0.945903  0.932919  1
  B  B13  1  0.500000  0.748148  0.419423  1
  B  B14  1  0.500000  0.252161  0.580610  1
  B  B15  1  0.500000  0.247949  0.080403  1
  B  B16  1  0.500000  0.751901  0.919488  1
  B  B17  1  0.500000  0.791664  0.266318  1
  B  B18  1  0.500000  0.209021  0.733656  1
  B  B19  1  0.500000  0.291029  0.232940  1
  B  B20  1  0.500000  0.709426  0.766337  1
  B  B21  1  0.500000  0.632076  0.185757  1
  B  B22  1  0.500000  0.367586  0.814582  1
  B  B23  1  0.500000  0.132200  0.314043  1
  B  B24  1  0.500000  0.868243  0.685568  1
  B  B25  1  0.500000  0.983995  0.212706  1
  B  B26  1  0.500000  0.015957  0.787739  1
  B  B27  1  0.500000  0.483154  0.287294  1
  B  B28  1  0.500000  0.515694  0.712664  1
  B  B29  1  0.500000  0.608338  0.029352  1
  B  B30  1  0.500000  0.391153  0.969589  1
  B  B31  1  0.500000  0.109080  0.470214  1
  B  B32  1  0.500000  0.892366  0.530428  1
  Ru  Ru33  1  0.000000  0.361576  0.679415  1
  Ru  Ru34  1  0.000000  0.137996  0.178402  1
  Ru  Ru35  1  0.000000  0.862037  0.821190  1
