# generated using pymatgen
data_DyHo5(CI3)2
_symmetry_space_group_name_H-M   'P 1'
_cell_length_a   3.89021200
_cell_length_b   8.67700352
_cell_length_c   11.89404501
_cell_angle_alpha   92.23677217
_cell_angle_beta   90.00000000
_cell_angle_gamma   90.00000000
_symmetry_Int_Tables_number   1
_chemical_formula_structural   DyHo5(CI3)2
_chemical_formula_sum   'Dy1 Ho5 C2 I6'
_cell_volume   401.18214286
_cell_formula_units_Z   1
loop_
 _symmetry_equiv_pos_site_id
 _symmetry_equiv_pos_as_xyz
  1  'x, y, z'
loop_
 _atom_site_type_symbol
 _atom_site_label
 _atom_site_symmetry_multiplicity
 _atom_site_fract_x
 _atom_site_fract_y
 _atom_site_fract_z
 _atom_site_occupancy
  Dy  Dy0  1  0.250000  0.918753  0.598820  1
  Ho  Ho1  1  0.750000  0.080555  0.401639  1
  Ho  Ho2  1  0.250000  0.887285  0.189508  1
  Ho  Ho3  1  0.750000  0.112770  0.810420  1
  Ho  Ho4  1  0.250000  0.291035  0.614564  1
  Ho  Ho5  1  0.750000  0.709219  0.385379  1
  C  C6  1  0.250000  0.883132  0.387187  1
  C  C7  1  0.750000  0.117607  0.612319  1
  I  I8  1  0.250000  0.859965  0.872080  1
  I  I9  1  0.750000  0.140055  0.128102  1
  I  I10  1  0.250000  0.374728  0.870059  1
  I  I11  1  0.750000  0.625247  0.129945  1
  I  I12  1  0.250000  0.382477  0.368426  1
  I  I13  1  0.750000  0.617171  0.631552  1
