# generated using pymatgen
data_Ti13Al9(FeRh3)2
_symmetry_space_group_name_H-M   'P 1'
_cell_length_a   8.69026236
_cell_length_b   8.69026134
_cell_length_c   8.69026120
_cell_angle_alpha   59.75189246
_cell_angle_beta   59.75189519
_cell_angle_gamma   59.75190298
_symmetry_Int_Tables_number   1
_chemical_formula_structural   Ti13Al9(FeRh3)2
_chemical_formula_sum   'Ti13 Al9 Fe2 Rh6'
_cell_volume   461.45557435
_cell_formula_units_Z   1
loop_
 _symmetry_equiv_pos_site_id
 _symmetry_equiv_pos_as_xyz
  1  'x, y, z'
loop_
 _atom_site_type_symbol
 _atom_site_label
 _atom_site_symmetry_multiplicity
 _atom_site_fract_x
 _atom_site_fract_y
 _atom_site_fract_z
 _atom_site_occupancy
  Ti  Ti0  1  0.204599  0.204599  0.795067  1
  Ti  Ti1  1  0.795067  0.204599  0.204599  1
  Ti  Ti2  1  0.204599  0.795067  0.204599  1
  Ti  Ti3  1  0.805495  0.805495  0.180197  1
  Ti  Ti4  1  0.180197  0.805495  0.805495  1
  Ti  Ti5  1  0.805495  0.180197  0.805495  1
  Ti  Ti6  1  0.382223  0.382223  0.382223  1
  Ti  Ti7  1  0.383246  0.853989  0.383246  1
  Ti  Ti8  1  0.853989  0.383246  0.383246  1
  Ti  Ti9  1  0.383246  0.383246  0.853989  1
  Ti  Ti10  1  0.844355  0.470655  0.844355  1
  Ti  Ti11  1  0.470655  0.844355  0.844355  1
  Ti  Ti12  1  0.844355  0.844355  0.470655  1
  Al  Al13  1  0.156945  0.156945  0.156945  1
  Al  Al14  1  0.161555  0.519512  0.161555  1
  Al  Al15  1  0.519512  0.161555  0.161555  1
  Al  Al16  1  0.161555  0.161555  0.519512  1
  Al  Al17  1  0.617350  0.617350  0.617350  1
  Al  Al18  1  0.617534  0.150217  0.617534  1
  Al  Al19  1  0.150217  0.617534  0.617534  1
  Al  Al20  1  0.617534  0.617534  0.150217  1
  Al  Al21  1  0.829294  0.829294  0.829294  1
  Fe  Fe22  1  0.500836  0.500836  0.500836  1
  Fe  Fe23  1  0.003511  0.003511  0.003511  1
  Rh  Rh24  1  0.003055  0.003055  0.498907  1
  Rh  Rh25  1  0.498907  0.003055  0.003055  1
  Rh  Rh26  1  0.003055  0.498907  0.003055  1
  Rh  Rh27  1  0.500409  0.500409  0.000799  1
  Rh  Rh28  1  0.000799  0.500409  0.500409  1
  Rh  Rh29  1  0.500409  0.000799  0.500409  1
