# generated using pymatgen
data_Ca6RhIO12
_symmetry_space_group_name_H-M   'P 1'
_cell_length_a   5.87882091
_cell_length_b   5.59681855
_cell_length_c   9.84170346
_cell_angle_alpha   55.26524630
_cell_angle_beta   91.02637987
_cell_angle_gamma   90.27580744
_symmetry_Int_Tables_number   1
_chemical_formula_structural   Ca6RhIO12
_chemical_formula_sum   'Ca6 Rh1 I1 O12'
_cell_volume   266.06520422
_cell_formula_units_Z   1
loop_
 _symmetry_equiv_pos_site_id
 _symmetry_equiv_pos_as_xyz
  1  'x, y, z'
loop_
 _atom_site_type_symbol
 _atom_site_label
 _atom_site_symmetry_multiplicity
 _atom_site_fract_x
 _atom_site_fract_y
 _atom_site_fract_z
 _atom_site_occupancy
  Ca  Ca0  1  0.049281  0.714149  0.778883  1
  Ca  Ca1  1  0.950719  0.285851  0.221117  1
  Ca  Ca2  1  0.569050  0.254793  0.768208  1
  Ca  Ca3  1  0.430950  0.745207  0.231792  1
  Ca  Ca4  1  0.500000  0.500000  0.000000  1
  Ca  Ca5  1  0.000000  0.500000  0.500000  1
  Rh  Rh6  1  0.000000  0.000000  0.000000  1
  I  I7  1  0.500000  0.000000  0.500000  1
  O  O8  1  0.446592  0.905769  0.716536  1
  O  O9  1  0.553408  0.094231  0.283464  1
  O  O10  1  0.944032  0.124928  0.767040  1
  O  O11  1  0.055968  0.875072  0.232960  1
  O  O12  1  0.766941  0.758691  0.578537  1
  O  O13  1  0.233059  0.241309  0.421463  1
  O  O14  1  0.280650  0.236577  0.937796  1
  O  O15  1  0.719350  0.763423  0.062204  1
  O  O16  1  0.326039  0.668889  0.557059  1
  O  O17  1  0.673961  0.331111  0.442941  1
  O  O18  1  0.815158  0.336718  0.956512  1
  O  O19  1  0.184842  0.663282  0.043488  1
