# generated using pymatgen
data_LiLuSiO4
_symmetry_space_group_name_H-M   'P 1'
_cell_length_a   4.92136700
_cell_length_b   6.20822500
_cell_length_c   10.78854300
_cell_angle_alpha   90.00000000
_cell_angle_beta   90.00000000
_cell_angle_gamma   90.00000000
_symmetry_Int_Tables_number   1
_chemical_formula_structural   LiLuSiO4
_chemical_formula_sum   'Li4 Lu4 Si4 O16'
_cell_volume   329.62185416
_cell_formula_units_Z   4
loop_
 _symmetry_equiv_pos_site_id
 _symmetry_equiv_pos_as_xyz
  1  'x, y, z'
loop_
 _atom_site_type_symbol
 _atom_site_label
 _atom_site_symmetry_multiplicity
 _atom_site_fract_x
 _atom_site_fract_y
 _atom_site_fract_z
 _atom_site_occupancy
  Li  Li0  1  0.000000  0.000000  0.000000  1
  Li  Li1  1  0.500000  0.000000  0.500000  1
  Li  Li2  1  0.000000  0.500000  0.000000  1
  Li  Li3  1  0.500000  0.500000  0.500000  1
  Lu  Lu4  1  0.017538  0.750000  0.275650  1
  Lu  Lu5  1  0.482462  0.750000  0.775650  1
  Lu  Lu6  1  0.982462  0.250000  0.724350  1
  Lu  Lu7  1  0.517538  0.250000  0.224350  1
  Si  Si8  1  0.580457  0.750000  0.087735  1
  Si  Si9  1  0.919543  0.750000  0.587735  1
  Si  Si10  1  0.419543  0.250000  0.912265  1
  Si  Si11  1  0.080457  0.250000  0.412265  1
  O  O12  1  0.774545  0.544027  0.663320  1
  O  O13  1  0.225455  0.455973  0.336680  1
  O  O14  1  0.725455  0.544027  0.163320  1
  O  O15  1  0.774545  0.955973  0.663320  1
  O  O16  1  0.274545  0.044027  0.836680  1
  O  O17  1  0.748366  0.250000  0.901882  1
  O  O18  1  0.274545  0.455973  0.836680  1
  O  O19  1  0.225455  0.044027  0.336680  1
  O  O20  1  0.251634  0.750000  0.098118  1
  O  O21  1  0.751634  0.250000  0.401882  1
  O  O22  1  0.709133  0.750000  0.948032  1
  O  O23  1  0.248366  0.750000  0.598118  1
  O  O24  1  0.790867  0.750000  0.448032  1
  O  O25  1  0.209133  0.250000  0.551968  1
  O  O26  1  0.290867  0.250000  0.051968  1
  O  O27  1  0.725455  0.955973  0.163320  1
