# generated using pymatgen
data_KBaNi3N2
_symmetry_space_group_name_H-M   'P 1'
_cell_length_a   6.30584619
_cell_length_b   6.30584725
_cell_length_c   7.40814355
_cell_angle_alpha   91.17608062
_cell_angle_beta   88.82392177
_cell_angle_gamma   112.35734782
_symmetry_Int_Tables_number   1
_chemical_formula_structural   KBaNi3N2
_chemical_formula_sum   'K2 Ba2 Ni6 N4'
_cell_volume   272.34868317
_cell_formula_units_Z   2
loop_
 _symmetry_equiv_pos_site_id
 _symmetry_equiv_pos_as_xyz
  1  'x, y, z'
loop_
 _atom_site_type_symbol
 _atom_site_label
 _atom_site_symmetry_multiplicity
 _atom_site_fract_x
 _atom_site_fract_y
 _atom_site_fract_z
 _atom_site_occupancy
  K  K0  1  0.832080  0.172383  0.912890  1
  K  K1  1  0.172383  0.832080  0.087110  1
  Ba  Ba2  1  0.669855  0.331127  0.403851  1
  Ba  Ba3  1  0.331127  0.669855  0.596149  1
  Ni  Ni4  1  0.175533  0.319301  0.261477  1
  Ni  Ni5  1  0.319301  0.175533  0.738523  1
  Ni  Ni6  1  0.820225  0.676396  0.755019  1
  Ni  Ni7  1  0.676396  0.820225  0.244981  1
  Ni  Ni8  1  0.036117  0.036117  0.500000  1
  Ni  Ni9  1  0.526627  0.526627  0.000000  1
  N  N10  1  0.924291  0.065510  0.280191  1
  N  N11  1  0.065510  0.924291  0.719809  1
  N  N12  1  0.568912  0.422641  0.774471  1
  N  N13  1  0.422641  0.568912  0.225529  1
