# generated using pymatgen
data_Dy8Ho2OsRu3
_symmetry_space_group_name_H-M   'P 1'
_cell_length_a   6.35746836
_cell_length_b   7.28958693
_cell_length_c   8.47178429
_cell_angle_alpha   96.74132241
_cell_angle_beta   112.12840663
_cell_angle_gamma   89.84330203
_symmetry_Int_Tables_number   1
_chemical_formula_structural   Dy8Ho2OsRu3
_chemical_formula_sum   'Dy8 Ho2 Os1 Ru3'
_cell_volume   360.80981205
_cell_formula_units_Z   1
loop_
 _symmetry_equiv_pos_site_id
 _symmetry_equiv_pos_as_xyz
  1  'x, y, z'
loop_
 _atom_site_type_symbol
 _atom_site_label
 _atom_site_symmetry_multiplicity
 _atom_site_fract_x
 _atom_site_fract_y
 _atom_site_fract_z
 _atom_site_occupancy
  Dy  Dy0  1  0.978452  0.916441  0.186117  1
  Dy  Dy1  1  0.792826  0.584584  0.815664  1
  Dy  Dy2  1  0.021932  0.084831  0.814209  1
  Dy  Dy3  1  0.208606  0.415796  0.186526  1
  Dy  Dy4  1  0.641003  0.814575  0.433838  1
  Dy  Dy5  1  0.204377  0.684340  0.564794  1
  Dy  Dy6  1  0.360006  0.184904  0.565877  1
  Dy  Dy7  1  0.793655  0.315011  0.434324  1
  Ho  Ho8  1  0.421586  0.749214  0.000249  1
  Ho  Ho9  1  0.579507  0.250867  0.000559  1
  Os  Os10  1  0.821603  0.576547  0.218649  1
  Ru  Ru11  1  0.603258  0.924824  0.779042  1
  Ru  Ru12  1  0.176331  0.422838  0.779801  1
  Ru  Ru13  1  0.396856  0.075229  0.220353  1
