# generated using pymatgen
data_Lu5Zr3(As3Rh4)4
_symmetry_space_group_name_H-M   'P 1'
_cell_length_a   13.32979300
_cell_length_b   13.32979293
_cell_length_c   3.98336200
_cell_angle_alpha   90.00000000
_cell_angle_beta   90.00000000
_cell_angle_gamma   120.00000265
_symmetry_Int_Tables_number   1
_chemical_formula_structural   Lu5Zr3(As3Rh4)4
_chemical_formula_sum   'Lu5 Zr3 As12 Rh16'
_cell_volume   612.95304166
_cell_formula_units_Z   1
loop_
 _symmetry_equiv_pos_site_id
 _symmetry_equiv_pos_as_xyz
  1  'x, y, z'
loop_
 _atom_site_type_symbol
 _atom_site_label
 _atom_site_symmetry_multiplicity
 _atom_site_fract_x
 _atom_site_fract_y
 _atom_site_fract_z
 _atom_site_occupancy
  Lu  Lu0  1  0.187449  0.187449  0.500000  1
  Lu  Lu1  1  0.812551  0.000000  0.500000  1
  Lu  Lu2  1  0.000000  0.812551  0.500000  1
  Lu  Lu3  1  0.333333  0.666667  0.000000  1
  Lu  Lu4  1  0.666667  0.333333  0.000000  1
  Zr  Zr5  1  0.555400  0.555400  0.000000  1
  Zr  Zr6  1  0.444600  0.000000  0.000000  1
  Zr  Zr7  1  0.000000  0.444600  0.000000  1
  As  As8  1  0.825679  0.825679  0.000000  1
  As  As9  1  0.174321  0.000000  0.000000  1
  As  As10  1  0.000000  0.174321  0.000000  1
  As  As11  1  0.171220  0.486624  0.500000  1
  As  As12  1  0.513376  0.684596  0.500000  1
  As  As13  1  0.315404  0.828780  0.500000  1
  As  As14  1  0.684596  0.513376  0.500000  1
  As  As15  1  0.828780  0.315404  0.500000  1
  As  As16  1  0.486624  0.171220  0.500000  1
  As  As17  1  0.352534  0.352534  0.000000  1
  As  As18  1  0.647466  0.000000  0.000000  1
  As  As19  1  0.000000  0.647466  0.000000  1
  Rh  Rh20  1  0.719995  0.719995  0.500000  1
  Rh  Rh21  1  0.280005  0.000000  0.500000  1
  Rh  Rh22  1  0.000000  0.280005  0.500000  1
  Rh  Rh23  1  0.176505  0.372640  0.000000  1
  Rh  Rh24  1  0.627360  0.803865  0.000000  1
  Rh  Rh25  1  0.196135  0.823495  0.000000  1
  Rh  Rh26  1  0.803865  0.627360  0.000000  1
  Rh  Rh27  1  0.823495  0.196135  0.000000  1
  Rh  Rh28  1  0.372640  0.176505  0.000000  1
  Rh  Rh29  1  0.354811  0.483604  0.500000  1
  Rh  Rh30  1  0.516396  0.871209  0.500000  1
  Rh  Rh31  1  0.128791  0.645189  0.500000  1
  Rh  Rh32  1  0.871209  0.516396  0.500000  1
  Rh  Rh33  1  0.645189  0.128791  0.500000  1
  Rh  Rh34  1  0.483604  0.354811  0.500000  1
  Rh  Rh35  1  0.000000  0.000000  0.000000  1
