# generated using pymatgen
data_ThInSiIrRh
_symmetry_space_group_name_H-M   'P 1'
_cell_length_a   4.12143500
_cell_length_b   4.12245700
_cell_length_c   11.44212500
_cell_angle_alpha   90.00000000
_cell_angle_beta   90.00000000
_cell_angle_gamma   90.00000000
_symmetry_Int_Tables_number   1
_chemical_formula_structural   ThInSiIrRh
_chemical_formula_sum   'Th2 In2 Si2 Ir2 Rh2'
_cell_volume   194.40672187
_cell_formula_units_Z   2
loop_
 _symmetry_equiv_pos_site_id
 _symmetry_equiv_pos_as_xyz
  1  'x, y, z'
loop_
 _atom_site_type_symbol
 _atom_site_label
 _atom_site_symmetry_multiplicity
 _atom_site_fract_x
 _atom_site_fract_y
 _atom_site_fract_z
 _atom_site_occupancy
  Th  Th0  1  0.000000  0.500000  0.233753  1
  Th  Th1  1  0.500000  0.000000  0.767344  1
  In  In2  1  0.000000  0.000000  0.500956  1
  In  In3  1  0.500000  0.500000  0.500931  1
  Si  Si4  1  0.000000  0.500000  0.887169  1
  Si  Si5  1  0.500000  0.000000  0.111884  1
  Ir  Ir6  1  0.500000  0.500000  0.999870  1
  Ir  Ir7  1  0.500000  0.000000  0.317632  1
  Rh  Rh8  1  0.000000  0.000000  0.000018  1
  Rh  Rh9  1  0.000000  0.500000  0.680443  1
