# generated using pymatgen
data_PrHo3Th6(Si3C)2
_symmetry_space_group_name_H-M   'P 1'
_cell_length_a   6.38977400
_cell_length_b   8.77707245
_cell_length_c   8.77694200
_cell_angle_alpha   120.00033569
_cell_angle_beta   90.00024641
_cell_angle_gamma   89.99976819
_symmetry_Int_Tables_number   1
_chemical_formula_structural   PrHo3Th6(Si3C)2
_chemical_formula_sum   'Pr1 Ho3 Th6 Si6 C2'
_cell_volume   426.29238266
_cell_formula_units_Z   1
loop_
 _symmetry_equiv_pos_site_id
 _symmetry_equiv_pos_as_xyz
  1  'x, y, z'
loop_
 _atom_site_type_symbol
 _atom_site_label
 _atom_site_symmetry_multiplicity
 _atom_site_fract_x
 _atom_site_fract_y
 _atom_site_fract_z
 _atom_site_occupancy
  Pr  Pr0  1  0.499999  0.333322  0.666641  1
  Ho  Ho1  1  0.500005  0.666725  0.333396  1
  Ho  Ho2  1  0.999999  0.666622  0.333272  1
  Ho  Ho3  1  0.000000  0.333382  0.666735  1
  Th  Th4  1  0.751055  0.233264  0.000043  1
  Th  Th5  1  0.751091  0.766761  0.766710  1
  Th  Th6  1  0.751109  0.999956  0.233234  1
  Th  Th7  1  0.248945  0.766780  0.000047  1
  Th  Th8  1  0.248911  0.233283  0.233233  1
  Th  Th9  1  0.248890  0.999941  0.766707  1
  Si  Si10  1  0.756997  0.602062  0.005518  1
  Si  Si11  1  0.757051  0.403461  0.397938  1
  Si  Si12  1  0.757079  0.994471  0.596535  1
  Si  Si13  1  0.243002  0.403452  0.005518  1
  Si  Si14  1  0.242951  0.602057  0.596535  1
  Si  Si15  1  0.242915  0.994475  0.397940  1
  C  C16  1  0.500003  0.999995  0.000001  1
  C  C17  1  0.000001  0.999995  0.999999  1
