# generated using pymatgen
data_Eu5Ga2Sn
_symmetry_space_group_name_H-M   'P 1'
_cell_length_a   9.74116828
_cell_length_b   9.74116712
_cell_length_c   9.74116700
_cell_angle_alpha   129.96523803
_cell_angle_beta   129.96523233
_cell_angle_gamma   73.46235011
_symmetry_Int_Tables_number   1
_chemical_formula_structural   Eu5Ga2Sn
_chemical_formula_sum   'Eu10 Ga4 Sn2'
_cell_volume   529.94530034
_cell_formula_units_Z   2
loop_
 _symmetry_equiv_pos_site_id
 _symmetry_equiv_pos_as_xyz
  1  'x, y, z'
loop_
 _atom_site_type_symbol
 _atom_site_label
 _atom_site_symmetry_multiplicity
 _atom_site_fract_x
 _atom_site_fract_y
 _atom_site_fract_z
 _atom_site_occupancy
  Eu  Eu0  1  0.819443  0.319443  0.851991  1
  Eu  Eu1  1  0.467452  0.967452  0.148009  1
  Eu  Eu2  1  0.680556  0.532547  0.500000  1
  Eu  Eu3  1  0.032548  0.180557  0.500000  1
  Eu  Eu4  1  0.180556  0.680556  0.148009  1
  Eu  Eu5  1  0.532547  0.032548  0.851991  1
  Eu  Eu6  1  0.967452  0.819443  0.500000  1
  Eu  Eu7  1  0.319443  0.467452  0.500000  1
  Eu  Eu8  1  0.000000  0.000000  0.000000  1
  Eu  Eu9  1  0.500000  0.500000  0.000000  1
  Ga  Ga10  1  0.890868  0.390869  0.281739  1
  Ga  Ga11  1  0.109132  0.609131  0.718261  1
  Ga  Ga12  1  0.609132  0.890868  0.500000  1
  Ga  Ga13  1  0.390868  0.109132  0.500000  1
  Sn  Sn14  1  0.250000  0.250000  0.000000  1
  Sn  Sn15  1  0.750000  0.750000  0.000000  1
