# generated using pymatgen
data_EuCu3P2Pd
_symmetry_space_group_name_H-M   'P 1'
_cell_length_a   7.44678100
_cell_length_b   7.49318100
_cell_length_c   3.84543200
_cell_angle_alpha   90.00000000
_cell_angle_beta   90.00000000
_cell_angle_gamma   90.00000000
_symmetry_Int_Tables_number   1
_chemical_formula_structural   EuCu3P2Pd
_chemical_formula_sum   'Eu2 Cu6 P4 Pd2'
_cell_volume   214.57540516
_cell_formula_units_Z   2
loop_
 _symmetry_equiv_pos_site_id
 _symmetry_equiv_pos_as_xyz
  1  'x, y, z'
loop_
 _atom_site_type_symbol
 _atom_site_label
 _atom_site_symmetry_multiplicity
 _atom_site_fract_x
 _atom_site_fract_y
 _atom_site_fract_z
 _atom_site_occupancy
  Eu  Eu0  1  0.997131  0.000759  0.000000  1
  Eu  Eu1  1  0.497131  0.499241  0.500000  1
  Cu  Cu2  1  0.414650  0.844398  0.000000  1
  Cu  Cu3  1  0.914650  0.655602  0.500000  1
  Cu  Cu4  1  0.833081  0.413863  0.000000  1
  Cu  Cu5  1  0.585610  0.166340  0.000000  1
  Cu  Cu6  1  0.085610  0.333660  0.500000  1
  Cu  Cu7  1  0.333081  0.086137  0.500000  1
  P  P8  1  0.284658  0.275292  0.000000  1
  P  P9  1  0.724825  0.710386  0.000000  1
  P  P10  1  0.784658  0.224708  0.500000  1
  P  P11  1  0.224825  0.789614  0.500000  1
  Pd  Pd12  1  0.660045  0.912426  0.500000  1
  Pd  Pd13  1  0.160045  0.587574  0.000000  1
