# generated using pymatgen
data_HSBr3
_symmetry_space_group_name_H-M   'P 1'
_cell_length_a   5.43276195
_cell_length_b   5.67552760
_cell_length_c   6.44999790
_cell_angle_alpha   84.19659391
_cell_angle_beta   66.92790924
_cell_angle_gamma   71.89243749
_symmetry_Int_Tables_number   1
_chemical_formula_structural   HSBr3
_chemical_formula_sum   'H1 S1 Br3'
_cell_volume   173.85983067
_cell_formula_units_Z   1
loop_
 _symmetry_equiv_pos_site_id
 _symmetry_equiv_pos_as_xyz
  1  'x, y, z'
loop_
 _atom_site_type_symbol
 _atom_site_label
 _atom_site_symmetry_multiplicity
 _atom_site_fract_x
 _atom_site_fract_y
 _atom_site_fract_z
 _atom_site_occupancy
  H  H0  1  0.657430  0.205916  0.074549  1
  S  S1  1  0.812335  0.016140  0.912069  1
  Br  Br2  1  0.083214  0.789037  0.109909  1
  Br  Br3  1  0.074637  0.246725  0.656245  1
  Br  Br4  1  0.399623  0.514379  0.344355  1
