# generated using pymatgen
data_Hf2ZrGa2SiOs3
_symmetry_space_group_name_H-M   'P 1'
_cell_length_a   6.97657494
_cell_length_b   6.97657592
_cell_length_c   3.47118000
_cell_angle_alpha   90.00000000
_cell_angle_beta   90.00000000
_cell_angle_gamma   119.89473795
_symmetry_Int_Tables_number   1
_chemical_formula_structural   Hf2ZrGa2SiOs3
_chemical_formula_sum   'Hf2 Zr1 Ga2 Si1 Os3'
_cell_volume   146.47112935
_cell_formula_units_Z   1
loop_
 _symmetry_equiv_pos_site_id
 _symmetry_equiv_pos_as_xyz
  1  'x, y, z'
loop_
 _atom_site_type_symbol
 _atom_site_label
 _atom_site_symmetry_multiplicity
 _atom_site_fract_x
 _atom_site_fract_y
 _atom_site_fract_z
 _atom_site_occupancy
  Hf  Hf0  1  0.595110  0.999944  0.500000  1
  Hf  Hf1  1  0.999944  0.595110  0.500000  1
  Zr  Zr2  1  0.405685  0.405685  0.500000  1
  Ga  Ga3  1  0.667255  0.333117  0.000000  1
  Ga  Ga4  1  0.333117  0.667255  0.000000  1
  Si  Si5  1  0.999625  0.999625  0.500000  1
  Os  Os6  1  0.755543  0.755543  0.000000  1
  Os  Os7  1  0.245204  0.998518  0.000000  1
  Os  Os8  1  0.998518  0.245204  0.000000  1
