# generated using pymatgen
data_Zr10Sn4Bi3Pd
_symmetry_space_group_name_H-M   'P 1'
_cell_length_a   8.87150620
_cell_length_b   8.86251600
_cell_length_c   5.95824800
_cell_angle_alpha   89.99397466
_cell_angle_beta   90.01204493
_cell_angle_gamma   120.03356197
_symmetry_Int_Tables_number   1
_chemical_formula_structural   Zr10Sn4Bi3Pd
_chemical_formula_sum   'Zr10 Sn4 Bi3 Pd1'
_cell_volume   405.56140231
_cell_formula_units_Z   1
loop_
 _symmetry_equiv_pos_site_id
 _symmetry_equiv_pos_as_xyz
  1  'x, y, z'
loop_
 _atom_site_type_symbol
 _atom_site_label
 _atom_site_symmetry_multiplicity
 _atom_site_fract_x
 _atom_site_fract_y
 _atom_site_fract_z
 _atom_site_occupancy
  Zr  Zr0  1  0.331270  0.666557  0.001416  1
  Zr  Zr1  1  0.664083  0.333531  0.498333  1
  Zr  Zr2  1  0.664714  0.333443  0.001416  1
  Zr  Zr3  1  0.330550  0.666469  0.498333  1
  Zr  Zr4  1  0.273531  0.000000  0.241130  1
  Zr  Zr5  1  0.275207  0.269804  0.758468  1
  Zr  Zr6  1  0.005403  0.730196  0.758468  1
  Zr  Zr7  1  0.005279  0.278368  0.242499  1
  Zr  Zr8  1  0.726912  0.721632  0.242499  1
  Zr  Zr9  1  0.725247  0.000000  0.757209  1
  Sn  Sn10  1  0.999983  0.000000  0.498519  1
  Sn  Sn11  1  0.999824  0.615844  0.252442  1
  Sn  Sn12  1  0.383980  0.384156  0.252442  1
  Sn  Sn13  1  0.385793  0.000000  0.747122  1
  Bi  Bi14  1  0.615571  0.000000  0.252617  1
  Bi  Bi15  1  0.614165  0.614501  0.747125  1
  Bi  Bi16  1  0.999664  0.385499  0.747125  1
  Pd  Pd17  1  0.998825  0.000000  0.002835  1
