# generated using pymatgen
data_Pr5Os2
_symmetry_space_group_name_H-M   'P 1'
_cell_length_a   8.92626154
_cell_length_b   8.92626045
_cell_length_c   7.49986606
_cell_angle_alpha   83.55500423
_cell_angle_beta   83.55500462
_cell_angle_gamma   44.07878856
_symmetry_Int_Tables_number   1
_chemical_formula_structural   Pr5Os2
_chemical_formula_sum   'Pr10 Os4'
_cell_volume   412.64207530
_cell_formula_units_Z   2
loop_
 _symmetry_equiv_pos_site_id
 _symmetry_equiv_pos_as_xyz
  1  'x, y, z'
loop_
 _atom_site_type_symbol
 _atom_site_label
 _atom_site_symmetry_multiplicity
 _atom_site_fract_x
 _atom_site_fract_y
 _atom_site_fract_z
 _atom_site_occupancy
  Pr  Pr0  1  0.019311  0.796872  0.914507  1
  Pr  Pr1  1  0.203128  0.980689  0.585493  1
  Pr  Pr2  1  0.980689  0.203128  0.085493  1
  Pr  Pr3  1  0.796872  0.019311  0.414507  1
  Pr  Pr4  1  0.359166  0.207540  0.815078  1
  Pr  Pr5  1  0.792460  0.640834  0.684922  1
  Pr  Pr6  1  0.640834  0.792460  0.184922  1
  Pr  Pr7  1  0.207540  0.359166  0.315078  1
  Pr  Pr8  1  0.573308  0.426692  0.750000  1
  Pr  Pr9  1  0.426692  0.573308  0.250000  1
  Os  Os10  1  0.176573  0.602187  0.574578  1
  Os  Os11  1  0.397813  0.823427  0.925422  1
  Os  Os12  1  0.823427  0.397813  0.425422  1
  Os  Os13  1  0.602187  0.176573  0.074578  1
