# generated using pymatgen
data_YbHo2Er3(CoSn6)2
_symmetry_space_group_name_H-M   'P 1'
_cell_length_a   8.42884615
_cell_length_b   8.42884744
_cell_length_c   13.07510206
_cell_angle_alpha   90.02423881
_cell_angle_beta   89.97576052
_cell_angle_gamma   148.51252697
_symmetry_Int_Tables_number   1
_chemical_formula_structural   YbHo2Er3(CoSn6)2
_chemical_formula_sum   'Yb1 Ho2 Er3 Co2 Sn12'
_cell_volume   485.18959664
_cell_formula_units_Z   1
loop_
 _symmetry_equiv_pos_site_id
 _symmetry_equiv_pos_as_xyz
  1  'x, y, z'
loop_
 _atom_site_type_symbol
 _atom_site_label
 _atom_site_symmetry_multiplicity
 _atom_site_fract_x
 _atom_site_fract_y
 _atom_site_fract_z
 _atom_site_occupancy
  Yb  Yb0  1  0.899368  0.100632  0.403288  1
  Ho  Ho1  1  0.100877  0.899123  0.905976  1
  Ho  Ho2  1  0.099446  0.900554  0.248940  1
  Er  Er3  1  0.898446  0.101554  0.094295  1
  Er  Er4  1  0.101552  0.898448  0.595279  1
  Er  Er5  1  0.900990  0.099010  0.752185  1
  Co  Co6  1  0.299012  0.700988  0.250112  1
  Co  Co7  1  0.700024  0.299976  0.749644  1
  Sn  Sn8  1  0.757709  0.242291  0.572057  1
  Sn  Sn9  1  0.428146  0.571854  0.576968  1
  Sn  Sn10  1  0.573026  0.426974  0.424290  1
  Sn  Sn11  1  0.733616  0.266384  0.248945  1
  Sn  Sn12  1  0.265900  0.734100  0.750390  1
  Sn  Sn13  1  0.243301  0.756699  0.071249  1
  Sn  Sn14  1  0.243284  0.756716  0.428900  1
  Sn  Sn15  1  0.572340  0.427660  0.074782  1
  Sn  Sn16  1  0.454367  0.545633  0.247889  1
  Sn  Sn17  1  0.545723  0.454277  0.750717  1
  Sn  Sn18  1  0.756400  0.243600  0.928417  1
  Sn  Sn19  1  0.426475  0.573525  0.925675  1
