# generated using pymatgen
data_Pr8Hg2OsRu
_symmetry_space_group_name_H-M   'P 1'
_cell_length_a   9.99219379
_cell_length_b   9.99219430
_cell_length_c   10.06440100
_cell_angle_alpha   59.76066958
_cell_angle_beta   59.76066789
_cell_angle_gamma   59.55027545
_symmetry_Int_Tables_number   1
_chemical_formula_structural   Pr8Hg2OsRu
_chemical_formula_sum   'Pr16 Hg4 Os2 Ru2'
_cell_volume   705.54858670
_cell_formula_units_Z   2
loop_
 _symmetry_equiv_pos_site_id
 _symmetry_equiv_pos_as_xyz
  1  'x, y, z'
loop_
 _atom_site_type_symbol
 _atom_site_label
 _atom_site_symmetry_multiplicity
 _atom_site_fract_x
 _atom_site_fract_y
 _atom_site_fract_z
 _atom_site_occupancy
  Pr  Pr0  1  0.346490  0.346490  0.347868  1
  Pr  Pr1  1  0.346490  0.346490  0.959150  1
  Pr  Pr2  1  0.346125  0.960038  0.346918  1
  Pr  Pr3  1  0.960038  0.346125  0.346918  1
  Pr  Pr4  1  0.808202  0.191377  0.190808  1
  Pr  Pr5  1  0.191377  0.808202  0.809613  1
  Pr  Pr6  1  0.191377  0.808202  0.190808  1
  Pr  Pr7  1  0.808202  0.191377  0.809613  1
  Pr  Pr8  1  0.191508  0.191508  0.808492  1
  Pr  Pr9  1  0.809251  0.809251  0.190749  1
  Pr  Pr10  1  0.939893  0.559274  0.560882  1
  Pr  Pr11  1  0.559274  0.939893  0.939952  1
  Pr  Pr12  1  0.559274  0.939893  0.560882  1
  Pr  Pr13  1  0.939893  0.559274  0.939952  1
  Pr  Pr14  1  0.561398  0.561398  0.938602  1
  Pr  Pr15  1  0.941119  0.941119  0.558881  1
  Hg  Hg16  1  0.582229  0.582229  0.582495  1
  Hg  Hg17  1  0.582229  0.582229  0.253047  1
  Hg  Hg18  1  0.582409  0.252247  0.582672  1
  Hg  Hg19  1  0.252247  0.582409  0.582672  1
  Os  Os20  1  0.138170  0.138170  0.139067  1
  Os  Os21  1  0.138170  0.138170  0.584592  1
  Ru  Ru22  1  0.137213  0.587423  0.137682  1
  Ru  Ru23  1  0.587423  0.137213  0.137682  1
