# generated using pymatgen
data_Ho3Er(MoOs3)2
_symmetry_space_group_name_H-M   'P 1'
_cell_length_a   5.46381300
_cell_length_b   5.46381337
_cell_length_c   8.56523600
_cell_angle_alpha   90.00000000
_cell_angle_beta   90.00000000
_cell_angle_gamma   120.00000380
_symmetry_Int_Tables_number   1
_chemical_formula_structural   Ho3Er(MoOs3)2
_chemical_formula_sum   'Ho3 Er1 Mo2 Os6'
_cell_volume   221.44283484
_cell_formula_units_Z   1
loop_
 _symmetry_equiv_pos_site_id
 _symmetry_equiv_pos_as_xyz
  1  'x, y, z'
loop_
 _atom_site_type_symbol
 _atom_site_label
 _atom_site_symmetry_multiplicity
 _atom_site_fract_x
 _atom_site_fract_y
 _atom_site_fract_z
 _atom_site_occupancy
  Ho  Ho0  1  0.333333  0.666667  0.434808  1
  Ho  Ho1  1  0.666667  0.333333  0.565164  1
  Ho  Ho2  1  0.666667  0.333333  0.934860  1
  Er  Er3  1  0.333333  0.666667  0.065129  1
  Mo  Mo4  1  0.000000  0.000000  0.500005  1
  Mo  Mo5  1  0.000000  0.000000  0.000008  1
  Os  Os6  1  0.827290  0.172710  0.249954  1
  Os  Os7  1  0.827290  0.654579  0.249954  1
  Os  Os8  1  0.345421  0.172710  0.249954  1
  Os  Os9  1  0.172731  0.827269  0.750054  1
  Os  Os10  1  0.172731  0.345463  0.750054  1
  Os  Os11  1  0.654537  0.827269  0.750054  1
