# generated using pymatgen
data_Rb3In(AsSe2)6
_symmetry_space_group_name_H-M   'P 1'
_cell_length_a   9.92655100
_cell_length_b   9.92655009
_cell_length_c   8.42547500
_cell_angle_alpha   90.00000000
_cell_angle_beta   90.00000000
_cell_angle_gamma   120.00000059
_symmetry_Int_Tables_number   1
_chemical_formula_structural   Rb3In(AsSe2)6
_chemical_formula_sum   'Rb3 In1 As6 Se12'
_cell_volume   718.98816238
_cell_formula_units_Z   1
loop_
 _symmetry_equiv_pos_site_id
 _symmetry_equiv_pos_as_xyz
  1  'x, y, z'
loop_
 _atom_site_type_symbol
 _atom_site_label
 _atom_site_symmetry_multiplicity
 _atom_site_fract_x
 _atom_site_fract_y
 _atom_site_fract_z
 _atom_site_occupancy
  Rb  Rb0  1  0.000000  0.000000  0.000000  1
  Rb  Rb1  1  0.333333  0.666667  0.848177  1
  Rb  Rb2  1  0.666667  0.333333  0.151823  1
  In  In3  1  0.000000  0.000000  0.500000  1
  As  As4  1  0.282179  0.832640  0.385343  1
  As  As5  1  0.167360  0.449539  0.385343  1
  As  As6  1  0.550461  0.717821  0.385343  1
  As  As7  1  0.717821  0.167360  0.614657  1
  As  As8  1  0.832640  0.550461  0.614657  1
  As  As9  1  0.449539  0.282179  0.614657  1
  Se  Se10  1  0.250281  0.044882  0.305227  1
  Se  Se11  1  0.955118  0.205399  0.305227  1
  Se  Se12  1  0.794601  0.749719  0.305227  1
  Se  Se13  1  0.749719  0.955118  0.694773  1
  Se  Se14  1  0.044882  0.794601  0.694773  1
  Se  Se15  1  0.205399  0.250281  0.694773  1
  Se  Se16  1  0.520417  0.910904  0.225552  1
  Se  Se17  1  0.089096  0.609512  0.225552  1
  Se  Se18  1  0.390488  0.479583  0.225552  1
  Se  Se19  1  0.479583  0.089096  0.774448  1
  Se  Se20  1  0.910904  0.390488  0.774448  1
  Se  Se21  1  0.609512  0.520417  0.774448  1
