# generated using pymatgen
data_Ho16Zn4Co3Ni
_symmetry_space_group_name_H-M   'P 1'
_cell_length_a   9.29993779
_cell_length_b   9.31733965
_cell_length_c   9.31733900
_cell_angle_alpha   59.99999875
_cell_angle_beta   59.93808130
_cell_angle_gamma   59.93808844
_symmetry_Int_Tables_number   1
_chemical_formula_structural   Ho16Zn4Co3Ni
_chemical_formula_sum   'Ho16 Zn4 Co3 Ni1'
_cell_volume   570.35046294
_cell_formula_units_Z   1
loop_
 _symmetry_equiv_pos_site_id
 _symmetry_equiv_pos_as_xyz
  1  'x, y, z'
loop_
 _atom_site_type_symbol
 _atom_site_label
 _atom_site_symmetry_multiplicity
 _atom_site_fract_x
 _atom_site_fract_y
 _atom_site_fract_z
 _atom_site_occupancy
  Ho  Ho0  1  0.598960  0.601637  0.601637  1
  Ho  Ho1  1  0.598960  0.601637  0.197765  1
  Ho  Ho2  1  0.598960  0.197765  0.601637  1
  Ho  Ho3  1  0.201932  0.599356  0.599356  1
  Ho  Ho4  1  0.061916  0.441197  0.441197  1
  Ho  Ho5  1  0.439810  0.059585  0.059585  1
  Ho  Ho6  1  0.439810  0.059585  0.441021  1
  Ho  Ho7  1  0.061916  0.441197  0.055690  1
  Ho  Ho8  1  0.439810  0.441021  0.059585  1
  Ho  Ho9  1  0.061916  0.055690  0.441197  1
  Ho  Ho10  1  0.186292  0.813072  0.813072  1
  Ho  Ho11  1  0.811180  0.187283  0.187283  1
  Ho  Ho12  1  0.811180  0.187283  0.814254  1
  Ho  Ho13  1  0.186292  0.813072  0.187565  1
  Ho  Ho14  1  0.811180  0.814254  0.187283  1
  Ho  Ho15  1  0.186292  0.187565  0.813072  1
  Zn  Zn16  1  0.827991  0.827754  0.827754  1
  Zn  Zn17  1  0.827991  0.827754  0.516499  1
  Zn  Zn18  1  0.827991  0.516499  0.827754  1
  Zn  Zn19  1  0.515663  0.828112  0.828112  1
  Co  Co20  1  0.393495  0.391562  0.391562  1
  Co  Co21  1  0.393495  0.391562  0.823381  1
  Co  Co22  1  0.393495  0.823381  0.391562  1
  Ni  Ni23  1  0.823471  0.392176  0.392176  1
