# generated using pymatgen
data_La5Nd3(ErRu2)2
_symmetry_space_group_name_H-M   'P 1'
_cell_length_a   6.61405803
_cell_length_b   7.24363491
_cell_length_c   8.98438930
_cell_angle_alpha   95.57503664
_cell_angle_beta   111.36020878
_cell_angle_gamma   90.00584391
_symmetry_Int_Tables_number   1
_chemical_formula_structural   La5Nd3(ErRu2)2
_chemical_formula_sum   'La5 Nd3 Er2 Ru4'
_cell_volume   398.68438872
_cell_formula_units_Z   1
loop_
 _symmetry_equiv_pos_site_id
 _symmetry_equiv_pos_as_xyz
  1  'x, y, z'
loop_
 _atom_site_type_symbol
 _atom_site_label
 _atom_site_symmetry_multiplicity
 _atom_site_fract_x
 _atom_site_fract_y
 _atom_site_fract_z
 _atom_site_occupancy
  La  La0  1  0.792428  0.591709  0.814044  1
  La  La1  1  0.975570  0.908885  0.186599  1
  La  La2  1  0.212790  0.406090  0.188648  1
  La  La3  1  0.020269  0.091400  0.813214  1
  La  La4  1  0.209375  0.682759  0.573370  1
  Nd  Nd5  1  0.636127  0.814112  0.429180  1
  Nd  Nd6  1  0.793933  0.314454  0.428058  1
  Nd  Nd7  1  0.366030  0.185245  0.569989  1
  Er  Er8  1  0.429869  0.750144  0.001970  1
  Er  Er9  1  0.569727  0.250450  0.999123  1
  Ru  Ru10  1  0.602686  0.917557  0.782030  1
  Ru  Ru11  1  0.818166  0.582552  0.213871  1
  Ru  Ru12  1  0.394266  0.083018  0.217515  1
  Ru  Ru13  1  0.178763  0.421625  0.782390  1
