# generated using pymatgen
data_NbAs3(S2F3)2
_symmetry_space_group_name_H-M   'P 1'
_cell_length_a   9.84425900
_cell_length_b   6.35072963
_cell_length_c   10.51241427
_cell_angle_alpha   87.71887396
_cell_angle_beta   90.00000000
_cell_angle_gamma   90.00000000
_symmetry_Int_Tables_number   1
_chemical_formula_structural   NbAs3(S2F3)2
_chemical_formula_sum   'Nb2 As6 S8 F12'
_cell_volume   656.69669962
_cell_formula_units_Z   2
loop_
 _symmetry_equiv_pos_site_id
 _symmetry_equiv_pos_as_xyz
  1  'x, y, z'
loop_
 _atom_site_type_symbol
 _atom_site_label
 _atom_site_symmetry_multiplicity
 _atom_site_fract_x
 _atom_site_fract_y
 _atom_site_fract_z
 _atom_site_occupancy
  Nb  Nb0  1  0.750000  0.497706  0.831574  1
  Nb  Nb1  1  0.250000  0.502294  0.168426  1
  As  As2  1  0.250000  0.054752  0.521429  1
  As  As3  1  0.121556  0.972640  0.838784  1
  As  As4  1  0.621556  0.027360  0.161216  1
  As  As5  1  0.750000  0.945248  0.478571  1
  As  As6  1  0.878444  0.027360  0.161216  1
  As  As7  1  0.378444  0.972640  0.838784  1
  S  S8  1  0.075297  0.128950  0.652612  1
  S  S9  1  0.424703  0.128950  0.652612  1
  S  S10  1  0.750000  0.320587  0.237221  1
  S  S11  1  0.250000  0.679413  0.762779  1
  S  S12  1  0.575297  0.871050  0.347388  1
  S  S13  1  0.750000  0.303894  0.428912  1
  S  S14  1  0.924703  0.871050  0.347388  1
  S  S15  1  0.250000  0.696106  0.571088  1
  F  F16  1  0.750000  0.271525  0.711689  1
  F  F17  1  0.612523  0.344695  0.931696  1
  F  F18  1  0.390010  0.357865  0.267730  1
  F  F19  1  0.750000  0.721689  0.951987  1
  F  F20  1  0.109990  0.357865  0.267730  1
  F  F21  1  0.250000  0.278311  0.048013  1
  F  F22  1  0.112523  0.655305  0.068304  1
  F  F23  1  0.609990  0.642135  0.732270  1
  F  F24  1  0.890010  0.642135  0.732270  1
  F  F25  1  0.887477  0.344695  0.931696  1
  F  F26  1  0.387477  0.655305  0.068304  1
  F  F27  1  0.250000  0.728475  0.288311  1
