# generated using pymatgen
data_Ac5Yb(SnIr)6
_symmetry_space_group_name_H-M   'P 1'
_cell_length_a   7.61986700
_cell_length_b   7.66051040
_cell_length_c   8.59436900
_cell_angle_alpha   90.00000000
_cell_angle_beta   90.00000000
_cell_angle_gamma   120.18041350
_symmetry_Int_Tables_number   1
_chemical_formula_structural   Ac5Yb(SnIr)6
_chemical_formula_sum   'Ac5 Yb1 Sn6 Ir6'
_cell_volume   433.66794174
_cell_formula_units_Z   1
loop_
 _symmetry_equiv_pos_site_id
 _symmetry_equiv_pos_as_xyz
  1  'x, y, z'
loop_
 _atom_site_type_symbol
 _atom_site_label
 _atom_site_symmetry_multiplicity
 _atom_site_fract_x
 _atom_site_fract_y
 _atom_site_fract_z
 _atom_site_occupancy
  Ac  Ac0  1  0.420827  0.002579  0.250000  1
  Ac  Ac1  1  0.579163  0.582199  0.250000  1
  Ac  Ac2  1  0.413816  0.997150  0.750000  1
  Ac  Ac3  1  0.586102  0.584003  0.750000  1
  Ac  Ac4  1  0.999924  0.419328  0.750000  1
  Yb  Yb5  1  0.999952  0.404517  0.250000  1
  Sn  Sn6  1  0.760138  0.004840  0.001826  1
  Sn  Sn7  1  0.240566  0.244713  0.498270  1
  Sn  Sn8  1  0.999883  0.752484  0.490545  1
  Sn  Sn9  1  0.999883  0.752484  0.009455  1
  Sn  Sn10  1  0.240566  0.244713  0.001730  1
  Sn  Sn11  1  0.760138  0.004840  0.498174  1
  Ir  Ir12  1  0.321102  0.660152  0.003831  1
  Ir  Ir13  1  0.321102  0.660152  0.496169  1
  Ir  Ir14  1  0.678250  0.339012  0.003774  1
  Ir  Ir15  1  0.678250  0.339012  0.496226  1
  Ir  Ir16  1  0.000218  0.004967  0.250000  1
  Ir  Ir17  1  0.000120  0.002857  0.750000  1
