# generated using pymatgen
data_HoRe6MoO24
_symmetry_space_group_name_H-M   'P 1'
_cell_length_a   10.67232200
_cell_length_b   10.67232203
_cell_length_c   5.88999600
_cell_angle_alpha   90.00000000
_cell_angle_beta   90.00000000
_cell_angle_gamma   119.99999455
_symmetry_Int_Tables_number   1
_chemical_formula_structural   HoRe6MoO24
_chemical_formula_sum   'Ho1 Re6 Mo1 O24'
_cell_volume   580.98309613
_cell_formula_units_Z   1
loop_
 _symmetry_equiv_pos_site_id
 _symmetry_equiv_pos_as_xyz
  1  'x, y, z'
loop_
 _atom_site_type_symbol
 _atom_site_label
 _atom_site_symmetry_multiplicity
 _atom_site_fract_x
 _atom_site_fract_y
 _atom_site_fract_z
 _atom_site_occupancy
  Ho  Ho0  1  0.666667  0.333333  0.750000  1
  Re  Re1  1  0.108621  0.415325  0.750000  1
  Re  Re2  1  0.395471  0.285333  0.250000  1
  Re  Re3  1  0.584675  0.693295  0.750000  1
  Re  Re4  1  0.889861  0.604529  0.250000  1
  Re  Re5  1  0.306705  0.891379  0.750000  1
  Re  Re6  1  0.714667  0.110139  0.250000  1
  Mo  Mo7  1  0.333333  0.666667  0.250000  1
  O  O8  1  0.473404  0.647050  0.503561  1
  O  O9  1  0.352950  0.826354  0.503561  1
  O  O10  1  0.814924  0.715409  0.250000  1
  O  O11  1  0.123781  0.830283  0.750000  1
  O  O12  1  0.284591  0.099514  0.250000  1
  O  O13  1  0.169717  0.293498  0.750000  1
  O  O14  1  0.508038  0.339820  0.006006  1
  O  O15  1  0.900486  0.185076  0.250000  1
  O  O16  1  0.077157  0.709840  0.250000  1
  O  O17  1  0.173646  0.526596  0.996439  1
  O  O18  1  0.173646  0.526596  0.503561  1
  O  O19  1  0.920429  0.322044  0.750000  1
  O  O20  1  0.290160  0.367318  0.250000  1
  O  O21  1  0.677956  0.598385  0.750000  1
  O  O22  1  0.831783  0.491962  0.493994  1
  O  O23  1  0.401615  0.079571  0.750000  1
  O  O24  1  0.660180  0.168217  0.006006  1
  O  O25  1  0.473404  0.647050  0.996439  1
  O  O26  1  0.352950  0.826354  0.996439  1
  O  O27  1  0.660180  0.168217  0.493994  1
  O  O28  1  0.508038  0.339820  0.493994  1
  O  O29  1  0.831783  0.491962  0.006006  1
  O  O30  1  0.706502  0.876219  0.750000  1
  O  O31  1  0.632682  0.922843  0.250000  1
