# generated using pymatgen
data_Y2MoWC3
_symmetry_space_group_name_H-M   'P 1'
_cell_length_a   6.13408034
_cell_length_b   6.13408133
_cell_length_c   5.74816035
_cell_angle_alpha   68.32491731
_cell_angle_beta   68.32492502
_cell_angle_gamma   31.67319277
_symmetry_Int_Tables_number   1
_chemical_formula_structural   Y2MoWC3
_chemical_formula_sum   'Y2 Mo1 W1 C3'
_cell_volume   104.86320007
_cell_formula_units_Z   1
loop_
 _symmetry_equiv_pos_site_id
 _symmetry_equiv_pos_as_xyz
  1  'x, y, z'
loop_
 _atom_site_type_symbol
 _atom_site_label
 _atom_site_symmetry_multiplicity
 _atom_site_fract_x
 _atom_site_fract_y
 _atom_site_fract_z
 _atom_site_occupancy
  Y  Y0  1  0.610195  0.610195  0.174526  1
  Y  Y1  1  0.390039  0.390039  0.821551  1
  Mo  Mo2  1  0.156104  0.156104  0.675282  1
  W  W3  1  0.842730  0.842730  0.327338  1
  C  C4  1  0.751525  0.751525  0.732428  1
  C  C5  1  0.250108  0.250108  0.266177  1
  C  C6  1  0.999298  0.999298  0.002699  1
