# generated using pymatgen
data_Sr8Ca5Cd3(B2O5)8
_symmetry_space_group_name_H-M   'P 1'
_cell_length_a   5.91282623
_cell_length_b   12.25021357
_cell_length_c   12.79740336
_cell_angle_alpha   89.94142019
_cell_angle_beta   90.05827048
_cell_angle_gamma   89.95429109
_symmetry_Int_Tables_number   1
_chemical_formula_structural   Sr8Ca5Cd3(B2O5)8
_chemical_formula_sum   'Sr8 Ca5 Cd3 B16 O40'
_cell_volume   926.95797274
_cell_formula_units_Z   1
loop_
 _symmetry_equiv_pos_site_id
 _symmetry_equiv_pos_as_xyz
  1  'x, y, z'
loop_
 _atom_site_type_symbol
 _atom_site_label
 _atom_site_symmetry_multiplicity
 _atom_site_fract_x
 _atom_site_fract_y
 _atom_site_fract_z
 _atom_site_occupancy
  Sr  Sr0  1  0.883717  0.619738  0.414349  1
  Sr  Sr1  1  0.615893  0.118675  0.586584  1
  Sr  Sr2  1  0.385069  0.381803  0.085305  1
  Sr  Sr3  1  0.116149  0.881461  0.913249  1
  Sr  Sr4  1  0.116006  0.378827  0.584493  1
  Sr  Sr5  1  0.382960  0.878786  0.415241  1
  Sr  Sr6  1  0.617468  0.621432  0.915237  1
  Sr  Sr7  1  0.883579  0.120207  0.084294  1
  Ca  Ca8  1  0.126894  0.632011  0.737133  1
  Ca  Ca9  1  0.373411  0.132206  0.263216  1
  Ca  Ca10  1  0.626699  0.367875  0.762470  1
  Ca  Ca11  1  0.873033  0.867831  0.237076  1
  Ca  Ca12  1  0.872777  0.367136  0.263069  1
  Cd  Cd13  1  0.629532  0.867321  0.735518  1
  Cd  Cd14  1  0.371328  0.632313  0.235869  1
  Cd  Cd15  1  0.129502  0.132697  0.764266  1
  B  B16  1  0.623665  0.611647  0.674034  1
  B  B17  1  0.876849  0.110105  0.326015  1
  B  B18  1  0.123744  0.388335  0.825977  1
  B  B19  1  0.376269  0.888275  0.173824  1
  B  B20  1  0.376764  0.390103  0.325720  1
  B  B21  1  0.124353  0.889072  0.674536  1
  B  B22  1  0.875835  0.611219  0.174680  1
  B  B23  1  0.624321  0.110870  0.825626  1
  B  B24  1  0.378429  0.621408  0.510965  1
  B  B25  1  0.121345  0.120829  0.489259  1
  B  B26  1  0.877982  0.378121  0.988326  1
  B  B27  1  0.621485  0.878808  0.010766  1
  B  B28  1  0.621949  0.378420  0.488352  1
  B  B29  1  0.877245  0.878074  0.512393  1
  B  B30  1  0.122682  0.622196  0.012308  1
  B  B31  1  0.377336  0.122184  0.987734  1
  O  O32  1  0.180297  0.590007  0.556930  1
  O  O33  1  0.319606  0.089674  0.443264  1
  O  O34  1  0.680052  0.410046  0.942144  1
  O  O35  1  0.819685  0.910354  0.056674  1
  O  O36  1  0.820250  0.409693  0.442286  1
  O  O37  1  0.676960  0.909009  0.557485  1
  O  O38  1  0.322998  0.590663  0.057327  1
  O  O39  1  0.177151  0.090962  0.942623  1
  O  O40  1  0.589311  0.603101  0.564925  1
  O  O41  1  0.910575  0.102139  0.435410  1
  O  O42  1  0.089361  0.396705  0.935167  1
  O  O43  1  0.410741  0.897001  0.064664  1
  O  O44  1  0.411080  0.398117  0.434906  1
  O  O45  1  0.087163  0.897939  0.565966  1
  O  O46  1  0.912915  0.602618  0.065962  1
  O  O47  1  0.587137  0.102106  0.934254  1
  O  O48  1  0.501476  0.687535  0.729890  1
  O  O49  1  0.997358  0.186364  0.270440  1
  O  O50  1  0.001753  0.312459  0.770078  1
  O  O51  1  0.498232  0.812158  0.229759  1
  O  O52  1  0.496832  0.313625  0.270304  1
  O  O53  1  0.003375  0.813295  0.730803  1
  O  O54  1  0.996282  0.687085  0.230956  1
  O  O55  1  0.503145  0.186633  0.769290  1
  O  O56  1  0.777552  0.544928  0.722529  1
  O  O57  1  0.721728  0.043835  0.277813  1
  O  O58  1  0.277197  0.455187  0.777708  1
  O  O59  1  0.222627  0.955102  0.222140  1
  O  O60  1  0.218940  0.455423  0.277567  1
  O  O61  1  0.284477  0.953687  0.722185  1
  O  O62  1  0.718776  0.544967  0.222134  1
  O  O63  1  0.784716  0.046232  0.778206  1
  O  O64  1  0.103625  0.669708  0.916146  1
  O  O65  1  0.396111  0.169964  0.083726  1
  O  O66  1  0.603397  0.329825  0.584164  1
  O  O67  1  0.896175  0.830576  0.416349  1
  O  O68  1  0.895687  0.329821  0.084420  1
  O  O69  1  0.601199  0.828827  0.915391  1
  O  O70  1  0.398719  0.671544  0.415633  1
  O  O71  1  0.101071  0.171104  0.584493  1
