# generated using pymatgen
data_Dy4Tm8Os3Rh
_symmetry_space_group_name_H-M   'P 1'
_cell_length_a   7.32075239
_cell_length_b   8.94505100
_cell_length_c   6.30450160
_cell_angle_alpha   90.00000000
_cell_angle_beta   89.80316746
_cell_angle_gamma   90.00000000
_symmetry_Int_Tables_number   1
_chemical_formula_structural   Dy4Tm8Os3Rh
_chemical_formula_sum   'Dy4 Tm8 Os3 Rh1'
_cell_volume   412.84472043
_cell_formula_units_Z   1
loop_
 _symmetry_equiv_pos_site_id
 _symmetry_equiv_pos_as_xyz
  1  'x, y, z'
loop_
 _atom_site_type_symbol
 _atom_site_label
 _atom_site_symmetry_multiplicity
 _atom_site_fract_x
 _atom_site_fract_y
 _atom_site_fract_z
 _atom_site_occupancy
  Dy  Dy0  1  0.038703  0.250000  0.628534  1
  Dy  Dy1  1  0.961638  0.750000  0.372748  1
  Dy  Dy2  1  0.462423  0.750000  0.129226  1
  Dy  Dy3  1  0.539305  0.250000  0.870446  1
  Tm  Tm4  1  0.172476  0.061039  0.165416  1
  Tm  Tm5  1  0.824726  0.936751  0.831109  1
  Tm  Tm6  1  0.323696  0.933466  0.671954  1
  Tm  Tm7  1  0.824726  0.563249  0.831109  1
  Tm  Tm8  1  0.677997  0.061635  0.331593  1
  Tm  Tm9  1  0.172476  0.438961  0.165416  1
  Tm  Tm10  1  0.677997  0.438365  0.331593  1
  Tm  Tm11  1  0.323696  0.566534  0.671954  1
  Os  Os12  1  0.615566  0.750000  0.539234  1
  Os  Os13  1  0.116648  0.750000  0.961834  1
  Os  Os14  1  0.883402  0.250000  0.039843  1
  Rh  Rh15  1  0.384525  0.250000  0.457988  1
