# generated using pymatgen
data_NdHfZr2(Al3Ir)6
_symmetry_space_group_name_H-M   'P 1'
_cell_length_a   7.51142006
_cell_length_b   7.50090615
_cell_length_c   9.34584400
_cell_angle_alpha   90.00000000
_cell_angle_beta   90.00000000
_cell_angle_gamma   119.74614651
_symmetry_Int_Tables_number   1
_chemical_formula_structural   NdHfZr2(Al3Ir)6
_chemical_formula_sum   'Nd1 Hf1 Zr2 Al18 Ir6'
_cell_volume   457.18312333
_cell_formula_units_Z   1
loop_
 _symmetry_equiv_pos_site_id
 _symmetry_equiv_pos_as_xyz
  1  'x, y, z'
loop_
 _atom_site_type_symbol
 _atom_site_label
 _atom_site_symmetry_multiplicity
 _atom_site_fract_x
 _atom_site_fract_y
 _atom_site_fract_z
 _atom_site_occupancy
  Nd  Nd0  1  0.329719  0.005889  0.750000  1
  Hf  Hf1  1  0.672685  0.994813  0.250000  1
  Zr  Zr2  1  0.993568  0.671032  0.250000  1
  Zr  Zr3  1  0.005083  0.329401  0.750000  1
  Al  Al4  1  0.122836  0.124701  0.250000  1
  Al  Al5  1  0.869645  0.875046  0.750000  1
  Al  Al6  1  0.997629  0.334654  0.077804  1
  Al  Al7  1  0.998469  0.661761  0.928263  1
  Al  Al8  1  0.998469  0.661761  0.571737  1
  Al  Al9  1  0.335265  0.998080  0.417450  1
  Al  Al10  1  0.997629  0.334654  0.422196  1
  Al  Al11  1  0.669013  0.001697  0.571880  1
  Al  Al12  1  0.669013  0.001697  0.928120  1
  Al  Al13  1  0.335265  0.998080  0.082550  1
  Al  Al14  1  0.331353  0.334653  0.552051  1
  Al  Al15  1  0.668036  0.668204  0.439138  1
  Al  Al16  1  0.668036  0.668204  0.060862  1
  Al  Al17  1  0.331353  0.334653  0.947949  1
  Al  Al18  1  0.338569  0.552965  0.250000  1
  Al  Al19  1  0.668632  0.455003  0.750000  1
  Al  Al20  1  0.553786  0.339973  0.250000  1
  Al  Al21  1  0.447139  0.654118  0.750000  1
  Ir  Ir22  1  0.672999  0.328133  0.002550  1
  Ir  Ir23  1  0.328905  0.673167  0.002678  1
  Ir  Ir24  1  0.328905  0.673167  0.497322  1
  Ir  Ir25  1  0.672999  0.328133  0.497450  1
  Ir  Ir26  1  0.997499  0.998181  0.003063  1
  Ir  Ir27  1  0.997499  0.998181  0.496937  1
