# generated using pymatgen
data_Li3La16InIr4
_symmetry_space_group_name_H-M   'P 1'
_cell_length_a   10.12965533
_cell_length_b   10.17669241
_cell_length_c   10.17665900
_cell_angle_alpha   60.19612095
_cell_angle_beta   60.02162699
_cell_angle_gamma   60.02123795
_symmetry_Int_Tables_number   1
_chemical_formula_structural   Li3La16InIr4
_chemical_formula_sum   'Li3 La16 In1 Ir4'
_cell_volume   743.14258005
_cell_formula_units_Z   1
loop_
 _symmetry_equiv_pos_site_id
 _symmetry_equiv_pos_as_xyz
  1  'x, y, z'
loop_
 _atom_site_type_symbol
 _atom_site_label
 _atom_site_symmetry_multiplicity
 _atom_site_fract_x
 _atom_site_fract_y
 _atom_site_fract_z
 _atom_site_occupancy
  Li  Li0  1  0.571591  0.577246  0.577245  1
  Li  Li1  1  0.570213  0.272694  0.579199  1
  Li  Li2  1  0.570244  0.579207  0.272637  1
  La  La3  1  0.815899  0.185103  0.812760  1
  La  La4  1  0.940287  0.559414  0.559420  1
  La  La5  1  0.560718  0.939032  0.563363  1
  La  La6  1  0.813298  0.186267  0.186283  1
  La  La7  1  0.190364  0.807808  0.193598  1
  La  La8  1  0.346822  0.961270  0.345562  1
  La  La9  1  0.941084  0.939733  0.559396  1
  La  La10  1  0.556548  0.940659  0.940650  1
  La  La11  1  0.195237  0.805034  0.805071  1
  La  La12  1  0.346811  0.345561  0.961295  1
  La  La13  1  0.560741  0.563367  0.939003  1
  La  La14  1  0.346281  0.345119  0.345071  1
  La  La15  1  0.190365  0.193597  0.807833  1
  La  La16  1  0.815919  0.812761  0.185084  1
  La  La17  1  0.941091  0.559388  0.939753  1
  La  La18  1  0.961920  0.346765  0.346743  1
  In  In19  1  0.261465  0.580224  0.580241  1
  Ir  Ir20  1  0.141724  0.142378  0.575665  1
  Ir  Ir21  1  0.579001  0.140617  0.140619  1
  Ir  Ir22  1  0.141708  0.575655  0.142393  1
  Ir  Ir23  1  0.140671  0.141103  0.141123  1
