# generated using pymatgen
data_Zr10Sn5B2Sb
_symmetry_space_group_name_H-M   'P 1'
_cell_length_a   8.58140565
_cell_length_b   8.58140543
_cell_length_c   5.81513400
_cell_angle_alpha   90.00000000
_cell_angle_beta   90.00000000
_cell_angle_gamma   119.95549343
_symmetry_Int_Tables_number   1
_chemical_formula_structural   Zr10Sn5B2Sb
_chemical_formula_sum   'Zr10 Sn5 B2 Sb1'
_cell_volume   371.02383298
_cell_formula_units_Z   1
loop_
 _symmetry_equiv_pos_site_id
 _symmetry_equiv_pos_as_xyz
  1  'x, y, z'
loop_
 _atom_site_type_symbol
 _atom_site_label
 _atom_site_symmetry_multiplicity
 _atom_site_fract_x
 _atom_site_fract_y
 _atom_site_fract_z
 _atom_site_occupancy
  Zr  Zr0  1  0.665936  0.333257  0.999851  1
  Zr  Zr1  1  0.333257  0.665936  0.999851  1
  Zr  Zr2  1  0.333257  0.665936  0.500149  1
  Zr  Zr3  1  0.665936  0.333257  0.500149  1
  Zr  Zr4  1  0.770265  0.770265  0.750000  1
  Zr  Zr5  1  0.229767  0.000156  0.750000  1
  Zr  Zr6  1  0.000156  0.229767  0.750000  1
  Zr  Zr7  1  0.230733  0.230733  0.250000  1
  Zr  Zr8  1  0.770481  0.999998  0.250000  1
  Zr  Zr9  1  0.999998  0.770481  0.250000  1
  Sn  Sn10  1  0.600855  0.999665  0.750000  1
  Sn  Sn11  1  0.999665  0.600855  0.750000  1
  Sn  Sn12  1  0.601796  0.601796  0.250000  1
  Sn  Sn13  1  0.398961  0.999720  0.250000  1
  Sn  Sn14  1  0.999720  0.398961  0.250000  1
  B  B15  1  0.999836  0.999836  0.000393  1
  B  B16  1  0.999836  0.999836  0.499607  1
  Sb  Sb17  1  0.399545  0.399545  0.750000  1
