# generated using pymatgen
data_Tb11Nd5Cd4Ir3Pt
_symmetry_space_group_name_H-M   'P 1'
_cell_length_a   9.76661209
_cell_length_b   9.76569747
_cell_length_c   9.76569642
_cell_angle_alpha   60.13937476
_cell_angle_beta   60.12594845
_cell_angle_gamma   60.12595451
_symmetry_Int_Tables_number   1
_chemical_formula_structural   Tb11Nd5Cd4Ir3Pt
_chemical_formula_sum   'Tb11 Nd5 Cd4 Ir3 Pt1'
_cell_volume   660.56674025
_cell_formula_units_Z   1
loop_
 _symmetry_equiv_pos_site_id
 _symmetry_equiv_pos_as_xyz
  1  'x, y, z'
loop_
 _atom_site_type_symbol
 _atom_site_label
 _atom_site_symmetry_multiplicity
 _atom_site_fract_x
 _atom_site_fract_y
 _atom_site_fract_z
 _atom_site_occupancy
  Tb  Tb0  1  0.347830  0.347461  0.347461  1
  Tb  Tb1  1  0.350199  0.352979  0.952617  1
  Tb  Tb2  1  0.350199  0.952617  0.352979  1
  Tb  Tb3  1  0.950435  0.351685  0.351685  1
  Tb  Tb4  1  0.807432  0.188826  0.188826  1
  Tb  Tb5  1  0.185591  0.812188  0.812188  1
  Tb  Tb6  1  0.188926  0.806842  0.190136  1
  Tb  Tb7  1  0.811940  0.186699  0.811134  1
  Tb  Tb8  1  0.188926  0.190136  0.806842  1
  Tb  Tb9  1  0.811940  0.811134  0.186699  1
  Tb  Tb10  1  0.943620  0.557244  0.557244  1
  Nd  Nd11  1  0.559574  0.941154  0.941154  1
  Nd  Nd12  1  0.562832  0.938896  0.559997  1
  Nd  Nd13  1  0.940293  0.560744  0.937607  1
  Nd  Nd14  1  0.562832  0.559997  0.938896  1
  Nd  Nd15  1  0.940293  0.937607  0.560744  1
  Cd  Cd16  1  0.582033  0.579216  0.579216  1
  Cd  Cd17  1  0.579541  0.579901  0.260403  1
  Cd  Cd18  1  0.579541  0.260403  0.579901  1
  Cd  Cd19  1  0.258708  0.579567  0.579567  1
  Ir  Ir20  1  0.140123  0.145436  0.574760  1
  Ir  Ir21  1  0.140123  0.574760  0.145436  1
  Ir  Ir22  1  0.574630  0.142009  0.142009  1
  Pt  Pt23  1  0.142434  0.142495  0.142495  1
