# generated using pymatgen
data_Nb12Al8Ni4CN3
_symmetry_space_group_name_H-M   'P 1'
_cell_length_a   8.24919508
_cell_length_b   8.24919585
_cell_length_c   8.24919577
_cell_angle_alpha   59.88928569
_cell_angle_beta   59.88927837
_cell_angle_gamma   59.88929030
_symmetry_Int_Tables_number   1
_chemical_formula_structural   Nb12Al8Ni4CN3
_chemical_formula_sum   'Nb12 Al8 Ni4 C1 N3'
_cell_volume   395.93829633
_cell_formula_units_Z   1
loop_
 _symmetry_equiv_pos_site_id
 _symmetry_equiv_pos_as_xyz
  1  'x, y, z'
loop_
 _atom_site_type_symbol
 _atom_site_label
 _atom_site_symmetry_multiplicity
 _atom_site_fract_x
 _atom_site_fract_y
 _atom_site_fract_z
 _atom_site_occupancy
  Nb  Nb0  1  0.812813  0.812813  0.187821  1
  Nb  Nb1  1  0.188050  0.188050  0.811211  1
  Nb  Nb2  1  0.812813  0.187821  0.812813  1
  Nb  Nb3  1  0.188050  0.811211  0.188050  1
  Nb  Nb4  1  0.187821  0.812813  0.812813  1
  Nb  Nb5  1  0.811211  0.188050  0.188050  1
  Nb  Nb6  1  0.437187  0.437187  0.062179  1
  Nb  Nb7  1  0.061950  0.061950  0.438789  1
  Nb  Nb8  1  0.437187  0.062179  0.437187  1
  Nb  Nb9  1  0.061950  0.438789  0.061950  1
  Nb  Nb10  1  0.062179  0.437187  0.437187  1
  Nb  Nb11  1  0.438789  0.061950  0.061950  1
  Al  Al12  1  0.747772  0.417345  0.417345  1
  Al  Al13  1  0.417345  0.747772  0.417345  1
  Al  Al14  1  0.417345  0.417345  0.747772  1
  Al  Al15  1  0.417575  0.417575  0.417575  1
  Al  Al16  1  0.502228  0.832655  0.832655  1
  Al  Al17  1  0.832655  0.502228  0.832655  1
  Al  Al18  1  0.832655  0.832655  0.502228  1
  Al  Al19  1  0.832425  0.832425  0.832425  1
  Ni  Ni20  1  0.125000  0.625000  0.625000  1
  Ni  Ni21  1  0.625000  0.125000  0.625000  1
  Ni  Ni22  1  0.625000  0.625000  0.125000  1
  Ni  Ni23  1  0.625000  0.625000  0.625000  1
  C  C24  1  0.125000  0.125000  0.125000  1
  N  N25  1  0.625000  0.125000  0.125000  1
  N  N26  1  0.125000  0.625000  0.125000  1
  N  N27  1  0.125000  0.125000  0.625000  1
