# generated using pymatgen
data_SmDyBi2(TeO4)4
_symmetry_space_group_name_H-M   'P 1'
_cell_length_a   7.05541569
_cell_length_b   7.05541640
_cell_length_c   10.32005406
_cell_angle_alpha   66.42863138
_cell_angle_beta   66.42862067
_cell_angle_gamma   46.80800660
_symmetry_Int_Tables_number   1
_chemical_formula_structural   SmDyBi2(TeO4)4
_chemical_formula_sum   'Sm1 Dy1 Bi2 Te4 O16'
_cell_volume   337.10901585
_cell_formula_units_Z   1
loop_
 _symmetry_equiv_pos_site_id
 _symmetry_equiv_pos_as_xyz
  1  'x, y, z'
loop_
 _atom_site_type_symbol
 _atom_site_label
 _atom_site_symmetry_multiplicity
 _atom_site_fract_x
 _atom_site_fract_y
 _atom_site_fract_z
 _atom_site_occupancy
  Sm  Sm0  1  0.947617  0.052383  0.000000  1
  Dy  Dy1  1  0.056236  0.943764  0.500000  1
  Bi  Bi2  1  0.678090  0.773400  0.899623  1
  Bi  Bi3  1  0.226600  0.321910  0.100377  1
  Te  Te4  1  0.504088  0.500414  0.748286  1
  Te  Te5  1  0.499586  0.495912  0.251714  1
  Te  Te6  1  0.366106  0.192997  0.622025  1
  Te  Te7  1  0.807003  0.633894  0.377975  1
  O  O8  1  0.795200  0.343103  0.590920  1
  O  O9  1  0.656897  0.204800  0.409080  1
  O  O10  1  0.194203  0.655452  0.902503  1
  O  O11  1  0.344548  0.805797  0.097497  1
  O  O12  1  0.720879  0.480127  0.832776  1
  O  O13  1  0.519873  0.279121  0.167224  1
  O  O14  1  0.287227  0.502510  0.660637  1
  O  O15  1  0.497490  0.712773  0.339363  1
  O  O16  1  0.910630  0.719245  0.164352  1
  O  O17  1  0.280755  0.089370  0.835648  1
  O  O18  1  0.076686  0.274707  0.348048  1
  O  O19  1  0.725293  0.923314  0.651952  1
  O  O20  1  0.152647  0.648552  0.374665  1
  O  O21  1  0.351448  0.847353  0.625335  1
  O  O22  1  0.844123  0.363423  0.122630  1
  O  O23  1  0.636577  0.155877  0.877370  1
