# generated using pymatgen
data_Pr9Hg4
_symmetry_space_group_name_H-M   'P 1'
_cell_length_a   9.18889173
_cell_length_b   9.18889053
_cell_length_c   9.18889109
_cell_angle_alpha   94.94135880
_cell_angle_beta   94.94135714
_cell_angle_gamma   145.86602753
_symmetry_Int_Tables_number   1
_chemical_formula_structural   Pr9Hg4
_chemical_formula_sum   'Pr9 Hg4'
_cell_volume   416.19176029
_cell_formula_units_Z   1
loop_
 _symmetry_equiv_pos_site_id
 _symmetry_equiv_pos_as_xyz
  1  'x, y, z'
loop_
 _atom_site_type_symbol
 _atom_site_label
 _atom_site_symmetry_multiplicity
 _atom_site_fract_x
 _atom_site_fract_y
 _atom_site_fract_z
 _atom_site_occupancy
  Pr  Pr0  1  0.500000  0.500000  0.000000  1
  Pr  Pr1  1  0.592553  0.882124  0.474678  1
  Pr  Pr2  1  0.407447  0.117876  0.525322  1
  Pr  Pr3  1  0.117876  0.592553  0.710428  1
  Pr  Pr4  1  0.882124  0.407447  0.289572  1
  Pr  Pr5  1  0.887418  0.815802  0.703220  1
  Pr  Pr6  1  0.112582  0.184198  0.296780  1
  Pr  Pr7  1  0.184198  0.887418  0.071616  1
  Pr  Pr8  1  0.815802  0.112582  0.928384  1
  Hg  Hg9  1  0.732126  0.609089  0.341214  1
  Hg  Hg10  1  0.267874  0.390911  0.658786  1
  Hg  Hg11  1  0.390911  0.732126  0.123037  1
  Hg  Hg12  1  0.609089  0.267874  0.876963  1
