# generated using pymatgen
data_Ho4Th4Re3B24Ru
_symmetry_space_group_name_H-M   'P 1'
_cell_length_a   3.76483400
_cell_length_b   9.25103139
_cell_length_c   11.66391428
_cell_angle_alpha   90.09811522
_cell_angle_beta   90.00000000
_cell_angle_gamma   90.00000000
_symmetry_Int_Tables_number   1
_chemical_formula_structural   Ho4Th4Re3B24Ru
_chemical_formula_sum   'Ho4 Th4 Re3 B24 Ru1'
_cell_volume   406.23718013
_cell_formula_units_Z   1
loop_
 _symmetry_equiv_pos_site_id
 _symmetry_equiv_pos_as_xyz
  1  'x, y, z'
loop_
 _atom_site_type_symbol
 _atom_site_label
 _atom_site_symmetry_multiplicity
 _atom_site_fract_x
 _atom_site_fract_y
 _atom_site_fract_z
 _atom_site_occupancy
  Ho  Ho0  1  0.000000  0.945269  0.372897  1
  Ho  Ho1  1  0.000000  0.054935  0.626571  1
  Ho  Ho2  1  0.000000  0.443741  0.126927  1
  Ho  Ho3  1  0.000000  0.554974  0.873731  1
  Th  Th4  1  0.000000  0.320110  0.414432  1
  Th  Th5  1  0.000000  0.678422  0.587955  1
  Th  Th6  1  0.000000  0.823132  0.084502  1
  Th  Th7  1  0.000000  0.178829  0.913093  1
  Re  Re8  1  0.000000  0.360844  0.679840  1
  Re  Re9  1  0.000000  0.139096  0.180293  1
  Re  Re10  1  0.000000  0.860520  0.819984  1
  B  B11  1  0.500000  0.556704  0.429879  1
  B  B12  1  0.500000  0.443875  0.569687  1
  B  B13  1  0.500000  0.056340  0.070008  1
  B  B14  1  0.500000  0.944026  0.929854  1
  B  B15  1  0.500000  0.750432  0.417817  1
  B  B16  1  0.500000  0.250218  0.582465  1
  B  B17  1  0.500000  0.249772  0.082847  1
  B  B18  1  0.500000  0.750345  0.917422  1
  B  B19  1  0.500000  0.790263  0.266741  1
  B  B20  1  0.500000  0.209264  0.733221  1
  B  B21  1  0.500000  0.291000  0.233709  1
  B  B22  1  0.500000  0.708864  0.766736  1
  B  B23  1  0.500000  0.630441  0.185171  1
  B  B24  1  0.500000  0.369587  0.813881  1
  B  B25  1  0.500000  0.130570  0.314257  1
  B  B26  1  0.500000  0.869192  0.685929  1
  B  B27  1  0.500000  0.985359  0.214145  1
  B  B28  1  0.500000  0.014725  0.785701  1
  B  B29  1  0.500000  0.485951  0.285866  1
  B  B30  1  0.500000  0.514781  0.714225  1
  B  B31  1  0.500000  0.604194  0.029452  1
  B  B32  1  0.500000  0.396328  0.971802  1
  B  B33  1  0.500000  0.103456  0.471213  1
  B  B34  1  0.500000  0.895307  0.527843  1
  Ru  Ru35  1  0.000000  0.639134  0.319904  1
