# generated using pymatgen
data_TbHo(ZrPt)2
_symmetry_space_group_name_H-M   'P 1'
_cell_length_a   4.67482600
_cell_length_b   7.15730609
_cell_length_c   8.23555400
_cell_angle_alpha   90.26245992
_cell_angle_beta   90.00000000
_cell_angle_gamma   90.00000000
_symmetry_Int_Tables_number   1
_chemical_formula_structural   TbHo(ZrPt)2
_chemical_formula_sum   'Tb2 Ho2 Zr4 Pt4'
_cell_volume   275.55183296
_cell_formula_units_Z   2
loop_
 _symmetry_equiv_pos_site_id
 _symmetry_equiv_pos_as_xyz
  1  'x, y, z'
loop_
 _atom_site_type_symbol
 _atom_site_label
 _atom_site_symmetry_multiplicity
 _atom_site_fract_x
 _atom_site_fract_y
 _atom_site_fract_z
 _atom_site_occupancy
  Tb  Tb0  1  0.250000  0.484107  0.178046  1
  Tb  Tb1  1  0.750000  0.515893  0.821954  1
  Ho  Ho2  1  0.750000  0.017228  0.677763  1
  Ho  Ho3  1  0.250000  0.982772  0.322237  1
  Zr  Zr4  1  0.250000  0.852266  0.919490  1
  Zr  Zr5  1  0.750000  0.147734  0.080510  1
  Zr  Zr6  1  0.750000  0.648688  0.420919  1
  Zr  Zr7  1  0.250000  0.351312  0.579081  1
  Pt  Pt8  1  0.250000  0.729035  0.592724  1
  Pt  Pt9  1  0.750000  0.270965  0.407276  1
  Pt  Pt10  1  0.750000  0.773475  0.095645  1
  Pt  Pt11  1  0.250000  0.226525  0.904355  1
