# generated using pymatgen
data_Cd3BAsO7
_symmetry_space_group_name_H-M   'P 1'
_cell_length_a   5.25394490
_cell_length_b   8.91187682
_cell_length_c   8.91187636
_cell_angle_alpha   106.59879537
_cell_angle_beta   107.22595930
_cell_angle_gamma   107.22596266
_symmetry_Int_Tables_number   1
_chemical_formula_structural   Cd3BAsO7
_chemical_formula_sum   'Cd6 B2 As2 O14'
_cell_volume   347.34069532
_cell_formula_units_Z   2
loop_
 _symmetry_equiv_pos_site_id
 _symmetry_equiv_pos_as_xyz
  1  'x, y, z'
loop_
 _atom_site_type_symbol
 _atom_site_label
 _atom_site_symmetry_multiplicity
 _atom_site_fract_x
 _atom_site_fract_y
 _atom_site_fract_z
 _atom_site_occupancy
  Cd  Cd0  1  0.768972  0.648877  0.149523  1
  Cd  Cd1  1  0.460566  0.931485  0.214080  1
  Cd  Cd2  1  0.450479  0.699600  0.473825  1
  Cd  Cd3  1  0.768972  0.149523  0.648877  1
  Cd  Cd4  1  0.450479  0.473825  0.699600  1
  Cd  Cd5  1  0.460566  0.214080  0.931485  1
  B  B6  1  0.096706  0.950070  0.505454  1
  B  B7  1  0.096706  0.505454  0.950070  1
  As  As8  1  0.768384  0.399459  0.399459  1
  As  As9  1  0.863078  0.935396  0.935396  1
  O  O10  1  0.241644  0.021705  0.021705  1
  O  O11  1  0.766678  0.885402  0.088706  1
  O  O12  1  0.160216  0.645086  0.095523  1
  O  O13  1  0.750174  0.408495  0.205642  1
  O  O14  1  0.805945  0.832001  0.398026  1
  O  O15  1  0.750174  0.205642  0.408495  1
  O  O16  1  0.488532  0.439984  0.439984  1
  O  O17  1  0.323092  0.922594  0.464777  1
  O  O18  1  0.105550  0.555065  0.555065  1
  O  O19  1  0.160216  0.095523  0.645086  1
  O  O20  1  0.725161  0.752088  0.752088  1
  O  O21  1  0.805945  0.398026  0.832001  1
  O  O22  1  0.766678  0.088706  0.885402  1
  O  O23  1  0.323092  0.464777  0.922594  1
