# generated using pymatgen
data_PrThCoB10
_symmetry_space_group_name_H-M   'P 1'
_cell_length_a   4.19612300
_cell_length_b   5.63709612
_cell_length_c   11.24729525
_cell_angle_alpha   90.15458174
_cell_angle_beta   90.00000000
_cell_angle_gamma   90.00000000
_symmetry_Int_Tables_number   1
_chemical_formula_structural   PrThCoB10
_chemical_formula_sum   'Pr2 Th2 Co2 B20'
_cell_volume   266.04197644
_cell_formula_units_Z   2
loop_
 _symmetry_equiv_pos_site_id
 _symmetry_equiv_pos_as_xyz
  1  'x, y, z'
loop_
 _atom_site_type_symbol
 _atom_site_label
 _atom_site_symmetry_multiplicity
 _atom_site_fract_x
 _atom_site_fract_y
 _atom_site_fract_z
 _atom_site_occupancy
  Pr  Pr0  1  0.500000  0.301145  0.866007  1
  Pr  Pr1  1  0.500000  0.698855  0.133993  1
  Th  Th2  1  0.500000  0.801458  0.634542  1
  Th  Th3  1  0.500000  0.198542  0.365458  1
  Co  Co4  1  0.000000  0.500000  0.500000  1
  Co  Co5  1  0.000000  0.000000  0.000000  1
  B  B6  1  0.000000  0.126899  0.540026  1
  B  B7  1  0.000000  0.873101  0.459974  1
  B  B8  1  0.000000  0.627556  0.959347  1
  B  B9  1  0.000000  0.372444  0.040653  1
  B  B10  1  0.000000  0.152688  0.696537  1
  B  B11  1  0.000000  0.847312  0.303463  1
  B  B12  1  0.298572  0.200809  0.113471  1
  B  B13  1  0.298572  0.799191  0.886529  1
  B  B14  1  0.700341  0.701231  0.386952  1
  B  B15  1  0.700341  0.298769  0.613048  1
  B  B16  1  0.701428  0.799191  0.886529  1
  B  B17  1  0.701428  0.200809  0.113471  1
  B  B18  1  0.299659  0.298769  0.613048  1
  B  B19  1  0.299659  0.701231  0.386952  1
  B  B20  1  0.000000  0.035482  0.187496  1
  B  B21  1  0.000000  0.964518  0.812504  1
  B  B22  1  0.000000  0.534692  0.313567  1
  B  B23  1  0.000000  0.465308  0.686433  1
  B  B24  1  0.000000  0.345092  0.197462  1
  B  B25  1  0.000000  0.654908  0.802538  1
