# generated using pymatgen
data_Er4CoTcRu6
_symmetry_space_group_name_H-M   'P 1'
_cell_length_a   5.18272316
_cell_length_b   5.31840052
_cell_length_c   8.86821000
_cell_angle_alpha   90.00000000
_cell_angle_beta   90.00000000
_cell_angle_gamma   121.67608896
_symmetry_Int_Tables_number   1
_chemical_formula_structural   Er4CoTcRu6
_chemical_formula_sum   'Er4 Co1 Tc1 Ru6'
_cell_volume   208.02716833
_cell_formula_units_Z   1
loop_
 _symmetry_equiv_pos_site_id
 _symmetry_equiv_pos_as_xyz
  1  'x, y, z'
loop_
 _atom_site_type_symbol
 _atom_site_label
 _atom_site_symmetry_multiplicity
 _atom_site_fract_x
 _atom_site_fract_y
 _atom_site_fract_z
 _atom_site_occupancy
  Er  Er0  1  0.328298  0.662436  0.431370  1
  Er  Er1  1  0.657740  0.327906  0.563404  1
  Er  Er2  1  0.657740  0.327906  0.936596  1
  Er  Er3  1  0.328298  0.662436  0.068630  1
  Co  Co4  1  0.833751  0.163992  0.250000  1
  Tc  Tc5  1  0.678592  0.839394  0.750000  1
  Ru  Ru6  1  0.985468  0.994581  0.496637  1
  Ru  Ru7  1  0.985468  0.994581  0.003363  1
  Ru  Ru8  1  0.831745  0.666650  0.250000  1
  Ru  Ru9  1  0.355027  0.177406  0.250000  1
  Ru  Ru10  1  0.176308  0.829363  0.750000  1
  Ru  Ru11  1  0.181566  0.353348  0.750000  1
