# generated using pymatgen
data_HfMn8Nb2Ga
_symmetry_space_group_name_H-M   'P 1'
_cell_length_a   4.78867200
_cell_length_b   4.78867061
_cell_length_c   7.93352000
_cell_angle_alpha   90.00000000
_cell_angle_beta   90.00000000
_cell_angle_gamma   120.00000959
_symmetry_Int_Tables_number   1
_chemical_formula_structural   HfMn8Nb2Ga
_chemical_formula_sum   'Hf1 Mn8 Nb2 Ga1'
_cell_volume   157.55296004
_cell_formula_units_Z   1
loop_
 _symmetry_equiv_pos_site_id
 _symmetry_equiv_pos_as_xyz
  1  'x, y, z'
loop_
 _atom_site_type_symbol
 _atom_site_label
 _atom_site_symmetry_multiplicity
 _atom_site_fract_x
 _atom_site_fract_y
 _atom_site_fract_z
 _atom_site_occupancy
  Hf  Hf0  1  0.666667  0.333333  0.935872  1
  Mn  Mn1  1  0.174063  0.348127  0.745897  1
  Mn  Mn2  1  0.829336  0.170664  0.252995  1
  Mn  Mn3  1  0.341327  0.170664  0.252995  1
  Mn  Mn4  1  0.651873  0.825937  0.745897  1
  Mn  Mn5  1  0.000000  0.000000  0.989931  1
  Mn  Mn6  1  0.000000  0.000000  0.498057  1
  Mn  Mn7  1  0.829336  0.658673  0.252995  1
  Mn  Mn8  1  0.174063  0.825937  0.745897  1
  Nb  Nb9  1  0.666667  0.333333  0.556861  1
  Nb  Nb10  1  0.333333  0.666667  0.082917  1
  Ga  Ga11  1  0.333333  0.666667  0.439685  1
