# generated using pymatgen
data_Ti3Ga2Tc3B
_symmetry_space_group_name_H-M   'P 1'
_cell_length_a   6.87721500
_cell_length_b   6.87721534
_cell_length_c   3.11685700
_cell_angle_alpha   90.00000000
_cell_angle_beta   90.00000000
_cell_angle_gamma   120.00000318
_symmetry_Int_Tables_number   1
_chemical_formula_structural   Ti3Ga2Tc3B
_chemical_formula_sum   'Ti3 Ga2 Tc3 B1'
_cell_volume   127.66525593
_cell_formula_units_Z   1
loop_
 _symmetry_equiv_pos_site_id
 _symmetry_equiv_pos_as_xyz
  1  'x, y, z'
loop_
 _atom_site_type_symbol
 _atom_site_label
 _atom_site_symmetry_multiplicity
 _atom_site_fract_x
 _atom_site_fract_y
 _atom_site_fract_z
 _atom_site_occupancy
  Ti  Ti0  1  0.000000  0.363463  0.500000  1
  Ti  Ti1  1  0.636537  0.636537  0.500000  1
  Ti  Ti2  1  0.363463  0.000000  0.500000  1
  Ga  Ga3  1  0.333333  0.666667  0.000000  1
  Ga  Ga4  1  0.666667  0.333333  0.000000  1
  Tc  Tc5  1  0.000000  0.757162  0.000000  1
  Tc  Tc6  1  0.242838  0.242838  0.000000  1
  Tc  Tc7  1  0.757162  0.000000  0.000000  1
  B  B8  1  0.000000  0.000000  0.500000  1
