# generated using pymatgen
data_ZnBi3Ru3RhO14
_symmetry_space_group_name_H-M   'P 1'
_cell_length_a   7.35363326
_cell_length_b   7.17014471
_cell_length_c   7.35363300
_cell_angle_alpha   59.14979211
_cell_angle_beta   59.99999667
_cell_angle_gamma   59.14979325
_symmetry_Int_Tables_number   1
_chemical_formula_structural   ZnBi3Ru3RhO14
_chemical_formula_sum   'Zn1 Bi3 Ru3 Rh1 O14'
_cell_volume   270.59175140
_cell_formula_units_Z   1
loop_
 _symmetry_equiv_pos_site_id
 _symmetry_equiv_pos_as_xyz
  1  'x, y, z'
loop_
 _atom_site_type_symbol
 _atom_site_label
 _atom_site_symmetry_multiplicity
 _atom_site_fract_x
 _atom_site_fract_y
 _atom_site_fract_z
 _atom_site_occupancy
  Zn  Zn0  1  0.125000  0.625000  0.125000  1
  Bi  Bi1  1  0.125000  0.125000  0.125000  1
  Bi  Bi2  1  0.625000  0.125000  0.125000  1
  Bi  Bi3  1  0.125000  0.125000  0.625000  1
  Ru  Ru4  1  0.625000  0.625000  0.625000  1
  Ru  Ru5  1  0.625000  0.625000  0.125000  1
  Ru  Ru6  1  0.125000  0.625000  0.625000  1
  Rh  Rh7  1  0.625000  0.125000  0.625000  1
  O  O8  1  0.234450  0.296650  0.234450  1
  O  O9  1  0.303427  0.701563  0.303427  1
  O  O10  1  0.960389  0.960929  0.539341  1
  O  O11  1  0.539341  0.960929  0.539341  1
  O  O12  1  0.691584  0.701563  0.303427  1
  O  O13  1  0.946573  0.548437  0.558416  1
  O  O14  1  0.710659  0.289071  0.710659  1
  O  O15  1  0.289611  0.289071  0.710659  1
  O  O16  1  0.710659  0.289071  0.289611  1
  O  O17  1  0.303427  0.701563  0.691584  1
  O  O18  1  0.946573  0.548437  0.946573  1
  O  O19  1  0.558416  0.548437  0.946573  1
  O  O20  1  0.015550  0.953350  0.015550  1
  O  O21  1  0.539341  0.960929  0.960389  1
