# generated using pymatgen
data_Pa2Al20Re3Os
_symmetry_space_group_name_H-M   'P 1'
_cell_length_a   6.89090932
_cell_length_b   6.88132103
_cell_length_c   9.15700133
_cell_angle_alpha   90.23752965
_cell_angle_beta   90.12499924
_cell_angle_gamma   97.40440906
_symmetry_Int_Tables_number   1
_chemical_formula_structural   Pa2Al20Re3Os
_chemical_formula_sum   'Pa2 Al20 Re3 Os1'
_cell_volume   430.58571044
_cell_formula_units_Z   1
loop_
 _symmetry_equiv_pos_site_id
 _symmetry_equiv_pos_as_xyz
  1  'x, y, z'
loop_
 _atom_site_type_symbol
 _atom_site_label
 _atom_site_symmetry_multiplicity
 _atom_site_fract_x
 _atom_site_fract_y
 _atom_site_fract_z
 _atom_site_occupancy
  Pa  Pa0  1  0.862566  0.128015  0.752213  1
  Pa  Pa1  1  0.137434  0.871985  0.247787  1
  Al  Al2  1  0.517661  0.781716  0.749053  1
  Al  Al3  1  0.785379  0.520636  0.249868  1
  Al  Al4  1  0.482339  0.218284  0.250947  1
  Al  Al5  1  0.214621  0.479364  0.750132  1
  Al  Al6  1  0.622738  0.377830  0.955158  1
  Al  Al7  1  0.377262  0.622170  0.044842  1
  Al  Al8  1  0.622707  0.377399  0.545581  1
  Al  Al9  1  0.377293  0.622601  0.454419  1
  Al  Al10  1  0.407373  0.144161  0.749853  1
  Al  Al11  1  0.144011  0.409302  0.250523  1
  Al  Al12  1  0.592627  0.855839  0.250147  1
  Al  Al13  1  0.855989  0.590698  0.749477  1
  Al  Al14  1  0.844842  0.155860  0.398628  1
  Al  Al15  1  0.155158  0.844140  0.601372  1
  Al  Al16  1  0.844339  0.156724  0.102591  1
  Al  Al17  1  0.155661  0.843276  0.897409  1
  Al  Al18  1  0.776361  0.775967  0.999875  1
  Al  Al19  1  0.777413  0.776089  0.499607  1
  Al  Al20  1  0.223639  0.224033  0.000125  1
  Al  Al21  1  0.222587  0.223911  0.500393  1
  Re  Re22  1  0.500000  0.000000  0.000000  1
  Re  Re23  1  0.000000  0.500000  0.000000  1
  Re  Re24  1  0.500000  0.000000  0.500000  1
  Os  Os25  1  0.000000  0.500000  0.500000  1
