# generated using pymatgen
data_DyY3Lu4(ReC2)4
_symmetry_space_group_name_H-M   'P 1'
_cell_length_a   5.05472900
_cell_length_b   6.56221200
_cell_length_c   9.75191400
_cell_angle_alpha   89.99832163
_cell_angle_beta   90.00000000
_cell_angle_gamma   90.00000000
_symmetry_Int_Tables_number   1
_chemical_formula_structural   DyY3Lu4(ReC2)4
_chemical_formula_sum   'Dy1 Y3 Lu4 Re4 C8'
_cell_volume   323.47296988
_cell_formula_units_Z   1
loop_
 _symmetry_equiv_pos_site_id
 _symmetry_equiv_pos_as_xyz
  1  'x, y, z'
loop_
 _atom_site_type_symbol
 _atom_site_label
 _atom_site_symmetry_multiplicity
 _atom_site_fract_x
 _atom_site_fract_y
 _atom_site_fract_z
 _atom_site_occupancy
  Dy  Dy0  1  0.750000  0.034543  0.714777  1
  Y  Y1  1  0.250000  0.465344  0.214823  1
  Y  Y2  1  0.250000  0.965349  0.285230  1
  Y  Y3  1  0.750000  0.534654  0.785210  1
  Lu  Lu4  1  0.250000  0.825765  0.941641  1
  Lu  Lu5  1  0.250000  0.325864  0.558356  1
  Lu  Lu6  1  0.750000  0.174175  0.058322  1
  Lu  Lu7  1  0.750000  0.674326  0.441592  1
  Re  Re8  1  0.250000  0.279303  0.867516  1
  Re  Re9  1  0.250000  0.779470  0.632462  1
  Re  Re10  1  0.750000  0.720689  0.132314  1
  Re  Re11  1  0.750000  0.220639  0.367693  1
  C  C12  1  0.250000  0.048437  0.739826  1
  C  C13  1  0.250000  0.548450  0.760171  1
  C  C14  1  0.750000  0.951587  0.260154  1
  C  C15  1  0.750000  0.451548  0.239831  1
  C  C16  1  0.250000  0.670013  0.449131  1
  C  C17  1  0.250000  0.169906  0.050825  1
  C  C18  1  0.750000  0.329673  0.551155  1
  C  C19  1  0.750000  0.830265  0.948972  1
