# generated using pymatgen
data_Nb3As6RhO24
_symmetry_space_group_name_H-M   'P 1'
_cell_length_a   9.37666490
_cell_length_b   9.37666394
_cell_length_c   9.37666386
_cell_angle_alpha   56.94827025
_cell_angle_beta   56.94827522
_cell_angle_gamma   56.94827539
_symmetry_Int_Tables_number   1
_chemical_formula_structural   Nb3As6RhO24
_chemical_formula_sum   'Nb3 As6 Rh1 O24'
_cell_volume   541.91826747
_cell_formula_units_Z   1
loop_
 _symmetry_equiv_pos_site_id
 _symmetry_equiv_pos_as_xyz
  1  'x, y, z'
loop_
 _atom_site_type_symbol
 _atom_site_label
 _atom_site_symmetry_multiplicity
 _atom_site_fract_x
 _atom_site_fract_y
 _atom_site_fract_z
 _atom_site_occupancy
  Nb  Nb0  1  0.856092  0.856092  0.856092  1
  Nb  Nb1  1  0.641983  0.641983  0.641983  1
  Nb  Nb2  1  0.362031  0.362031  0.362031  1
  As  As3  1  0.254350  0.514753  0.973008  1
  As  As4  1  0.973008  0.254350  0.514753  1
  As  As5  1  0.514753  0.973008  0.254350  1
  As  As6  1  0.459924  0.030988  0.765571  1
  As  As7  1  0.030988  0.765571  0.459924  1
  As  As8  1  0.765571  0.459924  0.030988  1
  Rh  Rh9  1  0.146682  0.146682  0.146682  1
  O  O10  1  0.702162  0.501913  0.866804  1
  O  O11  1  0.501913  0.866804  0.702162  1
  O  O12  1  0.047755  0.689046  0.967340  1
  O  O13  1  0.866804  0.702162  0.501913  1
  O  O14  1  0.413374  0.591578  0.771276  1
  O  O15  1  0.293717  0.311463  0.978101  1
  O  O16  1  0.967340  0.047755  0.689046  1
  O  O17  1  0.771276  0.413374  0.591578  1
  O  O18  1  0.591578  0.771276  0.413374  1
  O  O19  1  0.666770  0.010754  0.739333  1
  O  O20  1  0.302108  0.997982  0.977853  1
  O  O21  1  0.010754  0.739333  0.666770  1
  O  O22  1  0.978101  0.293717  0.311463  1
  O  O23  1  0.689046  0.967340  0.047755  1
  O  O24  1  0.311463  0.978101  0.293717  1
  O  O25  1  0.401732  0.234592  0.595465  1
  O  O26  1  0.234592  0.595465  0.401732  1
  O  O27  1  0.997982  0.977853  0.302108  1
  O  O28  1  0.739333  0.666770  0.010754  1
  O  O29  1  0.595465  0.401732  0.234592  1
  O  O30  1  0.142105  0.288458  0.502935  1
  O  O31  1  0.977853  0.302108  0.997982  1
  O  O32  1  0.502935  0.142105  0.288458  1
  O  O33  1  0.288458  0.502935  0.142105  1
