# generated using pymatgen
data_Er8Lu4Ga9Si9Ge2
_symmetry_space_group_name_H-M   'P 1'
_cell_length_a   5.90777423
_cell_length_b   5.90777535
_cell_length_c   18.51211300
_cell_angle_alpha   90.00000000
_cell_angle_beta   90.00000000
_cell_angle_gamma   102.92863615
_symmetry_Int_Tables_number   1
_chemical_formula_structural   Er8Lu4Ga9Si9Ge2
_chemical_formula_sum   'Er8 Lu4 Ga9 Si9 Ge2'
_cell_volume   629.72700296
_cell_formula_units_Z   1
loop_
 _symmetry_equiv_pos_site_id
 _symmetry_equiv_pos_as_xyz
  1  'x, y, z'
loop_
 _atom_site_type_symbol
 _atom_site_label
 _atom_site_symmetry_multiplicity
 _atom_site_fract_x
 _atom_site_fract_y
 _atom_site_fract_z
 _atom_site_occupancy
  Er  Er0  1  0.200641  0.801945  0.127852  1
  Er  Er1  1  0.198764  0.801359  0.625096  1
  Er  Er2  1  0.200641  0.801945  0.872148  1
  Er  Er3  1  0.198764  0.801359  0.374904  1
  Er  Er4  1  0.801945  0.200641  0.127852  1
  Er  Er5  1  0.801359  0.198764  0.625096  1
  Er  Er6  1  0.801359  0.198764  0.374904  1
  Er  Er7  1  0.801945  0.200641  0.872148  1
  Lu  Lu8  1  0.652330  0.652330  0.000000  1
  Lu  Lu9  1  0.659887  0.659887  0.500000  1
  Lu  Lu10  1  0.340928  0.340928  0.250399  1
  Lu  Lu11  1  0.340928  0.340928  0.749601  1
  Ga  Ga12  1  0.318446  0.318446  0.901524  1
  Ga  Ga13  1  0.323658  0.323658  0.401601  1
  Ga  Ga14  1  0.677303  0.677303  0.348433  1
  Ga  Ga15  1  0.677238  0.677238  0.848358  1
  Ga  Ga16  1  0.318446  0.318446  0.098476  1
  Ga  Ga17  1  0.323658  0.323658  0.598399  1
  Ga  Ga18  1  0.677238  0.677238  0.151642  1
  Ga  Ga19  1  0.677303  0.677303  0.651567  1
  Ga  Ga20  1  0.038024  0.038024  0.000000  1
  Si  Si21  1  0.484889  0.087065  0.500000  1
  Si  Si22  1  0.914096  0.516229  0.250402  1
  Si  Si23  1  0.914096  0.516229  0.749598  1
  Si  Si24  1  0.516229  0.914096  0.250402  1
  Si  Si25  1  0.516229  0.914096  0.749598  1
  Si  Si26  1  0.087065  0.484889  0.500000  1
  Si  Si27  1  0.050593  0.050593  0.500000  1
  Si  Si28  1  0.950629  0.950629  0.250668  1
  Si  Si29  1  0.950629  0.950629  0.749332  1
  Ge  Ge30  1  0.498717  0.086027  0.000000  1
  Ge  Ge31  1  0.086027  0.498717  0.000000  1
