# generated using pymatgen
data_La5TbPr4C4I15
_symmetry_space_group_name_H-M   'P 1'
_cell_length_a   9.85972349
_cell_length_b   10.77365806
_cell_length_c   11.86960744
_cell_angle_alpha   93.59723823
_cell_angle_beta   114.33899606
_cell_angle_gamma   109.47782124
_symmetry_Int_Tables_number   1
_chemical_formula_structural   La5TbPr4C4I15
_chemical_formula_sum   'La5 Tb1 Pr4 C4 I15'
_cell_volume   1053.23111302
_cell_formula_units_Z   1
loop_
 _symmetry_equiv_pos_site_id
 _symmetry_equiv_pos_as_xyz
  1  'x, y, z'
loop_
 _atom_site_type_symbol
 _atom_site_label
 _atom_site_symmetry_multiplicity
 _atom_site_fract_x
 _atom_site_fract_y
 _atom_site_fract_z
 _atom_site_occupancy
  La  La0  1  0.400787  0.458057  0.654622  1
  La  La1  1  0.471897  0.815055  0.897662  1
  La  La2  1  0.706549  0.568247  0.046020  1
  La  La3  1  0.293487  0.431827  0.956214  1
  La  La4  1  0.657527  0.253369  0.832840  1
  Tb  Tb5  1  0.594753  0.545198  0.335378  1
  Pr  Pr6  1  0.345896  0.746777  0.165355  1
  Pr  Pr7  1  0.776940  0.883095  0.258888  1
  Pr  Pr8  1  0.527641  0.186591  0.101977  1
  Pr  Pr9  1  0.223801  0.115307  0.743837  1
  C  C10  1  0.483008  0.301262  0.937048  1
  C  C11  1  0.518462  0.699145  0.062734  1
  C  C12  1  0.452898  0.361872  0.832892  1
  C  C13  1  0.546859  0.636570  0.165779  1
  I  I14  1  0.206934  0.908467  0.939575  1
  I  I15  1  0.101921  0.184312  0.468228  1
  I  I16  1  0.148967  0.555016  0.702945  1
  I  I17  1  0.401306  0.967405  0.644506  1
  I  I18  1  0.716083  0.734680  0.821756  1
  I  I19  1  0.297624  0.273207  0.187258  1
  I  I20  1  0.839525  0.445959  0.301994  1
  I  I21  1  0.884907  0.801034  0.527135  1
  I  I22  1  0.367723  0.628418  0.411090  1
  I  I23  1  0.055047  0.834206  0.222632  1
  I  I24  1  0.794617  0.096113  0.066145  1
  I  I25  1  0.642451  0.373880  0.582545  1
  I  I26  1  0.945004  0.164081  0.778575  1
  I  I27  1  0.594521  0.029162  0.352049  1
  I  I28  1  0.002864  0.501691  0.002325  1
