# generated using pymatgen
data_Ho10NiHg3
_symmetry_space_group_name_H-M   'P 1'
_cell_length_a   9.58505800
_cell_length_b   9.58505910
_cell_length_c   9.54350300
_cell_angle_alpha   90.00000000
_cell_angle_beta   90.00000000
_cell_angle_gamma   119.99999619
_symmetry_Int_Tables_number   1
_chemical_formula_structural   Ho10NiHg3
_chemical_formula_sum   'Ho20 Ni2 Hg6'
_cell_volume   759.32553206
_cell_formula_units_Z   2
loop_
 _symmetry_equiv_pos_site_id
 _symmetry_equiv_pos_as_xyz
  1  'x, y, z'
loop_
 _atom_site_type_symbol
 _atom_site_label
 _atom_site_symmetry_multiplicity
 _atom_site_fract_x
 _atom_site_fract_y
 _atom_site_fract_z
 _atom_site_occupancy
  Ho  Ho0  1  0.000000  0.000000  0.500000  1
  Ho  Ho1  1  0.000000  0.000000  0.000000  1
  Ho  Ho2  1  0.543306  0.456694  0.250000  1
  Ho  Ho3  1  0.543306  0.086612  0.250000  1
  Ho  Ho4  1  0.913388  0.456694  0.250000  1
  Ho  Ho5  1  0.456694  0.543306  0.750000  1
  Ho  Ho6  1  0.456694  0.913388  0.750000  1
  Ho  Ho7  1  0.086612  0.543306  0.750000  1
  Ho  Ho8  1  0.210083  0.789917  0.436309  1
  Ho  Ho9  1  0.210083  0.420167  0.436309  1
  Ho  Ho10  1  0.579833  0.789917  0.436309  1
  Ho  Ho11  1  0.789917  0.210083  0.563691  1
  Ho  Ho12  1  0.789917  0.579833  0.563691  1
  Ho  Ho13  1  0.420167  0.210083  0.563691  1
  Ho  Ho14  1  0.789917  0.210083  0.936309  1
  Ho  Ho15  1  0.789917  0.579833  0.936309  1
  Ho  Ho16  1  0.420167  0.210083  0.936309  1
  Ho  Ho17  1  0.210083  0.789917  0.063691  1
  Ho  Ho18  1  0.210083  0.420167  0.063691  1
  Ho  Ho19  1  0.579833  0.789917  0.063691  1
  Ni  Ni20  1  0.333333  0.666667  0.250000  1
  Ni  Ni21  1  0.666667  0.333333  0.750000  1
  Hg  Hg22  1  0.879800  0.120200  0.250000  1
  Hg  Hg23  1  0.879800  0.759601  0.250000  1
  Hg  Hg24  1  0.240399  0.120200  0.250000  1
  Hg  Hg25  1  0.120200  0.879800  0.750000  1
  Hg  Hg26  1  0.120200  0.240399  0.750000  1
  Hg  Hg27  1  0.759601  0.879800  0.750000  1
