# generated using pymatgen
data_Y3LuTc3Os5
_symmetry_space_group_name_H-M   'P 1'
_cell_length_a   5.30708742
_cell_length_b   5.31211950
_cell_length_c   8.94694709
_cell_angle_alpha   89.99999964
_cell_angle_beta   89.98605460
_cell_angle_gamma   120.03136332
_symmetry_Int_Tables_number   1
_chemical_formula_structural   Y3LuTc3Os5
_chemical_formula_sum   'Y3 Lu1 Tc3 Os5'
_cell_volume   218.36962140
_cell_formula_units_Z   1
loop_
 _symmetry_equiv_pos_site_id
 _symmetry_equiv_pos_as_xyz
  1  'x, y, z'
loop_
 _atom_site_type_symbol
 _atom_site_label
 _atom_site_symmetry_multiplicity
 _atom_site_fract_x
 _atom_site_fract_y
 _atom_site_fract_z
 _atom_site_occupancy
  Y  Y0  1  0.335756  0.667879  0.434816  1
  Y  Y1  1  0.668628  0.334313  0.563132  1
  Y  Y2  1  0.668589  0.334294  0.937575  1
  Lu  Lu3  1  0.335698  0.667850  0.064756  1
  Tc  Tc4  1  0.168421  0.339455  0.751218  1
  Tc  Tc5  1  0.168421  0.828968  0.751218  1
  Tc  Tc6  1  0.333490  0.166745  0.248404  1
  Os  Os7  1  0.823675  0.651878  0.248379  1
  Os  Os8  1  0.649929  0.824965  0.751412  1
  Os  Os9  1  0.012090  0.006045  0.000912  1
  Os  Os10  1  0.823675  0.171796  0.248379  1
  Os  Os11  1  0.011627  0.005814  0.499798  1
