# generated using pymatgen
data_Zr10In2Cu2SnBi3
_symmetry_space_group_name_H-M   'P 1'
_cell_length_a   8.75168306
_cell_length_b   8.75168318
_cell_length_c   5.93141700
_cell_angle_alpha   90.00000000
_cell_angle_beta   90.00000000
_cell_angle_gamma   119.85029342
_symmetry_Int_Tables_number   1
_chemical_formula_structural   Zr10In2Cu2SnBi3
_chemical_formula_sum   'Zr10 In2 Cu2 Sn1 Bi3'
_cell_volume   394.02650374
_cell_formula_units_Z   1
loop_
 _symmetry_equiv_pos_site_id
 _symmetry_equiv_pos_as_xyz
  1  'x, y, z'
loop_
 _atom_site_type_symbol
 _atom_site_label
 _atom_site_symmetry_multiplicity
 _atom_site_fract_x
 _atom_site_fract_y
 _atom_site_fract_z
 _atom_site_occupancy
  Zr  Zr0  1  0.727542  0.998679  0.250000  1
  Zr  Zr1  1  0.998679  0.727542  0.250000  1
  Zr  Zr2  1  0.273038  0.273038  0.250000  1
  Zr  Zr3  1  0.246834  0.999852  0.750000  1
  Zr  Zr4  1  0.999852  0.246834  0.750000  1
  Zr  Zr5  1  0.750250  0.750250  0.750000  1
  Zr  Zr6  1  0.334901  0.666505  0.492734  1
  Zr  Zr7  1  0.666505  0.334901  0.492734  1
  Zr  Zr8  1  0.666505  0.334901  0.007266  1
  Zr  Zr9  1  0.334901  0.666505  0.007266  1
  In  In10  1  0.377591  0.999604  0.250000  1
  In  In11  1  0.999604  0.377591  0.250000  1
  Cu  Cu12  1  0.001942  0.001942  0.468037  1
  Cu  Cu13  1  0.001942  0.001942  0.031963  1
  Sn  Sn14  1  0.620929  0.620929  0.250000  1
  Bi  Bi15  1  0.606414  0.001239  0.750000  1
  Bi  Bi16  1  0.001239  0.606414  0.750000  1
  Bi  Bi17  1  0.391330  0.391330  0.750000  1
