# generated using pymatgen
data_ErScP7(Ru5Rh)2
_symmetry_space_group_name_H-M   'P 1'
_cell_length_a   9.36758820
_cell_length_b   9.45916069
_cell_length_c   3.91223500
_cell_angle_alpha   90.00000000
_cell_angle_beta   90.00000000
_cell_angle_gamma   120.22073347
_symmetry_Int_Tables_number   1
_chemical_formula_structural   ErScP7(Ru5Rh)2
_chemical_formula_sum   'Er1 Sc1 P7 Ru10 Rh2'
_cell_volume   299.54748252
_cell_formula_units_Z   1
loop_
 _symmetry_equiv_pos_site_id
 _symmetry_equiv_pos_as_xyz
  1  'x, y, z'
loop_
 _atom_site_type_symbol
 _atom_site_label
 _atom_site_symmetry_multiplicity
 _atom_site_fract_x
 _atom_site_fract_y
 _atom_site_fract_z
 _atom_site_occupancy
  Er  Er0  1  0.329443  0.664943  0.000000  1
  Sc  Sc1  1  0.668768  0.332743  0.500000  1
  P  P2  1  0.600832  0.716465  0.500000  1
  P  P3  1  0.000275  0.001835  0.000000  1
  P  P4  1  0.278262  0.879730  0.500000  1
  P  P5  1  0.114658  0.402123  0.500000  1
  P  P6  1  0.882478  0.573747  0.000000  1
  P  P7  1  0.427614  0.303541  0.000000  1
  P  P8  1  0.697113  0.120676  0.000000  1
  Ru  Ru9  1  0.913578  0.125661  0.500000  1
  Ru  Ru10  1  0.214222  0.088026  0.500000  1
  Ru  Ru11  1  0.876374  0.792543  0.500000  1
  Ru  Ru12  1  0.723767  0.889719  0.000000  1
  Ru  Ru13  1  0.109485  0.838187  0.000000  1
  Ru  Ru14  1  0.166870  0.274528  0.000000  1
  Ru  Ru15  1  0.432540  0.067897  0.000000  1
  Ru  Ru16  1  0.933152  0.361294  0.000000  1
  Ru  Ru17  1  0.638793  0.569103  0.000000  1
  Ru  Ru18  1  0.048359  0.607641  0.500000  1
  Rh  Rh19  1  0.550785  0.943358  0.500000  1
  Rh  Rh20  1  0.392632  0.446237  0.500000  1
