# generated using pymatgen
data_Ho5TmSi10
_symmetry_space_group_name_H-M   'P 1'
_cell_length_a   6.59462900
_cell_length_b   6.59916850
_cell_length_c   8.27050318
_cell_angle_alpha   89.97985257
_cell_angle_beta   90.00000000
_cell_angle_gamma   119.97725242
_symmetry_Int_Tables_number   1
_chemical_formula_structural   Ho5TmSi10
_chemical_formula_sum   'Ho5 Tm1 Si10'
_cell_volume   311.77523654
_cell_formula_units_Z   1
loop_
 _symmetry_equiv_pos_site_id
 _symmetry_equiv_pos_as_xyz
  1  'x, y, z'
loop_
 _atom_site_type_symbol
 _atom_site_label
 _atom_site_symmetry_multiplicity
 _atom_site_fract_x
 _atom_site_fract_y
 _atom_site_fract_z
 _atom_site_occupancy
  Ho  Ho0  1  0.329996  0.000000  0.500000  1
  Ho  Ho1  1  0.669463  0.669766  0.499960  1
  Ho  Ho2  1  0.999696  0.330234  0.500040  1
  Ho  Ho3  1  0.000404  0.330533  0.999784  1
  Ho  Ho4  1  0.669871  0.669467  0.000216  1
  Tm  Tm5  1  0.330591  0.000000  0.000000  1
  Si  Si6  1  0.999887  0.999793  0.750988  1
  Si  Si7  1  0.667725  0.059901  0.751174  1
  Si  Si8  1  0.391540  0.330772  0.751414  1
  Si  Si9  1  0.940549  0.609090  0.750173  1
  Si  Si10  1  0.333332  0.666533  0.750940  1
  Si  Si11  1  0.000095  0.000207  0.249012  1
  Si  Si12  1  0.666800  0.333467  0.249060  1
  Si  Si13  1  0.331460  0.390910  0.249827  1
  Si  Si14  1  0.060768  0.669228  0.248586  1
  Si  Si15  1  0.607823  0.940099  0.248826  1
