# generated using pymatgen
data_TbYb3Al13Si5Ir6
_symmetry_space_group_name_H-M   'P 1'
_cell_length_a   7.48607512
_cell_length_b   7.45238816
_cell_length_c   9.43980035
_cell_angle_alpha   89.97859217
_cell_angle_beta   90.04998116
_cell_angle_gamma   119.86779986
_symmetry_Int_Tables_number   1
_chemical_formula_structural   TbYb3Al13Si5Ir6
_chemical_formula_sum   'Tb1 Yb3 Al13 Si5 Ir6'
_cell_volume   456.68833811
_cell_formula_units_Z   1
loop_
 _symmetry_equiv_pos_site_id
 _symmetry_equiv_pos_as_xyz
  1  'x, y, z'
loop_
 _atom_site_type_symbol
 _atom_site_label
 _atom_site_symmetry_multiplicity
 _atom_site_fract_x
 _atom_site_fract_y
 _atom_site_fract_z
 _atom_site_occupancy
  Tb  Tb0  1  0.999729  0.662439  0.253442  1
  Yb  Yb1  1  0.005491  0.341915  0.749265  1
  Yb  Yb2  1  0.674908  0.007735  0.252431  1
  Yb  Yb3  1  0.319618  0.991238  0.745156  1
  Al  Al4  1  0.129394  0.127836  0.250325  1
  Al  Al5  1  0.871206  0.872436  0.750571  1
  Al  Al6  1  0.665049  0.997193  0.577998  1
  Al  Al7  1  0.662467  0.998031  0.923826  1
  Al  Al8  1  0.339659  0.003685  0.071217  1
  Al  Al9  1  0.336463  0.334453  0.559499  1
  Al  Al10  1  0.663727  0.669250  0.439510  1
  Al  Al11  1  0.663156  0.669162  0.059298  1
  Al  Al12  1  0.336321  0.331551  0.940262  1
  Al  Al13  1  0.337277  0.546226  0.250374  1
  Al  Al14  1  0.660272  0.449545  0.750580  1
  Al  Al15  1  0.545971  0.343984  0.250143  1
  Al  Al16  1  0.453699  0.658152  0.749471  1
  Si  Si17  1  0.000952  0.326216  0.067223  1
  Si  Si18  1  0.998240  0.671168  0.931916  1
  Si  Si19  1  0.991260  0.665686  0.572885  1
  Si  Si20  1  0.340701  0.006743  0.423092  1
  Si  Si21  1  0.002974  0.327157  0.430200  1
  Ir  Ir22  1  0.688941  0.338711  0.004171  1
  Ir  Ir23  1  0.311144  0.661036  0.999784  1
  Ir  Ir24  1  0.311414  0.670579  0.499188  1
  Ir  Ir25  1  0.682475  0.331930  0.497166  1
  Ir  Ir26  1  0.000623  0.998470  0.002015  1
  Ir  Ir27  1  0.006872  0.997476  0.498997  1
