# generated using pymatgen
data_SrAl4Si2Au
_symmetry_space_group_name_H-M   'P 1'
_cell_length_a   4.21536600
_cell_length_b   4.21538952
_cell_length_c   33.22458100
_cell_angle_alpha   90.00005141
_cell_angle_beta   90.00009869
_cell_angle_gamma   120.00020137
_symmetry_Int_Tables_number   1
_chemical_formula_structural   SrAl4Si2Au
_chemical_formula_sum   'Sr3 Al12 Si6 Au3'
_cell_volume   511.28407097
_cell_formula_units_Z   3
loop_
 _symmetry_equiv_pos_site_id
 _symmetry_equiv_pos_as_xyz
  1  'x, y, z'
loop_
 _atom_site_type_symbol
 _atom_site_label
 _atom_site_symmetry_multiplicity
 _atom_site_fract_x
 _atom_site_fract_y
 _atom_site_fract_z
 _atom_site_occupancy
  Sr  Sr0  1  0.333330  0.666664  0.166668  1
  Sr  Sr1  1  0.999997  0.999998  0.499998  1
  Sr  Sr2  1  0.666663  0.333331  0.833329  1
  Al  Al3  1  0.666664  0.333331  0.027603  1
  Al  Al4  1  0.999998  0.999999  0.080100  1
  Al  Al5  1  0.666664  0.333332  0.253250  1
  Al  Al6  1  0.000014  0.000010  0.305752  1
  Al  Al7  1  0.333347  0.666675  0.360905  1
  Al  Al8  1  0.666651  0.333326  0.413403  1
  Al  Al9  1  0.333340  0.666670  0.586608  1
  Al  Al10  1  0.666676  0.333337  0.639102  1
  Al  Al11  1  0.000008  0.000003  0.694238  1
  Al  Al12  1  0.333334  0.666667  0.746746  1
  Al  Al13  1  0.999995  0.999996  0.919910  1
  Al  Al14  1  0.333330  0.666665  0.972413  1
  Si  Si15  1  0.666663  0.333331  0.104490  1
  Si  Si16  1  0.999997  0.999999  0.228860  1
  Si  Si17  1  0.333321  0.666660  0.437823  1
  Si  Si18  1  0.666676  0.333338  0.562176  1
  Si  Si19  1  0.999998  0.999998  0.771151  1
  Si  Si20  1  0.333320  0.666656  0.895505  1
  Au  Au21  1  0.999996  0.999997  0.999999  1
  Au  Au22  1  0.666679  0.333342  0.333349  1
  Au  Au23  1  0.333338  0.666668  0.666653  1
