# generated using pymatgen
data_LaYbPr5OsBr12
_symmetry_space_group_name_H-M   'P 1'
_cell_length_a   9.51582000
_cell_length_b   9.80580877
_cell_length_c   9.82192501
_cell_angle_alpha   107.67542448
_cell_angle_beta   107.18636356
_cell_angle_gamma   106.92942023
_symmetry_Int_Tables_number   1
_chemical_formula_structural   LaYbPr5OsBr12
_chemical_formula_sum   'La1 Yb1 Pr5 Os1 Br12'
_cell_volume   757.67518477
_cell_formula_units_Z   1
loop_
 _symmetry_equiv_pos_site_id
 _symmetry_equiv_pos_as_xyz
  1  'x, y, z'
loop_
 _atom_site_type_symbol
 _atom_site_label
 _atom_site_symmetry_multiplicity
 _atom_site_fract_x
 _atom_site_fract_y
 _atom_site_fract_z
 _atom_site_occupancy
  La  La0  1  0.700259  0.897453  0.974502  1
  Yb  Yb1  1  0.500163  0.499909  0.499780  1
  Pr  Pr2  1  0.302013  0.103560  0.025782  1
  Pr  Pr3  1  0.024304  0.321365  0.112717  1
  Pr  Pr4  1  0.115197  0.027555  0.321568  1
  Pr  Pr5  1  0.885555  0.972594  0.678793  1
  Pr  Pr6  1  0.975475  0.678785  0.887132  1
  Os  Os7  1  0.992340  0.997384  0.999832  1
  Br  Br8  1  0.681010  0.217386  0.067546  1
  Br  Br9  1  0.378854  0.456002  0.174276  1
  Br  Br10  1  0.068998  0.684771  0.212926  1
  Br  Br11  1  0.787575  0.933222  0.317670  1
  Br  Br12  1  0.464263  0.175737  0.380083  1
  Br  Br13  1  0.169045  0.377316  0.459006  1
  Br  Br14  1  0.831540  0.622756  0.541012  1
  Br  Br15  1  0.535176  0.823368  0.616085  1
  Br  Br16  1  0.214951  0.067891  0.686581  1
  Br  Br17  1  0.931513  0.315401  0.787049  1
  Br  Br18  1  0.621174  0.540380  0.823561  1
  Br  Br19  1  0.320598  0.787172  0.934101  1
