# generated using pymatgen
data_Dy7Er5(ThSn2)8
_symmetry_space_group_name_H-M   'P 1'
_cell_length_a   8.11667519
_cell_length_b   8.22653150
_cell_length_c   15.55747500
_cell_angle_alpha   90.00054325
_cell_angle_beta   90.01243094
_cell_angle_gamma   89.97994835
_symmetry_Int_Tables_number   1
_chemical_formula_structural   Dy7Er5(ThSn2)8
_chemical_formula_sum   'Dy7 Er5 Th8 Sn16'
_cell_volume   1038.80494203
_cell_formula_units_Z   1
loop_
 _symmetry_equiv_pos_site_id
 _symmetry_equiv_pos_as_xyz
  1  'x, y, z'
loop_
 _atom_site_type_symbol
 _atom_site_label
 _atom_site_symmetry_multiplicity
 _atom_site_fract_x
 _atom_site_fract_y
 _atom_site_fract_z
 _atom_site_occupancy
  Dy  Dy0  1  0.362269  0.836985  0.876330  1
  Dy  Dy1  1  0.862248  0.663156  0.623862  1
  Dy  Dy2  1  0.637806  0.163074  0.376247  1
  Dy  Dy3  1  0.137766  0.336849  0.123709  1
  Dy  Dy4  1  0.637877  0.163128  0.123462  1
  Dy  Dy5  1  0.137808  0.336884  0.376230  1
  Dy  Dy6  1  0.362137  0.836829  0.623905  1
  Er  Er7  1  0.862155  0.662976  0.876080  1
  Er  Er8  1  0.191257  0.497893  0.750192  1
  Er  Er9  1  0.691545  0.002116  0.750181  1
  Er  Er10  1  0.808512  0.502305  0.249891  1
  Er  Er11  1  0.308656  0.997777  0.249978  1
  Th  Th12  1  0.519576  0.320763  0.903402  1
  Th  Th13  1  0.019385  0.179353  0.596640  1
  Th  Th14  1  0.480545  0.679360  0.403371  1
  Th  Th15  1  0.980466  0.820514  0.096423  1
  Th  Th16  1  0.480375  0.679424  0.096586  1
  Th  Th17  1  0.980581  0.820604  0.403388  1
  Th  Th18  1  0.519555  0.320712  0.596630  1
  Th  Th19  1  0.019467  0.179378  0.903408  1
  Sn  Sn20  1  0.297843  0.038931  0.042313  1
  Sn  Sn21  1  0.798077  0.461034  0.457622  1
  Sn  Sn22  1  0.701904  0.961048  0.542623  1
  Sn  Sn23  1  0.200995  0.539371  0.957280  1
  Sn  Sn24  1  0.702674  0.959939  0.957328  1
  Sn  Sn25  1  0.202074  0.538879  0.542602  1
  Sn  Sn26  1  0.297972  0.038919  0.457705  1
  Sn  Sn27  1  0.798059  0.461574  0.041730  1
  Sn  Sn28  1  0.557499  0.621683  0.750412  1
  Sn  Sn29  1  0.056601  0.877895  0.750513  1
  Sn  Sn30  1  0.443065  0.378490  0.249864  1
  Sn  Sn31  1  0.943042  0.121467  0.249922  1
  Sn  Sn32  1  0.325619  0.143312  0.750041  1
  Sn  Sn33  1  0.825716  0.357192  0.750236  1
  Sn  Sn34  1  0.674422  0.856863  0.249951  1
  Sn  Sn35  1  0.174454  0.643325  0.249943  1
