# generated using pymatgen
data_Y5V3(P3Rh4)4
_symmetry_space_group_name_H-M   'P 1'
_cell_length_a   12.69879400
_cell_length_b   12.69879383
_cell_length_c   3.90916800
_cell_angle_alpha   90.00000000
_cell_angle_beta   90.00000000
_cell_angle_gamma   120.00000045
_symmetry_Int_Tables_number   1
_chemical_formula_structural   Y5V3(P3Rh4)4
_chemical_formula_sum   'Y5 V3 P12 Rh16'
_cell_volume   545.93371416
_cell_formula_units_Z   1
loop_
 _symmetry_equiv_pos_site_id
 _symmetry_equiv_pos_as_xyz
  1  'x, y, z'
loop_
 _atom_site_type_symbol
 _atom_site_label
 _atom_site_symmetry_multiplicity
 _atom_site_fract_x
 _atom_site_fract_y
 _atom_site_fract_z
 _atom_site_occupancy
  Y  Y0  1  0.189075  0.189075  0.500000  1
  Y  Y1  1  0.810925  0.000000  0.500000  1
  Y  Y2  1  0.000000  0.810925  0.500000  1
  Y  Y3  1  0.333333  0.666667  0.000000  1
  Y  Y4  1  0.666667  0.333333  0.000000  1
  V  V5  1  0.550825  0.550825  0.000000  1
  V  V6  1  0.449175  0.000000  0.000000  1
  V  V7  1  0.000000  0.449175  0.000000  1
  P  P8  1  0.822654  0.822654  0.000000  1
  P  P9  1  0.177346  0.000000  0.000000  1
  P  P10  1  0.000000  0.177346  0.000000  1
  P  P11  1  0.164813  0.482724  0.500000  1
  P  P12  1  0.517276  0.682088  0.500000  1
  P  P13  1  0.317912  0.835187  0.500000  1
  P  P14  1  0.682088  0.517276  0.500000  1
  P  P15  1  0.835187  0.317912  0.500000  1
  P  P16  1  0.482724  0.164813  0.500000  1
  P  P17  1  0.365595  0.365595  0.000000  1
  P  P18  1  0.634405  0.000000  0.000000  1
  P  P19  1  0.000000  0.634405  0.000000  1
  Rh  Rh20  1  0.716800  0.716800  0.500000  1
  Rh  Rh21  1  0.283200  0.000000  0.500000  1
  Rh  Rh22  1  0.000000  0.283200  0.500000  1
  Rh  Rh23  1  0.177418  0.376385  0.000000  1
  Rh  Rh24  1  0.623615  0.801033  0.000000  1
  Rh  Rh25  1  0.198967  0.822582  0.000000  1
  Rh  Rh26  1  0.801033  0.623615  0.000000  1
  Rh  Rh27  1  0.822582  0.198967  0.000000  1
  Rh  Rh28  1  0.376385  0.177418  0.000000  1
  Rh  Rh29  1  0.356929  0.486946  0.500000  1
  Rh  Rh30  1  0.513054  0.869984  0.500000  1
  Rh  Rh31  1  0.130016  0.643071  0.500000  1
  Rh  Rh32  1  0.869984  0.513054  0.500000  1
  Rh  Rh33  1  0.643071  0.130016  0.500000  1
  Rh  Rh34  1  0.486946  0.356929  0.500000  1
  Rh  Rh35  1  0.000000  0.000000  0.000000  1
