# generated using pymatgen
data_Ce3MgZn2OsAu2
_symmetry_space_group_name_H-M   'P 1'
_cell_length_a   7.51183376
_cell_length_b   7.47425792
_cell_length_c   4.01869300
_cell_angle_alpha   90.00000000
_cell_angle_beta   90.00000000
_cell_angle_gamma   120.05148874
_symmetry_Int_Tables_number   1
_chemical_formula_structural   Ce3MgZn2OsAu2
_chemical_formula_sum   'Ce3 Mg1 Zn2 Os1 Au2'
_cell_volume   195.30076744
_cell_formula_units_Z   1
loop_
 _symmetry_equiv_pos_site_id
 _symmetry_equiv_pos_as_xyz
  1  'x, y, z'
loop_
 _atom_site_type_symbol
 _atom_site_label
 _atom_site_symmetry_multiplicity
 _atom_site_fract_x
 _atom_site_fract_y
 _atom_site_fract_z
 _atom_site_occupancy
  Ce  Ce0  1  0.026352  0.589042  0.000000  1
  Ce  Ce1  1  0.398423  0.419673  0.000000  1
  Ce  Ce2  1  0.567118  0.983182  0.000000  1
  Mg  Mg3  1  0.759782  0.758499  0.500000  1
  Zn  Zn4  1  0.999982  0.249803  0.500000  1
  Zn  Zn5  1  0.249964  0.997579  0.500000  1
  Os  Os6  1  0.329674  0.664426  0.500000  1
  Au  Au7  1  0.002051  0.002195  0.000000  1
  Au  Au8  1  0.666653  0.335600  0.500000  1
