# generated using pymatgen
data_Nd20Ga3Si8Ir
_symmetry_space_group_name_H-M   'P 1'
_cell_length_a   7.87269337
_cell_length_b   7.87125773
_cell_length_c   14.45872400
_cell_angle_alpha   89.63548137
_cell_angle_beta   89.79709490
_cell_angle_gamma   90.42652572
_symmetry_Int_Tables_number   1
_chemical_formula_structural   Nd20Ga3Si8Ir
_chemical_formula_sum   'Nd20 Ga3 Si8 Ir1'
_cell_volume   895.92945884
_cell_formula_units_Z   1
loop_
 _symmetry_equiv_pos_site_id
 _symmetry_equiv_pos_as_xyz
  1  'x, y, z'
loop_
 _atom_site_type_symbol
 _atom_site_label
 _atom_site_symmetry_multiplicity
 _atom_site_fract_x
 _atom_site_fract_y
 _atom_site_fract_z
 _atom_site_occupancy
  Nd  Nd0  1  0.817636  0.830580  0.605344  1
  Nd  Nd1  1  0.182420  0.832602  0.106094  1
  Nd  Nd2  1  0.166323  0.813278  0.396112  1
  Nd  Nd3  1  0.000439  0.498394  0.728248  1
  Nd  Nd4  1  0.834183  0.195084  0.389566  1
  Nd  Nd5  1  0.679581  0.659641  0.390993  1
  Nd  Nd6  1  0.674635  0.318362  0.608661  1
  Nd  Nd7  1  0.327541  0.681796  0.607306  1
  Nd  Nd8  1  0.996820  0.495666  0.225947  1
  Nd  Nd9  1  0.662753  0.677080  0.112118  1
  Nd  Nd10  1  0.685399  0.329789  0.889467  1
  Nd  Nd11  1  0.833016  0.812704  0.892004  1
  Nd  Nd12  1  0.318374  0.337812  0.389788  1
  Nd  Nd13  1  0.183768  0.172120  0.605793  1
  Nd  Nd14  1  0.809289  0.167613  0.111344  1
  Nd  Nd15  1  0.316540  0.667423  0.890873  1
  Nd  Nd16  1  0.338862  0.322343  0.110328  1
  Nd  Nd17  1  0.505590  0.005265  0.274301  1
  Nd  Nd18  1  0.164929  0.185972  0.892183  1
  Nd  Nd19  1  0.501159  0.999021  0.772167  1
  Ga  Ga20  1  0.498993  0.999470  0.495240  1
  Ga  Ga21  1  0.498394  0.999272  0.994017  1
  Ga  Ga22  1  0.000595  0.500911  0.005011  1
  Si  Si23  1  0.115128  0.885538  0.748479  1
  Si  Si24  1  0.386007  0.384996  0.748412  1
  Si  Si25  1  0.380203  0.619452  0.251494  1
  Si  Si26  1  0.888931  0.882762  0.252864  1
  Si  Si27  1  0.613863  0.615622  0.748187  1
  Si  Si28  1  0.999127  0.502130  0.508068  1
  Si  Si29  1  0.885782  0.113280  0.748630  1
  Si  Si30  1  0.117249  0.111218  0.249950  1
  Ir  Ir31  1  0.616473  0.382801  0.251013  1
