# generated using pymatgen
data_Cs2Li3AlO4
_symmetry_space_group_name_H-M   'P 1'
_cell_length_a   8.21209363
_cell_length_b   8.21209455
_cell_length_c   8.21209416
_cell_angle_alpha   144.23336775
_cell_angle_beta   104.98225253
_cell_angle_gamma   85.99037035
_symmetry_Int_Tables_number   1
_chemical_formula_structural   Cs2Li3AlO4
_chemical_formula_sum   'Cs4 Li6 Al2 O8'
_cell_volume   302.94853045
_cell_formula_units_Z   2
loop_
 _symmetry_equiv_pos_site_id
 _symmetry_equiv_pos_as_xyz
  1  'x, y, z'
loop_
 _atom_site_type_symbol
 _atom_site_label
 _atom_site_symmetry_multiplicity
 _atom_site_fract_x
 _atom_site_fract_y
 _atom_site_fract_z
 _atom_site_occupancy
  Cs  Cs0  1  0.372351  0.238209  0.610561  1
  Cs  Cs1  1  0.627649  0.761791  0.389439  1
  Cs  Cs2  1  0.872351  0.261791  0.134142  1
  Cs  Cs3  1  0.127649  0.738209  0.865858  1
  Li  Li4  1  0.490156  0.750000  0.740156  1
  Li  Li5  1  0.990156  0.250000  0.740156  1
  Li  Li6  1  0.009844  0.750000  0.259844  1
  Li  Li7  1  0.250000  0.750000  0.500000  1
  Li  Li8  1  0.509844  0.250000  0.259844  1
  Li  Li9  1  0.750000  0.250000  0.500000  1
  Al  Al10  1  0.750000  0.750000  0.000000  1
  Al  Al11  1  0.250000  0.250000  0.000000  1
  O  O12  1  0.065556  0.956026  0.664356  1
  O  O13  1  0.208330  0.543974  0.109530  1
  O  O14  1  0.791670  0.456026  0.890470  1
  O  O15  1  0.565556  0.901199  0.109530  1
  O  O16  1  0.934444  0.043974  0.335644  1
  O  O17  1  0.708330  0.598801  0.664356  1
  O  O18  1  0.434444  0.098801  0.890470  1
  O  O19  1  0.291670  0.401199  0.335644  1
