# generated using pymatgen
data_Pr6P13(Ir2Rh3)4
_symmetry_space_group_name_H-M   'P 1'
_cell_length_a   13.48584700
_cell_length_b   13.48584530
_cell_length_c   4.01690900
_cell_angle_alpha   90.00000000
_cell_angle_beta   90.00000000
_cell_angle_gamma   119.99999680
_symmetry_Int_Tables_number   1
_chemical_formula_structural   Pr6P13(Ir2Rh3)4
_chemical_formula_sum   'Pr6 P13 Ir8 Rh12'
_cell_volume   632.67262093
_cell_formula_units_Z   1
loop_
 _symmetry_equiv_pos_site_id
 _symmetry_equiv_pos_as_xyz
  1  'x, y, z'
loop_
 _atom_site_type_symbol
 _atom_site_label
 _atom_site_symmetry_multiplicity
 _atom_site_fract_x
 _atom_site_fract_y
 _atom_site_fract_z
 _atom_site_occupancy
  Pr  Pr0  1  0.529734  0.717581  0.246903  1
  Pr  Pr1  1  0.282419  0.812153  0.246903  1
  Pr  Pr2  1  0.187847  0.470266  0.246903  1
  Pr  Pr3  1  0.469609  0.283105  0.752884  1
  Pr  Pr4  1  0.716895  0.186503  0.752884  1
  Pr  Pr5  1  0.813497  0.530391  0.752884  1
  P  P6  1  0.521787  0.136684  0.251250  1
  P  P7  1  0.863316  0.385104  0.251250  1
  P  P8  1  0.614896  0.478213  0.251250  1
  P  P9  1  0.948359  0.718854  0.256268  1
  P  P10  1  0.281146  0.229505  0.256268  1
  P  P11  1  0.770495  0.051641  0.256268  1
  P  P12  1  0.386432  0.522770  0.749075  1
  P  P13  1  0.477230  0.863661  0.749075  1
  P  P14  1  0.136339  0.613568  0.749075  1
  P  P15  1  0.718310  0.770328  0.744751  1
  P  P16  1  0.229672  0.947983  0.744751  1
  P  P17  1  0.052017  0.281690  0.744751  1
  P  P18  1  0.000000  0.000000  0.999124  1
  Ir  Ir19  1  0.333333  0.666667  0.750379  1
  Ir  Ir20  1  0.922938  0.248144  0.256089  1
  Ir  Ir21  1  0.751856  0.674794  0.256089  1
  Ir  Ir22  1  0.325206  0.077062  0.256089  1
  Ir  Ir23  1  0.439039  0.024934  0.752344  1
  Ir  Ir24  1  0.975066  0.414107  0.752344  1
  Ir  Ir25  1  0.585893  0.560961  0.752344  1
  Ir  Ir26  1  0.666667  0.333333  0.249370  1
  Rh  Rh27  1  0.092713  0.183250  0.245564  1
  Rh  Rh28  1  0.816750  0.909461  0.245564  1
  Rh  Rh29  1  0.090539  0.907287  0.245564  1
  Rh  Rh30  1  0.024781  0.585455  0.247612  1
  Rh  Rh31  1  0.414545  0.439323  0.247612  1
  Rh  Rh32  1  0.560677  0.975219  0.247612  1
  Rh  Rh33  1  0.674295  0.922919  0.742846  1
  Rh  Rh34  1  0.077081  0.751376  0.742846  1
  Rh  Rh35  1  0.248624  0.325705  0.742846  1
  Rh  Rh36  1  0.905841  0.814556  0.754789  1
  Rh  Rh37  1  0.185444  0.091286  0.754789  1
  Rh  Rh38  1  0.908714  0.094159  0.754789  1
