# generated using pymatgen
data_Ho2Al16Pt9
_symmetry_space_group_name_H-M   'P 1'
_cell_length_a   11.15232353
_cell_length_b   11.15232405
_cell_length_c   11.15232389
_cell_angle_alpha   158.63291886
_cell_angle_beta   115.08716914
_cell_angle_gamma   69.19050385
_symmetry_Int_Tables_number   1
_chemical_formula_structural   Ho2Al16Pt9
_chemical_formula_sum   'Ho2 Al16 Pt9'
_cell_volume   454.38424520
_cell_formula_units_Z   1
loop_
 _symmetry_equiv_pos_site_id
 _symmetry_equiv_pos_as_xyz
  1  'x, y, z'
loop_
 _atom_site_type_symbol
 _atom_site_label
 _atom_site_symmetry_multiplicity
 _atom_site_fract_x
 _atom_site_fract_y
 _atom_site_fract_z
 _atom_site_occupancy
  Ho  Ho0  1  0.228227  0.228227  0.000000  1
  Ho  Ho1  1  0.771773  0.771773  0.000000  1
  Al  Al2  1  0.271596  0.391354  0.880242  1
  Al  Al3  1  0.091699  0.920182  0.171517  1
  Al  Al4  1  0.513044  0.204277  0.308767  1
  Al  Al5  1  0.251335  0.079818  0.171517  1
  Al  Al6  1  0.912798  0.412798  0.500000  1
  Al  Al7  1  0.728404  0.608646  0.119758  1
  Al  Al8  1  0.895510  0.204277  0.691233  1
  Al  Al9  1  0.486956  0.795723  0.691233  1
  Al  Al10  1  0.385879  0.000000  0.385879  1
  Al  Al11  1  0.614121  0.000000  0.614121  1
  Al  Al12  1  0.488888  0.608646  0.880242  1
  Al  Al13  1  0.104490  0.795723  0.308767  1
  Al  Al14  1  0.908301  0.079818  0.828483  1
  Al  Al15  1  0.748665  0.920182  0.828483  1
  Al  Al16  1  0.511112  0.391354  0.119758  1
  Al  Al17  1  0.087202  0.587202  0.500000  1
  Pt  Pt18  1  0.748441  0.500000  0.248441  1
  Pt  Pt19  1  0.022421  0.339065  0.683356  1
  Pt  Pt20  1  0.626638  0.126638  0.500000  1
  Pt  Pt21  1  0.251559  0.500000  0.751559  1
  Pt  Pt22  1  0.373362  0.873362  0.500000  1
  Pt  Pt23  1  0.000000  0.000000  0.000000  1
  Pt  Pt24  1  0.655710  0.339065  0.316644  1
  Pt  Pt25  1  0.344290  0.660935  0.683356  1
  Pt  Pt26  1  0.977579  0.660935  0.316644  1
