# generated using pymatgen
data_Dy3PaGa12Os
_symmetry_space_group_name_H-M   'P 1'
_cell_length_a   7.49505869
_cell_length_b   7.49505818
_cell_length_c   7.40196400
_cell_angle_alpha   109.21980374
_cell_angle_beta   109.21980237
_cell_angle_gamma   109.72145824
_symmetry_Int_Tables_number   1
_chemical_formula_structural   Dy3PaGa12Os
_chemical_formula_sum   'Dy3 Pa1 Ga12 Os1'
_cell_volume   321.08003227
_cell_formula_units_Z   1
loop_
 _symmetry_equiv_pos_site_id
 _symmetry_equiv_pos_as_xyz
  1  'x, y, z'
loop_
 _atom_site_type_symbol
 _atom_site_label
 _atom_site_symmetry_multiplicity
 _atom_site_fract_x
 _atom_site_fract_y
 _atom_site_fract_z
 _atom_site_occupancy
  Dy  Dy0  1  0.000000  0.500000  0.000000  1
  Dy  Dy1  1  0.500000  0.000000  0.000000  1
  Dy  Dy2  1  0.500000  0.500000  0.500000  1
  Pa  Pa3  1  0.000000  0.000000  0.500000  1
  Ga  Ga4  1  0.750608  0.249392  0.500000  1
  Ga  Ga5  1  0.750608  0.501217  0.250608  1
  Ga  Ga6  1  0.498783  0.249392  0.749392  1
  Ga  Ga7  1  0.249392  0.498783  0.749392  1
  Ga  Ga8  1  0.249392  0.750608  0.500000  1
  Ga  Ga9  1  0.501217  0.750608  0.250608  1
  Ga  Ga10  1  0.708893  0.708893  0.001928  1
  Ga  Ga11  1  0.291107  0.000000  0.293036  1
  Ga  Ga12  1  0.000000  0.291107  0.293036  1
  Ga  Ga13  1  0.291107  0.291107  0.998072  1
  Ga  Ga14  1  0.708893  0.000000  0.706964  1
  Ga  Ga15  1  0.000000  0.708893  0.706964  1
  Os  Os16  1  0.000000  0.000000  0.000000  1
