# generated using pymatgen
data_Sr4ScTiFeIrO12
_symmetry_space_group_name_H-M   'P 1'
_cell_length_a   5.62688676
_cell_length_b   5.60084872
_cell_length_c   7.94989000
_cell_angle_alpha   90.40319196
_cell_angle_beta   90.06624737
_cell_angle_gamma   89.99227064
_symmetry_Int_Tables_number   1
_chemical_formula_structural   Sr4ScTiFeIrO12
_chemical_formula_sum   'Sr4 Sc1 Ti1 Fe1 Ir1 O12'
_cell_volume   250.53712550
_cell_formula_units_Z   1
loop_
 _symmetry_equiv_pos_site_id
 _symmetry_equiv_pos_as_xyz
  1  'x, y, z'
loop_
 _atom_site_type_symbol
 _atom_site_label
 _atom_site_symmetry_multiplicity
 _atom_site_fract_x
 _atom_site_fract_y
 _atom_site_fract_z
 _atom_site_occupancy
  Sr  Sr0  1  0.498059  0.490901  0.266996  1
  Sr  Sr1  1  0.997185  0.990654  0.266886  1
  Sr  Sr2  1  0.002850  0.009293  0.733094  1
  Sr  Sr3  1  0.501993  0.509068  0.733009  1
  Sc  Sc4  1  0.499987  0.000063  0.000093  1
  Ti  Ti5  1  0.500011  0.999916  0.500031  1
  Fe  Fe6  1  0.999836  0.500074  0.499653  1
  Ir  Ir7  1  0.000013  0.499983  0.999990  1
  O  O8  1  0.199830  0.219254  0.024539  1
  O  O9  1  0.279319  0.701174  0.025267  1
  O  O10  1  0.542743  0.003293  0.256269  1
  O  O11  1  0.951412  0.505356  0.242423  1
  O  O12  1  0.253945  0.747558  0.479622  1
  O  O13  1  0.247932  0.245828  0.480002  1
  O  O14  1  0.752110  0.754119  0.519940  1
  O  O15  1  0.746037  0.252408  0.520347  1
  O  O16  1  0.048559  0.494662  0.757537  1
  O  O17  1  0.457302  0.996734  0.743798  1
  O  O18  1  0.720688  0.298858  0.974896  1
  O  O19  1  0.800193  0.780807  0.975608  1
