# generated using pymatgen
data_Rb8SnGeSe8
_symmetry_space_group_name_H-M   'P 1'
_cell_length_a   8.98872535
_cell_length_b   10.58194200
_cell_length_c   15.73388400
_cell_angle_alpha   90.00000000
_cell_angle_beta   89.68325886
_cell_angle_gamma   90.00000000
_symmetry_Int_Tables_number   1
_chemical_formula_structural   Rb8SnGeSe8
_chemical_formula_sum   'Rb16 Sn2 Ge2 Se16'
_cell_volume   1496.55538982
_cell_formula_units_Z   2
loop_
 _symmetry_equiv_pos_site_id
 _symmetry_equiv_pos_as_xyz
  1  'x, y, z'
loop_
 _atom_site_type_symbol
 _atom_site_label
 _atom_site_symmetry_multiplicity
 _atom_site_fract_x
 _atom_site_fract_y
 _atom_site_fract_z
 _atom_site_occupancy
  Rb  Rb0  1  0.000000  0.000000  0.000000  1
  Rb  Rb1  1  0.500000  0.000000  0.500000  1
  Rb  Rb2  1  0.000000  0.500000  0.000000  1
  Rb  Rb3  1  0.500000  0.500000  0.500000  1
  Rb  Rb4  1  0.978773  0.750000  0.426557  1
  Rb  Rb5  1  0.475634  0.250000  0.073818  1
  Rb  Rb6  1  0.021227  0.250000  0.573443  1
  Rb  Rb7  1  0.524366  0.750000  0.926182  1
  Rb  Rb8  1  0.842884  0.051198  0.275093  1
  Rb  Rb9  1  0.343319  0.956754  0.227984  1
  Rb  Rb10  1  0.157116  0.551198  0.724907  1
  Rb  Rb11  1  0.656681  0.456754  0.772016  1
  Rb  Rb12  1  0.157116  0.948802  0.724907  1
  Rb  Rb13  1  0.656681  0.043246  0.772016  1
  Rb  Rb14  1  0.842884  0.448802  0.275093  1
  Rb  Rb15  1  0.343319  0.543246  0.227984  1
  Sn  Sn16  1  0.740533  0.750000  0.165762  1
  Sn  Sn17  1  0.259467  0.250000  0.834238  1
  Ge  Ge18  1  0.762240  0.750000  0.664187  1
  Ge  Ge19  1  0.237760  0.250000  0.335813  1
  Se  Se20  1  0.972526  0.250000  0.826317  1
  Se  Se21  1  0.507575  0.250000  0.326281  1
  Se  Se22  1  0.492425  0.750000  0.673719  1
  Se  Se23  1  0.027474  0.750000  0.173683  1
  Se  Se24  1  0.652480  0.551345  0.088287  1
  Se  Se25  1  0.153304  0.435837  0.409007  1
  Se  Se26  1  0.347520  0.051345  0.911713  1
  Se  Se27  1  0.846696  0.935837  0.590993  1
  Se  Se28  1  0.347520  0.448655  0.911713  1
  Se  Se29  1  0.846696  0.564163  0.590993  1
  Se  Se30  1  0.652480  0.948655  0.088287  1
  Se  Se31  1  0.153304  0.064163  0.409007  1
  Se  Se32  1  0.631506  0.750000  0.318483  1
  Se  Se33  1  0.136303  0.250000  0.192719  1
  Se  Se34  1  0.368494  0.250000  0.681517  1
  Se  Se35  1  0.863697  0.750000  0.807281  1
