# generated using pymatgen
data_CaLuInS4
_symmetry_space_group_name_H-M   'P 1'
_cell_length_a   13.78515000
_cell_length_b   8.01196300
_cell_length_c   6.55496300
_cell_angle_alpha   90.00000000
_cell_angle_beta   90.00000000
_cell_angle_gamma   90.00000000
_symmetry_Int_Tables_number   1
_chemical_formula_structural   CaLuInS4
_chemical_formula_sum   'Ca4 Lu4 In4 S16'
_cell_volume   723.97017601
_cell_formula_units_Z   4
loop_
 _symmetry_equiv_pos_site_id
 _symmetry_equiv_pos_as_xyz
  1  'x, y, z'
loop_
 _atom_site_type_symbol
 _atom_site_label
 _atom_site_symmetry_multiplicity
 _atom_site_fract_x
 _atom_site_fract_y
 _atom_site_fract_z
 _atom_site_occupancy
  Ca  Ca0  1  0.730982  0.750000  0.008090  1
  Ca  Ca1  1  0.230982  0.750000  0.491909  1
  Ca  Ca2  1  0.769019  0.250000  0.508091  1
  Ca  Ca3  1  0.269018  0.250000  0.991910  1
  Lu  Lu4  1  0.000000  0.000000  0.000000  1
  Lu  Lu5  1  0.000000  0.499999  0.000000  1
  Lu  Lu6  1  0.500000  0.000000  0.500001  1
  Lu  Lu7  1  0.500000  0.499999  0.500001  1
  In  In8  1  0.591953  0.250000  0.085238  1
  In  In9  1  0.091953  0.250000  0.414761  1
  In  In10  1  0.908048  0.750000  0.585239  1
  In  In11  1  0.408047  0.750000  0.914760  1
  S  S12  1  0.914963  0.750000  0.212480  1
  S  S13  1  0.162854  0.008178  0.232088  1
  S  S14  1  0.162854  0.491822  0.232088  1
  S  S15  1  0.929305  0.250000  0.233840  1
  S  S16  1  0.429305  0.250000  0.266161  1
  S  S17  1  0.662854  0.008178  0.267913  1
  S  S18  1  0.662854  0.491822  0.267913  1
  S  S19  1  0.414964  0.750000  0.287520  1
  S  S20  1  0.585037  0.250000  0.712481  1
  S  S21  1  0.337145  0.508179  0.732088  1
  S  S22  1  0.337145  0.991821  0.732088  1
  S  S23  1  0.570696  0.750000  0.733841  1
  S  S24  1  0.070696  0.750000  0.766161  1
  S  S25  1  0.837146  0.508179  0.767912  1
  S  S26  1  0.837146  0.991821  0.767912  1
  S  S27  1  0.085037  0.250000  0.787520  1
