# generated using pymatgen
data_Yb2Tm2LuRu2
_symmetry_space_group_name_H-M   'P 1'
_cell_length_a   6.35854997
_cell_length_b   7.19969914
_cell_length_c   8.43613730
_cell_angle_alpha   97.48744680
_cell_angle_beta   112.13956269
_cell_angle_gamma   89.99999207
_symmetry_Int_Tables_number   1
_chemical_formula_structural   Yb2Tm2LuRu2
_chemical_formula_sum   'Yb4 Tm4 Lu2 Ru4'
_cell_volume   354.17043713
_cell_formula_units_Z   2
loop_
 _symmetry_equiv_pos_site_id
 _symmetry_equiv_pos_as_xyz
  1  'x, y, z'
loop_
 _atom_site_type_symbol
 _atom_site_label
 _atom_site_symmetry_multiplicity
 _atom_site_fract_x
 _atom_site_fract_y
 _atom_site_fract_z
 _atom_site_occupancy
  Yb  Yb0  1  0.523021  0.079212  0.816185  1
  Yb  Yb1  1  0.476979  0.920788  0.183815  1
  Yb  Yb2  1  0.706836  0.420788  0.183815  1
  Yb  Yb3  1  0.293164  0.579212  0.816185  1
  Tm  Tm4  1  0.303558  0.315370  0.432894  1
  Tm  Tm5  1  0.696442  0.684630  0.567106  1
  Tm  Tm6  1  0.870665  0.184630  0.567106  1
  Tm  Tm7  1  0.129335  0.815370  0.432894  1
  Lu  Lu8  1  0.069600  0.250000  0.000000  1
  Lu  Lu9  1  0.930400  0.750000  0.000000  1
  Ru  Ru10  1  0.313579  0.575304  0.230388  1
  Ru  Ru11  1  0.686421  0.424696  0.769612  1
  Ru  Ru12  1  0.083192  0.924696  0.769612  1
  Ru  Ru13  1  0.916808  0.075304  0.230388  1
