# generated using pymatgen
data_Pr6IrPtBr6
_symmetry_space_group_name_H-M   'P 1'
_cell_length_a   10.67520809
_cell_length_b   10.67425995
_cell_length_c   10.55867150
_cell_angle_alpha   109.45515732
_cell_angle_beta   109.45856708
_cell_angle_gamma   109.94268129
_symmetry_Int_Tables_number   1
_chemical_formula_structural   Pr6IrPtBr6
_chemical_formula_sum   'Pr12 Ir2 Pt2 Br12'
_cell_volume   921.08097084
_cell_formula_units_Z   2
loop_
 _symmetry_equiv_pos_site_id
 _symmetry_equiv_pos_as_xyz
  1  'x, y, z'
loop_
 _atom_site_type_symbol
 _atom_site_label
 _atom_site_symmetry_multiplicity
 _atom_site_fract_x
 _atom_site_fract_y
 _atom_site_fract_z
 _atom_site_occupancy
  Pr  Pr0  1  0.469016  0.487465  0.232344  1
  Pr  Pr1  1  0.755105  0.236678  0.267640  1
  Pr  Pr2  1  0.755388  0.017671  0.488115  1
  Pr  Pr3  1  0.232728  0.470450  0.488121  1
  Pr  Pr4  1  0.263330  0.744883  0.232343  1
  Pr  Pr5  1  0.029573  0.267289  0.011882  1
  Pr  Pr6  1  0.012532  0.030959  0.267640  1
  Pr  Pr7  1  0.482309  0.744598  0.011887  1
  Pr  Pr8  1  0.485706  0.235701  0.471406  1
  Pr  Pr9  1  0.015592  0.484424  0.750013  1
  Pr  Pr10  1  0.264300  0.014295  0.028596  1
  Pr  Pr11  1  0.234422  0.265587  0.750013  1
  Ir  Ir12  1  0.000411  0.250411  0.500823  1
  Ir  Ir13  1  0.249591  0.499590  0.999180  1
  Pt  Pt14  1  0.249675  0.250328  0.249996  1
  Pt  Pt15  1  0.500323  0.999668  0.249997  1
  Br  Br16  1  0.250565  0.755300  0.746626  1
  Br  Br17  1  0.508675  0.503939  0.753374  1
  Br  Br18  1  0.993007  0.747053  0.996812  1
  Br  Br19  1  0.744700  0.249435  0.753374  1
  Br  Br20  1  0.996062  0.991326  0.746627  1
  Br  Br21  1  0.250241  0.996196  0.503185  1
  Br  Br22  1  0.752947  0.506992  0.503188  1
  Br  Br23  1  0.503805  0.249759  0.996815  1
  Br  Br24  1  0.753947  0.746054  0.250000  1
  Br  Br25  1  0.746083  0.996084  0.992167  1
  Br  Br26  1  0.996053  0.503946  0.250000  1
  Br  Br27  1  0.503917  0.753918  0.507835  1
