# generated using pymatgen
data_Sm5ScRuO12
_symmetry_space_group_name_H-M   'P 1'
_cell_length_a   7.03044472
_cell_length_b   7.03044501
_cell_length_c   7.51656246
_cell_angle_alpha   74.48862262
_cell_angle_beta   74.48862110
_cell_angle_gamma   50.78782040
_symmetry_Int_Tables_number   1
_chemical_formula_structural   Sm5ScRuO12
_chemical_formula_sum   'Sm5 Sc1 Ru1 O12'
_cell_volume   274.95680678
_cell_formula_units_Z   1
loop_
 _symmetry_equiv_pos_site_id
 _symmetry_equiv_pos_as_xyz
  1  'x, y, z'
loop_
 _atom_site_type_symbol
 _atom_site_label
 _atom_site_symmetry_multiplicity
 _atom_site_fract_x
 _atom_site_fract_y
 _atom_site_fract_z
 _atom_site_occupancy
  Sm  Sm0  1  0.308529  0.297203  0.359653  1
  Sm  Sm1  1  0.702797  0.691471  0.640347  1
  Sm  Sm2  1  0.688806  0.696166  0.167922  1
  Sm  Sm3  1  0.303834  0.311194  0.832078  1
  Sm  Sm4  1  0.009425  0.990575  0.500000  1
  Sc  Sc5  1  0.753870  0.246130  0.000000  1
  Ru  Ru6  1  0.242157  0.757843  0.000000  1
  O  O7  1  0.098088  0.596325  0.571833  1
  O  O8  1  0.017950  0.981104  0.183203  1
  O  O9  1  0.403675  0.901912  0.428167  1
  O  O10  1  0.485048  0.516495  0.183713  1
  O  O11  1  0.100984  0.583760  0.081034  1
  O  O12  1  0.907326  0.401892  0.421954  1
  O  O13  1  0.018896  0.982050  0.816797  1
  O  O14  1  0.598108  0.092673  0.578046  1
  O  O15  1  0.483505  0.514952  0.816287  1
  O  O16  1  0.560814  0.100052  0.083276  1
  O  O17  1  0.416240  0.899016  0.918966  1
  O  O18  1  0.899948  0.439186  0.916724  1
