# generated using pymatgen
data_Rb2Er3Tm3S10
_symmetry_space_group_name_H-M   'P 1'
_cell_length_a   3.90418700
_cell_length_b   11.63066569
_cell_length_c   20.89858200
_cell_angle_alpha   90.16915845
_cell_angle_beta   90.00000000
_cell_angle_gamma   90.00000000
_symmetry_Int_Tables_number   1
_chemical_formula_structural   Rb2Er3Tm3S10
_chemical_formula_sum   'Rb4 Er6 Tm6 S20'
_cell_volume   948.96481532
_cell_formula_units_Z   2
loop_
 _symmetry_equiv_pos_site_id
 _symmetry_equiv_pos_as_xyz
  1  'x, y, z'
loop_
 _atom_site_type_symbol
 _atom_site_label
 _atom_site_symmetry_multiplicity
 _atom_site_fract_x
 _atom_site_fract_y
 _atom_site_fract_z
 _atom_site_occupancy
  Rb  Rb0  1  0.250000  0.847669  0.094981  1
  Rb  Rb1  1  0.750000  0.152331  0.905019  1
  Rb  Rb2  1  0.750000  0.348355  0.405223  1
  Rb  Rb3  1  0.250000  0.651645  0.594777  1
  Er  Er4  1  0.750000  0.801242  0.828155  1
  Er  Er5  1  0.250000  0.198758  0.171845  1
  Er  Er6  1  0.250000  0.302983  0.672279  1
  Er  Er7  1  0.750000  0.697017  0.327721  1
  Er  Er8  1  0.250000  0.958298  0.698541  1
  Er  Er9  1  0.750000  0.041702  0.301459  1
  Tm  Tm10  1  0.750000  0.457694  0.802237  1
  Tm  Tm11  1  0.250000  0.542306  0.197763  1
  Tm  Tm12  1  0.750000  0.390228  0.052514  1
  Tm  Tm13  1  0.250000  0.609772  0.947486  1
  Tm  Tm14  1  0.250000  0.889693  0.447282  1
  Tm  Tm15  1  0.750000  0.110307  0.552718  1
  S  S16  1  0.250000  0.949012  0.569226  1
  S  S17  1  0.750000  0.050988  0.430774  1
  S  S18  1  0.750000  0.448518  0.930698  1
  S  S19  1  0.250000  0.551482  0.069302  1
  S  S20  1  0.750000  0.766062  0.955636  1
  S  S21  1  0.250000  0.233938  0.044364  1
  S  S22  1  0.250000  0.266939  0.544747  1
  S  S23  1  0.750000  0.733061  0.455253  1
  S  S24  1  0.250000  0.955612  0.827353  1
  S  S25  1  0.750000  0.044388  0.172647  1
  S  S26  1  0.750000  0.457428  0.674171  1
  S  S27  1  0.250000  0.542572  0.325829  1
  S  S28  1  0.750000  0.129287  0.683039  1
  S  S29  1  0.250000  0.870713  0.316961  1
  S  S30  1  0.250000  0.627476  0.817217  1
  S  S31  1  0.750000  0.372524  0.182783  1
  S  S32  1  0.750000  0.693891  0.199014  1
  S  S33  1  0.250000  0.306109  0.800986  1
  S  S34  1  0.250000  0.194831  0.300622  1
  S  S35  1  0.750000  0.805169  0.699378  1
