# generated using pymatgen
data_Eu4Al18CdIr5
_symmetry_space_group_name_H-M   'P 1'
_cell_length_a   7.67635049
_cell_length_b   7.67635041
_cell_length_c   9.74880809
_cell_angle_alpha   89.78869694
_cell_angle_beta   89.78870138
_cell_angle_gamma   118.99961305
_symmetry_Int_Tables_number   1
_chemical_formula_structural   Eu4Al18CdIr5
_chemical_formula_sum   'Eu4 Al18 Cd1 Ir5'
_cell_volume   502.42417395
_cell_formula_units_Z   1
loop_
 _symmetry_equiv_pos_site_id
 _symmetry_equiv_pos_as_xyz
  1  'x, y, z'
loop_
 _atom_site_type_symbol
 _atom_site_label
 _atom_site_symmetry_multiplicity
 _atom_site_fract_x
 _atom_site_fract_y
 _atom_site_fract_z
 _atom_site_occupancy
  Eu  Eu0  1  0.003059  0.320734  0.749641  1
  Eu  Eu1  1  0.320734  0.003059  0.749641  1
  Eu  Eu2  1  0.679266  0.996941  0.250359  1
  Eu  Eu3  1  0.996941  0.679266  0.250359  1
  Al  Al4  1  0.000067  0.662386  0.568967  1
  Al  Al5  1  0.005524  0.353418  0.079455  1
  Al  Al6  1  0.337614  0.999933  0.431033  1
  Al  Al7  1  0.660652  0.448410  0.747801  1
  Al  Al8  1  0.662386  0.000067  0.568967  1
  Al  Al9  1  0.649782  0.649782  0.058585  1
  Al  Al10  1  0.350218  0.350218  0.941415  1
  Al  Al11  1  0.666646  0.666646  0.455459  1
  Al  Al12  1  0.144159  0.144159  0.263274  1
  Al  Al13  1  0.333354  0.333354  0.544541  1
  Al  Al14  1  0.448410  0.660652  0.747801  1
  Al  Al15  1  0.551590  0.339348  0.252199  1
  Al  Al16  1  0.646582  0.994476  0.920545  1
  Al  Al17  1  0.353418  0.005524  0.079455  1
  Al  Al18  1  0.999933  0.337614  0.431033  1
  Al  Al19  1  0.855841  0.855841  0.736726  1
  Al  Al20  1  0.339348  0.551590  0.252199  1
  Al  Al21  1  0.994476  0.646582  0.920545  1
  Cd  Cd22  1  0.000000  0.000000  0.000000  1
  Ir  Ir23  1  0.671109  0.328891  0.000000  1
  Ir  Ir24  1  0.330198  0.669802  0.500000  1
  Ir  Ir25  1  0.328891  0.671109  0.000000  1
  Ir  Ir26  1  0.000000  0.000000  0.500000  1
  Ir  Ir27  1  0.669802  0.330198  0.500000  1
