# generated using pymatgen
data_Yb2Gd3ZnPb3
_symmetry_space_group_name_H-M   'P 1'
_cell_length_a   9.39413400
_cell_length_b   9.39413340
_cell_length_c   6.93422900
_cell_angle_alpha   90.00000000
_cell_angle_beta   90.00000000
_cell_angle_gamma   120.00000211
_symmetry_Int_Tables_number   1
_chemical_formula_structural   Yb2Gd3ZnPb3
_chemical_formula_sum   'Yb4 Gd6 Zn2 Pb6'
_cell_volume   529.95900534
_cell_formula_units_Z   2
loop_
 _symmetry_equiv_pos_site_id
 _symmetry_equiv_pos_as_xyz
  1  'x, y, z'
loop_
 _atom_site_type_symbol
 _atom_site_label
 _atom_site_symmetry_multiplicity
 _atom_site_fract_x
 _atom_site_fract_y
 _atom_site_fract_z
 _atom_site_occupancy
  Yb  Yb0  1  0.333333  0.666667  0.500000  1
  Yb  Yb1  1  0.666667  0.333333  0.500000  1
  Yb  Yb2  1  0.666667  0.333333  0.000000  1
  Yb  Yb3  1  0.333333  0.666667  0.000000  1
  Gd  Gd4  1  0.266410  0.000000  0.750000  1
  Gd  Gd5  1  0.733590  0.000000  0.250000  1
  Gd  Gd6  1  0.000000  0.266410  0.750000  1
  Gd  Gd7  1  0.000000  0.733590  0.250000  1
  Gd  Gd8  1  0.733590  0.733590  0.750000  1
  Gd  Gd9  1  0.266410  0.266410  0.250000  1
  Zn  Zn10  1  0.000000  0.000000  0.500000  1
  Zn  Zn11  1  0.000000  0.000000  0.000000  1
  Pb  Pb12  1  0.619083  0.000000  0.750000  1
  Pb  Pb13  1  0.380917  0.000000  0.250000  1
  Pb  Pb14  1  0.000000  0.619083  0.750000  1
  Pb  Pb15  1  0.000000  0.380917  0.250000  1
  Pb  Pb16  1  0.380917  0.380917  0.750000  1
  Pb  Pb17  1  0.619083  0.619083  0.250000  1
