# generated using pymatgen
data_Y2Ho3Fe12Co7P12
_symmetry_space_group_name_H-M   'P 1'
_cell_length_a   11.95454000
_cell_length_b   11.95513918
_cell_length_c   3.68426800
_cell_angle_alpha   90.00000000
_cell_angle_beta   90.00000000
_cell_angle_gamma   120.00165578
_symmetry_Int_Tables_number   1
_chemical_formula_structural   Y2Ho3Fe12Co7P12
_chemical_formula_sum   'Y2 Ho3 Fe12 Co7 P12'
_cell_volume   455.99712610
_cell_formula_units_Z   1
loop_
 _symmetry_equiv_pos_site_id
 _symmetry_equiv_pos_as_xyz
  1  'x, y, z'
loop_
 _atom_site_type_symbol
 _atom_site_label
 _atom_site_symmetry_multiplicity
 _atom_site_fract_x
 _atom_site_fract_y
 _atom_site_fract_z
 _atom_site_occupancy
  Y  Y0  1  0.814656  0.814667  0.500000  1
  Y  Y1  1  0.185344  0.000012  0.500000  1
  Ho  Ho2  1  0.666694  0.333369  0.000000  1
  Ho  Ho3  1  0.333306  0.666676  0.000000  1
  Ho  Ho4  1  0.000000  0.185432  0.500000  1
  Fe  Fe5  1  0.876836  0.358492  0.500000  1
  Fe  Fe6  1  0.641347  0.518089  0.500000  1
  Fe  Fe7  1  0.481918  0.123251  0.500000  1
  Fe  Fe8  1  0.358653  0.876741  0.500000  1
  Fe  Fe9  1  0.518082  0.641333  0.500000  1
  Fe  Fe10  1  0.123164  0.481655  0.500000  1
  Fe  Fe11  1  0.444025  0.444027  0.000000  1
  Fe  Fe12  1  0.555975  0.000001  0.000000  1
  Fe  Fe13  1  0.000000  0.555874  0.000000  1
  Fe  Fe14  1  0.285035  0.285274  0.500000  1
  Fe  Fe15  1  0.714965  0.000240  0.500000  1
  Fe  Fe16  1  0.000000  0.714617  0.500000  1
  Co  Co17  1  0.801651  0.179354  0.000000  1
  Co  Co18  1  0.820673  0.621894  0.000000  1
  Co  Co19  1  0.378049  0.198780  0.000000  1
  Co  Co20  1  0.179327  0.801222  0.000000  1
  Co  Co21  1  0.621951  0.820733  0.000000  1
  Co  Co22  1  0.198349  0.377704  0.000000  1
  Co  Co23  1  0.000000  0.000546  0.000000  1
  P  P24  1  0.684579  0.164951  0.500000  1
  P  P25  1  0.834993  0.519600  0.500000  1
  P  P26  1  0.480365  0.315416  0.500000  1
  P  P27  1  0.165007  0.684606  0.500000  1
  P  P28  1  0.519635  0.835051  0.500000  1
  P  P29  1  0.315421  0.480371  0.500000  1
  P  P30  1  0.183067  0.183570  0.000000  1
  P  P31  1  0.816933  0.000502  0.000000  1
  P  P32  1  0.000000  0.816465  0.000000  1
  P  P33  1  0.628290  0.628270  0.000000  1
  P  P34  1  0.371710  0.999980  0.000000  1
  P  P35  1  0.000000  0.371233  0.000000  1
