# generated using pymatgen
data_Tb3CeY(FeB3)2
_symmetry_space_group_name_H-M   'P 1'
_cell_length_a   5.44482503
_cell_length_b   5.44482366
_cell_length_c   8.03904936
_cell_angle_alpha   70.20544387
_cell_angle_beta   70.20543601
_cell_angle_gamma   60.00000434
_symmetry_Int_Tables_number   1
_chemical_formula_structural   Tb3CeY(FeB3)2
_chemical_formula_sum   'Tb3 Ce1 Y1 Fe2 B6'
_cell_volume   189.96244202
_cell_formula_units_Z   1
loop_
 _symmetry_equiv_pos_site_id
 _symmetry_equiv_pos_as_xyz
  1  'x, y, z'
loop_
 _atom_site_type_symbol
 _atom_site_label
 _atom_site_symmetry_multiplicity
 _atom_site_fract_x
 _atom_site_fract_y
 _atom_site_fract_z
 _atom_site_occupancy
  Tb  Tb0  1  0.746832  0.746832  0.759505  1
  Tb  Tb1  1  0.253145  0.253145  0.240564  1
  Tb  Tb2  1  0.585860  0.585860  0.242421  1
  Ce  Ce3  1  0.000145  0.000145  0.999566  1
  Y  Y4  1  0.414457  0.414457  0.756627  1
  Fe  Fe5  1  0.889162  0.889162  0.332512  1
  Fe  Fe6  1  0.110704  0.110704  0.667888  1
  B  B7  1  0.500027  0.166663  0.500153  1
  B  B8  1  0.833157  0.500027  0.500153  1
  B  B9  1  0.166663  0.833157  0.500153  1
  B  B10  1  0.166663  0.500027  0.500153  1
  B  B11  1  0.833157  0.166663  0.500153  1
  B  B12  1  0.500027  0.833157  0.500153  1
