# generated using pymatgen
data_Eu3Ho5(WO6)4
_symmetry_space_group_name_H-M   'P 1'
_cell_length_a   5.44348000
_cell_length_b   7.73681625
_cell_length_c   11.54202720
_cell_angle_alpha   75.65201913
_cell_angle_beta   90.00000000
_cell_angle_gamma   90.00000000
_symmetry_Int_Tables_number   1
_chemical_formula_structural   Eu3Ho5(WO6)4
_chemical_formula_sum   'Eu3 Ho5 W4 O24'
_cell_volume   470.93283254
_cell_formula_units_Z   1
loop_
 _symmetry_equiv_pos_site_id
 _symmetry_equiv_pos_as_xyz
  1  'x, y, z'
loop_
 _atom_site_type_symbol
 _atom_site_label
 _atom_site_symmetry_multiplicity
 _atom_site_fract_x
 _atom_site_fract_y
 _atom_site_fract_z
 _atom_site_occupancy
  Eu  Eu0  1  0.743017  0.000000  0.750000  1
  Eu  Eu1  1  0.682973  0.500000  0.750000  1
  Eu  Eu2  1  0.315387  0.500000  0.250000  1
  Ho  Ho3  1  0.258843  0.000000  0.250000  1
  Ho  Ho4  1  0.188197  0.796837  0.576249  1
  Ho  Ho5  1  0.813091  0.795815  0.078872  1
  Ho  Ho6  1  0.188197  0.203163  0.923751  1
  Ho  Ho7  1  0.813091  0.204185  0.421128  1
  W  W8  1  0.252514  0.722419  0.887306  1
  W  W9  1  0.747177  0.726479  0.384885  1
  W  W10  1  0.252514  0.277581  0.612694  1
  W  W11  1  0.747177  0.273521  0.115115  1
  O  O12  1  0.044194  0.937749  0.899991  1
  O  O13  1  0.526980  0.844715  0.933858  1
  O  O14  1  0.960247  0.941462  0.395403  1
  O  O15  1  0.454085  0.786417  0.729680  1
  O  O16  1  0.470084  0.849075  0.430660  1
  O  O17  1  0.988790  0.715510  0.770367  1
  O  O18  1  0.542772  0.792435  0.227957  1
  O  O19  1  0.856755  0.641120  0.545698  1
  O  O20  1  0.354134  0.488374  0.890544  1
  O  O21  1  0.013639  0.717921  0.269280  1
  O  O22  1  0.354134  0.511626  0.609456  1
  O  O23  1  0.856755  0.358880  0.954302  1
  O  O24  1  0.140669  0.635200  0.047261  1
  O  O25  1  0.646562  0.492134  0.388452  1
  O  O26  1  0.988790  0.284490  0.729633  1
  O  O27  1  0.646562  0.507866  0.111548  1
  O  O28  1  0.140669  0.364800  0.452739  1
  O  O29  1  0.454085  0.213583  0.770320  1
  O  O30  1  0.013639  0.282079  0.230720  1
  O  O31  1  0.526980  0.155285  0.566142  1
  O  O32  1  0.542772  0.207565  0.272043  1
  O  O33  1  0.044194  0.062251  0.600009  1
  O  O34  1  0.470084  0.150925  0.069340  1
  O  O35  1  0.960247  0.058538  0.104597  1
