# generated using pymatgen
data_Fe2SiRh5
_symmetry_space_group_name_H-M   'P 1'
_cell_length_a   4.04722500
_cell_length_b   5.28884000
_cell_length_c   10.24818600
_cell_angle_alpha   90.00000000
_cell_angle_beta   90.00000000
_cell_angle_gamma   90.00000000
_symmetry_Int_Tables_number   1
_chemical_formula_structural   Fe2SiRh5
_chemical_formula_sum   'Fe4 Si2 Rh10'
_cell_volume   219.36370716
_cell_formula_units_Z   2
loop_
 _symmetry_equiv_pos_site_id
 _symmetry_equiv_pos_as_xyz
  1  'x, y, z'
loop_
 _atom_site_type_symbol
 _atom_site_label
 _atom_site_symmetry_multiplicity
 _atom_site_fract_x
 _atom_site_fract_y
 _atom_site_fract_z
 _atom_site_occupancy
  Fe  Fe0  1  0.500000  0.338377  0.361302  1
  Fe  Fe1  1  0.500000  0.661623  0.638698  1
  Fe  Fe2  1  0.500000  0.161623  0.861302  1
  Fe  Fe3  1  0.500000  0.838377  0.138698  1
  Si  Si4  1  0.000000  0.000000  0.500000  1
  Si  Si5  1  0.000000  0.500000  0.000000  1
  Rh  Rh6  1  0.500000  0.325202  0.105858  1
  Rh  Rh7  1  0.500000  0.674798  0.894142  1
  Rh  Rh8  1  0.500000  0.825202  0.394142  1
  Rh  Rh9  1  0.500000  0.174798  0.605858  1
  Rh  Rh10  1  0.000000  0.895237  0.733471  1
  Rh  Rh11  1  0.000000  0.104763  0.266529  1
  Rh  Rh12  1  0.000000  0.395237  0.766529  1
  Rh  Rh13  1  0.000000  0.604763  0.233471  1
  Rh  Rh14  1  0.000000  0.500000  0.500000  1
  Rh  Rh15  1  0.000000  0.000000  0.000000  1
