# generated using pymatgen
data_Dy3ErSn6Ir7
_symmetry_space_group_name_H-M   'P 1'
_cell_length_a   7.59072156
_cell_length_b   7.59071976
_cell_length_c   7.59072099
_cell_angle_alpha   109.44195750
_cell_angle_beta   109.44194801
_cell_angle_gamma   109.44195795
_symmetry_Int_Tables_number   1
_chemical_formula_structural   Dy3ErSn6Ir7
_chemical_formula_sum   'Dy3 Er1 Sn6 Ir7'
_cell_volume   337.05195158
_cell_formula_units_Z   1
loop_
 _symmetry_equiv_pos_site_id
 _symmetry_equiv_pos_as_xyz
  1  'x, y, z'
loop_
 _atom_site_type_symbol
 _atom_site_label
 _atom_site_symmetry_multiplicity
 _atom_site_fract_x
 _atom_site_fract_y
 _atom_site_fract_z
 _atom_site_occupancy
  Dy  Dy0  1  0.000000  0.000000  0.500000  1
  Dy  Dy1  1  0.000000  0.500000  0.000000  1
  Dy  Dy2  1  0.500000  0.000000  0.000000  1
  Er  Er3  1  0.500000  0.500000  0.500000  1
  Sn  Sn4  1  0.686189  0.686189  0.999475  1
  Sn  Sn5  1  0.313811  0.000525  0.313811  1
  Sn  Sn6  1  0.000525  0.313811  0.313811  1
  Sn  Sn7  1  0.313811  0.313811  0.000525  1
  Sn  Sn8  1  0.686189  0.999475  0.686189  1
  Sn  Sn9  1  0.999475  0.686189  0.686189  1
  Ir  Ir10  1  0.749658  0.250342  0.500000  1
  Ir  Ir11  1  0.749658  0.500000  0.250342  1
  Ir  Ir12  1  0.500000  0.250342  0.749658  1
  Ir  Ir13  1  0.250342  0.500000  0.749658  1
  Ir  Ir14  1  0.250342  0.749658  0.500000  1
  Ir  Ir15  1  0.500000  0.749658  0.250342  1
  Ir  Ir16  1  0.000000  0.000000  0.000000  1
