# generated using pymatgen
data_Cs6In2SnPbI12
_symmetry_space_group_name_H-M   'P 1'
_cell_length_a   10.41862477
_cell_length_b   10.41862483
_cell_length_c   10.41862463
_cell_angle_alpha   91.71285117
_cell_angle_beta   91.71284738
_cell_angle_gamma   91.71285325
_symmetry_Int_Tables_number   1
_chemical_formula_structural   Cs6In2SnPbI12
_chemical_formula_sum   'Cs6 In2 Sn1 Pb1 I12'
_cell_volume   1129.37131904
_cell_formula_units_Z   1
loop_
 _symmetry_equiv_pos_site_id
 _symmetry_equiv_pos_as_xyz
  1  'x, y, z'
loop_
 _atom_site_type_symbol
 _atom_site_label
 _atom_site_symmetry_multiplicity
 _atom_site_fract_x
 _atom_site_fract_y
 _atom_site_fract_z
 _atom_site_occupancy
  Cs  Cs0  1  0.249937  0.628399  0.871711  1
  Cs  Cs1  1  0.871711  0.249937  0.628399  1
  Cs  Cs2  1  0.628399  0.871711  0.249937  1
  Cs  Cs3  1  0.750063  0.371601  0.128289  1
  Cs  Cs4  1  0.128289  0.750063  0.371601  1
  Cs  Cs5  1  0.371601  0.128289  0.750063  1
  In  In6  1  0.249908  0.249908  0.249908  1
  In  In7  1  0.750092  0.750092  0.750092  1
  Sn  Sn8  1  0.000000  0.000000  0.000000  1
  Pb  Pb9  1  0.500000  0.500000  0.500000  1
  I  I10  1  0.548092  0.202440  0.418170  1
  I  I11  1  0.418170  0.548092  0.202440  1
  I  I12  1  0.202440  0.418170  0.548092  1
  I  I13  1  0.952402  0.081143  0.294978  1
  I  I14  1  0.294978  0.952402  0.081143  1
  I  I15  1  0.081143  0.294978  0.952402  1
  I  I16  1  0.451908  0.797560  0.581830  1
  I  I17  1  0.581830  0.451908  0.797560  1
  I  I18  1  0.797560  0.581830  0.451908  1
  I  I19  1  0.047598  0.918857  0.705022  1
  I  I20  1  0.918857  0.705022  0.047598  1
  I  I21  1  0.705022  0.047598  0.918857  1
