# generated using pymatgen
data_CoP6RhO18
_symmetry_space_group_name_H-M   'P 1'
_cell_length_a   5.01227272
_cell_length_b   7.10563904
_cell_length_c   10.22696911
_cell_angle_alpha   98.51125537
_cell_angle_beta   92.17995038
_cell_angle_gamma   92.33402661
_symmetry_Int_Tables_number   1
_chemical_formula_structural   CoP6RhO18
_chemical_formula_sum   'Co1 P6 Rh1 O18'
_cell_volume   359.56928801
_cell_formula_units_Z   1
loop_
 _symmetry_equiv_pos_site_id
 _symmetry_equiv_pos_as_xyz
  1  'x, y, z'
loop_
 _atom_site_type_symbol
 _atom_site_label
 _atom_site_symmetry_multiplicity
 _atom_site_fract_x
 _atom_site_fract_y
 _atom_site_fract_z
 _atom_site_occupancy
  Co  Co0  1  0.500059  0.499999  0.499999  1
  P  P1  1  0.020921  0.962072  0.187524  1
  P  P2  1  0.732596  0.320057  0.227841  1
  P  P3  1  0.999043  0.666699  0.365184  1
  P  P4  1  0.001059  0.333292  0.634830  1
  P  P5  1  0.267414  0.679954  0.772130  1
  P  P6  1  0.978907  0.037934  0.812464  1
  Rh  Rh7  1  0.499904  0.999978  0.999990  1
  O  O8  1  0.602029  0.273406  0.090696  1
  O  O9  1  0.829900  0.883155  0.072915  1
  O  O10  1  0.314943  0.938328  0.165068  1
  O  O11  1  0.972197  0.179032  0.242788  1
  O  O12  1  0.896646  0.519815  0.234265  1
  O  O13  1  0.955273  0.867342  0.316561  1
  O  O14  1  0.557970  0.321710  0.344585  1
  O  O15  1  0.294663  0.652913  0.391596  1
  O  O16  1  0.817229  0.653071  0.477845  1
  O  O17  1  0.182922  0.346900  0.522174  1
  O  O18  1  0.705434  0.347088  0.608397  1
  O  O19  1  0.442128  0.678319  0.655437  1
  O  O20  1  0.044787  0.132676  0.683469  1
  O  O21  1  0.103424  0.480201  0.765729  1
  O  O22  1  0.027912  0.821011  0.757237  1
  O  O23  1  0.684855  0.061614  0.834880  1
  O  O24  1  0.169895  0.116893  0.927087  1
  O  O25  1  0.397887  0.726548  0.909316  1
