# generated using pymatgen
data_Sc8Ta10VSi16Ag
_symmetry_space_group_name_H-M   'P 1'
_cell_length_a   6.88480193
_cell_length_b   6.88875185
_cell_length_c   12.64561675
_cell_angle_alpha   90.41674770
_cell_angle_beta   89.61081696
_cell_angle_gamma   89.90704841
_symmetry_Int_Tables_number   1
_chemical_formula_structural   Sc8Ta10VSi16Ag
_chemical_formula_sum   'Sc8 Ta10 V1 Si16 Ag1'
_cell_volume   599.72187829
_cell_formula_units_Z   1
loop_
 _symmetry_equiv_pos_site_id
 _symmetry_equiv_pos_as_xyz
  1  'x, y, z'
loop_
 _atom_site_type_symbol
 _atom_site_label
 _atom_site_symmetry_multiplicity
 _atom_site_fract_x
 _atom_site_fract_y
 _atom_site_fract_z
 _atom_site_occupancy
  Sc  Sc0  1  0.000834  0.660315  0.033076  1
  Sc  Sc1  1  0.839463  0.502053  0.282030  1
  Sc  Sc2  1  0.159048  0.502509  0.780869  1
  Sc  Sc3  1  0.501313  0.840323  0.716602  1
  Sc  Sc4  1  0.500548  0.158358  0.219689  1
  Sc  Sc5  1  0.999654  0.341352  0.530799  1
  Sc  Sc6  1  0.659371  0.001828  0.968560  1
  Sc  Sc7  1  0.339519  0.999903  0.468285  1
  Ta  Ta8  1  0.169324  0.829791  0.250772  1
  Ta  Ta9  1  0.827893  0.170211  0.749463  1
  Ta  Ta10  1  0.671602  0.669356  0.499223  1
  Ta  Ta11  1  0.006014  0.149016  0.125505  1
  Ta  Ta12  1  0.350782  0.502552  0.377102  1
  Ta  Ta13  1  0.652087  0.497488  0.878111  1
  Ta  Ta14  1  0.505419  0.348390  0.621646  1
  Ta  Ta15  1  0.498296  0.653863  0.123179  1
  Ta  Ta16  1  0.993678  0.849148  0.627510  1
  Ta  Ta17  1  0.149022  0.006169  0.874715  1
  V  V18  1  0.849038  0.989334  0.372848  1
  Si  Si19  1  0.296140  0.946006  0.064310  1
  Si  Si20  1  0.546024  0.803492  0.314967  1
  Si  Si21  1  0.456893  0.197316  0.810387  1
  Si  Si22  1  0.800911  0.542158  0.686519  1
  Si  Si23  1  0.197859  0.456116  0.190113  1
  Si  Si24  1  0.701329  0.041826  0.559276  1
  Si  Si25  1  0.945545  0.296259  0.936193  1
  Si  Si26  1  0.041046  0.704079  0.435614  1
  Si  Si27  1  0.717506  0.367960  0.075827  1
  Si  Si28  1  0.131313  0.201193  0.323110  1
  Si  Si29  1  0.861108  0.794270  0.822168  1
  Si  Si30  1  0.204466  0.141183  0.678015  1
  Si  Si31  1  0.794805  0.863896  0.181520  1
  Si  Si32  1  0.292732  0.638284  0.571560  1
  Si  Si33  1  0.367820  0.718281  0.925072  1
  Si  Si34  1  0.642374  0.286268  0.424881  1
  Ag  Ag35  1  0.329226  0.329453  0.000485  1
