# generated using pymatgen
data_Ho12Th8Si15Tc
_symmetry_space_group_name_H-M   'P 1'
_cell_length_a   7.39610800
_cell_length_b   7.80130844
_cell_length_c   14.64244100
_cell_angle_alpha   90.00000000
_cell_angle_beta   90.00000000
_cell_angle_gamma   90.14633695
_symmetry_Int_Tables_number   1
_chemical_formula_structural   Ho12Th8Si15Tc
_chemical_formula_sum   'Ho12 Th8 Si15 Tc1'
_cell_volume   844.85613030
_cell_formula_units_Z   1
loop_
 _symmetry_equiv_pos_site_id
 _symmetry_equiv_pos_as_xyz
  1  'x, y, z'
loop_
 _atom_site_type_symbol
 _atom_site_label
 _atom_site_symmetry_multiplicity
 _atom_site_fract_x
 _atom_site_fract_y
 _atom_site_fract_z
 _atom_site_occupancy
  Ho  Ho0  1  0.150815  0.510847  0.750000  1
  Ho  Ho1  1  0.845633  0.490557  0.250000  1
  Ho  Ho2  1  0.344905  0.014500  0.250000  1
  Ho  Ho3  1  0.661608  0.991276  0.750000  1
  Ho  Ho4  1  0.314058  0.173869  0.627175  1
  Ho  Ho5  1  0.675505  0.822819  0.375613  1
  Ho  Ho6  1  0.175506  0.679827  0.376808  1
  Ho  Ho7  1  0.675505  0.822819  0.124387  1
  Ho  Ho8  1  0.830952  0.316311  0.624605  1
  Ho  Ho9  1  0.314058  0.173869  0.872825  1
  Ho  Ho10  1  0.830952  0.316311  0.875395  1
  Ho  Ho11  1  0.175506  0.679827  0.123192  1
  Th  Th12  1  0.017186  0.181697  0.096525  1
  Th  Th13  1  0.988775  0.826827  0.901408  1
  Th  Th14  1  0.486971  0.677846  0.903394  1
  Th  Th15  1  0.988775  0.826827  0.598592  1
  Th  Th16  1  0.514217  0.322752  0.095099  1
  Th  Th17  1  0.017186  0.181697  0.403475  1
  Th  Th18  1  0.514217  0.322752  0.404901  1
  Th  Th19  1  0.486971  0.677846  0.596606  1
  Si  Si20  1  0.972534  0.895108  0.250000  1
  Si  Si21  1  0.469897  0.606227  0.250000  1
  Si  Si22  1  0.528412  0.398004  0.750000  1
  Si  Si23  1  0.279267  0.864661  0.750000  1
  Si  Si24  1  0.723452  0.127142  0.250000  1
  Si  Si25  1  0.225021  0.372934  0.250000  1
  Si  Si26  1  0.770060  0.624715  0.750000  1
  Si  Si27  1  0.158714  0.472784  0.538459  1
  Si  Si28  1  0.844828  0.530823  0.461260  1
  Si  Si29  1  0.346240  0.969614  0.462293  1
  Si  Si30  1  0.844828  0.530823  0.038740  1
  Si  Si31  1  0.648960  0.030586  0.537477  1
  Si  Si32  1  0.158714  0.472784  0.961541  1
  Si  Si33  1  0.648960  0.030586  0.962523  1
  Si  Si34  1  0.346240  0.969614  0.037707  1
  Tc  Tc35  1  0.024569  0.092516  0.750000  1
