# generated using pymatgen
data_Ca6La3NdPb8
_symmetry_space_group_name_H-M   'P 1'
_cell_length_a   8.11105900
_cell_length_b   8.71273216
_cell_length_c   16.35239000
_cell_angle_alpha   90.01083083
_cell_angle_beta   90.00000000
_cell_angle_gamma   90.00000000
_symmetry_Int_Tables_number   1
_chemical_formula_structural   Ca6La3NdPb8
_chemical_formula_sum   'Ca12 La6 Nd2 Pb16'
_cell_volume   1155.61495207
_cell_formula_units_Z   2
loop_
 _symmetry_equiv_pos_site_id
 _symmetry_equiv_pos_as_xyz
  1  'x, y, z'
loop_
 _atom_site_type_symbol
 _atom_site_label
 _atom_site_symmetry_multiplicity
 _atom_site_fract_x
 _atom_site_fract_y
 _atom_site_fract_z
 _atom_site_occupancy
  Ca  Ca0  1  0.672095  0.165729  0.623148  1
  Ca  Ca1  1  0.172095  0.334271  0.876852  1
  Ca  Ca2  1  0.328356  0.833821  0.122901  1
  Ca  Ca3  1  0.828356  0.666179  0.377099  1
  Ca  Ca4  1  0.327910  0.833858  0.376984  1
  Ca  Ca5  1  0.827910  0.666142  0.123016  1
  Ca  Ca6  1  0.671706  0.165926  0.876931  1
  Ca  Ca7  1  0.171706  0.334074  0.623069  1
  Ca  Ca8  1  0.842337  0.497456  0.750011  1
  Ca  Ca9  1  0.342337  0.002544  0.749989  1
  Ca  Ca10  1  0.157632  0.503179  0.250018  1
  Ca  Ca11  1  0.657632  0.996821  0.249982  1
  La  La12  1  0.505617  0.687915  0.594810  1
  La  La13  1  0.005617  0.812085  0.905190  1
  La  La14  1  0.494582  0.312740  0.094588  1
  La  La15  1  0.994582  0.187260  0.405412  1
  La  La16  1  0.494406  0.312541  0.405262  1
  La  La17  1  0.994406  0.187459  0.094738  1
  Nd  Nd18  1  0.505795  0.688506  0.904689  1
  Nd  Nd19  1  0.005795  0.811494  0.595311  1
  Pb  Pb20  1  0.675801  0.963287  0.459310  1
  Pb  Pb21  1  0.175801  0.536713  0.040690  1
  Pb  Pb22  1  0.325399  0.035534  0.959007  1
  Pb  Pb23  1  0.825399  0.464466  0.540993  1
  Pb  Pb24  1  0.323652  0.036187  0.541188  1
  Pb  Pb25  1  0.823652  0.463813  0.958812  1
  Pb  Pb26  1  0.674904  0.962969  0.040506  1
  Pb  Pb27  1  0.174904  0.537031  0.459494  1
  Pb  Pb28  1  0.474716  0.396681  0.750225  1
  Pb  Pb29  1  0.974716  0.103319  0.749775  1
  Pb  Pb30  1  0.525256  0.603861  0.250037  1
  Pb  Pb31  1  0.025256  0.896139  0.249963  1
  Pb  Pb32  1  0.709944  0.851428  0.749968  1
  Pb  Pb33  1  0.209944  0.648572  0.750032  1
  Pb  Pb34  1  0.289891  0.147758  0.250041  1
  Pb  Pb35  1  0.789891  0.352242  0.249959  1
