# generated using pymatgen
data_TbZn2Pt2Au
_symmetry_space_group_name_H-M   'P 1'
_cell_length_a   5.27248910
_cell_length_b   5.24814831
_cell_length_c   5.24814660
_cell_angle_alpha   63.81159946
_cell_angle_beta   59.84644486
_cell_angle_gamma   59.84645140
_symmetry_Int_Tables_number   1
_chemical_formula_structural   TbZn2Pt2Au
_chemical_formula_sum   'Tb1 Zn2 Pt2 Au1'
_cell_volume   105.05148164
_cell_formula_units_Z   1
loop_
 _symmetry_equiv_pos_site_id
 _symmetry_equiv_pos_as_xyz
  1  'x, y, z'
loop_
 _atom_site_type_symbol
 _atom_site_label
 _atom_site_symmetry_multiplicity
 _atom_site_fract_x
 _atom_site_fract_y
 _atom_site_fract_z
 _atom_site_occupancy
  Tb  Tb0  1  0.991455  0.008545  0.008545  1
  Zn  Zn1  1  0.131293  0.618158  0.618158  1
  Zn  Zn2  1  0.632391  0.618158  0.618158  1
  Pt  Pt3  1  0.628298  0.622130  0.121276  1
  Pt  Pt4  1  0.628298  0.121276  0.622130  1
  Au  Au5  1  0.238265  0.261735  0.261735  1
