# generated using pymatgen
data_Li3Al8FeIr4
_symmetry_space_group_name_H-M   'P 1'
_cell_length_a   5.96405700
_cell_length_b   4.24167700
_cell_length_c   8.55351400
_cell_angle_alpha   90.00000000
_cell_angle_beta   89.99994439
_cell_angle_gamma   90.00000000
_symmetry_Int_Tables_number   1
_chemical_formula_structural   Li3Al8FeIr4
_chemical_formula_sum   'Li3 Al8 Fe1 Ir4'
_cell_volume   216.38340488
_cell_formula_units_Z   1
loop_
 _symmetry_equiv_pos_site_id
 _symmetry_equiv_pos_as_xyz
  1  'x, y, z'
loop_
 _atom_site_type_symbol
 _atom_site_label
 _atom_site_symmetry_multiplicity
 _atom_site_fract_x
 _atom_site_fract_y
 _atom_site_fract_z
 _atom_site_occupancy
  Li  Li0  1  0.749992  0.250001  0.126097  1
  Li  Li1  1  0.249985  0.750001  0.375016  1
  Li  Li2  1  0.750015  0.250001  0.623849  1
  Al  Al3  1  0.006438  0.750001  0.121061  1
  Al  Al4  1  0.493555  0.750001  0.121064  1
  Al  Al5  1  0.007294  0.250001  0.374982  1
  Al  Al6  1  0.492699  0.250001  0.374986  1
  Al  Al7  1  0.493567  0.750001  0.628968  1
  Al  Al8  1  0.006438  0.750001  0.628972  1
  Al  Al9  1  0.490848  0.250001  0.874988  1
  Al  Al10  1  0.009162  0.250001  0.874992  1
  Fe  Fe11  1  0.250007  0.750001  0.875006  1
  Ir  Ir12  1  0.250001  0.250001  0.124395  1
  Ir  Ir13  1  0.749997  0.750001  0.375015  1
  Ir  Ir14  1  0.250000  0.250001  0.625592  1
  Ir  Ir15  1  0.750004  0.750001  0.875017  1
