# generated using pymatgen
data_Cs16Ti3CrSe16
_symmetry_space_group_name_H-M   'P 1'
_cell_length_a   8.95541210
_cell_length_b   10.61815200
_cell_length_c   15.59715100
_cell_angle_alpha   90.00000000
_cell_angle_beta   90.03923189
_cell_angle_gamma   90.00000000
_symmetry_Int_Tables_number   1
_chemical_formula_structural   Cs16Ti3CrSe16
_chemical_formula_sum   'Cs16 Ti3 Cr1 Se16'
_cell_volume   1483.13160066
_cell_formula_units_Z   1
loop_
 _symmetry_equiv_pos_site_id
 _symmetry_equiv_pos_as_xyz
  1  'x, y, z'
loop_
 _atom_site_type_symbol
 _atom_site_label
 _atom_site_symmetry_multiplicity
 _atom_site_fract_x
 _atom_site_fract_y
 _atom_site_fract_z
 _atom_site_occupancy
  Cs  Cs0  1  0.000517  0.001674  0.999460  1
  Cs  Cs1  1  0.499884  0.998736  0.499769  1
  Cs  Cs2  1  0.000517  0.498326  0.999460  1
  Cs  Cs3  1  0.499884  0.501264  0.499769  1
  Cs  Cs4  1  0.995316  0.750000  0.421762  1
  Cs  Cs5  1  0.494539  0.250000  0.078184  1
  Cs  Cs6  1  0.005022  0.250000  0.578751  1
  Cs  Cs7  1  0.504472  0.750000  0.920462  1
  Cs  Cs8  1  0.832402  0.056031  0.280674  1
  Cs  Cs9  1  0.331959  0.943958  0.219288  1
  Cs  Cs10  1  0.167360  0.554860  0.719798  1
  Cs  Cs11  1  0.668275  0.442102  0.780568  1
  Cs  Cs12  1  0.167360  0.945140  0.719798  1
  Cs  Cs13  1  0.668275  0.057898  0.780568  1
  Cs  Cs14  1  0.832402  0.443969  0.280674  1
  Cs  Cs15  1  0.331959  0.556042  0.219288  1
  Ti  Ti16  1  0.762673  0.750000  0.665315  1
  Ti  Ti17  1  0.237323  0.250000  0.334666  1
  Ti  Ti18  1  0.736612  0.750000  0.165223  1
  Cr  Cr19  1  0.263492  0.250000  0.835628  1
  Se  Se20  1  0.001707  0.250000  0.826506  1
  Se  Se21  1  0.506842  0.250000  0.326993  1
  Se  Se22  1  0.493237  0.750000  0.673431  1
  Se  Se23  1  0.006068  0.750000  0.173365  1
  Se  Se24  1  0.653766  0.566228  0.090082  1
  Se  Se25  1  0.154576  0.433872  0.409520  1
  Se  Se26  1  0.345294  0.071078  0.907781  1
  Se  Se27  1  0.845268  0.934067  0.590480  1
  Se  Se28  1  0.345294  0.428922  0.907781  1
  Se  Se29  1  0.845268  0.565933  0.590480  1
  Se  Se30  1  0.653766  0.933772  0.090082  1
  Se  Se31  1  0.154576  0.066128  0.409520  1
  Se  Se32  1  0.632284  0.750000  0.309370  1
  Se  Se33  1  0.132560  0.250000  0.190680  1
  Se  Se34  1  0.362495  0.250000  0.695414  1
  Se  Se35  1  0.866751  0.750000  0.809410  1
