# generated using pymatgen
data_SrLiSbPt2
_symmetry_space_group_name_H-M   'P 1'
_cell_length_a   6.64799010
_cell_length_b   6.64798976
_cell_length_c   6.64798923
_cell_angle_alpha   142.43109243
_cell_angle_beta   142.43108462
_cell_angle_gamma   54.17996636
_symmetry_Int_Tables_number   1
_chemical_formula_structural   SrLiSbPt2
_chemical_formula_sum   'Sr1 Li1 Sb1 Pt2'
_cell_volume   108.49240226
_cell_formula_units_Z   1
loop_
 _symmetry_equiv_pos_site_id
 _symmetry_equiv_pos_as_xyz
  1  'x, y, z'
loop_
 _atom_site_type_symbol
 _atom_site_label
 _atom_site_symmetry_multiplicity
 _atom_site_fract_x
 _atom_site_fract_y
 _atom_site_fract_z
 _atom_site_occupancy
  Sr  Sr0  1  0.000000  0.000000  0.000000  1
  Li  Li1  1  0.250000  0.749999  0.499999  1
  Sb  Sb2  1  0.749999  0.250000  0.499999  1
  Pt  Pt3  1  0.387894  0.387894  0.000000  1
  Pt  Pt4  1  0.612106  0.612106  0.000000  1
