# generated using pymatgen
data_Pr10In8IrRh3
_symmetry_space_group_name_H-M   'P 1'
_cell_length_a   3.82902200
_cell_length_b   8.30328623
_cell_length_c   18.72186677
_cell_angle_alpha   90.17077342
_cell_angle_beta   90.00000000
_cell_angle_gamma   90.00000000
_symmetry_Int_Tables_number   1
_chemical_formula_structural   Pr10In8IrRh3
_chemical_formula_sum   'Pr10 In8 Ir1 Rh3'
_cell_volume   595.23038401
_cell_formula_units_Z   1
loop_
 _symmetry_equiv_pos_site_id
 _symmetry_equiv_pos_as_xyz
  1  'x, y, z'
loop_
 _atom_site_type_symbol
 _atom_site_label
 _atom_site_symmetry_multiplicity
 _atom_site_fract_x
 _atom_site_fract_y
 _atom_site_fract_z
 _atom_site_occupancy
  Pr  Pr0  1  0.000000  0.114547  0.411223  1
  Pr  Pr1  1  0.000000  0.884862  0.588320  1
  Pr  Pr2  1  0.000000  0.385697  0.911622  1
  Pr  Pr3  1  0.000000  0.615731  0.088367  1
  Pr  Pr4  1  0.000000  0.245086  0.221969  1
  Pr  Pr5  1  0.000000  0.756013  0.778206  1
  Pr  Pr6  1  0.000000  0.255683  0.721415  1
  Pr  Pr7  1  0.000000  0.740664  0.277714  1
  Pr  Pr8  1  0.000000  0.000951  0.000173  1
  Pr  Pr9  1  0.000000  0.500125  0.499903  1
  In  In10  1  0.500000  0.434352  0.350505  1
  In  In11  1  0.500000  0.565487  0.650304  1
  In  In12  1  0.500000  0.065944  0.849616  1
  In  In13  1  0.500000  0.936035  0.150153  1
  In  In14  1  0.500000  0.291289  0.070313  1
  In  In15  1  0.500000  0.710478  0.928975  1
  In  In16  1  0.500000  0.209421  0.570629  1
  In  In17  1  0.500000  0.790327  0.429244  1
  Ir  Ir18  1  0.500000  0.510135  0.195709  1
  Rh  Rh19  1  0.500000  0.008764  0.305859  1
  Rh  Rh20  1  0.500000  0.989187  0.694355  1
  Rh  Rh21  1  0.500000  0.489222  0.805426  1
