# generated using pymatgen
data_LaPaNi9Ir
_symmetry_space_group_name_H-M   'P 1'
_cell_length_a   4.01454100
_cell_length_b   4.89958200
_cell_length_c   8.64842400
_cell_angle_alpha   90.00000000
_cell_angle_beta   90.00000000
_cell_angle_gamma   90.00000000
_symmetry_Int_Tables_number   1
_chemical_formula_structural   LaPaNi9Ir
_chemical_formula_sum   'La1 Pa1 Ni9 Ir1'
_cell_volume   170.11080566
_cell_formula_units_Z   1
loop_
 _symmetry_equiv_pos_site_id
 _symmetry_equiv_pos_as_xyz
  1  'x, y, z'
loop_
 _atom_site_type_symbol
 _atom_site_label
 _atom_site_symmetry_multiplicity
 _atom_site_fract_x
 _atom_site_fract_y
 _atom_site_fract_z
 _atom_site_occupancy
  La  La0  1  0.000000  0.000000  0.000000  1
  Pa  Pa1  1  0.000000  0.500000  0.500000  1
  Ni  Ni2  1  0.000000  0.000000  0.343408  1
  Ni  Ni3  1  0.000000  0.500000  0.813115  1
  Ni  Ni4  1  0.000000  0.500000  0.186885  1
  Ni  Ni5  1  0.000000  0.000000  0.656592  1
  Ni  Ni6  1  0.500000  0.000000  0.500000  1
  Ni  Ni7  1  0.500000  0.252614  0.261827  1
  Ni  Ni8  1  0.500000  0.747386  0.738173  1
  Ni  Ni9  1  0.500000  0.747386  0.261827  1
  Ni  Ni10  1  0.500000  0.252614  0.738173  1
  Ir  Ir11  1  0.500000  0.500000  0.000000  1
