# generated using pymatgen
data_Nd2YNiIr8
_symmetry_space_group_name_H-M   'P 1'
_cell_length_a   5.33217700
_cell_length_b   5.33217871
_cell_length_c   17.32962600
_cell_angle_alpha   90.00000000
_cell_angle_beta   90.00000000
_cell_angle_gamma   119.99998320
_symmetry_Int_Tables_number   1
_chemical_formula_structural   Nd2YNiIr8
_chemical_formula_sum   'Nd4 Y2 Ni2 Ir16'
_cell_volume   426.70639229
_cell_formula_units_Z   2
loop_
 _symmetry_equiv_pos_site_id
 _symmetry_equiv_pos_as_xyz
  1  'x, y, z'
loop_
 _atom_site_type_symbol
 _atom_site_label
 _atom_site_symmetry_multiplicity
 _atom_site_fract_x
 _atom_site_fract_y
 _atom_site_fract_z
 _atom_site_occupancy
  Nd  Nd0  1  0.333333  0.666667  0.958796  1
  Nd  Nd1  1  0.666667  0.333333  0.041204  1
  Nd  Nd2  1  0.333333  0.666667  0.748383  1
  Nd  Nd3  1  0.666667  0.333333  0.251617  1
  Y  Y4  1  0.666667  0.333333  0.459574  1
  Y  Y5  1  0.333333  0.666667  0.540426  1
  Ni  Ni6  1  0.333333  0.666667  0.251289  1
  Ni  Ni7  1  0.666667  0.333333  0.748711  1
  Ir  Ir8  1  0.168956  0.831044  0.373958  1
  Ir  Ir9  1  0.168956  0.337912  0.373958  1
  Ir  Ir10  1  0.662088  0.831044  0.373958  1
  Ir  Ir11  1  0.831044  0.168956  0.626042  1
  Ir  Ir12  1  0.831044  0.662088  0.626042  1
  Ir  Ir13  1  0.337912  0.168956  0.626042  1
  Ir  Ir14  1  0.831623  0.168377  0.870166  1
  Ir  Ir15  1  0.831623  0.663245  0.870166  1
  Ir  Ir16  1  0.336755  0.168377  0.870166  1
  Ir  Ir17  1  0.168377  0.831623  0.129834  1
  Ir  Ir18  1  0.168377  0.336755  0.129834  1
  Ir  Ir19  1  0.663245  0.831623  0.129834  1
  Ir  Ir20  1  0.000000  0.000000  0.251913  1
  Ir  Ir21  1  0.000000  0.000000  0.748087  1
  Ir  Ir22  1  0.000000  0.000000  0.500000  1
  Ir  Ir23  1  0.000000  0.000000  0.000000  1
