# generated using pymatgen
data_Zr(Pb3S4)2
_symmetry_space_group_name_H-M   'P 1'
_cell_length_a   8.38850611
_cell_length_b   8.38850591
_cell_length_c   8.38850800
_cell_angle_alpha   60.00000752
_cell_angle_beta   60.00000832
_cell_angle_gamma   60.00000702
_symmetry_Int_Tables_number   1
_chemical_formula_structural   Zr(Pb3S4)2
_chemical_formula_sum   'Zr1 Pb6 S8'
_cell_volume   417.38711697
_cell_formula_units_Z   1
loop_
 _symmetry_equiv_pos_site_id
 _symmetry_equiv_pos_as_xyz
  1  'x, y, z'
loop_
 _atom_site_type_symbol
 _atom_site_label
 _atom_site_symmetry_multiplicity
 _atom_site_fract_x
 _atom_site_fract_y
 _atom_site_fract_z
 _atom_site_occupancy
  Zr  Zr0  1  0.000000  0.000000  0.000000  1
  Pb  Pb1  1  0.500000  0.000000  0.000000  1
  Pb  Pb2  1  0.500000  0.000000  0.500000  1
  Pb  Pb3  1  0.000000  0.000000  0.500000  1
  Pb  Pb4  1  0.500000  0.500000  0.000000  1
  Pb  Pb5  1  0.000000  0.500000  0.000000  1
  Pb  Pb6  1  0.000000  0.500000  0.500000  1
  S  S7  1  0.778578  0.221422  0.221422  1
  S  S8  1  0.250000  0.250000  0.250000  1
  S  S9  1  0.221422  0.778578  0.221422  1
  S  S10  1  0.221422  0.221422  0.778578  1
  S  S11  1  0.778578  0.778578  0.221422  1
  S  S12  1  0.778578  0.221422  0.778578  1
  S  S13  1  0.750000  0.750000  0.750000  1
  S  S14  1  0.221422  0.778578  0.778578  1
