# generated using pymatgen
data_La4Pr12CdHg3Pd4
_symmetry_space_group_name_H-M   'P 1'
_cell_length_a   10.10360712
_cell_length_b   10.12289642
_cell_length_c   10.12289500
_cell_angle_alpha   59.99999483
_cell_angle_beta   59.93682054
_cell_angle_gamma   59.93682728
_symmetry_Int_Tables_number   1
_chemical_formula_structural   La4Pr12CdHg3Pd4
_chemical_formula_sum   'La4 Pr12 Cd1 Hg3 Pd4'
_cell_volume   731.40106683
_cell_formula_units_Z   1
loop_
 _symmetry_equiv_pos_site_id
 _symmetry_equiv_pos_as_xyz
  1  'x, y, z'
loop_
 _atom_site_type_symbol
 _atom_site_label
 _atom_site_symmetry_multiplicity
 _atom_site_fract_x
 _atom_site_fract_y
 _atom_site_fract_z
 _atom_site_occupancy
  La  La0  1  0.352032  0.352340  0.352340  1
  La  La1  1  0.352032  0.352340  0.943289  1
  La  La2  1  0.352032  0.943289  0.352340  1
  La  La3  1  0.937513  0.354163  0.354163  1
  Pr  Pr4  1  0.807675  0.192805  0.192805  1
  Pr  Pr5  1  0.192799  0.807653  0.807653  1
  Pr  Pr6  1  0.192799  0.807653  0.191896  1
  Pr  Pr7  1  0.807675  0.192805  0.806715  1
  Pr  Pr8  1  0.192799  0.191896  0.807653  1
  Pr  Pr9  1  0.807675  0.806715  0.192805  1
  Pr  Pr10  1  0.934530  0.565842  0.565842  1
  Pr  Pr11  1  0.564757  0.935493  0.935493  1
  Pr  Pr12  1  0.564757  0.935493  0.564256  1
  Pr  Pr13  1  0.934530  0.565842  0.933787  1
  Pr  Pr14  1  0.564757  0.564256  0.935493  1
  Pr  Pr15  1  0.934530  0.933787  0.565842  1
  Cd  Cd16  1  0.261777  0.579407  0.579407  1
  Hg  Hg17  1  0.581898  0.585357  0.585357  1
  Hg  Hg18  1  0.581898  0.585357  0.247387  1
  Hg  Hg19  1  0.581898  0.247387  0.585357  1
  Pd  Pd20  1  0.143735  0.144264  0.144264  1
  Pd  Pd21  1  0.143735  0.144264  0.567737  1
  Pd  Pd22  1  0.143735  0.567737  0.144264  1
  Pd  Pd23  1  0.568436  0.143855  0.143855  1
