# generated using pymatgen
data_Tb3Cd(Pt2O7)2
_symmetry_space_group_name_H-M   'P 1'
_cell_length_a   7.28227016
_cell_length_b   7.27646615
_cell_length_c   7.28227000
_cell_angle_alpha   59.97361146
_cell_angle_beta   60.00000072
_cell_angle_gamma   59.97361384
_symmetry_Int_Tables_number   1
_chemical_formula_structural   Tb3Cd(Pt2O7)2
_chemical_formula_sum   'Tb3 Cd1 Pt4 O14'
_cell_volume   272.75062224
_cell_formula_units_Z   1
loop_
 _symmetry_equiv_pos_site_id
 _symmetry_equiv_pos_as_xyz
  1  'x, y, z'
loop_
 _atom_site_type_symbol
 _atom_site_label
 _atom_site_symmetry_multiplicity
 _atom_site_fract_x
 _atom_site_fract_y
 _atom_site_fract_z
 _atom_site_occupancy
  Tb  Tb0  1  0.625000  0.625000  0.125000  1
  Tb  Tb1  1  0.625000  0.625000  0.625000  1
  Tb  Tb2  1  0.125000  0.625000  0.625000  1
  Cd  Cd3  1  0.625000  0.125000  0.625000  1
  Pt  Pt4  1  0.125000  0.125000  0.125000  1
  Pt  Pt5  1  0.625000  0.125000  0.125000  1
  Pt  Pt6  1  0.125000  0.625000  0.125000  1
  Pt  Pt7  1  0.125000  0.125000  0.625000  1
  O  O8  1  0.035372  0.465598  0.463658  1
  O  O9  1  0.786342  0.784402  0.214628  1
  O  O10  1  0.790670  0.216711  0.201950  1
  O  O11  1  0.459330  0.033289  0.459330  1
  O  O12  1  0.035372  0.465598  0.035372  1
  O  O13  1  0.750023  0.749931  0.750023  1
  O  O14  1  0.048050  0.033289  0.459330  1
  O  O15  1  0.214628  0.784402  0.214628  1
  O  O16  1  0.201950  0.216711  0.790670  1
  O  O17  1  0.499977  0.500069  0.499977  1
  O  O18  1  0.790670  0.216711  0.790670  1
  O  O19  1  0.459330  0.033289  0.048050  1
  O  O20  1  0.463658  0.465598  0.035372  1
  O  O21  1  0.214628  0.784402  0.786342  1
