# generated using pymatgen
data_Ba4Nd8Sc7VO28
_symmetry_space_group_name_H-M   'P 1'
_cell_length_a   5.83402656
_cell_length_b   5.83402656
_cell_length_c   20.44382736
_cell_angle_alpha   90.06422360
_cell_angle_beta   89.93577640
_cell_angle_gamma   90.15937314
_symmetry_Int_Tables_number   1
_chemical_formula_structural   Ba4Nd8Sc7VO28
_chemical_formula_sum   'Ba4 Nd8 Sc7 V1 O28'
_cell_volume   695.81980374
_cell_formula_units_Z   1
loop_
 _symmetry_equiv_pos_site_id
 _symmetry_equiv_pos_as_xyz
  1  'x, y, z'
loop_
 _atom_site_type_symbol
 _atom_site_label
 _atom_site_symmetry_multiplicity
 _atom_site_fract_x
 _atom_site_fract_y
 _atom_site_fract_z
 _atom_site_occupancy
  Ba  Ba0  1  0.256418  0.260171  0.001346  1
  Ba  Ba1  1  0.739828  0.743581  0.001346  1
  Ba  Ba2  1  0.760561  0.239439  0.500389  1
  Ba  Ba3  1  0.239330  0.760670  0.500309  1
  Nd  Nd4  1  0.275050  0.273896  0.183318  1
  Nd  Nd5  1  0.726105  0.724951  0.183318  1
  Nd  Nd6  1  0.776833  0.223167  0.314924  1
  Nd  Nd7  1  0.224468  0.775532  0.315239  1
  Nd  Nd8  1  0.775579  0.224421  0.684853  1
  Nd  Nd9  1  0.224149  0.775851  0.684721  1
  Nd  Nd10  1  0.276058  0.275231  0.816081  1
  Nd  Nd11  1  0.724770  0.723943  0.816081  1
  Sc  Sc12  1  0.242287  0.757714  0.101726  1
  Sc  Sc13  1  0.258181  0.258107  0.398288  1
  Sc  Sc14  1  0.741893  0.741819  0.398288  1
  Sc  Sc15  1  0.257669  0.257678  0.602057  1
  Sc  Sc16  1  0.742322  0.742331  0.602057  1
  Sc  Sc17  1  0.756896  0.243105  0.900581  1
  Sc  Sc18  1  0.242349  0.757652  0.898527  1
  V  V19  1  0.752595  0.247406  0.104282  1
  O  O20  1  0.781700  0.218299  0.002368  1
  O  O21  1  0.216659  0.783340  0.000663  1
  O  O22  1  0.502693  0.497305  0.094493  1
  O  O23  1  0.506053  0.002563  0.112850  1
  O  O24  1  0.997437  0.493945  0.112850  1
  O  O25  1  0.998445  0.001555  0.127409  1
  O  O26  1  0.691228  0.308771  0.207704  1
  O  O27  1  0.313088  0.686911  0.208806  1
  O  O28  1  0.186666  0.185829  0.289244  1
  O  O29  1  0.814172  0.813335  0.289244  1
  O  O30  1  0.500134  0.499864  0.369724  1
  O  O31  1  0.500038  0.999935  0.385724  1
  O  O32  1  0.000065  0.499960  0.385724  1
  O  O33  1  0.999538  0.000462  0.405056  1
  O  O34  1  0.284951  0.285016  0.499798  1
  O  O35  1  0.714984  0.715049  0.499798  1
  O  O36  1  0.000115  0.999885  0.593941  1
  O  O37  1  0.499873  0.999921  0.613672  1
  O  O38  1  0.000079  0.500125  0.613672  1
  O  O39  1  0.499981  0.500017  0.629544  1
  O  O40  1  0.185686  0.185896  0.709806  1
  O  O41  1  0.814105  0.814315  0.709806  1
  O  O42  1  0.685701  0.314298  0.790202  1
  O  O43  1  0.313905  0.686094  0.790202  1
  O  O44  1  0.999657  0.000343  0.871385  1
  O  O45  1  0.500290  0.000241  0.886410  1
  O  O46  1  0.999759  0.499708  0.886410  1
  O  O47  1  0.499651  0.500347  0.905767  1
