# generated using pymatgen
data_HoTm5(LuIn2)4
_symmetry_space_group_name_H-M   'P 1'
_cell_length_a   9.14175500
_cell_length_b   9.14754605
_cell_length_c   6.60150200
_cell_angle_alpha   90.00000000
_cell_angle_beta   90.00000000
_cell_angle_gamma   119.97906399
_symmetry_Int_Tables_number   1
_chemical_formula_structural   HoTm5(LuIn2)4
_chemical_formula_sum   'Ho1 Tm5 Lu4 In8'
_cell_volume   478.18853099
_cell_formula_units_Z   1
loop_
 _symmetry_equiv_pos_site_id
 _symmetry_equiv_pos_as_xyz
  1  'x, y, z'
loop_
 _atom_site_type_symbol
 _atom_site_label
 _atom_site_symmetry_multiplicity
 _atom_site_fract_x
 _atom_site_fract_y
 _atom_site_fract_z
 _atom_site_occupancy
  Ho  Ho0  1  0.289791  0.000000  0.750000  1
  Tm  Tm1  1  0.710009  0.000000  0.250000  1
  Tm  Tm2  1  0.000139  0.289916  0.750000  1
  Tm  Tm3  1  0.000020  0.710196  0.250000  1
  Tm  Tm4  1  0.710222  0.710084  0.750000  1
  Tm  Tm5  1  0.289824  0.289804  0.250000  1
  Lu  Lu6  1  0.333324  0.666456  0.499911  1
  Lu  Lu7  1  0.666869  0.333544  0.499911  1
  Lu  Lu8  1  0.666869  0.333544  0.000089  1
  Lu  Lu9  1  0.333324  0.666456  0.000089  1
  In  In10  1  0.999752  0.000000  0.499747  1
  In  In11  1  0.999752  0.000000  0.000253  1
  In  In12  1  0.628363  0.000000  0.750000  1
  In  In13  1  0.372021  0.000000  0.250000  1
  In  In14  1  0.999636  0.627473  0.750000  1
  In  In15  1  0.999987  0.372054  0.250000  1
  In  In16  1  0.372163  0.372527  0.750000  1
  In  In17  1  0.627933  0.627946  0.250000  1
