# generated using pymatgen
data_Ac2La3In11Ni6
_symmetry_space_group_name_H-M   'P 1'
_cell_length_a   10.53228377
_cell_length_b   10.52228617
_cell_length_c   4.53181200
_cell_angle_alpha   90.00000000
_cell_angle_beta   90.00000000
_cell_angle_gamma   89.58723935
_symmetry_Int_Tables_number   1
_chemical_formula_structural   Ac2La3In11Ni6
_chemical_formula_sum   'Ac2 La3 In11 Ni6'
_cell_volume   502.21915846
_cell_formula_units_Z   1
loop_
 _symmetry_equiv_pos_site_id
 _symmetry_equiv_pos_as_xyz
  1  'x, y, z'
loop_
 _atom_site_type_symbol
 _atom_site_label
 _atom_site_symmetry_multiplicity
 _atom_site_fract_x
 _atom_site_fract_y
 _atom_site_fract_z
 _atom_site_occupancy
  Ac  Ac0  1  0.034209  0.312434  0.000000  1
  Ac  Ac1  1  0.500185  0.501090  0.500000  1
  La  La2  1  0.964976  0.686970  0.000000  1
  La  La3  1  0.687125  0.964460  0.000000  1
  La  La4  1  0.312112  0.033900  0.000000  1
  In  In5  1  0.156196  0.538506  0.500000  1
  In  In6  1  0.843176  0.466648  0.500000  1
  In  In7  1  0.464346  0.847977  0.500000  1
  In  In8  1  0.535583  0.150829  0.500000  1
  In  In9  1  0.691649  0.305822  0.000000  1
  In  In10  1  0.305559  0.695775  0.000000  1
  In  In11  1  0.162197  0.837561  0.500000  1
  In  In12  1  0.834041  0.159863  0.500000  1
  In  In13  1  0.275233  0.270604  0.500000  1
  In  In14  1  0.728709  0.729906  0.500000  1
  In  In15  1  0.999681  0.996271  0.000000  1
  Ni  Ni16  1  0.278899  0.443293  0.000000  1
  Ni  Ni17  1  0.725923  0.560174  0.000000  1
  Ni  Ni18  1  0.558130  0.728394  0.000000  1
  Ni  Ni19  1  0.441292  0.271481  0.000000  1
  Ni  Ni20  1  0.091031  0.088209  0.500000  1
  Ni  Ni21  1  0.909749  0.909832  0.500000  1
