# generated using pymatgen
data_TbH9W
_symmetry_space_group_name_H-M   'P 1'
_cell_length_a   4.72848200
_cell_length_b   4.72848240
_cell_length_c   8.81187300
_cell_angle_alpha   90.00000000
_cell_angle_beta   90.00000000
_cell_angle_gamma   119.99999717
_symmetry_Int_Tables_number   1
_chemical_formula_structural   TbH9W
_chemical_formula_sum   'Tb2 H18 W2'
_cell_volume   170.62489250
_cell_formula_units_Z   2
loop_
 _symmetry_equiv_pos_site_id
 _symmetry_equiv_pos_as_xyz
  1  'x, y, z'
loop_
 _atom_site_type_symbol
 _atom_site_label
 _atom_site_symmetry_multiplicity
 _atom_site_fract_x
 _atom_site_fract_y
 _atom_site_fract_z
 _atom_site_occupancy
  Tb  Tb0  1  0.000000  0.000000  0.000000  1
  Tb  Tb1  1  0.000000  0.000000  0.500000  1
  H  H2  1  0.485816  0.514184  0.393470  1
  H  H3  1  0.485816  0.971632  0.393470  1
  H  H4  1  0.028368  0.514184  0.393470  1
  H  H5  1  0.971632  0.485816  0.893470  1
  H  H6  1  0.124656  0.249312  0.250000  1
  H  H7  1  0.875344  0.124656  0.750000  1
  H  H8  1  0.249312  0.124656  0.750000  1
  H  H9  1  0.750688  0.875344  0.250000  1
  H  H10  1  0.124656  0.875344  0.250000  1
  H  H11  1  0.875344  0.750688  0.750000  1
  H  H12  1  0.485816  0.971632  0.106530  1
  H  H13  1  0.514184  0.485816  0.606530  1
  H  H14  1  0.971632  0.485816  0.606530  1
  H  H15  1  0.028368  0.514184  0.106530  1
  H  H16  1  0.485816  0.514184  0.106530  1
  H  H17  1  0.514184  0.028368  0.893470  1
  H  H18  1  0.514184  0.485816  0.893470  1
  H  H19  1  0.514184  0.028368  0.606530  1
  W  W20  1  0.333333  0.666667  0.250000  1
  W  W21  1  0.666667  0.333333  0.750000  1
