# generated using pymatgen
data_U8Ta3Nb9Si15P
_symmetry_space_group_name_H-M   'P 1'
_cell_length_a   7.03627982
_cell_length_b   7.04041664
_cell_length_c   12.96459763
_cell_angle_alpha   89.99789046
_cell_angle_beta   90.05603606
_cell_angle_gamma   90.00160592
_symmetry_Int_Tables_number   1
_chemical_formula_structural   U8Ta3Nb9Si15P
_chemical_formula_sum   'U8 Ta3 Nb9 Si15 P1'
_cell_volume   642.24435745
_cell_formula_units_Z   1
loop_
 _symmetry_equiv_pos_site_id
 _symmetry_equiv_pos_as_xyz
  1  'x, y, z'
loop_
 _atom_site_type_symbol
 _atom_site_label
 _atom_site_symmetry_multiplicity
 _atom_site_fract_x
 _atom_site_fract_y
 _atom_site_fract_z
 _atom_site_occupancy
  U  U0  1  0.998608  0.330483  0.219191  1
  U  U1  1  0.006796  0.669351  0.718710  1
  U  U2  1  0.166873  0.495943  0.468930  1
  U  U3  1  0.502539  0.834600  0.033371  1
  U  U4  1  0.831971  0.504261  0.969606  1
  U  U5  1  0.494943  0.168745  0.530448  1
  U  U6  1  0.330461  0.992940  0.781208  1
  U  U7  1  0.663203  0.004826  0.279242  1
  Ta  Ta8  1  0.169404  0.166885  0.001333  1
  Ta  Ta9  1  0.831734  0.831977  0.499327  1
  Ta  Ta10  1  0.331543  0.669613  0.249309  1
  Nb  Nb11  1  0.668601  0.331473  0.750043  1
  Nb  Nb12  1  0.157869  0.001107  0.371189  1
  Nb  Nb13  1  0.844427  0.001397  0.874427  1
  Nb  Nb14  1  0.500117  0.656718  0.623922  1
  Nb  Nb15  1  0.344025  0.499318  0.876223  1
  Nb  Nb16  1  0.497023  0.338585  0.126169  1
  Nb  Nb17  1  0.658059  0.502344  0.375717  1
  Nb  Nb18  1  0.998911  0.155724  0.625118  1
  Nb  Nb19  1  0.002964  0.844818  0.126685  1
  Si  Si20  1  0.702822  0.959637  0.684326  1
  Si  Si21  1  0.460213  0.797261  0.434427  1
  Si  Si22  1  0.203535  0.539320  0.065386  1
  Si  Si23  1  0.539631  0.202511  0.935076  1
  Si  Si24  1  0.796993  0.460797  0.565219  1
  Si  Si25  1  0.040760  0.296970  0.815684  1
  Si  Si26  1  0.959854  0.703218  0.314962  1
  Si  Si27  1  0.372674  0.299203  0.318310  1
  Si  Si28  1  0.629635  0.706776  0.816496  1
  Si  Si29  1  0.205784  0.871525  0.564372  1
  Si  Si30  1  0.128296  0.792308  0.934662  1
  Si  Si31  1  0.794574  0.129277  0.066046  1
  Si  Si32  1  0.870425  0.205050  0.432911  1
  Si  Si33  1  0.293140  0.370558  0.684065  1
  Si  Si34  1  0.707061  0.626970  0.183501  1
  P  P35  1  0.294531  0.037506  0.184388  1
