# generated using pymatgen
data_Pr8GeP13Ir16
_symmetry_space_group_name_H-M   'P 1'
_cell_length_a   4.02119800
_cell_length_b   12.93692748
_cell_length_c   13.27713717
_cell_angle_alpha   80.75116593
_cell_angle_beta   90.00000000
_cell_angle_gamma   90.00000000
_symmetry_Int_Tables_number   1
_chemical_formula_structural   Pr8GeP13Ir16
_chemical_formula_sum   'Pr8 Ge1 P13 Ir16'
_cell_volume   681.72314166
_cell_formula_units_Z   1
loop_
 _symmetry_equiv_pos_site_id
 _symmetry_equiv_pos_as_xyz
  1  'x, y, z'
loop_
 _atom_site_type_symbol
 _atom_site_label
 _atom_site_symmetry_multiplicity
 _atom_site_fract_x
 _atom_site_fract_y
 _atom_site_fract_z
 _atom_site_occupancy
  Pr  Pr0  1  0.750000  0.788050  0.563780  1
  Pr  Pr1  1  0.250000  0.211329  0.438568  1
  Pr  Pr2  1  0.750000  0.481492  0.706928  1
  Pr  Pr3  1  0.250000  0.516322  0.293032  1
  Pr  Pr4  1  0.750000  0.719924  0.896005  1
  Pr  Pr5  1  0.250000  0.104063  0.789267  1
  Pr  Pr6  1  0.750000  0.896500  0.209611  1
  Pr  Pr7  1  0.250000  0.281542  0.102664  1
  Ge  Ge8  1  0.250000  0.907724  0.407667  1
  P  P9  1  0.750000  0.474029  0.126652  1
  P  P10  1  0.250000  0.526070  0.872490  1
  P  P11  1  0.750000  0.090329  0.590081  1
  P  P12  1  0.250000  0.741645  0.081161  1
  P  P13  1  0.750000  0.258493  0.918647  1
  P  P14  1  0.750000  0.156661  0.280824  1
  P  P15  1  0.250000  0.844565  0.719142  1
  P  P16  1  0.250000  0.053805  0.097035  1
  P  P17  1  0.750000  0.947320  0.902393  1
  P  P18  1  0.250000  0.312947  0.688709  1
  P  P19  1  0.750000  0.685355  0.311144  1
  P  P20  1  0.250000  0.606338  0.561616  1
  P  P21  1  0.750000  0.392058  0.438422  1
  Ir  Ir22  1  0.250000  0.990243  0.580397  1
  Ir  Ir23  1  0.750000  0.021765  0.425870  1
  Ir  Ir24  1  0.250000  0.663052  0.731378  1
  Ir  Ir25  1  0.750000  0.338079  0.267759  1
  Ir  Ir26  1  0.250000  0.551750  0.046713  1
  Ir  Ir27  1  0.750000  0.448105  0.952552  1
  Ir  Ir28  1  0.250000  0.066803  0.268220  1
  Ir  Ir29  1  0.750000  0.937294  0.730206  1
  Ir  Ir30  1  0.250000  0.422327  0.528401  1
  Ir  Ir31  1  0.750000  0.573658  0.473353  1
  Ir  Ir32  1  0.250000  0.915632  0.998779  1
  Ir  Ir33  1  0.750000  0.084714  0.000537  1
  Ir  Ir34  1  0.250000  0.719653  0.394108  1
  Ir  Ir35  1  0.750000  0.270217  0.606381  1
  Ir  Ir36  1  0.250000  0.342068  0.859427  1
  Ir  Ir37  1  0.750000  0.658079  0.140081  1
