# generated using pymatgen
data_Th4Al24Pd5Pt4
_symmetry_space_group_name_H-M   'P 1'
_cell_length_a   7.64000331
_cell_length_b   7.65990690
_cell_length_c   13.30134922
_cell_angle_alpha   84.50597457
_cell_angle_beta   78.94856365
_cell_angle_gamma   59.89617787
_symmetry_Int_Tables_number   1
_chemical_formula_structural   Th4Al24Pd5Pt4
_chemical_formula_sum   'Th4 Al24 Pd5 Pt4'
_cell_volume   660.93480704
_cell_formula_units_Z   1
loop_
 _symmetry_equiv_pos_site_id
 _symmetry_equiv_pos_as_xyz
  1  'x, y, z'
loop_
 _atom_site_type_symbol
 _atom_site_label
 _atom_site_symmetry_multiplicity
 _atom_site_fract_x
 _atom_site_fract_y
 _atom_site_fract_z
 _atom_site_occupancy
  Th  Th0  1  0.394971  0.167528  0.805914  1
  Th  Th1  1  0.605029  0.832472  0.194086  1
  Th  Th2  1  0.735162  0.498229  0.806324  1
  Th  Th3  1  0.264838  0.501771  0.193676  1
  Al  Al4  1  0.687536  0.833869  0.945702  1
  Al  Al5  1  0.312464  0.166131  0.054298  1
  Al  Al6  1  0.146090  0.833913  0.560135  1
  Al  Al7  1  0.853910  0.166087  0.439865  1
  Al  Al8  1  0.481776  0.166568  0.557236  1
  Al  Al9  1  0.518224  0.833432  0.442764  1
  Al  Al10  1  0.210775  0.166056  0.336411  1
  Al  Al11  1  0.789225  0.833944  0.663589  1
  Al  Al12  1  0.434815  0.510137  0.663568  1
  Al  Al13  1  0.565185  0.489863  0.336432  1
  Al  Al14  1  0.111741  0.156080  0.662577  1
  Al  Al15  1  0.888259  0.843920  0.337423  1
  Al  Al16  1  0.348671  0.503235  0.945726  1
  Al  Al17  1  0.651329  0.496765  0.054274  1
  Al  Al18  1  0.015027  0.164933  0.955070  1
  Al  Al19  1  0.984973  0.835067  0.044930  1
  Al  Al20  1  0.186799  0.500484  0.442358  1
  Al  Al21  1  0.813201  0.499516  0.557642  1
  Al  Al22  1  0.737640  0.164267  0.183643  1
  Al  Al23  1  0.262360  0.835733  0.816357  1
  Al  Al24  1  0.062568  0.633445  0.814040  1
  Al  Al25  1  0.937432  0.366555  0.185960  1
  Al  Al26  1  0.860188  0.037583  0.815941  1
  Al  Al27  1  0.139812  0.962417  0.184060  1
  Pd  Pd28  1  0.120482  0.492038  0.637473  1
  Pd  Pd29  1  0.879518  0.507962  0.362527  1
  Pd  Pd30  1  0.657170  0.170752  0.999707  1
  Pd  Pd31  1  0.342830  0.829248  0.000293  1
  Pd  Pd32  1  0.000000  0.500000  0.000000  1
  Pt  Pt33  1  0.537939  0.166537  0.362104  1
  Pt  Pt34  1  0.462061  0.833463  0.637896  1
  Pt  Pt35  1  0.778763  0.174447  0.637361  1
  Pt  Pt36  1  0.221237  0.825553  0.362639  1
