# generated using pymatgen
data_Ta5Nb2(B4Ru3)2
_symmetry_space_group_name_H-M   'P 1'
_cell_length_a   9.60170523
_cell_length_b   9.60539155
_cell_length_c   3.11853200
_cell_angle_alpha   90.00000000
_cell_angle_beta   90.00000000
_cell_angle_gamma   119.96228824
_symmetry_Int_Tables_number   1
_chemical_formula_structural   Ta5Nb2(B4Ru3)2
_chemical_formula_sum   'Ta5 Nb2 B8 Ru6'
_cell_volume   249.17770929
_cell_formula_units_Z   1
loop_
 _symmetry_equiv_pos_site_id
 _symmetry_equiv_pos_as_xyz
  1  'x, y, z'
loop_
 _atom_site_type_symbol
 _atom_site_label
 _atom_site_symmetry_multiplicity
 _atom_site_fract_x
 _atom_site_fract_y
 _atom_site_fract_z
 _atom_site_occupancy
  Ta  Ta0  1  0.362058  0.086639  0.000000  1
  Ta  Ta1  1  0.913358  0.275392  0.000000  1
  Ta  Ta2  1  0.275532  0.361894  0.000000  1
  Ta  Ta3  1  0.637486  0.912800  0.000000  1
  Ta  Ta4  1  0.085817  0.723789  0.000000  1
  Nb  Nb5  1  0.000434  0.000470  0.000000  1
  Nb  Nb6  1  0.725800  0.639684  0.000000  1
  B  B7  1  0.666694  0.333259  0.000000  1
  B  B8  1  0.333478  0.666539  0.000000  1
  B  B9  1  0.154281  0.934867  0.500000  1
  B  B10  1  0.065303  0.218910  0.500000  1
  B  B11  1  0.782150  0.847542  0.500000  1
  B  B12  1  0.845835  0.065239  0.500000  1
  B  B13  1  0.936070  0.782489  0.500000  1
  B  B14  1  0.218863  0.154232  0.500000  1
  Ru  Ru15  1  0.359646  0.846203  0.500000  1
  Ru  Ru16  1  0.153380  0.513836  0.500000  1
  Ru  Ru17  1  0.484805  0.639089  0.500000  1
  Ru  Ru18  1  0.639324  0.152767  0.500000  1
  Ru  Ru19  1  0.846209  0.484673  0.500000  1
  Ru  Ru20  1  0.513480  0.359688  0.500000  1
