# generated using pymatgen
data_Ho3Mo(P3Ir4)2
_symmetry_space_group_name_H-M   'P 1'
_cell_length_a   3.98042900
_cell_length_b   11.15183700
_cell_length_c   12.80979100
_cell_angle_alpha   90.00000000
_cell_angle_beta   90.00000000
_cell_angle_gamma   90.00000000
_symmetry_Int_Tables_number   1
_chemical_formula_structural   Ho3Mo(P3Ir4)2
_chemical_formula_sum   'Ho6 Mo2 P12 Ir16'
_cell_volume   568.61503473
_cell_formula_units_Z   2
loop_
 _symmetry_equiv_pos_site_id
 _symmetry_equiv_pos_as_xyz
  1  'x, y, z'
loop_
 _atom_site_type_symbol
 _atom_site_label
 _atom_site_symmetry_multiplicity
 _atom_site_fract_x
 _atom_site_fract_y
 _atom_site_fract_z
 _atom_site_occupancy
  Ho  Ho0  1  0.000000  0.500000  0.523082  1
  Ho  Ho1  1  0.500000  0.000000  0.476918  1
  Ho  Ho2  1  0.500000  0.817681  0.203578  1
  Ho  Ho3  1  0.500000  0.182319  0.203578  1
  Ho  Ho4  1  0.000000  0.682319  0.796422  1
  Ho  Ho5  1  0.000000  0.317681  0.796422  1
  Mo  Mo6  1  0.500000  0.500000  0.158953  1
  Mo  Mo7  1  0.000000  0.000000  0.841047  1
  P  P8  1  0.500000  0.314472  0.617956  1
  P  P9  1  0.500000  0.685528  0.617956  1
  P  P10  1  0.000000  0.185528  0.382044  1
  P  P11  1  0.000000  0.814472  0.382044  1
  P  P12  1  0.500000  0.500000  0.873949  1
  P  P13  1  0.000000  0.000000  0.126051  1
  P  P14  1  0.500000  0.845706  0.886586  1
  P  P15  1  0.500000  0.154294  0.886586  1
  P  P16  1  0.000000  0.654294  0.113414  1
  P  P17  1  0.000000  0.345706  0.113414  1
  P  P18  1  0.500000  0.500000  0.346899  1
  P  P19  1  0.000000  0.000000  0.653101  1
  Ir  Ir20  1  0.000000  0.500000  0.993201  1
  Ir  Ir21  1  0.500000  0.000000  0.006799  1
  Ir  Ir22  1  0.500000  0.297302  0.431839  1
  Ir  Ir23  1  0.500000  0.702698  0.431839  1
  Ir  Ir24  1  0.000000  0.202698  0.568161  1
  Ir  Ir25  1  0.000000  0.797302  0.568161  1
  Ir  Ir26  1  0.500000  0.872199  0.710430  1
  Ir  Ir27  1  0.500000  0.127801  0.710430  1
  Ir  Ir28  1  0.000000  0.627801  0.289570  1
  Ir  Ir29  1  0.000000  0.372199  0.289570  1
  Ir  Ir30  1  0.500000  0.331270  0.980161  1
  Ir  Ir31  1  0.500000  0.668730  0.980161  1
  Ir  Ir32  1  0.000000  0.168730  0.019839  1
  Ir  Ir33  1  0.000000  0.831270  0.019839  1
  Ir  Ir34  1  0.500000  0.500000  0.696618  1
  Ir  Ir35  1  0.000000  0.000000  0.303382  1
