# generated using pymatgen
data_Tb7Ce2Y(Al2Ru3)2
_symmetry_space_group_name_H-M   'P 1'
_cell_length_a   8.50044906
_cell_length_b   8.38888625
_cell_length_c   8.37065232
_cell_angle_alpha   109.89052067
_cell_angle_beta   109.29485818
_cell_angle_gamma   110.33392831
_symmetry_Int_Tables_number   1
_chemical_formula_structural   Tb7Ce2Y(Al2Ru3)2
_chemical_formula_sum   'Tb7 Ce2 Y1 Al4 Ru6'
_cell_volume   453.09164557
_cell_formula_units_Z   1
loop_
 _symmetry_equiv_pos_site_id
 _symmetry_equiv_pos_as_xyz
  1  'x, y, z'
loop_
 _atom_site_type_symbol
 _atom_site_label
 _atom_site_symmetry_multiplicity
 _atom_site_fract_x
 _atom_site_fract_y
 _atom_site_fract_z
 _atom_site_occupancy
  Tb  Tb0  1  0.782867  0.787544  0.780027  1
  Tb  Tb1  1  0.316796  0.565307  0.754363  1
  Tb  Tb2  1  0.751371  0.316184  0.567277  1
  Tb  Tb3  1  0.566643  0.748491  0.312396  1
  Tb  Tb4  1  0.721353  0.502705  0.998992  1
  Tb  Tb5  1  0.999129  0.719074  0.505254  1
  Tb  Tb6  1  0.500641  0.991826  0.716000  1
  Ce  Ce7  1  0.944251  0.250854  0.195703  1
  Ce  Ce8  1  0.197289  0.942533  0.251235  1
  Y  Y9  1  0.253897  0.189200  0.933372  1
  Al  Al10  1  0.414719  0.409660  0.407697  1
  Al  Al11  1  0.092135  0.491556  0.997070  1
  Al  Al12  1  0.998625  0.091688  0.502332  1
  Al  Al13  1  0.502491  0.010916  0.095186  1
  Ru  Ru14  1  0.866451  0.116568  0.739611  1
  Ru  Ru15  1  0.754465  0.905104  0.122667  1
  Ru  Ru16  1  0.127351  0.763513  0.910023  1
  Ru  Ru17  1  0.223007  0.589640  0.362969  1
  Ru  Ru18  1  0.357738  0.220715  0.593853  1
  Ru  Ru19  1  0.628782  0.386924  0.253970  1
