# generated using pymatgen
data_Dy7Er9In4(PtRh)2
_symmetry_space_group_name_H-M   'P 1'
_cell_length_a   9.62787315
_cell_length_b   9.61903363
_cell_length_c   9.62059133
_cell_angle_alpha   60.21164977
_cell_angle_beta   60.16736401
_cell_angle_gamma   60.12954534
_symmetry_Int_Tables_number   1
_chemical_formula_structural   Dy7Er9In4(PtRh)2
_chemical_formula_sum   'Dy7 Er9 In4 Pt2 Rh2'
_cell_volume   632.42979804
_cell_formula_units_Z   1
loop_
 _symmetry_equiv_pos_site_id
 _symmetry_equiv_pos_as_xyz
  1  'x, y, z'
loop_
 _atom_site_type_symbol
 _atom_site_label
 _atom_site_symmetry_multiplicity
 _atom_site_fract_x
 _atom_site_fract_y
 _atom_site_fract_z
 _atom_site_occupancy
  Dy  Dy0  1  0.192697  0.186513  0.809518  1
  Dy  Dy1  1  0.437905  0.061714  0.061941  1
  Dy  Dy2  1  0.434639  0.065292  0.435614  1
  Dy  Dy3  1  0.061004  0.438480  0.062884  1
  Dy  Dy4  1  0.648514  0.049964  0.650962  1
  Dy  Dy5  1  0.189473  0.809836  0.811272  1
  Dy  Dy6  1  0.060669  0.062332  0.437586  1
  Er  Er7  1  0.806622  0.190287  0.190874  1
  Er  Er8  1  0.809021  0.810266  0.188383  1
  Er  Er9  1  0.648890  0.651317  0.050107  1
  Er  Er10  1  0.648877  0.652406  0.651894  1
  Er  Er11  1  0.061903  0.439465  0.437283  1
  Er  Er12  1  0.054153  0.649862  0.650425  1
  Er  Er13  1  0.808562  0.188702  0.810769  1
  Er  Er14  1  0.436325  0.438790  0.062948  1
  Er  Er15  1  0.194051  0.807374  0.187596  1
  In  In16  1  0.418914  0.747091  0.416635  1
  In  In17  1  0.418735  0.416499  0.747967  1
  In  In18  1  0.747679  0.417976  0.417437  1
  In  In19  1  0.416113  0.416593  0.415371  1
  Pt  Pt20  1  0.858162  0.428355  0.858502  1
  Pt  Pt21  1  0.861879  0.856335  0.426455  1
  Rh  Rh22  1  0.427322  0.856458  0.859951  1
  Rh  Rh23  1  0.857893  0.858092  0.857624  1
