# generated using pymatgen
data_Gd8Mg8PtRh7
_symmetry_space_group_name_H-M   'P 1'
_cell_length_a   4.02752500
_cell_length_b   7.34990393
_cell_length_c   16.65715500
_cell_angle_alpha   90.14924398
_cell_angle_beta   90.00000000
_cell_angle_gamma   90.00000000
_symmetry_Int_Tables_number   1
_chemical_formula_structural   Gd8Mg8PtRh7
_chemical_formula_sum   'Gd8 Mg8 Pt1 Rh7'
_cell_volume   493.08212767
_cell_formula_units_Z   1
loop_
 _symmetry_equiv_pos_site_id
 _symmetry_equiv_pos_as_xyz
  1  'x, y, z'
loop_
 _atom_site_type_symbol
 _atom_site_label
 _atom_site_symmetry_multiplicity
 _atom_site_fract_x
 _atom_site_fract_y
 _atom_site_fract_z
 _atom_site_occupancy
  Gd  Gd0  1  0.250000  0.159902  0.937787  1
  Gd  Gd1  1  0.250000  0.660273  0.565717  1
  Gd  Gd2  1  0.750000  0.339649  0.437858  1
  Gd  Gd3  1  0.750000  0.952530  0.281222  1
  Gd  Gd4  1  0.750000  0.838354  0.061899  1
  Gd  Gd5  1  0.750000  0.449003  0.215882  1
  Gd  Gd6  1  0.250000  0.049340  0.717565  1
  Gd  Gd7  1  0.250000  0.548507  0.783907  1
  Mg  Mg8  1  0.750000  0.005628  0.565811  1
  Mg  Mg9  1  0.250000  0.623165  0.347523  1
  Mg  Mg10  1  0.750000  0.374600  0.651653  1
  Mg  Mg11  1  0.250000  0.496278  0.064081  1
  Mg  Mg12  1  0.750000  0.503052  0.935857  1
  Mg  Mg13  1  0.250000  0.999020  0.435293  1
  Mg  Mg14  1  0.250000  0.123676  0.149688  1
  Mg  Mg15  1  0.750000  0.874781  0.849511  1
  Pt  Pt16  1  0.750000  0.750990  0.439171  1
  Rh  Rh17  1  0.250000  0.247790  0.310329  1
  Rh  Rh18  1  0.750000  0.251139  0.810891  1
  Rh  Rh19  1  0.750000  0.751802  0.689666  1
  Rh  Rh20  1  0.250000  0.254627  0.559757  1
  Rh  Rh21  1  0.250000  0.747567  0.189245  1
  Rh  Rh22  1  0.750000  0.246408  0.059771  1
  Rh  Rh23  1  0.250000  0.751924  0.939919  1
