# generated using pymatgen
data_CaDy7(B6Ru)4
_symmetry_space_group_name_H-M   'P 1'
_cell_length_a   3.66820100
_cell_length_b   9.15890284
_cell_length_c   11.54679608
_cell_angle_alpha   89.88232793
_cell_angle_beta   90.00000000
_cell_angle_gamma   90.00000000
_symmetry_Int_Tables_number   1
_chemical_formula_structural   CaDy7(B6Ru)4
_chemical_formula_sum   'Ca1 Dy7 B24 Ru4'
_cell_volume   387.93338576
_cell_formula_units_Z   1
loop_
 _symmetry_equiv_pos_site_id
 _symmetry_equiv_pos_as_xyz
  1  'x, y, z'
loop_
 _atom_site_type_symbol
 _atom_site_label
 _atom_site_symmetry_multiplicity
 _atom_site_fract_x
 _atom_site_fract_y
 _atom_site_fract_z
 _atom_site_occupancy
  Ca  Ca0  1  0.000000  0.323322  0.413774  1
  Dy  Dy1  1  0.000000  0.675128  0.584877  1
  Dy  Dy2  1  0.000000  0.823279  0.086465  1
  Dy  Dy3  1  0.000000  0.177129  0.914539  1
  Dy  Dy4  1  0.000000  0.944141  0.371172  1
  Dy  Dy5  1  0.000000  0.057736  0.628231  1
  Dy  Dy6  1  0.000000  0.443095  0.129640  1
  Dy  Dy7  1  0.000000  0.556185  0.872248  1
  B  B8  1  0.500000  0.554621  0.432440  1
  B  B9  1  0.500000  0.446084  0.567887  1
  B  B10  1  0.500000  0.053273  0.066547  1
  B  B11  1  0.500000  0.945757  0.932393  1
  B  B12  1  0.500000  0.748195  0.419228  1
  B  B13  1  0.500000  0.252388  0.581376  1
  B  B14  1  0.500000  0.247352  0.080301  1
  B  B15  1  0.500000  0.752044  0.919601  1
  B  B16  1  0.500000  0.791676  0.266327  1
  B  B17  1  0.500000  0.209516  0.734052  1
  B  B18  1  0.500000  0.289626  0.232847  1
  B  B19  1  0.500000  0.709403  0.766532  1
  B  B20  1  0.500000  0.632694  0.185928  1
  B  B21  1  0.500000  0.368032  0.815103  1
  B  B22  1  0.500000  0.131355  0.313449  1
  B  B23  1  0.500000  0.867990  0.685428  1
  B  B24  1  0.500000  0.983902  0.211751  1
  B  B25  1  0.500000  0.015861  0.787330  1
  B  B26  1  0.500000  0.485021  0.287615  1
  B  B27  1  0.500000  0.515927  0.712835  1
  B  B28  1  0.500000  0.609044  0.030419  1
  B  B29  1  0.500000  0.391079  0.970337  1
  B  B30  1  0.500000  0.105023  0.470870  1
  B  B31  1  0.500000  0.893402  0.529456  1
  Ru  Ru32  1  0.000000  0.640320  0.320345  1
  Ru  Ru33  1  0.000000  0.361946  0.680529  1
  Ru  Ru34  1  0.000000  0.136348  0.176861  1
  Ru  Ru35  1  0.000000  0.862105  0.821268  1
