# generated using pymatgen
data_Tb2Pr5Nd3B2Br15
_symmetry_space_group_name_H-M   'P 1'
_cell_length_a   9.40039936
_cell_length_b   10.17313504
_cell_length_c   11.05285707
_cell_angle_alpha   91.38448032
_cell_angle_beta   114.41372572
_cell_angle_gamma   110.71583823
_symmetry_Int_Tables_number   1
_chemical_formula_structural   Tb2Pr5Nd3B2Br15
_chemical_formula_sum   'Tb2 Pr5 Nd3 B2 Br15'
_cell_volume   882.06662368
_cell_formula_units_Z   1
loop_
 _symmetry_equiv_pos_site_id
 _symmetry_equiv_pos_as_xyz
  1  'x, y, z'
loop_
 _atom_site_type_symbol
 _atom_site_label
 _atom_site_symmetry_multiplicity
 _atom_site_fract_x
 _atom_site_fract_y
 _atom_site_fract_z
 _atom_site_occupancy
  Tb  Tb0  1  0.717508  0.072793  0.046662  1
  Tb  Tb1  1  0.282516  0.927267  0.953370  1
  Pr  Pr2  1  0.801881  0.410165  0.276222  1
  Pr  Pr3  1  0.197924  0.589836  0.723399  1
  Pr  Pr4  1  0.674763  0.746710  0.820058  1
  Pr  Pr5  1  0.325052  0.253251  0.179639  1
  Pr  Pr6  1  0.526516  0.703442  0.097621  1
  Nd  Nd7  1  0.473981  0.295829  0.903830  1
  Nd  Nd8  1  0.586665  0.037366  0.324084  1
  Nd  Nd9  1  0.413058  0.962846  0.675257  1
  B  B10  1  0.467270  0.824603  0.878386  1
  B  B11  1  0.532345  0.175970  0.120297  1
  Br  Br12  1  0.999874  0.999967  0.999887  1
  Br  Br13  1  0.634614  0.883535  0.581503  1
  Br  Br14  1  0.365419  0.116696  0.418309  1
  Br  Br15  1  0.881674  0.296315  0.528449  1
  Br  Br16  1  0.118203  0.703791  0.471307  1
  Br  Br17  1  0.282267  0.767247  0.171387  1
  Br  Br18  1  0.715704  0.234057  0.828836  1
  Br  Br19  1  0.043945  0.331489  0.217784  1
  Br  Br20  1  0.161793  0.051600  0.711184  1
  Br  Br21  1  0.840865  0.951392  0.290402  1
  Br  Br22  1  0.228180  0.407678  0.942647  1
  Br  Br23  1  0.771087  0.588970  0.055004  1
  Br  Br24  1  0.407978  0.459474  0.658036  1
  Br  Br25  1  0.592689  0.539025  0.344319  1
  Br  Br26  1  0.956230  0.668690  0.782122  1
