# generated using pymatgen
data_Er6Ga5Ni12Ir
_symmetry_space_group_name_H-M   'P 1'
_cell_length_a   5.13468600
_cell_length_b   5.13468505
_cell_length_c   15.93989300
_cell_angle_alpha   90.00000000
_cell_angle_beta   90.00000000
_cell_angle_gamma   119.99999322
_symmetry_Int_Tables_number   1
_chemical_formula_structural   Er6Ga5Ni12Ir
_chemical_formula_sum   'Er6 Ga5 Ni12 Ir1'
_cell_volume   363.95170977
_cell_formula_units_Z   1
loop_
 _symmetry_equiv_pos_site_id
 _symmetry_equiv_pos_as_xyz
  1  'x, y, z'
loop_
 _atom_site_type_symbol
 _atom_site_label
 _atom_site_symmetry_multiplicity
 _atom_site_fract_x
 _atom_site_fract_y
 _atom_site_fract_z
 _atom_site_occupancy
  Er  Er0  1  0.333333  0.666667  0.546912  1
  Er  Er1  1  0.666667  0.333333  0.453088  1
  Er  Er2  1  0.666667  0.333333  0.033703  1
  Er  Er3  1  0.333333  0.666667  0.966297  1
  Er  Er4  1  0.333333  0.666667  0.761799  1
  Er  Er5  1  0.666667  0.333333  0.238201  1
  Ga  Ga6  1  0.000000  0.000000  0.255615  1
  Ga  Ga7  1  0.000000  0.000000  0.744385  1
  Ga  Ga8  1  0.333333  0.666667  0.255088  1
  Ga  Ga9  1  0.666667  0.333333  0.744912  1
  Ga  Ga10  1  0.000000  0.000000  0.500000  1
  Ni  Ni11  1  0.166437  0.332872  0.130688  1
  Ni  Ni12  1  0.833563  0.667128  0.869312  1
  Ni  Ni13  1  0.667128  0.833563  0.130688  1
  Ni  Ni14  1  0.831033  0.662069  0.622940  1
  Ni  Ni15  1  0.332872  0.166437  0.869312  1
  Ni  Ni16  1  0.168967  0.337931  0.377060  1
  Ni  Ni17  1  0.166437  0.833563  0.130688  1
  Ni  Ni18  1  0.337931  0.168967  0.622940  1
  Ni  Ni19  1  0.833563  0.166437  0.869312  1
  Ni  Ni20  1  0.662069  0.831033  0.377060  1
  Ni  Ni21  1  0.831033  0.168967  0.622940  1
  Ni  Ni22  1  0.168967  0.831033  0.377060  1
  Ir  Ir23  1  0.000000  0.000000  0.000000  1
