# generated using pymatgen
data_Tm6Mn2Al24NiOs5
_symmetry_space_group_name_H-M   'P 1'
_cell_length_a   8.76644500
_cell_length_b   8.71845229
_cell_length_c   9.46852002
_cell_angle_alpha   90.36597818
_cell_angle_beta   90.00000000
_cell_angle_gamma   120.18225881
_symmetry_Int_Tables_number   1
_chemical_formula_structural   Tm6Mn2Al24NiOs5
_chemical_formula_sum   'Tm6 Mn2 Al24 Ni1 Os5'
_cell_volume   625.55174964
_cell_formula_units_Z   1
loop_
 _symmetry_equiv_pos_site_id
 _symmetry_equiv_pos_as_xyz
  1  'x, y, z'
loop_
 _atom_site_type_symbol
 _atom_site_label
 _atom_site_symmetry_multiplicity
 _atom_site_fract_x
 _atom_site_fract_y
 _atom_site_fract_z
 _atom_site_occupancy
  Tm  Tm0  1  0.195269  0.390538  0.248362  1
  Tm  Tm1  1  0.804731  0.609462  0.751638  1
  Tm  Tm2  1  0.612788  0.802278  0.251603  1
  Tm  Tm3  1  0.387212  0.197722  0.748397  1
  Tm  Tm4  1  0.189489  0.802278  0.251603  1
  Tm  Tm5  1  0.810511  0.197722  0.748397  1
  Mn  Mn6  1  0.000000  0.000000  0.000000  1
  Mn  Mn7  1  0.000000  0.000000  0.500000  1
  Al  Al8  1  0.335656  0.671314  0.018494  1
  Al  Al9  1  0.664344  0.328686  0.981506  1
  Al  Al10  1  0.666455  0.332907  0.517324  1
  Al  Al11  1  0.333545  0.667093  0.482676  1
  Al  Al12  1  0.160392  0.320782  0.574024  1
  Al  Al13  1  0.839608  0.679218  0.425976  1
  Al  Al14  1  0.679876  0.841206  0.576819  1
  Al  Al15  1  0.839410  0.678821  0.074740  1
  Al  Al16  1  0.320124  0.158794  0.423181  1
  Al  Al17  1  0.160590  0.321179  0.925260  1
  Al  Al18  1  0.161330  0.841206  0.576819  1
  Al  Al19  1  0.319562  0.159594  0.076438  1
  Al  Al20  1  0.838670  0.158794  0.423181  1
  Al  Al21  1  0.680438  0.840406  0.923562  1
  Al  Al22  1  0.840033  0.159594  0.076438  1
  Al  Al23  1  0.159967  0.840406  0.923562  1
  Al  Al24  1  0.559433  0.118867  0.245866  1
  Al  Al25  1  0.440567  0.881133  0.754134  1
  Al  Al26  1  0.873892  0.435026  0.249040  1
  Al  Al27  1  0.126108  0.564974  0.750960  1
  Al  Al28  1  0.561134  0.435026  0.249040  1
  Al  Al29  1  0.438866  0.564974  0.750960  1
  Al  Al30  1  0.999884  0.999768  0.250192  1
  Al  Al31  1  0.000116  0.000232  0.749808  1
  Ni  Ni32  1  0.500000  0.000000  0.000000  1
  Os  Os33  1  0.000000  0.500000  0.000000  1
  Os  Os34  1  0.500000  0.000000  0.500000  1
  Os  Os35  1  0.500000  0.500000  0.000000  1
  Os  Os36  1  0.000000  0.500000  0.500000  1
  Os  Os37  1  0.500000  0.500000  0.500000  1
