# generated using pymatgen
data_Dy11Hf(Si3Ir)4
_symmetry_space_group_name_H-M   'P 1'
_cell_length_a   4.19595000
_cell_length_b   10.64912552
_cell_length_c   12.25824050
_cell_angle_alpha   89.76228298
_cell_angle_beta   90.00000000
_cell_angle_gamma   90.00000000
_symmetry_Int_Tables_number   1
_chemical_formula_structural   Dy11Hf(Si3Ir)4
_chemical_formula_sum   'Dy11 Hf1 Si12 Ir4'
_cell_volume   547.73267590
_cell_formula_units_Z   1
loop_
 _symmetry_equiv_pos_site_id
 _symmetry_equiv_pos_as_xyz
  1  'x, y, z'
loop_
 _atom_site_type_symbol
 _atom_site_label
 _atom_site_symmetry_multiplicity
 _atom_site_fract_x
 _atom_site_fract_y
 _atom_site_fract_z
 _atom_site_occupancy
  Dy  Dy0  1  0.250000  0.881691  0.019073  1
  Dy  Dy1  1  0.250000  0.618801  0.520757  1
  Dy  Dy2  1  0.750000  0.119943  0.977565  1
  Dy  Dy3  1  0.750000  0.378404  0.481072  1
  Dy  Dy4  1  0.250000  0.921421  0.603192  1
  Dy  Dy5  1  0.250000  0.581679  0.102888  1
  Dy  Dy6  1  0.750000  0.080243  0.401627  1
  Dy  Dy7  1  0.750000  0.417615  0.895591  1
  Dy  Dy8  1  0.250000  0.659406  0.801085  1
  Dy  Dy9  1  0.250000  0.842776  0.301720  1
  Dy  Dy10  1  0.750000  0.340166  0.198501  1
  Hf  Hf11  1  0.750000  0.159041  0.700898  1
  Si  Si12  1  0.250000  0.014535  0.819693  1
  Si  Si13  1  0.250000  0.488508  0.321441  1
  Si  Si14  1  0.750000  0.990498  0.178537  1
  Si  Si15  1  0.750000  0.511076  0.678422  1
  Si  Si16  1  0.250000  0.243059  0.835817  1
  Si  Si17  1  0.250000  0.252788  0.342390  1
  Si  Si18  1  0.750000  0.754860  0.159374  1
  Si  Si19  1  0.750000  0.745004  0.658501  1
  Si  Si20  1  0.250000  0.197970  0.553498  1
  Si  Si21  1  0.250000  0.297452  0.041409  1
  Si  Si22  1  0.750000  0.797795  0.456241  1
  Si  Si23  1  0.750000  0.702684  0.955811  1
  Ir  Ir24  1  0.250000  0.386272  0.681051  1
  Ir  Ir25  1  0.250000  0.112120  0.181420  1
  Ir  Ir26  1  0.750000  0.610053  0.318854  1
  Ir  Ir27  1  0.750000  0.894142  0.813573  1
