# generated using pymatgen
data_UCo4Ru
_symmetry_space_group_name_H-M   'P 1'
_cell_length_a   4.83449100
_cell_length_b   4.83449024
_cell_length_c   4.83449100
_cell_angle_alpha   119.99999837
_cell_angle_beta   90.00000000
_cell_angle_gamma   119.99999837
_symmetry_Int_Tables_number   1
_chemical_formula_structural   UCo4Ru
_chemical_formula_sum   'U1 Co4 Ru1'
_cell_volume   79.89824196
_cell_formula_units_Z   1
loop_
 _symmetry_equiv_pos_site_id
 _symmetry_equiv_pos_as_xyz
  1  'x, y, z'
loop_
 _atom_site_type_symbol
 _atom_site_label
 _atom_site_symmetry_multiplicity
 _atom_site_fract_x
 _atom_site_fract_y
 _atom_site_fract_z
 _atom_site_occupancy
  U  U0  1  0.000000  0.000000  0.000000  1
  Co  Co1  1  0.376054  0.752106  0.128162  1
  Co  Co2  1  0.376054  0.752106  0.623945  1
  Co  Co3  1  0.376054  0.247892  0.623945  1
  Co  Co4  1  0.871838  0.247892  0.623946  1
  Ru  Ru5  1  0.749999  0.499999  0.250000  1
