# generated using pymatgen
data_Dy3Th(TcB2)6
_symmetry_space_group_name_H-M   'P 1'
_cell_length_a   6.21027512
_cell_length_b   6.23267451
_cell_length_c   7.53277600
_cell_angle_alpha   90.35494578
_cell_angle_beta   90.97768603
_cell_angle_gamma   113.94916880
_symmetry_Int_Tables_number   1
_chemical_formula_structural   Dy3Th(TcB2)6
_chemical_formula_sum   'Dy3 Th1 Tc6 B12'
_cell_volume   266.39976174
_cell_formula_units_Z   1
loop_
 _symmetry_equiv_pos_site_id
 _symmetry_equiv_pos_as_xyz
  1  'x, y, z'
loop_
 _atom_site_type_symbol
 _atom_site_label
 _atom_site_symmetry_multiplicity
 _atom_site_fract_x
 _atom_site_fract_y
 _atom_site_fract_z
 _atom_site_occupancy
  Dy  Dy0  1  0.100397  0.442935  0.322490  1
  Dy  Dy1  1  0.562508  0.899401  0.181576  1
  Dy  Dy2  1  0.898084  0.556933  0.676278  1
  Th  Th3  1  0.434155  0.088943  0.826944  1
  Tc  Tc4  1  0.588973  0.412091  0.249520  1
  Tc  Tc5  1  0.411708  0.586011  0.748223  1
  Tc  Tc6  1  0.990211  0.804687  0.088893  1
  Tc  Tc7  1  0.195766  0.010404  0.411148  1
  Tc  Tc8  1  0.009446  0.199223  0.912440  1
  Tc  Tc9  1  0.805753  0.988637  0.588706  1
  B  B10  1  0.241126  0.153881  0.135409  1
  B  B11  1  0.850015  0.751540  0.370982  1
  B  B12  1  0.757228  0.848562  0.870769  1
  B  B13  1  0.147979  0.250287  0.626099  1
  B  B14  1  0.586442  0.159195  0.478524  1
  B  B15  1  0.842423  0.418632  0.019590  1
  B  B16  1  0.416958  0.839236  0.512659  1
  B  B17  1  0.159277  0.587142  0.981651  1
  B  B18  1  0.443059  0.350352  0.531699  1
  B  B19  1  0.650262  0.558153  0.965828  1
  B  B20  1  0.557863  0.648520  0.464751  1
  B  B21  1  0.350367  0.445237  0.035824  1
