# generated using pymatgen
data_Tb8Hf3Si16Mo9
_symmetry_space_group_name_H-M   'P 1'
_cell_length_a   6.99474132
_cell_length_b   6.99474132
_cell_length_c   12.94530597
_cell_angle_alpha   89.93651599
_cell_angle_beta   90.06348401
_cell_angle_gamma   89.83514382
_symmetry_Int_Tables_number   1
_chemical_formula_structural   Tb8Hf3Si16Mo9
_chemical_formula_sum   'Tb8 Hf3 Si16 Mo9'
_cell_volume   633.36389538
_cell_formula_units_Z   1
loop_
 _symmetry_equiv_pos_site_id
 _symmetry_equiv_pos_as_xyz
  1  'x, y, z'
loop_
 _atom_site_type_symbol
 _atom_site_label
 _atom_site_symmetry_multiplicity
 _atom_site_fract_x
 _atom_site_fract_y
 _atom_site_fract_z
 _atom_site_occupancy
  Tb  Tb0  1  0.999418  0.338219  0.216641  1
  Tb  Tb1  1  0.005084  0.660103  0.720372  1
  Tb  Tb2  1  0.160418  0.496693  0.468299  1
  Tb  Tb3  1  0.500677  0.841536  0.031106  1
  Tb  Tb4  1  0.841536  0.500677  0.968894  1
  Tb  Tb5  1  0.496693  0.160418  0.531701  1
  Tb  Tb6  1  0.338219  0.999418  0.783359  1
  Tb  Tb7  1  0.660103  0.005084  0.279628  1
  Hf  Hf8  1  0.831480  0.831480  0.500000  1
  Hf  Hf9  1  0.329539  0.669510  0.247689  1
  Hf  Hf10  1  0.669510  0.329539  0.752311  1
  Si  Si11  1  0.370823  0.295556  0.316478  1
  Si  Si12  1  0.627271  0.705671  0.817045  1
  Si  Si13  1  0.204001  0.872001  0.567572  1
  Si  Si14  1  0.125402  0.804893  0.935018  1
  Si  Si15  1  0.804893  0.125402  0.064982  1
  Si  Si16  1  0.872001  0.204001  0.432428  1
  Si  Si17  1  0.295556  0.370823  0.683522  1
  Si  Si18  1  0.705671  0.627271  0.182955  1
  Si  Si19  1  0.286535  0.047160  0.182994  1
  Si  Si20  1  0.709946  0.957629  0.689028  1
  Si  Si21  1  0.456337  0.789583  0.437833  1
  Si  Si22  1  0.212914  0.533805  0.058361  1
  Si  Si23  1  0.533805  0.212914  0.941639  1
  Si  Si24  1  0.789583  0.456337  0.562167  1
  Si  Si25  1  0.047160  0.286535  0.817006  1
  Si  Si26  1  0.957629  0.709946  0.310972  1
  Mo  Mo27  1  0.168158  0.168158  0.000000  1
  Mo  Mo28  1  0.160396  0.994701  0.375240  1
  Mo  Mo29  1  0.833291  0.003472  0.877203  1
  Mo  Mo30  1  0.506513  0.659414  0.626613  1
  Mo  Mo31  1  0.344393  0.497459  0.873590  1
  Mo  Mo32  1  0.497459  0.344393  0.126410  1
  Mo  Mo33  1  0.659414  0.506513  0.373387  1
  Mo  Mo34  1  0.994701  0.160396  0.624760  1
  Mo  Mo35  1  0.003472  0.833291  0.122797  1
