# generated using pymatgen
data_Hf3Ti3Zn3Cu3N2
_symmetry_space_group_name_H-M   'P 1'
_cell_length_a   8.23373612
_cell_length_b   8.23373711
_cell_length_c   8.24021600
_cell_angle_alpha   59.97396711
_cell_angle_beta   59.97396312
_cell_angle_gamma   59.96796477
_symmetry_Int_Tables_number   1
_chemical_formula_structural   Hf3Ti3Zn3Cu3N2
_chemical_formula_sum   'Hf6 Ti6 Zn6 Cu6 N4'
_cell_volume   394.76746419
_cell_formula_units_Z   2
loop_
 _symmetry_equiv_pos_site_id
 _symmetry_equiv_pos_as_xyz
  1  'x, y, z'
loop_
 _atom_site_type_symbol
 _atom_site_label
 _atom_site_symmetry_multiplicity
 _atom_site_fract_x
 _atom_site_fract_y
 _atom_site_fract_z
 _atom_site_occupancy
  Hf  Hf0  1  0.441809  0.058393  0.059177  1
  Hf  Hf1  1  0.058393  0.441809  0.059177  1
  Hf  Hf2  1  0.439724  0.439724  0.060276  1
  Hf  Hf3  1  0.058393  0.441809  0.440622  1
  Hf  Hf4  1  0.441809  0.058393  0.440622  1
  Hf  Hf5  1  0.057094  0.057094  0.442906  1
  Ti  Ti6  1  0.822636  0.176269  0.178514  1
  Ti  Ti7  1  0.176269  0.822636  0.178514  1
  Ti  Ti8  1  0.821920  0.821920  0.178080  1
  Ti  Ti9  1  0.176269  0.822636  0.822581  1
  Ti  Ti10  1  0.822636  0.176269  0.822581  1
  Ti  Ti11  1  0.176725  0.176725  0.823275  1
  Zn  Zn12  1  0.500820  0.833789  0.832697  1
  Zn  Zn13  1  0.833789  0.500820  0.832697  1
  Zn  Zn14  1  0.624508  0.624508  0.129317  1
  Zn  Zn15  1  0.624508  0.624508  0.621665  1
  Zn  Zn16  1  0.127117  0.626394  0.623244  1
  Zn  Zn17  1  0.626394  0.127117  0.623244  1
  Cu  Cu18  1  0.417297  0.417297  0.747690  1
  Cu  Cu19  1  0.417297  0.417297  0.417715  1
  Cu  Cu20  1  0.747637  0.417089  0.417636  1
  Cu  Cu21  1  0.417089  0.747637  0.417636  1
  Cu  Cu22  1  0.835048  0.835048  0.494667  1
  Cu  Cu23  1  0.835048  0.835048  0.835238  1
  N  N24  1  0.122167  0.122167  0.632612  1
  N  N25  1  0.122167  0.122167  0.123054  1
  N  N26  1  0.633915  0.121522  0.122282  1
  N  N27  1  0.121522  0.633915  0.122282  1
