# generated using pymatgen
data_YbTh2(Ga8Pd3)3
_symmetry_space_group_name_H-M   'P 1'
_cell_length_a   8.53535236
_cell_length_b   8.53535327
_cell_length_c   8.54901639
_cell_angle_alpha   89.51047433
_cell_angle_beta   89.51047824
_cell_angle_gamma   89.29836933
_symmetry_Int_Tables_number   1
_chemical_formula_structural   YbTh2(Ga8Pd3)3
_chemical_formula_sum   'Yb1 Th2 Ga24 Pd9'
_cell_volume   622.72345173
_cell_formula_units_Z   1
loop_
 _symmetry_equiv_pos_site_id
 _symmetry_equiv_pos_as_xyz
  1  'x, y, z'
loop_
 _atom_site_type_symbol
 _atom_site_label
 _atom_site_symmetry_multiplicity
 _atom_site_fract_x
 _atom_site_fract_y
 _atom_site_fract_z
 _atom_site_occupancy
  Yb  Yb0  1  0.000000  0.000000  0.500000  1
  Th  Th1  1  0.000000  0.500000  0.000000  1
  Th  Th2  1  0.500000  0.000000  0.000000  1
  Ga  Ga3  1  0.988356  0.644901  0.643602  1
  Ga  Ga4  1  0.643533  0.643533  0.987827  1
  Ga  Ga5  1  0.644901  0.988356  0.643602  1
  Ga  Ga6  1  0.011644  0.355099  0.356398  1
  Ga  Ga7  1  0.356467  0.356467  0.012173  1
  Ga  Ga8  1  0.355099  0.011644  0.356398  1
  Ga  Ga9  1  0.737869  0.500303  0.264192  1
  Ga  Ga10  1  0.262131  0.499697  0.735808  1
  Ga  Ga11  1  0.499697  0.262131  0.735808  1
  Ga  Ga12  1  0.500303  0.737869  0.264192  1
  Ga  Ga13  1  0.255138  0.744862  0.500000  1
  Ga  Ga14  1  0.744862  0.255138  0.500000  1
  Ga  Ga15  1  0.837359  0.142139  0.836404  1
  Ga  Ga16  1  0.142139  0.837359  0.836404  1
  Ga  Ga17  1  0.837681  0.837681  0.144341  1
  Ga  Ga18  1  0.162641  0.857861  0.163596  1
  Ga  Ga19  1  0.857861  0.162641  0.163596  1
  Ga  Ga20  1  0.162319  0.162319  0.855659  1
  Ga  Ga21  1  0.730491  0.487358  0.728145  1
  Ga  Ga22  1  0.487358  0.730491  0.728145  1
  Ga  Ga23  1  0.734234  0.734234  0.488358  1
  Ga  Ga24  1  0.269509  0.512642  0.271855  1
  Ga  Ga25  1  0.512642  0.269509  0.271855  1
  Ga  Ga26  1  0.265766  0.265766  0.511642  1
  Pd  Pd27  1  0.836684  0.836684  0.840473  1
  Pd  Pd28  1  0.163316  0.163316  0.159527  1
  Pd  Pd29  1  0.663699  0.336301  0.000000  1
  Pd  Pd30  1  0.000330  0.334442  0.663127  1
  Pd  Pd31  1  0.334442  0.000330  0.663127  1
  Pd  Pd32  1  0.336301  0.663699  0.000000  1
  Pd  Pd33  1  0.999670  0.665558  0.336873  1
  Pd  Pd34  1  0.665558  0.999670  0.336873  1
  Pd  Pd35  1  0.500000  0.500000  0.500000  1
