# generated using pymatgen
data_Ho4ErRuRh
_symmetry_space_group_name_H-M   'P 1'
_cell_length_a   6.35241148
_cell_length_b   7.22260737
_cell_length_c   8.47462328
_cell_angle_alpha   96.74460209
_cell_angle_beta   112.01133761
_cell_angle_gamma   89.99999731
_symmetry_Int_Tables_number   1
_chemical_formula_structural   Ho4ErRuRh
_chemical_formula_sum   'Ho8 Er2 Ru2 Rh2'
_cell_volume   357.57842114
_cell_formula_units_Z   2
loop_
 _symmetry_equiv_pos_site_id
 _symmetry_equiv_pos_as_xyz
  1  'x, y, z'
loop_
 _atom_site_type_symbol
 _atom_site_label
 _atom_site_symmetry_multiplicity
 _atom_site_fract_x
 _atom_site_fract_y
 _atom_site_fract_z
 _atom_site_occupancy
  Ho  Ho0  1  0.792762  0.582277  0.812129  1
  Ho  Ho1  1  0.980633  0.917723  0.187871  1
  Ho  Ho2  1  0.209239  0.414863  0.185158  1
  Ho  Ho3  1  0.024081  0.085137  0.814842  1
  Ho  Ho4  1  0.207763  0.684103  0.565870  1
  Ho  Ho5  1  0.641893  0.815897  0.434130  1
  Ho  Ho6  1  0.791924  0.312267  0.436590  1
  Ho  Ho7  1  0.355334  0.187733  0.563410  1
  Er  Er8  1  0.420671  0.750000  0.000000  1
  Er  Er9  1  0.577006  0.250000  0.000000  1
  Ru  Ru10  1  0.397623  0.074654  0.220034  1
  Ru  Ru11  1  0.177590  0.425346  0.779966  1
  Rh  Rh12  1  0.601196  0.923936  0.778912  1
  Rh  Rh13  1  0.822283  0.576064  0.221088  1
