# generated using pymatgen
data_Hf(SiRh2)2
_symmetry_space_group_name_H-M   'P 1'
_cell_length_a   4.07522500
_cell_length_b   8.90526500
_cell_length_c   11.20808800
_cell_angle_alpha   90.00000000
_cell_angle_beta   90.00000000
_cell_angle_gamma   90.00000000
_symmetry_Int_Tables_number   1
_chemical_formula_structural   Hf(SiRh2)2
_chemical_formula_sum   'Hf4 Si8 Rh16'
_cell_volume   406.75225714
_cell_formula_units_Z   4
loop_
 _symmetry_equiv_pos_site_id
 _symmetry_equiv_pos_as_xyz
  1  'x, y, z'
loop_
 _atom_site_type_symbol
 _atom_site_label
 _atom_site_symmetry_multiplicity
 _atom_site_fract_x
 _atom_site_fract_y
 _atom_site_fract_z
 _atom_site_occupancy
  Hf  Hf0  1  0.250000  0.141982  0.823858  1
  Hf  Hf1  1  0.250000  0.358018  0.323858  1
  Hf  Hf2  1  0.750000  0.858018  0.176142  1
  Hf  Hf3  1  0.750000  0.641982  0.676142  1
  Si  Si4  1  0.250000  0.413481  0.638824  1
  Si  Si5  1  0.250000  0.086519  0.138824  1
  Si  Si6  1  0.750000  0.586519  0.361176  1
  Si  Si7  1  0.750000  0.913481  0.861176  1
  Si  Si8  1  0.250000  0.617550  0.057517  1
  Si  Si9  1  0.250000  0.882450  0.557517  1
  Si  Si10  1  0.750000  0.382450  0.942483  1
  Si  Si11  1  0.750000  0.117550  0.442483  1
  Rh  Rh12  1  0.250000  0.614739  0.501767  1
  Rh  Rh13  1  0.250000  0.885261  0.001767  1
  Rh  Rh14  1  0.750000  0.385261  0.498233  1
  Rh  Rh15  1  0.750000  0.114739  0.998233  1
  Rh  Rh16  1  0.250000  0.695718  0.263854  1
  Rh  Rh17  1  0.250000  0.804282  0.763854  1
  Rh  Rh18  1  0.750000  0.304282  0.736146  1
  Rh  Rh19  1  0.750000  0.195718  0.236146  1
  Rh  Rh20  1  0.250000  0.171067  0.560087  1
  Rh  Rh21  1  0.250000  0.328933  0.060087  1
  Rh  Rh22  1  0.750000  0.828933  0.439913  1
  Rh  Rh23  1  0.750000  0.671067  0.939913  1
  Rh  Rh24  1  0.250000  0.008943  0.340652  1
  Rh  Rh25  1  0.250000  0.491057  0.840652  1
  Rh  Rh26  1  0.750000  0.991057  0.659348  1
  Rh  Rh27  1  0.750000  0.508943  0.159348  1
