# generated using pymatgen
data_Dy2YSn3RuPt2
_symmetry_space_group_name_H-M   'P 1'
_cell_length_a   7.72178246
_cell_length_b   7.72178195
_cell_length_c   3.77179300
_cell_angle_alpha   90.00000000
_cell_angle_beta   90.00000000
_cell_angle_gamma   119.96053933
_symmetry_Int_Tables_number   1
_chemical_formula_structural   Dy2YSn3RuPt2
_chemical_formula_sum   'Dy2 Y1 Sn3 Ru1 Pt2'
_cell_volume   194.84359310
_cell_formula_units_Z   1
loop_
 _symmetry_equiv_pos_site_id
 _symmetry_equiv_pos_as_xyz
  1  'x, y, z'
loop_
 _atom_site_type_symbol
 _atom_site_label
 _atom_site_symmetry_multiplicity
 _atom_site_fract_x
 _atom_site_fract_y
 _atom_site_fract_z
 _atom_site_occupancy
  Dy  Dy0  1  0.598375  0.000070  0.500000  1
  Dy  Dy1  1  0.000070  0.598375  0.500000  1
  Y  Y2  1  0.401381  0.401381  0.500000  1
  Sn  Sn3  1  0.738901  0.738901  0.000000  1
  Sn  Sn4  1  0.260319  0.000819  0.000000  1
  Sn  Sn5  1  0.000819  0.260319  0.000000  1
  Ru  Ru6  1  0.997908  0.997908  0.500000  1
  Pt  Pt7  1  0.669002  0.333226  0.000000  1
  Pt  Pt8  1  0.333226  0.669002  0.000000  1
