# generated using pymatgen
data_DyLuNpO6
_symmetry_space_group_name_H-M   'P 1'
_cell_length_a   5.50268100
_cell_length_b   7.78640044
_cell_length_c   11.69821170
_cell_angle_alpha   74.06595758
_cell_angle_beta   90.00000000
_cell_angle_gamma   90.00000000
_symmetry_Int_Tables_number   1
_chemical_formula_structural   DyLuNpO6
_chemical_formula_sum   'Dy4 Lu4 Np4 O24'
_cell_volume   481.96470126
_cell_formula_units_Z   4
loop_
 _symmetry_equiv_pos_site_id
 _symmetry_equiv_pos_as_xyz
  1  'x, y, z'
loop_
 _atom_site_type_symbol
 _atom_site_label
 _atom_site_symmetry_multiplicity
 _atom_site_fract_x
 _atom_site_fract_y
 _atom_site_fract_z
 _atom_site_occupancy
  Dy  Dy0  1  0.250781  0.000000  0.750000  1
  Dy  Dy1  1  0.749219  0.000000  0.250000  1
  Dy  Dy2  1  0.301075  0.500000  0.750000  1
  Dy  Dy3  1  0.698925  0.500000  0.250000  1
  Lu  Lu4  1  0.184799  0.792136  0.081571  1
  Lu  Lu5  1  0.184799  0.207864  0.418429  1
  Lu  Lu6  1  0.815201  0.207864  0.918429  1
  Lu  Lu7  1  0.815201  0.792136  0.581571  1
  Np  Np8  1  0.741586  0.721409  0.887668  1
  Np  Np9  1  0.258414  0.721409  0.387668  1
  Np  Np10  1  0.741586  0.278591  0.612332  1
  Np  Np11  1  0.258414  0.278591  0.112332  1
  O  O12  1  0.564741  0.155347  0.066266  1
  O  O13  1  0.053295  0.052789  0.101815  1
  O  O14  1  0.034020  0.715877  0.766061  1
  O  O15  1  0.435259  0.155347  0.566266  1
  O  O16  1  0.384635  0.479093  0.383806  1
  O  O17  1  0.946705  0.052789  0.601815  1
  O  O18  1  0.550882  0.801411  0.724522  1
  O  O19  1  0.449118  0.801411  0.224522  1
  O  O20  1  0.121931  0.628399  0.556556  1
  O  O21  1  0.053295  0.947211  0.398185  1
  O  O22  1  0.435259  0.844653  0.933734  1
  O  O23  1  0.449118  0.198589  0.275478  1
  O  O24  1  0.878069  0.371601  0.443444  1
  O  O25  1  0.615365  0.479093  0.883806  1
  O  O26  1  0.384635  0.520907  0.116194  1
  O  O27  1  0.946705  0.947211  0.898185  1
  O  O28  1  0.564741  0.844653  0.433734  1
  O  O29  1  0.965980  0.284123  0.233939  1
  O  O30  1  0.550882  0.198589  0.775478  1
  O  O31  1  0.878069  0.628399  0.056556  1
  O  O32  1  0.034020  0.284123  0.733939  1
  O  O33  1  0.121931  0.371601  0.943444  1
  O  O34  1  0.965980  0.715877  0.266061  1
  O  O35  1  0.615365  0.520907  0.616194  1
