# generated using pymatgen
data_RbMoF5
_symmetry_space_group_name_H-M   'P 1'
_cell_length_a   5.92790100
_cell_length_b   8.20055300
_cell_length_c   10.83976900
_cell_angle_alpha   90.00000000
_cell_angle_beta   90.00000000
_cell_angle_gamma   90.00000000
_symmetry_Int_Tables_number   1
_chemical_formula_structural   RbMoF5
_chemical_formula_sum   'Rb4 Mo4 F20'
_cell_volume   526.94356962
_cell_formula_units_Z   4
loop_
 _symmetry_equiv_pos_site_id
 _symmetry_equiv_pos_as_xyz
  1  'x, y, z'
loop_
 _atom_site_type_symbol
 _atom_site_label
 _atom_site_symmetry_multiplicity
 _atom_site_fract_x
 _atom_site_fract_y
 _atom_site_fract_z
 _atom_site_occupancy
  Rb  Rb0  1  0.500000  0.885792  0.970985  1
  Rb  Rb1  1  0.500000  0.114208  0.470985  1
  Rb  Rb2  1  0.000000  0.368322  0.119925  1
  Rb  Rb3  1  0.000000  0.631678  0.619925  1
  Mo  Mo4  1  0.000000  0.886187  0.241955  1
  Mo  Mo5  1  0.500000  0.574170  0.340377  1
  Mo  Mo6  1  0.500000  0.425830  0.840377  1
  Mo  Mo7  1  0.000000  0.113813  0.741955  1
  F  F8  1  0.270316  0.553852  0.928214  1
  F  F9  1  0.751169  0.700569  0.238899  1
  F  F10  1  0.229969  0.059239  0.237488  1
  F  F11  1  0.751169  0.299431  0.738899  1
  F  F12  1  0.500000  0.235601  0.948520  1
  F  F13  1  0.770031  0.940761  0.737488  1
  F  F14  1  0.500000  0.568884  0.696134  1
  F  F15  1  0.229969  0.940761  0.737488  1
  F  F16  1  0.000000  0.850532  0.064070  1
  F  F17  1  0.770031  0.059239  0.237488  1
  F  F18  1  0.500000  0.431116  0.196134  1
  F  F19  1  0.729684  0.446148  0.428214  1
  F  F20  1  0.248831  0.700569  0.238899  1
  F  F21  1  0.000000  0.853657  0.420342  1
  F  F22  1  0.000000  0.149468  0.564070  1
  F  F23  1  0.248831  0.299431  0.738899  1
  F  F24  1  0.000000  0.146343  0.920342  1
  F  F25  1  0.270316  0.446148  0.428214  1
  F  F26  1  0.500000  0.764399  0.448520  1
  F  F27  1  0.729684  0.553852  0.928214  1
