# generated using pymatgen
data_SrY7(Si4W3)4
_symmetry_space_group_name_H-M   'P 1'
_cell_length_a   6.80144625
_cell_length_b   6.97260109
_cell_length_c   12.97120814
_cell_angle_alpha   89.82883394
_cell_angle_beta   89.98627246
_cell_angle_gamma   89.80210298
_symmetry_Int_Tables_number   1
_chemical_formula_structural   SrY7(Si4W3)4
_chemical_formula_sum   'Sr1 Y7 Si16 W12'
_cell_volume   615.13718086
_cell_formula_units_Z   1
loop_
 _symmetry_equiv_pos_site_id
 _symmetry_equiv_pos_as_xyz
  1  'x, y, z'
loop_
 _atom_site_type_symbol
 _atom_site_label
 _atom_site_symmetry_multiplicity
 _atom_site_fract_x
 _atom_site_fract_y
 _atom_site_fract_z
 _atom_site_occupancy
  Sr  Sr0  1  0.998454  0.835059  0.589707  1
  Y  Y1  1  0.497245  0.667790  0.594157  1
  Y  Y2  1  0.997189  0.831512  0.906104  1
  Y  Y3  1  0.504202  0.331604  0.093443  1
  Y  Y4  1  0.004069  0.166660  0.406215  1
  Y  Y5  1  0.504350  0.332987  0.405737  1
  Y  Y6  1  0.004300  0.167797  0.093627  1
  Y  Y7  1  0.496434  0.667854  0.907166  1
  Si  Si8  1  0.657931  0.957007  0.451161  1
  Si  Si9  1  0.161677  0.544397  0.046434  1
  Si  Si10  1  0.337595  0.042405  0.954188  1
  Si  Si11  1  0.838122  0.453629  0.546738  1
  Si  Si12  1  0.344269  0.045266  0.546613  1
  Si  Si13  1  0.838652  0.456580  0.954291  1
  Si  Si14  1  0.662380  0.957039  0.046575  1
  Si  Si15  1  0.161046  0.540919  0.450777  1
  Si  Si16  1  0.464483  0.371263  0.751306  1
  Si  Si17  1  0.963679  0.132238  0.751740  1
  Si  Si18  1  0.534113  0.630248  0.249247  1
  Si  Si19  1  0.034938  0.868420  0.250461  1
  Si  Si20  1  0.695437  0.870398  0.750466  1
  Si  Si21  1  0.196609  0.631260  0.750607  1
  Si  Si22  1  0.303650  0.131392  0.249615  1
  Si  Si23  1  0.804159  0.366074  0.249495  1
  W  W24  1  0.664289  0.168274  0.626969  1
  W  W25  1  0.170664  0.339180  0.876299  1
  W  W26  1  0.331787  0.836184  0.125953  1
  W  W27  1  0.827762  0.658549  0.372166  1
  W  W28  1  0.333183  0.836502  0.373062  1
  W  W29  1  0.829838  0.661300  0.125314  1
  W  W30  1  0.666437  0.164832  0.875090  1
  W  W31  1  0.169919  0.336457  0.627069  1
  W  W32  1  0.835075  0.493452  0.751865  1
  W  W33  1  0.334565  0.004532  0.752393  1
  W  W34  1  0.164759  0.502594  0.249198  1
  W  W35  1  0.666740  0.998346  0.248751  1
