# generated using pymatgen
data_Na4Eu(SiSe3)2
_symmetry_space_group_name_H-M   'P 1'
_cell_length_a   7.13684343
_cell_length_b   7.13684364
_cell_length_c   8.01753946
_cell_angle_alpha   81.37421907
_cell_angle_beta   81.37422266
_cell_angle_gamma   119.83167854
_symmetry_Int_Tables_number   1
_chemical_formula_structural   Na4Eu(SiSe3)2
_chemical_formula_sum   'Na4 Eu1 Si2 Se6'
_cell_volume   338.02851015
_cell_formula_units_Z   1
loop_
 _symmetry_equiv_pos_site_id
 _symmetry_equiv_pos_as_xyz
  1  'x, y, z'
loop_
 _atom_site_type_symbol
 _atom_site_label
 _atom_site_symmetry_multiplicity
 _atom_site_fract_x
 _atom_site_fract_y
 _atom_site_fract_z
 _atom_site_occupancy
  Na  Na0  1  0.500012  0.499988  0.000000  1
  Na  Na1  1  0.826322  0.173678  0.000000  1
  Na  Na2  1  0.173695  0.826305  0.000000  1
  Na  Na3  1  0.665234  0.334766  0.500000  1
  Eu  Eu4  1  0.334526  0.665474  0.500000  1
  Si  Si5  1  0.049684  0.049684  0.346628  1
  Si  Si6  1  0.950316  0.950316  0.653372  1
  Se  Se7  1  0.773777  0.774593  0.254203  1
  Se  Se8  1  0.225407  0.226223  0.745797  1
  Se  Se9  1  0.082138  0.390127  0.254326  1
  Se  Se10  1  0.389103  0.080088  0.253867  1
  Se  Se11  1  0.919912  0.610897  0.746133  1
  Se  Se12  1  0.609873  0.917862  0.745674  1
