# generated using pymatgen
data_Cr9Re2P4Ru
_symmetry_space_group_name_H-M   'P 1'
_cell_length_a   4.52426381
_cell_length_b   6.93693729
_cell_length_c   6.94703624
_cell_angle_alpha   83.71501310
_cell_angle_beta   70.84075677
_cell_angle_gamma   70.97591914
_symmetry_Int_Tables_number   1
_chemical_formula_structural   Cr9Re2P4Ru
_chemical_formula_sum   'Cr9 Re2 P4 Ru1'
_cell_volume   194.70329564
_cell_formula_units_Z   1
loop_
 _symmetry_equiv_pos_site_id
 _symmetry_equiv_pos_as_xyz
  1  'x, y, z'
loop_
 _atom_site_type_symbol
 _atom_site_label
 _atom_site_symmetry_multiplicity
 _atom_site_fract_x
 _atom_site_fract_y
 _atom_site_fract_z
 _atom_site_occupancy
  Cr  Cr0  1  0.660165  0.031318  0.186538  1
  Cr  Cr1  1  0.636231  0.392433  0.327043  1
  Cr  Cr2  1  0.356280  0.608237  0.672868  1
  Cr  Cr3  1  0.034401  0.327212  0.609037  1
  Cr  Cr4  1  0.971387  0.670116  0.390199  1
  Cr  Cr5  1  0.590380  0.390274  0.940277  1
  Cr  Cr6  1  0.921359  0.612145  0.061440  1
  Cr  Cr7  1  0.471371  0.939885  0.605880  1
  Cr  Cr8  1  0.012225  0.057111  0.387075  1
  Re  Re9  1  0.152651  0.192383  0.970091  1
  Re  Re10  1  0.308329  0.811872  0.036166  1
  P  P11  1  0.211125  0.340273  0.251120  1
  P  P12  1  0.801054  0.654900  0.749943  1
  P  P13  1  0.550313  0.247412  0.650718  1
  P  P14  1  0.449334  0.755276  0.348476  1
  Ru  Ru15  1  0.873401  0.969153  0.813128  1
