# generated using pymatgen
data_Lu16In6OsPt
_symmetry_space_group_name_H-M   'P 1'
_cell_length_a   10.23127600
_cell_length_b   10.23127656
_cell_length_c   6.88126200
_cell_angle_alpha   90.00000000
_cell_angle_beta   90.00000000
_cell_angle_gamma   120.00000465
_symmetry_Int_Tables_number   1
_chemical_formula_structural   Lu16In6OsPt
_chemical_formula_sum   'Lu16 In6 Os1 Pt1'
_cell_volume   623.81861428
_cell_formula_units_Z   1
loop_
 _symmetry_equiv_pos_site_id
 _symmetry_equiv_pos_as_xyz
  1  'x, y, z'
loop_
 _atom_site_type_symbol
 _atom_site_label
 _atom_site_symmetry_multiplicity
 _atom_site_fract_x
 _atom_site_fract_y
 _atom_site_fract_z
 _atom_site_occupancy
  Lu  Lu0  1  0.532669  0.065338  0.522609  1
  Lu  Lu1  1  0.934662  0.467331  0.522609  1
  Lu  Lu2  1  0.532669  0.467331  0.522609  1
  Lu  Lu3  1  0.470231  0.940461  0.025533  1
  Lu  Lu4  1  0.059539  0.529769  0.025533  1
  Lu  Lu5  1  0.470231  0.529769  0.025533  1
  Lu  Lu6  1  0.175572  0.351143  0.731118  1
  Lu  Lu7  1  0.648857  0.824428  0.731118  1
  Lu  Lu8  1  0.175572  0.824428  0.731118  1
  Lu  Lu9  1  0.822632  0.645266  0.231818  1
  Lu  Lu10  1  0.354734  0.177368  0.231818  1
  Lu  Lu11  1  0.822632  0.177368  0.231818  1
  Lu  Lu12  1  0.666667  0.333333  0.900281  1
  Lu  Lu13  1  0.333333  0.666667  0.398878  1
  Lu  Lu14  1  0.000000  0.000000  0.508753  1
  Lu  Lu15  1  0.000000  0.000000  0.005792  1
  In  In16  1  0.837601  0.675201  0.768590  1
  In  In17  1  0.324799  0.162399  0.768590  1
  In  In18  1  0.837601  0.162399  0.768590  1
  In  In19  1  0.162825  0.325651  0.268362  1
  In  In20  1  0.674349  0.837175  0.268362  1
  In  In21  1  0.162825  0.837175  0.268362  1
  Os  Os22  1  0.666667  0.333333  0.300203  1
  Pt  Pt23  1  0.333333  0.666667  0.797682  1
