# generated using pymatgen
data_Tb16Cd4Co3Pd
_symmetry_space_group_name_H-M   'P 1'
_cell_length_a   9.60626673
_cell_length_b   9.60575451
_cell_length_c   9.60369243
_cell_angle_alpha   59.95627988
_cell_angle_beta   59.95772754
_cell_angle_gamma   59.96359492
_symmetry_Int_Tables_number   1
_chemical_formula_structural   Tb16Cd4Co3Pd
_chemical_formula_sum   'Tb16 Cd4 Co3 Pd1'
_cell_volume   626.04758541
_cell_formula_units_Z   1
loop_
 _symmetry_equiv_pos_site_id
 _symmetry_equiv_pos_as_xyz
  1  'x, y, z'
loop_
 _atom_site_type_symbol
 _atom_site_label
 _atom_site_symmetry_multiplicity
 _atom_site_fract_x
 _atom_site_fract_y
 _atom_site_fract_z
 _atom_site_occupancy
  Tb  Tb0  1  0.439067  0.439069  0.049583  1
  Tb  Tb1  1  0.594571  0.594666  0.594822  1
  Tb  Tb2  1  0.188004  0.814268  0.814239  1
  Tb  Tb3  1  0.061372  0.061272  0.436552  1
  Tb  Tb4  1  0.436543  0.061424  0.061261  1
  Tb  Tb5  1  0.814269  0.188000  0.814237  1
  Tb  Tb6  1  0.439090  0.049679  0.439086  1
  Tb  Tb7  1  0.604274  0.204482  0.604521  1
  Tb  Tb8  1  0.814240  0.814238  0.188017  1
  Tb  Tb9  1  0.204514  0.604324  0.604481  1
  Tb  Tb10  1  0.812926  0.187733  0.187744  1
  Tb  Tb11  1  0.049732  0.439099  0.439092  1
  Tb  Tb12  1  0.187735  0.812923  0.187744  1
  Tb  Tb13  1  0.604353  0.604443  0.204407  1
  Tb  Tb14  1  0.187730  0.187727  0.812922  1
  Tb  Tb15  1  0.061466  0.436544  0.061207  1
  Cd  Cd16  1  0.829978  0.829976  0.507695  1
  Cd  Cd17  1  0.830901  0.830895  0.830885  1
  Cd  Cd18  1  0.507695  0.829974  0.829971  1
  Cd  Cd19  1  0.829976  0.507693  0.829971  1
  Co  Co20  1  0.826186  0.391539  0.391545  1
  Co  Co21  1  0.391535  0.826173  0.391546  1
  Co  Co22  1  0.391533  0.391539  0.826145  1
  Pd  Pd23  1  0.392309  0.392320  0.392325  1
