# generated using pymatgen
data_Pr5Tm(CI5)2
_symmetry_space_group_name_H-M   'P 1'
_cell_length_a   7.91857652
_cell_length_b   9.74427854
_cell_length_c   9.82356734
_cell_angle_alpha   107.10177976
_cell_angle_beta   96.29370069
_cell_angle_gamma   104.38927358
_symmetry_Int_Tables_number   1
_chemical_formula_structural   Pr5Tm(CI5)2
_chemical_formula_sum   'Pr5 Tm1 C2 I10'
_cell_volume   687.95091633
_cell_formula_units_Z   1
loop_
 _symmetry_equiv_pos_site_id
 _symmetry_equiv_pos_as_xyz
  1  'x, y, z'
loop_
 _atom_site_type_symbol
 _atom_site_label
 _atom_site_symmetry_multiplicity
 _atom_site_fract_x
 _atom_site_fract_y
 _atom_site_fract_z
 _atom_site_occupancy
  Pr  Pr0  1  0.106166  0.039156  0.774496  1
  Pr  Pr1  1  0.372434  0.132758  0.178536  1
  Pr  Pr2  1  0.890348  0.959122  0.224158  1
  Pr  Pr3  1  0.030512  0.733573  0.922158  1
  Pr  Pr4  1  0.967293  0.266322  0.076869  1
  Tm  Tm5  1  0.635807  0.870184  0.825778  1
  C  C6  1  0.907512  0.969060  0.957870  1
  C  C7  1  0.082346  0.028129  0.038618  1
  I  I8  1  0.211864  0.738406  0.649851  1
  I  I9  1  0.088735  0.370830  0.818117  1
  I  I10  1  0.460686  0.807321  0.081522  1
  I  I11  1  0.252964  0.083661  0.461759  1
  I  I12  1  0.545912  0.179295  0.900624  1
  I  I13  1  0.807175  0.267061  0.358788  1
  I  I14  1  0.345265  0.457943  0.272853  1
  I  I15  1  0.911313  0.629184  0.181409  1
  I  I16  1  0.648284  0.555785  0.727967  1
  I  I17  1  0.735384  0.912208  0.548628  1
