# generated using pymatgen
data_La8Tm12Si15P
_symmetry_space_group_name_H-M   'P 1'
_cell_length_a   7.81694295
_cell_length_b   7.77928060
_cell_length_c   14.19559000
_cell_angle_alpha   89.84595713
_cell_angle_beta   89.28717645
_cell_angle_gamma   90.01832153
_symmetry_Int_Tables_number   1
_chemical_formula_structural   La8Tm12Si15P
_chemical_formula_sum   'La8 Tm12 Si15 P1'
_cell_volume   863.16658366
_cell_formula_units_Z   1
loop_
 _symmetry_equiv_pos_site_id
 _symmetry_equiv_pos_as_xyz
  1  'x, y, z'
loop_
 _atom_site_type_symbol
 _atom_site_label
 _atom_site_symmetry_multiplicity
 _atom_site_fract_x
 _atom_site_fract_y
 _atom_site_fract_z
 _atom_site_occupancy
  La  La0  1  0.346944  0.002531  0.462864  1
  La  La1  1  0.494698  0.856553  0.711754  1
  La  La2  1  0.502400  0.150288  0.211572  1
  La  La3  1  0.847261  0.495028  0.287774  1
  La  La4  1  0.153657  0.498439  0.786512  1
  La  La5  1  0.657516  0.993534  0.963978  1
  La  La6  1  0.998716  0.349819  0.536953  1
  La  La7  1  0.997257  0.649364  0.038664  1
  Tm  Tm8  1  0.326395  0.323287  0.000245  1
  Tm  Tm9  1  0.176529  0.822626  0.250080  1
  Tm  Tm10  1  0.823738  0.178343  0.749485  1
  Tm  Tm11  1  0.672870  0.675202  0.501226  1
  Tm  Tm12  1  0.156466  0.004867  0.868002  1
  Tm  Tm13  1  0.504016  0.646374  0.124298  1
  Tm  Tm14  1  0.486044  0.344736  0.628825  1
  Tm  Tm15  1  0.653737  0.507167  0.878656  1
  Tm  Tm16  1  0.351646  0.496780  0.376950  1
  Tm  Tm17  1  0.851266  0.004510  0.373556  1
  Tm  Tm18  1  0.996322  0.147175  0.126009  1
  Tm  Tm19  1  0.999879  0.852860  0.622698  1
  Si  Si20  1  0.357483  0.709676  0.935746  1
  Si  Si21  1  0.638979  0.291998  0.438462  1
  Si  Si22  1  0.708870  0.358670  0.066867  1
  Si  Si23  1  0.293354  0.640220  0.566479  1
  Si  Si24  1  0.790957  0.857033  0.187849  1
  Si  Si25  1  0.141946  0.208573  0.313495  1
  Si  Si26  1  0.863662  0.794946  0.811988  1
  Si  Si27  1  0.290557  0.941606  0.060834  1
  Si  Si28  1  0.555860  0.790895  0.312446  1
  Si  Si29  1  0.468441  0.213660  0.823387  1
  Si  Si30  1  0.789999  0.556866  0.687452  1
  Si  Si31  1  0.208197  0.442225  0.188206  1
  Si  Si32  1  0.703988  0.056713  0.561999  1
  Si  Si33  1  0.950839  0.290848  0.936241  1
  Si  Si34  1  0.052636  0.709805  0.435449  1
  P  P35  1  0.186875  0.136783  0.672996  1
