# generated using pymatgen
data_U4Re6Si3P3Ru
_symmetry_space_group_name_H-M   'P 1'
_cell_length_a   7.09805149
_cell_length_b   7.09805068
_cell_length_c   7.09804993
_cell_angle_alpha   109.29218862
_cell_angle_beta   109.40888383
_cell_angle_gamma   109.71288509
_symmetry_Int_Tables_number   1
_chemical_formula_structural   U4Re6Si3P3Ru
_chemical_formula_sum   'U4 Re6 Si3 P3 Ru1'
_cell_volume   275.28917394
_cell_formula_units_Z   1
loop_
 _symmetry_equiv_pos_site_id
 _symmetry_equiv_pos_as_xyz
  1  'x, y, z'
loop_
 _atom_site_type_symbol
 _atom_site_label
 _atom_site_symmetry_multiplicity
 _atom_site_fract_x
 _atom_site_fract_y
 _atom_site_fract_z
 _atom_site_occupancy
  U  U0  1  0.495461  0.496543  0.495694  1
  U  U1  1  0.000850  0.999768  0.504306  1
  U  U2  1  0.495461  0.999768  0.998918  1
  U  U3  1  0.000850  0.496543  0.001082  1
  Re  Re4  1  0.500353  0.251257  0.750905  1
  Re  Re5  1  0.500353  0.749448  0.249095  1
  Re  Re6  1  0.248661  0.499983  0.748678  1
  Re  Re7  1  0.751307  0.499983  0.251322  1
  Re  Re8  1  0.246103  0.746103  0.500000  1
  Re  Re9  1  0.007300  0.007300  0.000000  1
  Si  Si10  1  0.684519  0.998091  0.686429  1
  Si  Si11  1  0.311662  0.998091  0.313571  1
  Si  Si12  1  0.693797  0.693797  0.000000  1
  P  P13  1  0.315197  0.315197  0.000000  1
  P  P14  1  0.999142  0.307666  0.308525  1
  P  P15  1  0.999142  0.690617  0.691475  1
  Ru  Ru16  1  0.749844  0.249844  0.500000  1
