# generated using pymatgen
data_Nd5Er3Sc12Si15Hg
_symmetry_space_group_name_H-M   'P 1'
_cell_length_a   7.20216688
_cell_length_b   7.45620928
_cell_length_c   14.21484814
_cell_angle_alpha   89.87578367
_cell_angle_beta   89.73927692
_cell_angle_gamma   90.25475918
_symmetry_Int_Tables_number   1
_chemical_formula_structural   Nd5Er3Sc12Si15Hg
_chemical_formula_sum   'Nd5 Er3 Sc12 Si15 Hg1'
_cell_volume   763.33234343
_cell_formula_units_Z   1
loop_
 _symmetry_equiv_pos_site_id
 _symmetry_equiv_pos_as_xyz
  1  'x, y, z'
loop_
 _atom_site_type_symbol
 _atom_site_label
 _atom_site_symmetry_multiplicity
 _atom_site_fract_x
 _atom_site_fract_y
 _atom_site_fract_z
 _atom_site_occupancy
  Nd  Nd0  1  0.011477  0.173013  0.099016  1
  Nd  Nd1  1  0.988904  0.828455  0.902358  1
  Nd  Nd2  1  0.489665  0.672987  0.904106  1
  Nd  Nd3  1  0.988898  0.833295  0.595400  1
  Nd  Nd4  1  0.510510  0.326537  0.098102  1
  Er  Er5  1  0.007174  0.171992  0.397108  1
  Er  Er6  1  0.510582  0.321862  0.398545  1
  Er  Er7  1  0.496155  0.682088  0.599225  1
  Sc  Sc8  1  0.163367  0.501037  0.752924  1
  Sc  Sc9  1  0.836095  0.498377  0.251961  1
  Sc  Sc10  1  0.336750  0.999533  0.251288  1
  Sc  Sc11  1  0.665446  0.000039  0.750360  1
  Sc  Sc12  1  0.343836  0.169904  0.627743  1
  Sc  Sc13  1  0.663651  0.822407  0.374444  1
  Sc  Sc14  1  0.168034  0.676754  0.372198  1
  Sc  Sc15  1  0.669200  0.824598  0.127290  1
  Sc  Sc16  1  0.823822  0.325158  0.623438  1
  Sc  Sc17  1  0.330525  0.174429  0.874956  1
  Sc  Sc18  1  0.830027  0.324402  0.875006  1
  Sc  Sc19  1  0.169157  0.675450  0.127331  1
  Si  Si20  1  0.037038  0.128698  0.749279  1
  Si  Si21  1  0.963388  0.879279  0.251590  1
  Si  Si22  1  0.464895  0.618531  0.251073  1
  Si  Si23  1  0.535258  0.382755  0.749671  1
  Si  Si24  1  0.289955  0.876660  0.748642  1
  Si  Si25  1  0.710684  0.123527  0.252781  1
  Si  Si26  1  0.211358  0.374283  0.252906  1
  Si  Si27  1  0.787748  0.622936  0.748614  1
  Si  Si28  1  0.831520  0.532851  0.457103  1
  Si  Si29  1  0.341464  0.964811  0.458723  1
  Si  Si30  1  0.847582  0.537813  0.039559  1
  Si  Si31  1  0.653505  0.038921  0.535554  1
  Si  Si32  1  0.151498  0.462647  0.962139  1
  Si  Si33  1  0.652976  0.037494  0.961473  1
  Si  Si34  1  0.346818  0.962074  0.040184  1
  Hg  Hg35  1  0.171038  0.454404  0.537912  1
