# generated using pymatgen
data_HoLu7Sc12Si15Ag
_symmetry_space_group_name_H-M   'P 1'
_cell_length_a   7.06949019
_cell_length_b   7.30811663
_cell_length_c   13.97125752
_cell_angle_alpha   89.84978008
_cell_angle_beta   89.46602360
_cell_angle_gamma   90.10186386
_symmetry_Int_Tables_number   1
_chemical_formula_structural   HoLu7Sc12Si15Ag
_chemical_formula_sum   'Ho1 Lu7 Sc12 Si15 Ag1'
_cell_volume   721.78525380
_cell_formula_units_Z   1
loop_
 _symmetry_equiv_pos_site_id
 _symmetry_equiv_pos_as_xyz
  1  'x, y, z'
loop_
 _atom_site_type_symbol
 _atom_site_label
 _atom_site_symmetry_multiplicity
 _atom_site_fract_x
 _atom_site_fract_y
 _atom_site_fract_z
 _atom_site_occupancy
  Ho  Ho0  1  0.495689  0.679364  0.599437  1
  Lu  Lu1  1  0.010032  0.175635  0.096966  1
  Lu  Lu2  1  0.989825  0.826251  0.905034  1
  Lu  Lu3  1  0.488819  0.678532  0.904063  1
  Lu  Lu4  1  0.992152  0.831220  0.597366  1
  Lu  Lu5  1  0.510383  0.322563  0.095982  1
  Lu  Lu6  1  0.005074  0.171232  0.398566  1
  Lu  Lu7  1  0.509514  0.320458  0.400183  1
  Sc  Sc8  1  0.166071  0.502761  0.754032  1
  Sc  Sc9  1  0.834454  0.496895  0.250908  1
  Sc  Sc10  1  0.333703  0.000974  0.248901  1
  Sc  Sc11  1  0.669056  0.995664  0.751696  1
  Sc  Sc12  1  0.346852  0.173241  0.626619  1
  Sc  Sc13  1  0.661051  0.823375  0.373607  1
  Sc  Sc14  1  0.163885  0.675064  0.371230  1
  Sc  Sc15  1  0.666538  0.823639  0.124480  1
  Sc  Sc16  1  0.829672  0.326256  0.625801  1
  Sc  Sc17  1  0.330920  0.175998  0.877146  1
  Sc  Sc18  1  0.833203  0.322002  0.876666  1
  Sc  Sc19  1  0.166464  0.676209  0.124769  1
  Si  Si20  1  0.039869  0.119251  0.750284  1
  Si  Si21  1  0.961527  0.885907  0.247864  1
  Si  Si22  1  0.464162  0.610859  0.247835  1
  Si  Si23  1  0.536958  0.388692  0.753137  1
  Si  Si24  1  0.287454  0.872501  0.752114  1
  Si  Si25  1  0.709648  0.129909  0.247831  1
  Si  Si26  1  0.211733  0.366710  0.247728  1
  Si  Si27  1  0.791822  0.631375  0.753755  1
  Si  Si28  1  0.832097  0.535655  0.458933  1
  Si  Si29  1  0.330359  0.962708  0.460539  1
  Si  Si30  1  0.840160  0.534574  0.038992  1
  Si  Si31  1  0.667715  0.037349  0.537113  1
  Si  Si32  1  0.158788  0.466007  0.962305  1
  Si  Si33  1  0.660741  0.034324  0.961065  1
  Si  Si34  1  0.338662  0.965078  0.039820  1
  Ag  Ag35  1  0.164950  0.461770  0.537237  1
