# generated using pymatgen
data_BaYb4(ReN3)2
_symmetry_space_group_name_H-M   'P 1'
_cell_length_a   6.15905518
_cell_length_b   6.87759712
_cell_length_c   12.14158564
_cell_angle_alpha   89.99999877
_cell_angle_beta   103.81824594
_cell_angle_gamma   123.94053486
_symmetry_Int_Tables_number   1
_chemical_formula_structural   BaYb4(ReN3)2
_chemical_formula_sum   'Ba2 Yb8 Re4 N12'
_cell_volume   408.61695797
_cell_formula_units_Z   2
loop_
 _symmetry_equiv_pos_site_id
 _symmetry_equiv_pos_as_xyz
  1  'x, y, z'
loop_
 _atom_site_type_symbol
 _atom_site_label
 _atom_site_symmetry_multiplicity
 _atom_site_fract_x
 _atom_site_fract_y
 _atom_site_fract_z
 _atom_site_occupancy
  Ba  Ba0  1  0.000000  0.386400  0.750000  1
  Ba  Ba1  1  0.000000  0.613600  0.250000  1
  Yb  Yb2  1  0.110845  0.803501  0.002445  1
  Yb  Yb3  1  0.889155  0.692656  0.497555  1
  Yb  Yb4  1  0.889155  0.196499  0.997555  1
  Yb  Yb5  1  0.110845  0.307344  0.502445  1
  Yb  Yb6  1  0.327521  0.047945  0.729326  1
  Yb  Yb7  1  0.672479  0.720424  0.770674  1
  Yb  Yb8  1  0.672479  0.952055  0.270674  1
  Yb  Yb9  1  0.327521  0.279576  0.229326  1
  Re  Re10  1  0.528106  0.845548  0.529431  1
  Re  Re11  1  0.471894  0.317442  0.970569  1
  Re  Re12  1  0.471894  0.154452  0.470569  1
  Re  Re13  1  0.528106  0.682558  0.029431  1
  N  N14  1  0.891535  0.970505  0.618185  1
  N  N15  1  0.108465  0.078971  0.881815  1
  N  N16  1  0.108465  0.029495  0.381815  1
  N  N17  1  0.891535  0.921029  0.118185  1
  N  N18  1  0.282306  0.686626  0.619141  1
  N  N19  1  0.717694  0.404320  0.880859  1
  N  N20  1  0.717694  0.313374  0.380859  1
  N  N21  1  0.282306  0.595680  0.119141  1
  N  N22  1  0.546771  0.352758  0.601199  1
  N  N23  1  0.453229  0.805987  0.898801  1
  N  N24  1  0.453229  0.647242  0.398801  1
  N  N25  1  0.546771  0.194013  0.101199  1
