# generated using pymatgen
data_Tb9Y7Cd4FeNi3
_symmetry_space_group_name_H-M   'P 1'
_cell_length_a   9.60857461
_cell_length_b   9.60857454
_cell_length_c   9.60298684
_cell_angle_alpha   59.83914369
_cell_angle_beta   59.83913927
_cell_angle_gamma   59.89708122
_symmetry_Int_Tables_number   1
_chemical_formula_structural   Tb9Y7Cd4FeNi3
_chemical_formula_sum   'Tb9 Y7 Cd4 Fe1 Ni3'
_cell_volume   624.90177239
_cell_formula_units_Z   1
loop_
 _symmetry_equiv_pos_site_id
 _symmetry_equiv_pos_as_xyz
  1  'x, y, z'
loop_
 _atom_site_type_symbol
 _atom_site_label
 _atom_site_symmetry_multiplicity
 _atom_site_fract_x
 _atom_site_fract_y
 _atom_site_fract_z
 _atom_site_occupancy
  Tb  Tb0  1  0.597737  0.597737  0.598017  1
  Tb  Tb1  1  0.596386  0.596386  0.207721  1
  Tb  Tb2  1  0.596847  0.207294  0.596289  1
  Tb  Tb3  1  0.207294  0.596847  0.596289  1
  Tb  Tb4  1  0.065222  0.438131  0.438510  1
  Tb  Tb5  1  0.437223  0.061244  0.061469  1
  Tb  Tb6  1  0.438131  0.065222  0.438510  1
  Tb  Tb7  1  0.061244  0.437223  0.061469  1
  Tb  Tb8  1  0.438712  0.438712  0.064947  1
  Y  Y9  1  0.060781  0.060781  0.437558  1
  Y  Y10  1  0.187051  0.813695  0.813891  1
  Y  Y11  1  0.809609  0.187791  0.187552  1
  Y  Y12  1  0.813695  0.187051  0.813891  1
  Y  Y13  1  0.187791  0.809609  0.187552  1
  Y  Y14  1  0.813709  0.813709  0.187496  1
  Y  Y15  1  0.187822  0.187822  0.809399  1
  Cd  Cd16  1  0.829966  0.829966  0.829537  1
  Cd  Cd17  1  0.831014  0.831014  0.506274  1
  Cd  Cd18  1  0.830594  0.506273  0.830911  1
  Cd  Cd19  1  0.506273  0.830594  0.830911  1
  Fe  Fe20  1  0.392680  0.392680  0.393190  1
  Ni  Ni21  1  0.392184  0.392184  0.824396  1
  Ni  Ni22  1  0.393697  0.824338  0.392110  1
  Ni  Ni23  1  0.824338  0.393697  0.392110  1
