# generated using pymatgen
data_Y6Sc2Nb2Al12Ir7
_symmetry_space_group_name_H-M   'P 1'
_cell_length_a   9.09629707
_cell_length_b   9.06796454
_cell_length_c   9.06796482
_cell_angle_alpha   59.90967455
_cell_angle_beta   59.89659082
_cell_angle_gamma   59.89658791
_symmetry_Int_Tables_number   1
_chemical_formula_structural   Y6Sc2Nb2Al12Ir7
_chemical_formula_sum   'Y6 Sc2 Nb2 Al12 Ir7'
_cell_volume   527.70628725
_cell_formula_units_Z   1
loop_
 _symmetry_equiv_pos_site_id
 _symmetry_equiv_pos_as_xyz
  1  'x, y, z'
loop_
 _atom_site_type_symbol
 _atom_site_label
 _atom_site_symmetry_multiplicity
 _atom_site_fract_x
 _atom_site_fract_y
 _atom_site_fract_z
 _atom_site_occupancy
  Y  Y0  1  0.703920  0.702106  0.296882  1
  Y  Y1  1  0.297091  0.702106  0.296882  1
  Y  Y2  1  0.703028  0.296972  0.296972  1
  Y  Y3  1  0.297091  0.296882  0.702106  1
  Y  Y4  1  0.703920  0.296882  0.702106  1
  Y  Y5  1  0.300432  0.699568  0.699568  1
  Sc  Sc6  1  0.354787  0.880962  0.880962  1
  Sc  Sc7  1  0.883290  0.880962  0.880962  1
  Nb  Nb8  1  0.880104  0.877892  0.361900  1
  Nb  Nb9  1  0.880104  0.361900  0.877892  1
  Al  Al10  1  0.120675  0.120141  0.638508  1
  Al  Al11  1  0.120675  0.638508  0.120141  1
  Al  Al12  1  0.637450  0.120511  0.120511  1
  Al  Al13  1  0.121529  0.120511  0.120511  1
  Al  Al14  1  0.668067  0.670196  0.993669  1
  Al  Al15  1  0.668067  0.993669  0.670196  1
  Al  Al16  1  0.996822  0.668399  0.668399  1
  Al  Al17  1  0.666379  0.668399  0.668399  1
  Al  Al18  1  0.328875  0.329337  0.012913  1
  Al  Al19  1  0.328875  0.012913  0.329337  1
  Al  Al20  1  0.012728  0.329175  0.329175  1
  Al  Al21  1  0.328924  0.329175  0.329175  1
  Ir  Ir22  1  0.990844  0.009156  0.009156  1
  Ir  Ir23  1  0.999767  0.000486  0.494764  1
  Ir  Ir24  1  0.504984  0.000486  0.494764  1
  Ir  Ir25  1  0.998395  0.501605  0.501605  1
  Ir  Ir26  1  0.504984  0.494764  0.000486  1
  Ir  Ir27  1  0.999767  0.494764  0.000486  1
  Ir  Ir28  1  0.498430  0.001570  0.001570  1
