# generated using pymatgen
data_Er2InNiAg
_symmetry_space_group_name_H-M   'P 1'
_cell_length_a   7.71134786
_cell_length_b   7.71134785
_cell_length_c   3.65939500
_cell_angle_alpha   90.00000000
_cell_angle_beta   90.00000000
_cell_angle_gamma   88.27067389
_symmetry_Int_Tables_number   1
_chemical_formula_structural   Er2InNiAg
_chemical_formula_sum   'Er4 In2 Ni2 Ag2'
_cell_volume   217.50639607
_cell_formula_units_Z   2
loop_
 _symmetry_equiv_pos_site_id
 _symmetry_equiv_pos_as_xyz
  1  'x, y, z'
loop_
 _atom_site_type_symbol
 _atom_site_label
 _atom_site_symmetry_multiplicity
 _atom_site_fract_x
 _atom_site_fract_y
 _atom_site_fract_z
 _atom_site_occupancy
  Er  Er0  1  0.657669  0.157669  0.500000  1
  Er  Er1  1  0.342331  0.842331  0.500000  1
  Er  Er2  1  0.197526  0.302474  0.500000  1
  Er  Er3  1  0.802474  0.697526  0.500000  1
  In  In4  1  0.500000  0.500000  0.000000  1
  In  In5  1  0.000000  0.000000  0.000000  1
  Ni  Ni6  1  0.616759  0.883241  0.000000  1
  Ni  Ni7  1  0.383241  0.116759  0.000000  1
  Ag  Ag8  1  0.125337  0.625337  0.000000  1
  Ag  Ag9  1  0.874663  0.374663  0.000000  1
