# generated using pymatgen
data_Hf2ScBeGe2Os3
_symmetry_space_group_name_H-M   'P 1'
_cell_length_a   6.88199300
_cell_length_b   6.87038765
_cell_length_c   3.40205200
_cell_angle_alpha   90.00000000
_cell_angle_beta   90.00000000
_cell_angle_gamma   120.05589832
_symmetry_Int_Tables_number   1
_chemical_formula_structural   Hf2ScBeGe2Os3
_chemical_formula_sum   'Hf2 Sc1 Be1 Ge2 Os3'
_cell_volume   139.22657763
_cell_formula_units_Z   1
loop_
 _symmetry_equiv_pos_site_id
 _symmetry_equiv_pos_as_xyz
  1  'x, y, z'
loop_
 _atom_site_type_symbol
 _atom_site_label
 _atom_site_symmetry_multiplicity
 _atom_site_fract_x
 _atom_site_fract_y
 _atom_site_fract_z
 _atom_site_occupancy
  Hf  Hf0  1  0.000925  0.389909  0.500000  1
  Hf  Hf1  1  0.611016  0.610091  0.500000  1
  Sc  Sc2  1  0.389547  0.000000  0.500000  1
  Be  Be3  1  0.002389  0.000000  0.500000  1
  Ge  Ge4  1  0.334633  0.671800  0.000000  1
  Ge  Ge5  1  0.662834  0.328200  0.000000  1
  Os  Os6  1  0.759391  0.000000  0.000000  1
  Os  Os7  1  0.996770  0.754273  0.000000  1
  Os  Os8  1  0.242496  0.245727  0.000000  1
