# generated using pymatgen
data_Na4TbMoO6
_symmetry_space_group_name_H-M   'P 1'
_cell_length_a   5.74459905
_cell_length_b   5.74721562
_cell_length_c   5.81626658
_cell_angle_alpha   99.50055371
_cell_angle_beta   99.49224949
_cell_angle_gamma   120.16738086
_symmetry_Int_Tables_number   1
_chemical_formula_structural   Na4TbMoO6
_chemical_formula_sum   'Na4 Tb1 Mo1 O6'
_cell_volume   156.67155283
_cell_formula_units_Z   1
loop_
 _symmetry_equiv_pos_site_id
 _symmetry_equiv_pos_as_xyz
  1  'x, y, z'
loop_
 _atom_site_type_symbol
 _atom_site_label
 _atom_site_symmetry_multiplicity
 _atom_site_fract_x
 _atom_site_fract_y
 _atom_site_fract_z
 _atom_site_occupancy
  Na  Na0  1  0.502125  0.497868  0.999996  1
  Na  Na1  1  0.995905  0.004021  0.499966  1
  Na  Na2  1  0.659728  0.340357  0.500050  1
  Na  Na3  1  0.342258  0.657783  0.499976  1
  Tb  Tb4  1  0.162892  0.837137  0.999984  1
  Mo  Mo5  1  0.833167  0.166957  0.000017  1
  O  O6  1  0.610667  0.959629  0.201997  1
  O  O7  1  0.195077  0.222066  0.218237  1
  O  O8  1  0.925021  0.545158  0.215758  1
  O  O9  1  0.454873  0.074930  0.784271  1
  O  O10  1  0.777909  0.804827  0.781747  1
  O  O11  1  0.040376  0.389265  0.798004  1
