# generated using pymatgen
data_Ce6Al24Tc7Rh
_symmetry_space_group_name_H-M   'P 1'
_cell_length_a   8.97812400
_cell_length_b   8.94092259
_cell_length_c   9.68021918
_cell_angle_alpha   89.68321051
_cell_angle_beta   90.00000000
_cell_angle_gamma   120.13772653
_symmetry_Int_Tables_number   1
_chemical_formula_structural   Ce6Al24Tc7Rh
_chemical_formula_sum   'Ce6 Al24 Tc7 Rh1'
_cell_volume   672.00187119
_cell_formula_units_Z   1
loop_
 _symmetry_equiv_pos_site_id
 _symmetry_equiv_pos_as_xyz
  1  'x, y, z'
loop_
 _atom_site_type_symbol
 _atom_site_label
 _atom_site_symmetry_multiplicity
 _atom_site_fract_x
 _atom_site_fract_y
 _atom_site_fract_z
 _atom_site_occupancy
  Ce  Ce0  1  0.804583  0.609165  0.748613  1
  Ce  Ce1  1  0.190324  0.800374  0.245385  1
  Ce  Ce2  1  0.610048  0.800374  0.245385  1
  Ce  Ce3  1  0.389952  0.199626  0.754615  1
  Ce  Ce4  1  0.809676  0.199626  0.754615  1
  Ce  Ce5  1  0.195417  0.390835  0.251387  1
  Al  Al6  1  0.333623  0.667247  0.495663  1
  Al  Al7  1  0.667083  0.334165  0.999825  1
  Al  Al8  1  0.666377  0.332753  0.504337  1
  Al  Al9  1  0.332917  0.665835  0.000175  1
  Al  Al10  1  0.161510  0.323021  0.577908  1
  Al  Al11  1  0.677850  0.839161  0.576884  1
  Al  Al12  1  0.161311  0.839161  0.576884  1
  Al  Al13  1  0.838250  0.160137  0.079647  1
  Al  Al14  1  0.838689  0.160839  0.423116  1
  Al  Al15  1  0.838020  0.676040  0.075883  1
  Al  Al16  1  0.321886  0.160137  0.079647  1
  Al  Al17  1  0.678114  0.839863  0.920353  1
  Al  Al18  1  0.161980  0.323960  0.924117  1
  Al  Al19  1  0.838490  0.676979  0.422092  1
  Al  Al20  1  0.000280  0.000560  0.250051  1
  Al  Al21  1  0.999720  0.999440  0.749949  1
  Al  Al22  1  0.560163  0.120327  0.250938  1
  Al  Al23  1  0.439321  0.565624  0.749093  1
  Al  Al24  1  0.126303  0.565624  0.749093  1
  Al  Al25  1  0.873697  0.434376  0.250907  1
  Al  Al26  1  0.560679  0.434376  0.250907  1
  Al  Al27  1  0.439837  0.879673  0.749062  1
  Al  Al28  1  0.161750  0.839863  0.920353  1
  Al  Al29  1  0.322150  0.160839  0.423116  1
  Tc  Tc30  1  0.000000  0.000000  0.500000  1
  Tc  Tc31  1  0.000000  0.000000  0.000000  1
  Tc  Tc32  1  0.500000  0.500000  0.000000  1
  Tc  Tc33  1  0.000000  0.500000  0.000000  1
  Tc  Tc34  1  0.000000  0.500000  0.500000  1
  Tc  Tc35  1  0.500000  0.500000  0.500000  1
  Tc  Tc36  1  0.500000  0.000000  0.000000  1
  Rh  Rh37  1  0.500000  0.000000  0.500000  1
