# generated using pymatgen
data_Hf9NbGaRe3
_symmetry_space_group_name_H-M   'P 1'
_cell_length_a   8.64607726
_cell_length_b   8.67748314
_cell_length_c   8.72909000
_cell_angle_alpha   90.00000000
_cell_angle_beta   90.00000000
_cell_angle_gamma   120.12022222
_symmetry_Int_Tables_number   1
_chemical_formula_structural   Hf9NbGaRe3
_chemical_formula_sum   'Hf18 Nb2 Ga2 Re6'
_cell_volume   566.48067228
_cell_formula_units_Z   2
loop_
 _symmetry_equiv_pos_site_id
 _symmetry_equiv_pos_as_xyz
  1  'x, y, z'
loop_
 _atom_site_type_symbol
 _atom_site_label
 _atom_site_symmetry_multiplicity
 _atom_site_fract_x
 _atom_site_fract_y
 _atom_site_fract_z
 _atom_site_occupancy
  Hf  Hf0  1  0.196199  0.804386  0.456330  1
  Hf  Hf1  1  0.196199  0.391813  0.456330  1
  Hf  Hf2  1  0.607629  0.803814  0.458370  1
  Hf  Hf3  1  0.806017  0.193375  0.552454  1
  Hf  Hf4  1  0.806017  0.612643  0.552454  1
  Hf  Hf5  1  0.385747  0.192874  0.550418  1
  Hf  Hf6  1  0.806017  0.193375  0.947546  1
  Hf  Hf7  1  0.806017  0.612643  0.947546  1
  Hf  Hf8  1  0.385747  0.192874  0.949582  1
  Hf  Hf9  1  0.196199  0.804386  0.043670  1
  Hf  Hf10  1  0.196199  0.391813  0.043670  1
  Hf  Hf11  1  0.607629  0.803814  0.041630  1
  Hf  Hf12  1  0.534418  0.457314  0.250000  1
  Hf  Hf13  1  0.534418  0.077103  0.250000  1
  Hf  Hf14  1  0.923993  0.461997  0.250000  1
  Hf  Hf15  1  0.459186  0.540168  0.750000  1
  Hf  Hf16  1  0.459186  0.919017  0.750000  1
  Hf  Hf17  1  0.080801  0.540401  0.750000  1
  Nb  Nb18  1  0.893107  0.112382  0.250000  1
  Nb  Nb19  1  0.893107  0.780725  0.250000  1
  Ga  Ga20  1  0.332837  0.666420  0.250000  1
  Ga  Ga21  1  0.665497  0.332748  0.750000  1
  Re  Re22  1  0.224976  0.112488  0.250000  1
  Re  Re23  1  0.110398  0.890951  0.750000  1
  Re  Re24  1  0.110398  0.219446  0.750000  1
  Re  Re25  1  0.780020  0.890010  0.750000  1
  Re  Re26  1  0.001021  0.000510  0.501392  1
  Re  Re27  1  0.001021  0.000510  0.998608  1
