# generated using pymatgen
data_Ca5Pa5O18
_symmetry_space_group_name_H-M   'P 1'
_cell_length_a   6.83044293
_cell_length_b   7.66229697
_cell_length_c   8.61643100
_cell_angle_alpha   101.34436411
_cell_angle_beta   98.20017974
_cell_angle_gamma   107.04195239
_symmetry_Int_Tables_number   1
_chemical_formula_structural   Ca5Pa5O18
_chemical_formula_sum   'Ca5 Pa5 O18'
_cell_volume   412.97108598
_cell_formula_units_Z   1
loop_
 _symmetry_equiv_pos_site_id
 _symmetry_equiv_pos_as_xyz
  1  'x, y, z'
loop_
 _atom_site_type_symbol
 _atom_site_label
 _atom_site_symmetry_multiplicity
 _atom_site_fract_x
 _atom_site_fract_y
 _atom_site_fract_z
 _atom_site_occupancy
  Ca  Ca0  1  0.790446  0.102663  0.581318  1
  Ca  Ca1  1  0.591062  0.696720  0.196953  1
  Ca  Ca2  1  0.408938  0.303280  0.803047  1
  Ca  Ca3  1  0.209554  0.897337  0.418682  1
  Ca  Ca4  1  0.000000  0.500000  0.000000  1
  Pa  Pa5  1  0.000000  0.000000  0.000000  1
  Pa  Pa6  1  0.788187  0.576306  0.585397  1
  Pa  Pa7  1  0.632481  0.201479  0.192418  1
  Pa  Pa8  1  0.367519  0.798521  0.807582  1
  Pa  Pa9  1  0.211813  0.423694  0.414603  1
  O  O10  1  0.812889  0.794730  0.472291  1
  O  O11  1  0.992506  0.248801  0.170942  1
  O  O12  1  0.672168  0.412925  0.067270  1
  O  O13  1  0.461362  0.001234  0.682191  1
  O  O14  1  0.862849  0.339400  0.431982  1
  O  O15  1  0.510893  0.402669  0.348936  1
  O  O16  1  0.253312  0.616044  0.274128  1
  O  O17  1  0.988344  0.835064  0.163286  1
  O  O18  1  0.660699  0.935328  0.001674  1
  O  O19  1  0.339301  0.064672  0.998326  1
  O  O20  1  0.011656  0.164936  0.836714  1
  O  O21  1  0.746688  0.383956  0.725872  1
  O  O22  1  0.489107  0.597331  0.651064  1
  O  O23  1  0.137151  0.660600  0.568018  1
  O  O24  1  0.538638  0.998766  0.317809  1
  O  O25  1  0.327832  0.587075  0.932730  1
  O  O26  1  0.007494  0.751199  0.829058  1
  O  O27  1  0.187111  0.205270  0.527709  1
