# generated using pymatgen
data_Th2Sc3Si7Pt9
_symmetry_space_group_name_H-M   'P 1'
_cell_length_a   10.07854600
_cell_length_b   10.07854748
_cell_length_c   4.07073900
_cell_angle_alpha   90.00000000
_cell_angle_beta   90.00000000
_cell_angle_gamma   120.00000171
_symmetry_Int_Tables_number   1
_chemical_formula_structural   Th2Sc3Si7Pt9
_chemical_formula_sum   'Th2 Sc3 Si7 Pt9'
_cell_volume   358.09619850
_cell_formula_units_Z   1
loop_
 _symmetry_equiv_pos_site_id
 _symmetry_equiv_pos_as_xyz
  1  'x, y, z'
loop_
 _atom_site_type_symbol
 _atom_site_label
 _atom_site_symmetry_multiplicity
 _atom_site_fract_x
 _atom_site_fract_y
 _atom_site_fract_z
 _atom_site_occupancy
  Th  Th0  1  0.000000  0.000000  0.000000  1
  Th  Th1  1  0.333333  0.666667  0.500000  1
  Sc  Sc2  1  0.890448  0.448487  0.500000  1
  Sc  Sc3  1  0.558039  0.109552  0.500000  1
  Sc  Sc4  1  0.551513  0.441961  0.500000  1
  Si  Si5  1  0.254023  0.201569  0.500000  1
  Si  Si6  1  0.798431  0.052457  0.500000  1
  Si  Si7  1  0.947543  0.745977  0.500000  1
  Si  Si8  1  0.564725  0.648023  0.000000  1
  Si  Si9  1  0.351977  0.916701  0.000000  1
  Si  Si10  1  0.083299  0.435275  0.000000  1
  Si  Si11  1  0.666667  0.333333  0.000000  1
  Pt  Pt12  1  0.217812  0.934950  0.500000  1
  Pt  Pt13  1  0.065050  0.282861  0.500000  1
  Pt  Pt14  1  0.717139  0.782188  0.500000  1
  Pt  Pt15  1  0.315676  0.415534  0.000000  1
  Pt  Pt16  1  0.584466  0.900142  0.000000  1
  Pt  Pt17  1  0.099858  0.684324  0.000000  1
  Pt  Pt18  1  0.385667  0.176498  0.000000  1
  Pt  Pt19  1  0.823502  0.209170  0.000000  1
  Pt  Pt20  1  0.790830  0.614333  0.000000  1
