# generated using pymatgen
data_Dy16CdIn2HgIr3Os
_symmetry_space_group_name_H-M   'P 1'
_cell_length_a   9.66574629
_cell_length_b   9.66574506
_cell_length_c   9.66574500
_cell_angle_alpha   59.55258369
_cell_angle_beta   59.55258798
_cell_angle_gamma   59.55258683
_symmetry_Int_Tables_number   1
_chemical_formula_structural   Dy16CdIn2HgIr3Os
_chemical_formula_sum   'Dy16 Cd1 In2 Hg1 Ir3 Os1'
_cell_volume   632.04898316
_cell_formula_units_Z   1
loop_
 _symmetry_equiv_pos_site_id
 _symmetry_equiv_pos_as_xyz
  1  'x, y, z'
loop_
 _atom_site_type_symbol
 _atom_site_label
 _atom_site_symmetry_multiplicity
 _atom_site_fract_x
 _atom_site_fract_y
 _atom_site_fract_z
 _atom_site_occupancy
  Dy  Dy0  1  0.600267  0.599945  0.599945  1
  Dy  Dy1  1  0.599745  0.599150  0.203535  1
  Dy  Dy2  1  0.599745  0.203535  0.599150  1
  Dy  Dy3  1  0.202970  0.599359  0.599359  1
  Dy  Dy4  1  0.059866  0.440930  0.440930  1
  Dy  Dy5  1  0.437400  0.059330  0.059330  1
  Dy  Dy6  1  0.440284  0.060662  0.439708  1
  Dy  Dy7  1  0.058001  0.438037  0.058521  1
  Dy  Dy8  1  0.440284  0.439708  0.060662  1
  Dy  Dy9  1  0.058001  0.058521  0.438037  1
  Dy  Dy10  1  0.188176  0.810658  0.810658  1
  Dy  Dy11  1  0.806678  0.189683  0.189683  1
  Dy  Dy12  1  0.811413  0.187306  0.810704  1
  Dy  Dy13  1  0.190788  0.806102  0.188685  1
  Dy  Dy14  1  0.811413  0.810704  0.187306  1
  Dy  Dy15  1  0.190788  0.188685  0.806102  1
  Cd  Cd16  1  0.504801  0.831382  0.831382  1
  In  In17  1  0.830445  0.832005  0.504619  1
  In  In18  1  0.830445  0.504619  0.832005  1
  Hg  Hg19  1  0.833326  0.834702  0.834702  1
  Ir  Ir20  1  0.393169  0.393315  0.826810  1
  Ir  Ir21  1  0.393169  0.826810  0.393315  1
  Ir  Ir22  1  0.827305  0.392912  0.392912  1
  Os  Os23  1  0.391524  0.391943  0.391943  1
