# generated using pymatgen
data_TbErMn17
_symmetry_space_group_name_H-M   'P 1'
_cell_length_a   6.31789500
_cell_length_b   6.31789571
_cell_length_c   6.31789578
_cell_angle_alpha   86.22175888
_cell_angle_beta   86.22175867
_cell_angle_gamma   86.22177217
_symmetry_Int_Tables_number   1
_chemical_formula_structural   TbErMn17
_chemical_formula_sum   'Tb1 Er1 Mn17'
_cell_volume   250.60858554
_cell_formula_units_Z   1
loop_
 _symmetry_equiv_pos_site_id
 _symmetry_equiv_pos_as_xyz
  1  'x, y, z'
loop_
 _atom_site_type_symbol
 _atom_site_label
 _atom_site_symmetry_multiplicity
 _atom_site_fract_x
 _atom_site_fract_y
 _atom_site_fract_z
 _atom_site_occupancy
  Tb  Tb0  1  0.644745  0.644745  0.644745  1
  Er  Er1  1  0.353663  0.353663  0.353663  1
  Mn  Mn2  1  0.275090  0.000486  0.724959  1
  Mn  Mn3  1  0.000486  0.724959  0.275090  1
  Mn  Mn4  1  0.724959  0.275090  0.000486  1
  Mn  Mn5  1  0.000486  0.275090  0.724959  1
  Mn  Mn6  1  0.275090  0.724959  0.000486  1
  Mn  Mn7  1  0.724959  0.000486  0.275090  1
  Mn  Mn8  1  0.644609  0.124102  0.644609  1
  Mn  Mn9  1  0.124102  0.644609  0.644609  1
  Mn  Mn10  1  0.644609  0.644609  0.124102  1
  Mn  Mn11  1  0.354636  0.876415  0.354636  1
  Mn  Mn12  1  0.876415  0.354636  0.354636  1
  Mn  Mn13  1  0.354636  0.354636  0.876415  1
  Mn  Mn14  1  0.000639  0.500393  0.000639  1
  Mn  Mn15  1  0.500393  0.000639  0.000639  1
  Mn  Mn16  1  0.000639  0.000639  0.500393  1
  Mn  Mn17  1  0.098506  0.098506  0.098506  1
  Mn  Mn18  1  0.901334  0.901334  0.901334  1
