# generated using pymatgen
data_Y3Tm5(WO6)4
_symmetry_space_group_name_H-M   'P 1'
_cell_length_a   5.37175500
_cell_length_b   7.66975705
_cell_length_c   11.39292514
_cell_angle_alpha   75.42169851
_cell_angle_beta   90.00000000
_cell_angle_gamma   90.00000000
_symmetry_Int_Tables_number   1
_chemical_formula_structural   Y3Tm5(WO6)4
_chemical_formula_sum   'Y3 Tm5 W4 O24'
_cell_volume   454.27696193
_cell_formula_units_Z   1
loop_
 _symmetry_equiv_pos_site_id
 _symmetry_equiv_pos_as_xyz
  1  'x, y, z'
loop_
 _atom_site_type_symbol
 _atom_site_label
 _atom_site_symmetry_multiplicity
 _atom_site_fract_x
 _atom_site_fract_y
 _atom_site_fract_z
 _atom_site_occupancy
  Y  Y0  1  0.741744  0.000000  0.750000  1
  Y  Y1  1  0.683393  0.500000  0.750000  1
  Y  Y2  1  0.314874  0.500000  0.250000  1
  Tm  Tm3  1  0.259830  0.000000  0.250000  1
  Tm  Tm4  1  0.185654  0.795306  0.577842  1
  Tm  Tm5  1  0.815549  0.795384  0.079136  1
  Tm  Tm6  1  0.185654  0.204694  0.922158  1
  Tm  Tm7  1  0.815549  0.204616  0.420864  1
  W  W8  1  0.254755  0.722984  0.886489  1
  W  W9  1  0.744871  0.724976  0.385247  1
  W  W10  1  0.254755  0.277016  0.613511  1
  W  W11  1  0.744871  0.275024  0.114753  1
  O  O12  1  0.044807  0.940788  0.897670  1
  O  O13  1  0.535220  0.844540  0.932971  1
  O  O14  1  0.958895  0.941642  0.394910  1
  O  O15  1  0.456175  0.790412  0.726604  1
  O  O16  1  0.464595  0.848198  0.430932  1
  O  O17  1  0.981946  0.712002  0.770556  1
  O  O18  1  0.540773  0.793464  0.226119  1
  O  O19  1  0.853199  0.637409  0.548637  1
  O  O20  1  0.358998  0.487554  0.887939  1
  O  O21  1  0.017982  0.713640  0.269504  1
  O  O22  1  0.358998  0.512446  0.612061  1
  O  O23  1  0.853199  0.362591  0.951363  1
  O  O24  1  0.144781  0.634286  0.049543  1
  O  O25  1  0.641881  0.489537  0.386218  1
  O  O26  1  0.981946  0.287998  0.729444  1
  O  O27  1  0.641881  0.510463  0.113782  1
  O  O28  1  0.144781  0.365714  0.450457  1
  O  O29  1  0.456175  0.209588  0.773396  1
  O  O30  1  0.017982  0.286360  0.230496  1
  O  O31  1  0.535220  0.155460  0.567029  1
  O  O32  1  0.540773  0.206536  0.273881  1
  O  O33  1  0.044807  0.059212  0.602330  1
  O  O34  1  0.464595  0.151802  0.069068  1
  O  O35  1  0.958895  0.058358  0.105090  1
