# generated using pymatgen
data_Tm5Lu(CoSi)4
_symmetry_space_group_name_H-M   'P 1'
_cell_length_a   5.44850573
_cell_length_b   7.50692685
_cell_length_c   12.42737100
_cell_angle_alpha   89.96019952
_cell_angle_beta   90.05083858
_cell_angle_gamma   90.12423172
_symmetry_Int_Tables_number   1
_chemical_formula_structural   Tm5Lu(CoSi)4
_chemical_formula_sum   'Tm10 Lu2 Co8 Si8'
_cell_volume   508.29702043
_cell_formula_units_Z   2
loop_
 _symmetry_equiv_pos_site_id
 _symmetry_equiv_pos_as_xyz
  1  'x, y, z'
loop_
 _atom_site_type_symbol
 _atom_site_label
 _atom_site_symmetry_multiplicity
 _atom_site_fract_x
 _atom_site_fract_y
 _atom_site_fract_z
 _atom_site_occupancy
  Tm  Tm0  1  0.629237  0.252850  0.249624  1
  Tm  Tm1  1  0.370763  0.747150  0.750376  1
  Tm  Tm2  1  0.370778  0.753417  0.249340  1
  Tm  Tm3  1  0.629222  0.246583  0.750660  1
  Tm  Tm4  1  0.141783  0.395586  0.100983  1
  Tm  Tm5  1  0.858217  0.604414  0.899017  1
  Tm  Tm6  1  0.858193  0.604152  0.601605  1
  Tm  Tm7  1  0.857983  0.895856  0.398507  1
  Tm  Tm8  1  0.141807  0.395848  0.398395  1
  Tm  Tm9  1  0.142017  0.104144  0.601493  1
  Lu  Lu10  1  0.142239  0.103804  0.899009  1
  Lu  Lu11  1  0.857761  0.896196  0.100991  1
  Co  Co12  1  0.365550  0.029609  0.087158  1
  Co  Co13  1  0.634450  0.970391  0.912842  1
  Co  Co14  1  0.633954  0.970087  0.587993  1
  Co  Co15  1  0.633597  0.530366  0.411931  1
  Co  Co16  1  0.366046  0.029913  0.412007  1
  Co  Co17  1  0.366403  0.469634  0.588069  1
  Co  Co18  1  0.366225  0.469800  0.912427  1
  Co  Co19  1  0.633775  0.530200  0.087573  1
  Si  Si20  1  0.148898  0.102233  0.249316  1
  Si  Si21  1  0.851102  0.897767  0.750684  1
  Si  Si22  1  0.850600  0.603262  0.249384  1
  Si  Si23  1  0.149400  0.396738  0.750616  1
  Si  Si24  1  0.615263  0.250014  0.000042  1
  Si  Si25  1  0.384737  0.749986  0.999958  1
  Si  Si26  1  0.384070  0.749795  0.500077  1
  Si  Si27  1  0.615930  0.250205  0.499923  1
