# generated using pymatgen
data_Ho3ErLu6Cd3In5Pt4
_symmetry_space_group_name_H-M   'P 1'
_cell_length_a   3.57335200
_cell_length_b   8.09789831
_cell_length_c   18.06497900
_cell_angle_alpha   89.81698061
_cell_angle_beta   90.00000000
_cell_angle_gamma   90.00000000
_symmetry_Int_Tables_number   1
_chemical_formula_structural   Ho3ErLu6Cd3In5Pt4
_chemical_formula_sum   'Ho3 Er1 Lu6 Cd3 In5 Pt4'
_cell_volume   522.73714753
_cell_formula_units_Z   1
loop_
 _symmetry_equiv_pos_site_id
 _symmetry_equiv_pos_as_xyz
  1  'x, y, z'
loop_
 _atom_site_type_symbol
 _atom_site_label
 _atom_site_symmetry_multiplicity
 _atom_site_fract_x
 _atom_site_fract_y
 _atom_site_fract_z
 _atom_site_occupancy
  Ho  Ho0  1  0.000000  0.257924  0.720024  1
  Ho  Ho1  1  0.000000  0.999900  0.999984  1
  Ho  Ho2  1  0.000000  0.500245  0.499738  1
  Er  Er3  1  0.000000  0.741492  0.279977  1
  Lu  Lu4  1  0.000000  0.117399  0.413946  1
  Lu  Lu5  1  0.000000  0.882760  0.585905  1
  Lu  Lu6  1  0.000000  0.384119  0.914080  1
  Lu  Lu7  1  0.000000  0.616103  0.086093  1
  Lu  Lu8  1  0.000000  0.244170  0.221320  1
  Lu  Lu9  1  0.000000  0.756922  0.779179  1
  Cd  Cd10  1  0.500000  0.421940  0.352055  1
  Cd  Cd11  1  0.500000  0.578338  0.647889  1
  Cd  Cd12  1  0.500000  0.075481  0.852102  1
  In  In13  1  0.500000  0.923291  0.148317  1
  In  In14  1  0.500000  0.293108  0.066155  1
  In  In15  1  0.500000  0.708292  0.933998  1
  In  In16  1  0.500000  0.206999  0.564980  1
  In  In17  1  0.500000  0.792995  0.434635  1
  Pt  Pt18  1  0.500000  0.026921  0.303753  1
  Pt  Pt19  1  0.500000  0.970860  0.695862  1
  Pt  Pt20  1  0.500000  0.478005  0.804888  1
  Pt  Pt21  1  0.500000  0.522737  0.195119  1
