# generated using pymatgen
data_Sr2Ir3O8
_symmetry_space_group_name_H-M   'P 1'
_cell_length_a   6.54835555
_cell_length_b   6.54835451
_cell_length_c   5.45996028
_cell_angle_alpha   71.96515291
_cell_angle_beta   71.96515854
_cell_angle_gamma   58.94317316
_symmetry_Int_Tables_number   1
_chemical_formula_structural   Sr2Ir3O8
_chemical_formula_sum   'Sr2 Ir3 O8'
_cell_volume   187.45710899
_cell_formula_units_Z   1
loop_
 _symmetry_equiv_pos_site_id
 _symmetry_equiv_pos_as_xyz
  1  'x, y, z'
loop_
 _atom_site_type_symbol
 _atom_site_label
 _atom_site_symmetry_multiplicity
 _atom_site_fract_x
 _atom_site_fract_y
 _atom_site_fract_z
 _atom_site_occupancy
  Sr  Sr0  1  0.719525  0.719525  0.333031  1
  Sr  Sr1  1  0.280475  0.280475  0.666969  1
  Ir  Ir2  1  0.000000  0.000000  0.500000  1
  Ir  Ir3  1  0.745543  0.254457  0.000000  1
  Ir  Ir4  1  0.254457  0.745543  0.000000  1
  O  O5  1  0.401103  0.401103  0.957212  1
  O  O6  1  0.598897  0.598897  0.042788  1
  O  O7  1  0.908598  0.908598  0.908278  1
  O  O8  1  0.091402  0.091402  0.091722  1
  O  O9  1  0.315347  0.878536  0.613881  1
  O  O10  1  0.878536  0.315347  0.613881  1
  O  O11  1  0.121464  0.684653  0.386119  1
  O  O12  1  0.684653  0.121464  0.386119  1
