# generated using pymatgen
data_Cs2PrNd(SiSe4)2
_symmetry_space_group_name_H-M   'P 1'
_cell_length_a   7.14905400
_cell_length_b   9.97510576
_cell_length_c   13.65759693
_cell_angle_alpha   71.27972179
_cell_angle_beta   90.00000000
_cell_angle_gamma   90.00000000
_symmetry_Int_Tables_number   1
_chemical_formula_structural   Cs2PrNd(SiSe4)2
_chemical_formula_sum   'Cs4 Pr2 Nd2 Si4 Se16'
_cell_volume   922.43276904
_cell_formula_units_Z   2
loop_
 _symmetry_equiv_pos_site_id
 _symmetry_equiv_pos_as_xyz
  1  'x, y, z'
loop_
 _atom_site_type_symbol
 _atom_site_label
 _atom_site_symmetry_multiplicity
 _atom_site_fract_x
 _atom_site_fract_y
 _atom_site_fract_z
 _atom_site_occupancy
  Cs  Cs0  1  0.253544  0.434623  0.386294  1
  Cs  Cs1  1  0.753544  0.565377  0.113706  1
  Cs  Cs2  1  0.746381  0.565206  0.613999  1
  Cs  Cs3  1  0.246381  0.434794  0.886001  1
  Pr  Pr4  1  0.196729  0.953575  0.365540  1
  Pr  Pr5  1  0.696729  0.046425  0.134460  1
  Nd  Nd6  1  0.804468  0.046468  0.634834  1
  Nd  Nd7  1  0.304468  0.953532  0.865166  1
  Si  Si8  1  0.743426  0.166748  0.354656  1
  Si  Si9  1  0.243426  0.833252  0.145344  1
  Si  Si10  1  0.256683  0.833812  0.645835  1
  Si  Si11  1  0.756683  0.166188  0.854165  1
  Se  Se12  1  0.028624  0.196729  0.758998  1
  Se  Se13  1  0.774531  0.934375  0.454084  1
  Se  Se14  1  0.526083  0.207637  0.730557  1
  Se  Se15  1  0.723352  0.933703  0.953006  1
  Se  Se16  1  0.758370  0.312103  0.452509  1
  Se  Se17  1  0.971709  0.801293  0.240930  1
  Se  Se18  1  0.258370  0.687897  0.047491  1
  Se  Se19  1  0.223352  0.066297  0.546994  1
  Se  Se20  1  0.742025  0.313526  0.950623  1
  Se  Se21  1  0.474074  0.790367  0.269146  1
  Se  Se22  1  0.026083  0.792363  0.769443  1
  Se  Se23  1  0.242025  0.686474  0.549377  1
  Se  Se24  1  0.471709  0.198707  0.259070  1
  Se  Se25  1  0.974074  0.209633  0.230854  1
  Se  Se26  1  0.528624  0.803271  0.741002  1
  Se  Se27  1  0.274531  0.065625  0.045916  1
