# generated using pymatgen
data_TbY3B8OsRu3
_symmetry_space_group_name_H-M   'P 1'
_cell_length_a   5.32962500
_cell_length_b   5.92790872
_cell_length_c   6.36895981
_cell_angle_alpha   89.70124878
_cell_angle_beta   90.00000000
_cell_angle_gamma   90.00000000
_symmetry_Int_Tables_number   1
_chemical_formula_structural   TbY3B8OsRu3
_chemical_formula_sum   'Tb1 Y3 B8 Os1 Ru3'
_cell_volume   201.21519094
_cell_formula_units_Z   1
loop_
 _symmetry_equiv_pos_site_id
 _symmetry_equiv_pos_as_xyz
  1  'x, y, z'
loop_
 _atom_site_type_symbol
 _atom_site_label
 _atom_site_symmetry_multiplicity
 _atom_site_fract_x
 _atom_site_fract_y
 _atom_site_fract_z
 _atom_site_occupancy
  Tb  Tb0  1  0.250000  0.510763  0.838578  1
  Y  Y1  1  0.750000  0.488448  0.163698  1
  Y  Y2  1  0.750000  0.988093  0.335269  1
  Y  Y3  1  0.250000  0.011767  0.663690  1
  B  B4  1  0.916644  0.131935  0.959465  1
  B  B5  1  0.584327  0.630495  0.538172  1
  B  B6  1  0.414938  0.870029  0.038315  1
  B  B7  1  0.083844  0.368240  0.461833  1
  B  B8  1  0.085062  0.870029  0.038315  1
  B  B9  1  0.416156  0.368240  0.461833  1
  B  B10  1  0.583356  0.131935  0.959465  1
  B  B11  1  0.915673  0.630495  0.538172  1
  Os  Os12  1  0.750000  0.319390  0.682606  1
  Ru  Ru13  1  0.750000  0.819119  0.818416  1
  Ru  Ru14  1  0.250000  0.680270  0.319774  1
  Ru  Ru15  1  0.250000  0.180752  0.182399  1
