# generated using pymatgen
data_AcZn2Au5
_symmetry_space_group_name_H-M   'P 1'
_cell_length_a   7.47365600
_cell_length_b   8.92323000
_cell_length_c   9.92729300
_cell_angle_alpha   90.00000000
_cell_angle_beta   90.00000000
_cell_angle_gamma   90.00000000
_symmetry_Int_Tables_number   1
_chemical_formula_structural   AcZn2Au5
_chemical_formula_sum   'Ac4 Zn8 Au20'
_cell_volume   662.04274616
_cell_formula_units_Z   4
loop_
 _symmetry_equiv_pos_site_id
 _symmetry_equiv_pos_as_xyz
  1  'x, y, z'
loop_
 _atom_site_type_symbol
 _atom_site_label
 _atom_site_symmetry_multiplicity
 _atom_site_fract_x
 _atom_site_fract_y
 _atom_site_fract_z
 _atom_site_occupancy
  Ac  Ac0  1  0.250000  0.254331  0.116910  1
  Ac  Ac1  1  0.250000  0.754331  0.383090  1
  Ac  Ac2  1  0.750000  0.745669  0.883090  1
  Ac  Ac3  1  0.750000  0.245669  0.616910  1
  Zn  Zn4  1  0.250000  0.057032  0.616645  1
  Zn  Zn5  1  0.250000  0.557032  0.883355  1
  Zn  Zn6  1  0.750000  0.942968  0.383355  1
  Zn  Zn7  1  0.750000  0.442968  0.116645  1
  Zn  Zn8  1  0.250000  0.352618  0.481998  1
  Zn  Zn9  1  0.250000  0.852618  0.018002  1
  Zn  Zn10  1  0.750000  0.647382  0.518002  1
  Zn  Zn11  1  0.750000  0.147382  0.981998  1
  Au  Au12  1  0.062379  0.103421  0.390748  1
  Au  Au13  1  0.437621  0.603421  0.109252  1
  Au  Au14  1  0.562379  0.896579  0.609252  1
  Au  Au15  1  0.937621  0.396579  0.890748  1
  Au  Au16  1  0.937621  0.896579  0.609252  1
  Au  Au17  1  0.562379  0.396579  0.890748  1
  Au  Au18  1  0.437621  0.103421  0.390748  1
  Au  Au19  1  0.062379  0.603421  0.109252  1
  Au  Au20  1  0.037817  0.051439  0.860628  1
  Au  Au21  1  0.462183  0.551439  0.639372  1
  Au  Au22  1  0.537817  0.948561  0.139372  1
  Au  Au23  1  0.962183  0.448561  0.360628  1
  Au  Au24  1  0.962183  0.948561  0.139372  1
  Au  Au25  1  0.537817  0.448561  0.360628  1
  Au  Au26  1  0.462183  0.051439  0.860628  1
  Au  Au27  1  0.037817  0.551439  0.639372  1
  Au  Au28  1  0.250000  0.299812  0.750863  1
  Au  Au29  1  0.250000  0.799812  0.749137  1
  Au  Au30  1  0.750000  0.700188  0.249137  1
  Au  Au31  1  0.750000  0.200188  0.250863  1
