# generated using pymatgen
data_Ce12TlSi5Tc6
_symmetry_space_group_name_H-M   'P 1'
_cell_length_a   7.70463200
_cell_length_b   7.70463060
_cell_length_c   9.79574700
_cell_angle_alpha   90.00000000
_cell_angle_beta   90.00000000
_cell_angle_gamma   119.99999742
_symmetry_Int_Tables_number   1
_chemical_formula_structural   Ce12TlSi5Tc6
_chemical_formula_sum   'Ce12 Tl1 Si5 Tc6'
_cell_volume   503.58400122
_cell_formula_units_Z   1
loop_
 _symmetry_equiv_pos_site_id
 _symmetry_equiv_pos_as_xyz
  1  'x, y, z'
loop_
 _atom_site_type_symbol
 _atom_site_label
 _atom_site_symmetry_multiplicity
 _atom_site_fract_x
 _atom_site_fract_y
 _atom_site_fract_z
 _atom_site_occupancy
  Ce  Ce0  1  0.000000  0.586877  0.500298  1
  Ce  Ce1  1  0.586877  0.000000  0.500298  1
  Ce  Ce2  1  0.413123  0.413123  0.500298  1
  Ce  Ce3  1  0.000000  0.421669  0.001388  1
  Ce  Ce4  1  0.421669  0.000000  0.001388  1
  Ce  Ce5  1  0.578331  0.578331  0.001388  1
  Ce  Ce6  1  0.000000  0.732316  0.184250  1
  Ce  Ce7  1  0.732316  0.000000  0.184250  1
  Ce  Ce8  1  0.267684  0.267684  0.184250  1
  Ce  Ce9  1  0.000000  0.265566  0.671254  1
  Ce  Ce10  1  0.265566  0.000000  0.671254  1
  Ce  Ce11  1  0.734434  0.734434  0.671254  1
  Tl  Tl12  1  0.000000  0.000000  0.930801  1
  Si  Si13  1  0.666667  0.333333  0.273304  1
  Si  Si14  1  0.333333  0.666667  0.273304  1
  Si  Si15  1  0.333333  0.666667  0.769242  1
  Si  Si16  1  0.666667  0.333333  0.769242  1
  Si  Si17  1  0.000000  0.000000  0.422873  1
  Tc  Tc18  1  0.000000  0.341270  0.339676  1
  Tc  Tc19  1  0.341270  0.000000  0.339676  1
  Tc  Tc20  1  0.658730  0.658730  0.339676  1
  Tc  Tc21  1  0.000000  0.643651  0.833294  1
  Tc  Tc22  1  0.643651  0.000000  0.833294  1
  Tc  Tc23  1  0.356349  0.356349  0.833294  1
