# generated using pymatgen
data_Dy5Cr3(Co4As3)4
_symmetry_space_group_name_H-M   'P 1'
_cell_length_a   12.52943800
_cell_length_b   12.52943661
_cell_length_c   3.78959000
_cell_angle_alpha   90.00000000
_cell_angle_beta   90.00000000
_cell_angle_gamma   120.00000367
_symmetry_Int_Tables_number   1
_chemical_formula_structural   Dy5Cr3(Co4As3)4
_chemical_formula_sum   'Dy5 Cr3 Co16 As12'
_cell_volume   515.21200747
_cell_formula_units_Z   1
loop_
 _symmetry_equiv_pos_site_id
 _symmetry_equiv_pos_as_xyz
  1  'x, y, z'
loop_
 _atom_site_type_symbol
 _atom_site_label
 _atom_site_symmetry_multiplicity
 _atom_site_fract_x
 _atom_site_fract_y
 _atom_site_fract_z
 _atom_site_occupancy
  Dy  Dy0  1  0.185709  0.185709  0.500000  1
  Dy  Dy1  1  0.814291  0.000000  0.500000  1
  Dy  Dy2  1  0.000000  0.814291  0.500000  1
  Dy  Dy3  1  0.333333  0.666667  0.000000  1
  Dy  Dy4  1  0.666667  0.333333  0.000000  1
  Cr  Cr5  1  0.560060  0.560060  0.000000  1
  Cr  Cr6  1  0.439940  0.000000  0.000000  1
  Cr  Cr7  1  0.000000  0.439940  0.000000  1
  Co  Co8  1  0.715138  0.715138  0.500000  1
  Co  Co9  1  0.284862  0.000000  0.500000  1
  Co  Co10  1  0.000000  0.284862  0.500000  1
  Co  Co11  1  0.177702  0.376812  0.000000  1
  Co  Co12  1  0.623188  0.800891  0.000000  1
  Co  Co13  1  0.199109  0.822298  0.000000  1
  Co  Co14  1  0.800891  0.623188  0.000000  1
  Co  Co15  1  0.822298  0.199109  0.000000  1
  Co  Co16  1  0.376812  0.177702  0.000000  1
  Co  Co17  1  0.356066  0.480173  0.500000  1
  Co  Co18  1  0.519827  0.875894  0.500000  1
  Co  Co19  1  0.124106  0.643934  0.500000  1
  Co  Co20  1  0.875894  0.519827  0.500000  1
  Co  Co21  1  0.643934  0.124106  0.500000  1
  Co  Co22  1  0.480173  0.356066  0.500000  1
  Co  Co23  1  0.000000  0.000000  0.000000  1
  As  As24  1  0.820709  0.820709  0.000000  1
  As  As25  1  0.179291  0.000000  0.000000  1
  As  As26  1  0.000000  0.179291  0.000000  1
  As  As27  1  0.166484  0.482550  0.500000  1
  As  As28  1  0.517450  0.683934  0.500000  1
  As  As29  1  0.316066  0.833516  0.500000  1
  As  As30  1  0.683934  0.517450  0.500000  1
  As  As31  1  0.833516  0.316066  0.500000  1
  As  As32  1  0.482550  0.166484  0.500000  1
  As  As33  1  0.362285  0.362285  0.000000  1
  As  As34  1  0.637715  0.000000  0.000000  1
  As  As35  1  0.000000  0.637715  0.000000  1
