# generated using pymatgen
data_Nd8Si(Pd7Pt5)2
_symmetry_space_group_name_H-M   'P 1'
_cell_length_a   8.47932800
_cell_length_b   8.47932800
_cell_length_c   8.49595300
_cell_angle_alpha   90.00000000
_cell_angle_beta   90.00000000
_cell_angle_gamma   90.00000000
_symmetry_Int_Tables_number   1
_chemical_formula_structural   Nd8Si(Pd7Pt5)2
_chemical_formula_sum   'Nd8 Si1 Pd14 Pt10'
_cell_volume   610.85055305
_cell_formula_units_Z   1
loop_
 _symmetry_equiv_pos_site_id
 _symmetry_equiv_pos_as_xyz
  1  'x, y, z'
loop_
 _atom_site_type_symbol
 _atom_site_label
 _atom_site_symmetry_multiplicity
 _atom_site_fract_x
 _atom_site_fract_y
 _atom_site_fract_z
 _atom_site_occupancy
  Nd  Nd0  1  0.252578  0.252578  0.252638  1
  Nd  Nd1  1  0.746705  0.746705  0.746257  1
  Nd  Nd2  1  0.747422  0.747422  0.252638  1
  Nd  Nd3  1  0.746705  0.253295  0.746257  1
  Nd  Nd4  1  0.253295  0.253295  0.746257  1
  Nd  Nd5  1  0.252578  0.747422  0.252638  1
  Nd  Nd6  1  0.253295  0.746705  0.746257  1
  Nd  Nd7  1  0.747422  0.252578  0.252638  1
  Si  Si8  1  0.000000  0.000000  0.007881  1
  Pd  Pd9  1  0.258031  0.500000  0.999940  1
  Pd  Pd10  1  0.741969  0.500000  0.999940  1
  Pd  Pd11  1  0.000000  0.259376  0.500279  1
  Pd  Pd12  1  0.500000  0.258031  0.999940  1
  Pd  Pd13  1  0.000000  0.740624  0.500279  1
  Pd  Pd14  1  0.500000  0.741969  0.999940  1
  Pd  Pd15  1  0.500000  0.000000  0.256856  1
  Pd  Pd16  1  0.259376  0.000000  0.500279  1
  Pd  Pd17  1  0.500000  0.000000  0.740543  1
  Pd  Pd18  1  0.740624  0.000000  0.500279  1
  Pd  Pd19  1  0.000000  0.500000  0.256856  1
  Pd  Pd20  1  0.000000  0.500000  0.740543  1
  Pd  Pd21  1  0.500000  0.500000  0.746787  1
  Pd  Pd22  1  0.000000  0.000000  0.722360  1
  Pt  Pt23  1  0.253172  0.500000  0.499444  1
  Pt  Pt24  1  0.746828  0.500000  0.499444  1
  Pt  Pt25  1  0.500000  0.253172  0.499444  1
  Pt  Pt26  1  0.500000  0.746828  0.499444  1
  Pt  Pt27  1  0.500000  0.500000  0.252770  1
  Pt  Pt28  1  0.281159  0.000000  0.998229  1
  Pt  Pt29  1  0.718841  0.000000  0.998229  1
  Pt  Pt30  1  0.000000  0.281159  0.998229  1
  Pt  Pt31  1  0.000000  0.718841  0.998229  1
  Pt  Pt32  1  0.000000  0.000000  0.288258  1
