# generated using pymatgen
data_YHo7Tc2(OsC4)2
_symmetry_space_group_name_H-M   'P 1'
_cell_length_a   5.08843500
_cell_length_b   6.51771307
_cell_length_c   9.79283577
_cell_angle_alpha   89.64177856
_cell_angle_beta   90.00000000
_cell_angle_gamma   90.00000000
_symmetry_Int_Tables_number   1
_chemical_formula_structural   YHo7Tc2(OsC4)2
_chemical_formula_sum   'Y1 Ho7 Tc2 Os2 C8'
_cell_volume   324.77265213
_cell_formula_units_Z   1
loop_
 _symmetry_equiv_pos_site_id
 _symmetry_equiv_pos_as_xyz
  1  'x, y, z'
loop_
 _atom_site_type_symbol
 _atom_site_label
 _atom_site_symmetry_multiplicity
 _atom_site_fract_x
 _atom_site_fract_y
 _atom_site_fract_z
 _atom_site_occupancy
  Y  Y0  1  0.250000  0.029578  0.285635  1
  Ho  Ho1  1  0.250000  0.678751  0.555980  1
  Ho  Ho2  1  0.750000  0.321020  0.444269  1
  Ho  Ho3  1  0.750000  0.822084  0.055896  1
  Ho  Ho4  1  0.250000  0.177848  0.943717  1
  Ho  Ho5  1  0.250000  0.531186  0.216411  1
  Ho  Ho6  1  0.750000  0.468782  0.783594  1
  Ho  Ho7  1  0.750000  0.970691  0.714593  1
  Tc  Tc8  1  0.250000  0.721490  0.865570  1
  Tc  Tc9  1  0.750000  0.278459  0.134123  1
  Os  Os10  1  0.750000  0.776530  0.365667  1
  Os  Os11  1  0.250000  0.223046  0.634606  1
  C  C12  1  0.250000  0.455753  0.758384  1
  C  C13  1  0.750000  0.544065  0.241639  1
  C  C14  1  0.750000  0.042791  0.259196  1
  C  C15  1  0.250000  0.956940  0.740623  1
  C  C16  1  0.250000  0.822455  0.050907  1
  C  C17  1  0.750000  0.177112  0.948521  1
  C  C18  1  0.750000  0.675687  0.551850  1
  C  C19  1  0.250000  0.325728  0.448819  1
