# generated using pymatgen
data_Tb3Er(Fe2O7)2
_symmetry_space_group_name_H-M   'P 1'
_cell_length_a   7.16464107
_cell_length_b   7.16488234
_cell_length_c   7.16468780
_cell_angle_alpha   60.02250860
_cell_angle_beta   60.02046519
_cell_angle_gamma   60.03730469
_symmetry_Int_Tables_number   1
_chemical_formula_structural   Tb3Er(Fe2O7)2
_chemical_formula_sum   'Tb3 Er1 Fe4 O14'
_cell_volume   260.22505913
_cell_formula_units_Z   1
loop_
 _symmetry_equiv_pos_site_id
 _symmetry_equiv_pos_as_xyz
  1  'x, y, z'
loop_
 _atom_site_type_symbol
 _atom_site_label
 _atom_site_symmetry_multiplicity
 _atom_site_fract_x
 _atom_site_fract_y
 _atom_site_fract_z
 _atom_site_occupancy
  Tb  Tb0  1  0.500028  0.999997  0.500005  1
  Tb  Tb1  1  0.999987  0.499983  0.500001  1
  Tb  Tb2  1  0.500021  0.499984  0.999995  1
  Er  Er3  1  0.499818  0.500171  0.500016  1
  Fe  Fe4  1  0.000001  0.499987  0.000020  1
  Fe  Fe5  1  0.500015  0.999999  0.999987  1
  Fe  Fe6  1  0.999999  0.000004  0.499996  1
  Fe  Fe7  1  0.000009  0.999996  0.999994  1
  O  O8  1  0.623595  0.623605  0.623569  1
  O  O9  1  0.376409  0.376379  0.376431  1
  O  O10  1  0.334357  0.916418  0.916602  1
  O  O11  1  0.086029  0.666654  0.666590  1
  O  O12  1  0.916445  0.334418  0.916552  1
  O  O13  1  0.916634  0.916556  0.334112  1
  O  O14  1  0.333274  0.333234  0.913978  1
  O  O15  1  0.333399  0.914004  0.333422  1
  O  O16  1  0.913969  0.333327  0.333410  1
  O  O17  1  0.666741  0.666758  0.086017  1
  O  O18  1  0.083399  0.083420  0.665882  1
  O  O19  1  0.665668  0.083564  0.083395  1
  O  O20  1  0.666628  0.085985  0.666579  1
  O  O21  1  0.083581  0.665563  0.083449  1
