# generated using pymatgen
data_DyHo2In4CoRh
_symmetry_space_group_name_H-M   'P 1'
_cell_length_a   7.97110702
_cell_length_b   7.96641351
_cell_length_c   3.62451200
_cell_angle_alpha   90.00000000
_cell_angle_beta   90.00000000
_cell_angle_gamma   120.01223908
_symmetry_Int_Tables_number   1
_chemical_formula_structural   DyHo2In4CoRh
_chemical_formula_sum   'Dy1 Ho2 In4 Co1 Rh1'
_cell_volume   199.30036064
_cell_formula_units_Z   1
loop_
 _symmetry_equiv_pos_site_id
 _symmetry_equiv_pos_as_xyz
  1  'x, y, z'
loop_
 _atom_site_type_symbol
 _atom_site_label
 _atom_site_symmetry_multiplicity
 _atom_site_fract_x
 _atom_site_fract_y
 _atom_site_fract_z
 _atom_site_occupancy
  Dy  Dy0  1  0.253123  0.955347  0.500000  1
  Ho  Ho1  1  0.043416  0.297193  0.500000  1
  Ho  Ho2  1  0.702997  0.746043  0.500000  1
  In  In3  1  0.662323  0.079592  0.000000  1
  In  In4  1  0.921470  0.582927  0.000000  1
  In  In5  1  0.416686  0.337883  0.000000  1
  In  In6  1  0.334019  0.666368  0.000000  1
  Co  Co7  1  0.666986  0.334468  0.500000  1
  Rh  Rh8  1  0.998982  0.000178  0.000000  1
