# generated using pymatgen
data_Pr3ThAgIr
_symmetry_space_group_name_H-M   'P 1'
_cell_length_a   9.99242124
_cell_length_b   9.99242014
_cell_length_c   9.99242100
_cell_angle_alpha   60.00000045
_cell_angle_beta   60.00000411
_cell_angle_gamma   60.00000291
_symmetry_Int_Tables_number   1
_chemical_formula_structural   Pr3ThAgIr
_chemical_formula_sum   'Pr12 Th4 Ag4 Ir4'
_cell_volume   705.50024677
_cell_formula_units_Z   4
loop_
 _symmetry_equiv_pos_site_id
 _symmetry_equiv_pos_as_xyz
  1  'x, y, z'
loop_
 _atom_site_type_symbol
 _atom_site_label
 _atom_site_symmetry_multiplicity
 _atom_site_fract_x
 _atom_site_fract_y
 _atom_site_fract_z
 _atom_site_occupancy
  Pr  Pr0  1  0.807591  0.192409  0.192409  1
  Pr  Pr1  1  0.192409  0.807591  0.807591  1
  Pr  Pr2  1  0.192409  0.807591  0.192409  1
  Pr  Pr3  1  0.807591  0.192409  0.807591  1
  Pr  Pr4  1  0.192409  0.192409  0.807591  1
  Pr  Pr5  1  0.807591  0.807591  0.192409  1
  Pr  Pr6  1  0.937037  0.562963  0.562963  1
  Pr  Pr7  1  0.562963  0.937037  0.937037  1
  Pr  Pr8  1  0.562963  0.937037  0.562963  1
  Pr  Pr9  1  0.937037  0.562963  0.937037  1
  Pr  Pr10  1  0.562963  0.562963  0.937037  1
  Pr  Pr11  1  0.937037  0.937037  0.562963  1
  Th  Th12  1  0.346990  0.346990  0.346990  1
  Th  Th13  1  0.346990  0.346990  0.959028  1
  Th  Th14  1  0.346990  0.959028  0.346990  1
  Th  Th15  1  0.959028  0.346990  0.346990  1
  Ag  Ag16  1  0.580531  0.580531  0.580531  1
  Ag  Ag17  1  0.580531  0.580531  0.258407  1
  Ag  Ag18  1  0.580531  0.258407  0.580531  1
  Ag  Ag19  1  0.258407  0.580531  0.580531  1
  Ir  Ir20  1  0.145876  0.145876  0.145876  1
  Ir  Ir21  1  0.145876  0.145876  0.562373  1
  Ir  Ir22  1  0.145876  0.562373  0.145876  1
  Ir  Ir23  1  0.562373  0.145876  0.145876  1
