# generated using pymatgen
data_YbCd2Ru4PbO14
_symmetry_space_group_name_H-M   'P 1'
_cell_length_a   7.21229886
_cell_length_b   7.24593744
_cell_length_c   7.29533394
_cell_angle_alpha   60.57082320
_cell_angle_beta   60.37580178
_cell_angle_gamma   60.15345848
_symmetry_Int_Tables_number   1
_chemical_formula_structural   YbCd2Ru4PbO14
_chemical_formula_sum   'Yb1 Cd2 Ru4 Pb1 O14'
_cell_volume   271.81563629
_cell_formula_units_Z   1
loop_
 _symmetry_equiv_pos_site_id
 _symmetry_equiv_pos_as_xyz
  1  'x, y, z'
loop_
 _atom_site_type_symbol
 _atom_site_label
 _atom_site_symmetry_multiplicity
 _atom_site_fract_x
 _atom_site_fract_y
 _atom_site_fract_z
 _atom_site_occupancy
  Yb  Yb0  1  0.125000  0.125000  0.625000  1
  Cd  Cd1  1  0.125000  0.125000  0.125000  1
  Cd  Cd2  1  0.625000  0.125000  0.125000  1
  Ru  Ru3  1  0.625000  0.625000  0.625000  1
  Ru  Ru4  1  0.125000  0.625000  0.625000  1
  Ru  Ru5  1  0.625000  0.625000  0.125000  1
  Ru  Ru6  1  0.625000  0.125000  0.625000  1
  Pb  Pb7  1  0.125000  0.625000  0.125000  1
  O  O8  1  0.989587  0.015055  0.005769  1
  O  O9  1  0.260413  0.234945  0.244231  1
  O  O10  1  0.303022  0.306600  0.692125  1
  O  O11  1  0.547950  0.558985  0.945938  1
  O  O12  1  0.698254  0.306600  0.692125  1
  O  O13  1  0.690689  0.309683  0.308938  1
  O  O14  1  0.297400  0.700388  0.704814  1
  O  O15  1  0.302871  0.691015  0.304062  1
  O  O16  1  0.702050  0.691015  0.304062  1
  O  O17  1  0.952600  0.549612  0.545186  1
  O  O18  1  0.559311  0.940317  0.941062  1
  O  O19  1  0.946978  0.943400  0.557875  1
  O  O20  1  0.947129  0.558985  0.945938  1
  O  O21  1  0.551746  0.943400  0.557875  1
