# generated using pymatgen
data_Cs2TcP2Pd
_symmetry_space_group_name_H-M   'P 1'
_cell_length_a   4.06959400
_cell_length_b   4.06959400
_cell_length_c   11.86169500
_cell_angle_alpha   90.00000000
_cell_angle_beta   90.00000000
_cell_angle_gamma   90.00000000
_symmetry_Int_Tables_number   1
_chemical_formula_structural   Cs2TcP2Pd
_chemical_formula_sum   'Cs2 Tc1 P2 Pd1'
_cell_volume   196.44859246
_cell_formula_units_Z   1
loop_
 _symmetry_equiv_pos_site_id
 _symmetry_equiv_pos_as_xyz
  1  'x, y, z'
loop_
 _atom_site_type_symbol
 _atom_site_label
 _atom_site_symmetry_multiplicity
 _atom_site_fract_x
 _atom_site_fract_y
 _atom_site_fract_z
 _atom_site_occupancy
  Cs  Cs0  1  0.000000  0.500000  0.285255  1
  Cs  Cs1  1  0.500000  0.000000  0.714745  1
  Tc  Tc2  1  0.000000  0.000000  0.000000  1
  P  P3  1  0.000000  0.500000  0.893628  1
  P  P4  1  0.500000  0.000000  0.106372  1
  Pd  Pd5  1  0.500000  0.500000  0.000000  1
