# generated using pymatgen
data_Tb6PrTh(Si3Pd)4
_symmetry_space_group_name_H-M   'P 1'
_cell_length_a   8.20008200
_cell_length_b   8.19436402
_cell_length_c   8.29413600
_cell_angle_alpha   90.00000000
_cell_angle_beta   90.00000000
_cell_angle_gamma   120.02308554
_symmetry_Int_Tables_number   1
_chemical_formula_structural   Tb6PrTh(Si3Pd)4
_chemical_formula_sum   'Tb6 Pr1 Th1 Si12 Pd4'
_cell_volume   482.54093023
_cell_formula_units_Z   1
loop_
 _symmetry_equiv_pos_site_id
 _symmetry_equiv_pos_as_xyz
  1  'x, y, z'
loop_
 _atom_site_type_symbol
 _atom_site_label
 _atom_site_symmetry_multiplicity
 _atom_site_fract_x
 _atom_site_fract_y
 _atom_site_fract_z
 _atom_site_occupancy
  Tb  Tb0  1  0.499651  0.999304  0.750000  1
  Tb  Tb1  1  0.999405  0.499714  0.250000  1
  Tb  Tb2  1  0.000760  0.500396  0.750000  1
  Tb  Tb3  1  0.500311  0.499714  0.250000  1
  Tb  Tb4  1  0.499635  0.500396  0.750000  1
  Tb  Tb5  1  0.999979  0.999958  0.750000  1
  Pr  Pr6  1  0.000018  0.000036  0.250000  1
  Th  Th7  1  0.500268  0.000534  0.250000  1
  Si  Si8  1  0.166633  0.333265  0.998606  1
  Si  Si9  1  0.833358  0.666716  0.997859  1
  Si  Si10  1  0.668463  0.833505  0.996182  1
  Si  Si11  1  0.833358  0.666716  0.502141  1
  Si  Si12  1  0.331528  0.166497  0.995414  1
  Si  Si13  1  0.166633  0.333265  0.501394  1
  Si  Si14  1  0.165041  0.833505  0.996182  1
  Si  Si15  1  0.331528  0.166497  0.504586  1
  Si  Si16  1  0.834969  0.166497  0.995414  1
  Si  Si17  1  0.668463  0.833505  0.503818  1
  Si  Si18  1  0.834969  0.166497  0.504586  1
  Si  Si19  1  0.165041  0.833505  0.503818  1
  Pd  Pd20  1  0.333281  0.666564  0.997923  1
  Pd  Pd21  1  0.666712  0.333424  0.996516  1
  Pd  Pd22  1  0.666712  0.333424  0.503484  1
  Pd  Pd23  1  0.333281  0.666564  0.502077  1
