# generated using pymatgen
data_Dy2Y10InCo4Ni
_symmetry_space_group_name_H-M   'P 1'
_cell_length_a   8.33052115
_cell_length_b   8.34125225
_cell_length_c   8.33052144
_cell_angle_alpha   110.71099640
_cell_angle_beta   110.62910888
_cell_angle_gamma   107.04934990
_symmetry_Int_Tables_number   1
_chemical_formula_structural   Dy2Y10InCo4Ni
_chemical_formula_sum   'Dy2 Y10 In1 Co4 Ni1'
_cell_volume   445.30100823
_cell_formula_units_Z   1
loop_
 _symmetry_equiv_pos_site_id
 _symmetry_equiv_pos_as_xyz
  1  'x, y, z'
loop_
 _atom_site_type_symbol
 _atom_site_label
 _atom_site_symmetry_multiplicity
 _atom_site_fract_x
 _atom_site_fract_y
 _atom_site_fract_z
 _atom_site_occupancy
  Dy  Dy0  1  0.314507  0.008222  0.693714  1
  Dy  Dy1  1  0.685493  0.991778  0.306286  1
  Y  Y2  1  0.405684  0.210157  0.194374  1
  Y  Y3  1  0.594316  0.789843  0.805626  1
  Y  Y4  1  0.015784  0.210157  0.804472  1
  Y  Y5  1  0.984216  0.789843  0.195528  1
  Y  Y6  1  0.186745  0.293289  0.480503  1
  Y  Y7  1  0.813255  0.706711  0.519497  1
  Y  Y8  1  0.187215  0.706711  0.893457  1
  Y  Y9  1  0.812785  0.293289  0.106543  1
  Y  Y10  1  0.314515  0.618684  0.304170  1
  Y  Y11  1  0.685485  0.381316  0.695830  1
  In  In12  1  0.500000  0.500000  0.000000  1
  Co  Co13  1  0.380572  0.000000  0.380572  1
  Co  Co14  1  0.619428  0.000000  0.619428  1
  Co  Co15  1  0.111449  0.612281  0.500832  1
  Co  Co16  1  0.888551  0.387719  0.499168  1
  Ni  Ni17  1  0.000000  0.000000  0.000000  1
