# generated using pymatgen
data_Mn2B(PdPt)3
_symmetry_space_group_name_H-M   'P 1'
_cell_length_a   5.71560154
_cell_length_b   5.71560073
_cell_length_c   5.72758026
_cell_angle_alpha   60.06915333
_cell_angle_beta   60.06915351
_cell_angle_gamma   59.99999354
_symmetry_Int_Tables_number   1
_chemical_formula_structural   Mn2B(PdPt)3
_chemical_formula_sum   'Mn2 B1 Pd3 Pt3'
_cell_volume   132.44426270
_cell_formula_units_Z   1
loop_
 _symmetry_equiv_pos_site_id
 _symmetry_equiv_pos_as_xyz
  1  'x, y, z'
loop_
 _atom_site_type_symbol
 _atom_site_label
 _atom_site_symmetry_multiplicity
 _atom_site_fract_x
 _atom_site_fract_y
 _atom_site_fract_z
 _atom_site_occupancy
  Mn  Mn0  1  0.250023  0.250023  0.249932  1
  Mn  Mn1  1  0.750131  0.750131  0.749612  1
  B  B2  1  0.999296  0.999296  0.002112  1
  Pd  Pd3  1  0.256363  0.256363  0.743052  1
  Pd  Pd4  1  0.744221  0.256365  0.743051  1
  Pd  Pd5  1  0.256365  0.744221  0.743051  1
  Pt  Pt6  1  0.258363  0.742620  0.256397  1
  Pt  Pt7  1  0.742620  0.258363  0.256397  1
  Pt  Pt8  1  0.742619  0.742619  0.256399  1
