# generated using pymatgen
data_Tb2YbInNi14
_symmetry_space_group_name_H-M   'P 1'
_cell_length_a   4.92106549
_cell_length_b   4.92106539
_cell_length_c   12.23378945
_cell_angle_alpha   78.39719101
_cell_angle_beta   78.39719016
_cell_angle_gamma   60.00000711
_symmetry_Int_Tables_number   1
_chemical_formula_structural   Tb2YbInNi14
_chemical_formula_sum   'Tb2 Yb1 In1 Ni14'
_cell_volume   249.55731859
_cell_formula_units_Z   1
loop_
 _symmetry_equiv_pos_site_id
 _symmetry_equiv_pos_as_xyz
  1  'x, y, z'
loop_
 _atom_site_type_symbol
 _atom_site_label
 _atom_site_symmetry_multiplicity
 _atom_site_fract_x
 _atom_site_fract_y
 _atom_site_fract_z
 _atom_site_occupancy
  Tb  Tb0  1  0.945325  0.945325  0.164025  1
  Tb  Tb1  1  0.052282  0.052282  0.843154  1
  Yb  Yb2  1  0.149818  0.149818  0.550546  1
  In  In3  1  0.850734  0.850734  0.447798  1
  Ni  Ni4  1  0.500168  0.500168  0.499497  1
  Ni  Ni5  1  0.722266  0.722266  0.833201  1
  Ni  Ni6  1  0.277995  0.277995  0.166016  1
  Ni  Ni7  1  0.611659  0.611659  0.165024  1
  Ni  Ni8  1  0.389236  0.389236  0.832291  1
  Ni  Ni9  1  0.000481  0.499902  0.999715  1
  Ni  Ni10  1  0.499902  0.000481  0.999715  1
  Ni  Ni11  1  0.499902  0.499902  0.999715  1
  Ni  Ni12  1  0.388615  0.388615  0.332923  1
  Ni  Ni13  1  0.889847  0.388615  0.332923  1
  Ni  Ni14  1  0.388615  0.889847  0.332923  1
  Ni  Ni15  1  0.612086  0.612086  0.666844  1
  Ni  Ni16  1  0.108984  0.612086  0.666844  1
  Ni  Ni17  1  0.612086  0.108984  0.666844  1
