# generated using pymatgen
data_Zr8TiSi16Mo11
_symmetry_space_group_name_H-M   'P 1'
_cell_length_a   6.75688755
_cell_length_b   6.75688749
_cell_length_c   12.50611956
_cell_angle_alpha   89.97999661
_cell_angle_beta   90.02000387
_cell_angle_gamma   90.29387164
_symmetry_Int_Tables_number   1
_chemical_formula_structural   Zr8TiSi16Mo11
_chemical_formula_sum   'Zr8 Ti1 Si16 Mo11'
_cell_volume   570.96592396
_cell_formula_units_Z   1
loop_
 _symmetry_equiv_pos_site_id
 _symmetry_equiv_pos_as_xyz
  1  'x, y, z'
loop_
 _atom_site_type_symbol
 _atom_site_label
 _atom_site_symmetry_multiplicity
 _atom_site_fract_x
 _atom_site_fract_y
 _atom_site_fract_z
 _atom_site_occupancy
  Zr  Zr0  1  0.003743  0.663148  0.032023  1
  Zr  Zr1  1  0.993130  0.337450  0.532245  1
  Zr  Zr2  1  0.663148  0.003743  0.967977  1
  Zr  Zr3  1  0.161218  0.496976  0.781731  1
  Zr  Zr4  1  0.838975  0.506953  0.283598  1
  Zr  Zr5  1  0.496976  0.161218  0.218269  1
  Zr  Zr6  1  0.506953  0.838975  0.716402  1
  Zr  Zr7  1  0.337450  0.993130  0.467755  1
  Ti  Ti8  1  0.333134  0.333134  0.000000  1
  Si  Si9  1  0.037151  0.712128  0.436723  1
  Si  Si10  1  0.958936  0.294615  0.933574  1
  Si  Si11  1  0.712128  0.037151  0.563277  1
  Si  Si12  1  0.210602  0.464409  0.188702  1
  Si  Si13  1  0.787208  0.537055  0.685910  1
  Si  Si14  1  0.464409  0.210602  0.811298  1
  Si  Si15  1  0.537055  0.787208  0.314090  1
  Si  Si16  1  0.294615  0.958936  0.066426  1
  Si  Si17  1  0.874396  0.796644  0.820924  1
  Si  Si18  1  0.125187  0.202782  0.320363  1
  Si  Si19  1  0.796644  0.874396  0.179076  1
  Si  Si20  1  0.294991  0.623781  0.571114  1
  Si  Si21  1  0.708583  0.370843  0.071501  1
  Si  Si22  1  0.623781  0.294991  0.428886  1
  Si  Si23  1  0.370843  0.708583  0.928499  1
  Si  Si24  1  0.202782  0.125187  0.679637  1
  Mo  Mo25  1  0.331513  0.492781  0.380019  1
  Mo  Mo26  1  0.831741  0.006446  0.370368  1
  Mo  Mo27  1  0.003300  0.166604  0.124587  1
  Mo  Mo28  1  0.006446  0.831741  0.629632  1
  Mo  Mo29  1  0.658066  0.503793  0.879347  1
  Mo  Mo30  1  0.492781  0.331513  0.619981  1
  Mo  Mo31  1  0.503793  0.658066  0.120653  1
  Mo  Mo32  1  0.166604  0.003300  0.875413  1
  Mo  Mo33  1  0.668790  0.668790  0.500000  1
  Mo  Mo34  1  0.832633  0.170295  0.748390  1
  Mo  Mo35  1  0.170295  0.832633  0.251610  1
