# generated using pymatgen
data_Ca3Al2Pt7
_symmetry_space_group_name_H-M   'P 1'
_cell_length_a   8.94595109
_cell_length_b   8.94595103
_cell_length_c   8.94594988
_cell_angle_alpha   36.27171496
_cell_angle_beta   36.27171807
_cell_angle_gamma   36.27171691
_symmetry_Int_Tables_number   1
_chemical_formula_structural   Ca3Al2Pt7
_chemical_formula_sum   'Ca3 Al2 Pt7'
_cell_volume   224.23878478
_cell_formula_units_Z   1
loop_
 _symmetry_equiv_pos_site_id
 _symmetry_equiv_pos_as_xyz
  1  'x, y, z'
loop_
 _atom_site_type_symbol
 _atom_site_label
 _atom_site_symmetry_multiplicity
 _atom_site_fract_x
 _atom_site_fract_y
 _atom_site_fract_z
 _atom_site_occupancy
  Ca  Ca0  1  0.359286  0.359286  0.359286  1
  Ca  Ca1  1  0.500000  0.500000  0.500000  1
  Ca  Ca2  1  0.640713  0.640713  0.640713  1
  Al  Al3  1  0.166112  0.166112  0.166112  1
  Al  Al4  1  0.833888  0.833888  0.833888  1
  Pt  Pt5  1  0.000000  0.000000  0.000000  1
  Pt  Pt6  1  0.575959  0.078548  0.078549  1
  Pt  Pt7  1  0.078548  0.575959  0.078549  1
  Pt  Pt8  1  0.921452  0.921452  0.424040  1
  Pt  Pt9  1  0.078548  0.078548  0.575960  1
  Pt  Pt10  1  0.921452  0.424041  0.921451  1
  Pt  Pt11  1  0.424041  0.921452  0.921451  1
