# generated using pymatgen
data_Sc6Al14Cr(FeSi2)5
_symmetry_space_group_name_H-M   'P 1'
_cell_length_a   8.29701307
_cell_length_b   8.29701354
_cell_length_c   8.88704639
_cell_angle_alpha   89.48927417
_cell_angle_beta   90.51072806
_cell_angle_gamma   120.30730500
_symmetry_Int_Tables_number   1
_chemical_formula_structural   Sc6Al14Cr(FeSi2)5
_chemical_formula_sum   'Sc6 Al14 Cr1 Fe5 Si10'
_cell_volume   528.14786769
_cell_formula_units_Z   1
loop_
 _symmetry_equiv_pos_site_id
 _symmetry_equiv_pos_as_xyz
  1  'x, y, z'
loop_
 _atom_site_type_symbol
 _atom_site_label
 _atom_site_symmetry_multiplicity
 _atom_site_fract_x
 _atom_site_fract_y
 _atom_site_fract_z
 _atom_site_occupancy
  Sc  Sc0  1  0.198229  0.801771  0.250596  1
  Sc  Sc1  1  0.202272  0.399999  0.251316  1
  Sc  Sc2  1  0.600001  0.797728  0.251316  1
  Sc  Sc3  1  0.801771  0.198229  0.749404  1
  Sc  Sc4  1  0.797728  0.600001  0.748684  1
  Sc  Sc5  1  0.399999  0.202272  0.748684  1
  Al  Al6  1  0.161468  0.838532  0.921606  1
  Al  Al7  1  0.161047  0.323347  0.922590  1
  Al  Al8  1  0.676653  0.838953  0.922590  1
  Al  Al9  1  0.838532  0.161468  0.078394  1
  Al  Al10  1  0.838953  0.676653  0.077410  1
  Al  Al11  1  0.323347  0.161047  0.077410  1
  Al  Al12  1  0.838410  0.161590  0.421644  1
  Al  Al13  1  0.840550  0.677254  0.420854  1
  Al  Al14  1  0.322746  0.159450  0.420854  1
  Al  Al15  1  0.161590  0.838410  0.578356  1
  Al  Al16  1  0.159450  0.322746  0.579146  1
  Al  Al17  1  0.677254  0.840550  0.579146  1
  Al  Al18  1  0.999537  0.000463  0.249435  1
  Al  Al19  1  0.000463  0.999537  0.750565  1
  Cr  Cr20  1  0.500000  0.500000  0.500000  1
  Fe  Fe21  1  0.500000  0.000000  0.500000  1
  Fe  Fe22  1  0.000000  0.500000  0.500000  1
  Fe  Fe23  1  0.500000  0.500000  0.000000  1
  Fe  Fe24  1  0.500000  0.000000  0.000000  1
  Fe  Fe25  1  0.000000  0.500000  0.000000  1
  Si  Si26  1  0.561031  0.438969  0.248873  1
  Si  Si27  1  0.560768  0.120899  0.249557  1
  Si  Si28  1  0.879101  0.439232  0.249557  1
  Si  Si29  1  0.438969  0.561031  0.751127  1
  Si  Si30  1  0.439232  0.879101  0.750443  1
  Si  Si31  1  0.120899  0.560768  0.750443  1
  Si  Si32  1  0.332765  0.667235  0.461673  1
  Si  Si33  1  0.667235  0.332765  0.538327  1
  Si  Si34  1  0.667022  0.332978  0.959410  1
  Si  Si35  1  0.332978  0.667022  0.040590  1
