# generated using pymatgen
data_Pr8NdYRu4
_symmetry_space_group_name_H-M   'P 1'
_cell_length_a   8.91835656
_cell_length_b   8.91835578
_cell_length_c   7.38010451
_cell_angle_alpha   84.18075559
_cell_angle_beta   84.18075497
_cell_angle_gamma   43.93158944
_symmetry_Int_Tables_number   1
_chemical_formula_structural   Pr8NdYRu4
_chemical_formula_sum   'Pr8 Nd1 Y1 Ru4'
_cell_volume   404.81327650
_cell_formula_units_Z   1
loop_
 _symmetry_equiv_pos_site_id
 _symmetry_equiv_pos_as_xyz
  1  'x, y, z'
loop_
 _atom_site_type_symbol
 _atom_site_label
 _atom_site_symmetry_multiplicity
 _atom_site_fract_x
 _atom_site_fract_y
 _atom_site_fract_z
 _atom_site_occupancy
  Pr  Pr0  1  0.018891  0.797968  0.912322  1
  Pr  Pr1  1  0.202032  0.981109  0.587678  1
  Pr  Pr2  1  0.980179  0.203677  0.084600  1
  Pr  Pr3  1  0.796323  0.019821  0.415400  1
  Pr  Pr4  1  0.361350  0.208375  0.814177  1
  Pr  Pr5  1  0.791625  0.638650  0.685823  1
  Pr  Pr6  1  0.639788  0.791733  0.184985  1
  Pr  Pr7  1  0.208267  0.360212  0.315015  1
  Nd  Nd8  1  0.426979  0.573021  0.250000  1
  Y  Y9  1  0.570969  0.429031  0.750000  1
  Ru  Ru10  1  0.180107  0.601179  0.576016  1
  Ru  Ru11  1  0.398821  0.819893  0.923984  1
  Ru  Ru12  1  0.821525  0.396856  0.427287  1
  Ru  Ru13  1  0.603144  0.178475  0.072713  1
