# generated using pymatgen
data_CsScBeS3
_symmetry_space_group_name_H-M   'P 1'
_cell_length_a   7.97269928
_cell_length_b   7.97269882
_cell_length_c   9.93448800
_cell_angle_alpha   90.00000000
_cell_angle_beta   90.00000000
_cell_angle_gamma   152.80254041
_symmetry_Int_Tables_number   1
_chemical_formula_structural   CsScBeS3
_chemical_formula_sum   'Cs2 Sc2 Be2 S6'
_cell_volume   288.62105702
_cell_formula_units_Z   2
loop_
 _symmetry_equiv_pos_site_id
 _symmetry_equiv_pos_as_xyz
  1  'x, y, z'
loop_
 _atom_site_type_symbol
 _atom_site_label
 _atom_site_symmetry_multiplicity
 _atom_site_fract_x
 _atom_site_fract_y
 _atom_site_fract_z
 _atom_site_occupancy
  Cs  Cs0  1  0.761228  0.238772  0.250000  1
  Cs  Cs1  1  0.238772  0.761228  0.750000  1
  Sc  Sc2  1  0.500000  0.500000  0.000000  1
  Sc  Sc3  1  0.500000  0.500000  0.500000  1
  Be  Be4  1  0.037713  0.962287  0.250000  1
  Be  Be5  1  0.962287  0.037713  0.750000  1
  S  S6  1  0.106478  0.893521  0.068898  1
  S  S7  1  0.455812  0.544188  0.250000  1
  S  S8  1  0.106478  0.893521  0.431102  1
  S  S9  1  0.893521  0.106478  0.568898  1
  S  S10  1  0.544188  0.455812  0.750000  1
  S  S11  1  0.893521  0.106478  0.931101  1
