# generated using pymatgen
data_TaCo4Re2B4W
_symmetry_space_group_name_H-M   'P 1'
_cell_length_a   3.25385400
_cell_length_b   5.74358292
_cell_length_c   6.60974272
_cell_angle_alpha   89.65946905
_cell_angle_beta   90.00000000
_cell_angle_gamma   90.00000000
_symmetry_Int_Tables_number   1
_chemical_formula_structural   TaCo4Re2B4W
_chemical_formula_sum   'Ta1 Co4 Re2 B4 W1'
_cell_volume   123.52584746
_cell_formula_units_Z   1
loop_
 _symmetry_equiv_pos_site_id
 _symmetry_equiv_pos_as_xyz
  1  'x, y, z'
loop_
 _atom_site_type_symbol
 _atom_site_label
 _atom_site_symmetry_multiplicity
 _atom_site_fract_x
 _atom_site_fract_y
 _atom_site_fract_z
 _atom_site_occupancy
  Ta  Ta0  1  0.250000  0.527555  0.674691  1
  Co  Co1  1  0.750000  0.855014  0.554652  1
  Co  Co2  1  0.250000  0.143264  0.441545  1
  Co  Co3  1  0.750000  0.356112  0.945647  1
  Co  Co4  1  0.250000  0.646149  0.058142  1
  Re  Re5  1  0.750000  0.470746  0.326698  1
  Re  Re6  1  0.750000  0.971224  0.172443  1
  B  B7  1  0.250000  0.272263  0.130302  1
  B  B8  1  0.750000  0.733971  0.881819  1
  B  B9  1  0.250000  0.772339  0.366129  1
  B  B10  1  0.750000  0.223549  0.620728  1
  W  W11  1  0.250000  0.027814  0.827203  1
