# generated using pymatgen
data_Ti9Se16
_symmetry_space_group_name_H-M   'P 1'
_cell_length_a   7.11399400
_cell_length_b   7.11399478
_cell_length_c   12.55966600
_cell_angle_alpha   90.00000000
_cell_angle_beta   90.00000000
_cell_angle_gamma   119.99998709
_symmetry_Int_Tables_number   1
_chemical_formula_structural   Ti9Se16
_chemical_formula_sum   'Ti9 Se16'
_cell_volume   550.47273737
_cell_formula_units_Z   1
loop_
 _symmetry_equiv_pos_site_id
 _symmetry_equiv_pos_as_xyz
  1  'x, y, z'
loop_
 _atom_site_type_symbol
 _atom_site_label
 _atom_site_symmetry_multiplicity
 _atom_site_fract_x
 _atom_site_fract_y
 _atom_site_fract_z
 _atom_site_occupancy
  Ti  Ti0  1  0.505005  0.494995  0.750781  1
  Ti  Ti1  1  0.494995  0.505005  0.249219  1
  Ti  Ti2  1  0.505005  0.010009  0.750781  1
  Ti  Ti3  1  0.494995  0.989991  0.249219  1
  Ti  Ti4  1  0.989991  0.494995  0.750781  1
  Ti  Ti5  1  0.010009  0.505005  0.249219  1
  Ti  Ti6  1  0.000000  0.000000  0.760670  1
  Ti  Ti7  1  0.000000  0.000000  0.239330  1
  Ti  Ti8  1  0.000000  0.000000  0.000000  1
  Se  Se9  1  0.829377  0.658756  0.118314  1
  Se  Se10  1  0.835268  0.670536  0.631058  1
  Se  Se11  1  0.829377  0.170623  0.118314  1
  Se  Se12  1  0.835268  0.164732  0.631058  1
  Se  Se13  1  0.333333  0.666667  0.123356  1
  Se  Se14  1  0.333333  0.666667  0.634279  1
  Se  Se15  1  0.341244  0.170623  0.118314  1
  Se  Se16  1  0.329464  0.164732  0.631058  1
  Se  Se17  1  0.658756  0.829377  0.881686  1
  Se  Se18  1  0.670536  0.835268  0.368942  1
  Se  Se19  1  0.666667  0.333333  0.876644  1
  Se  Se20  1  0.666667  0.333333  0.365721  1
  Se  Se21  1  0.170623  0.829377  0.881686  1
  Se  Se22  1  0.164732  0.835268  0.368942  1
  Se  Se23  1  0.170623  0.341244  0.881686  1
  Se  Se24  1  0.164732  0.329464  0.368942  1
