# generated using pymatgen
data_Ce2Nd(Co3As2)3
_symmetry_space_group_name_H-M   'P 1'
_cell_length_a   3.90829200
_cell_length_b   10.93101400
_cell_length_c   12.83216500
_cell_angle_alpha   90.00000000
_cell_angle_beta   90.00000000
_cell_angle_gamma   90.00000000
_symmetry_Int_Tables_number   1
_chemical_formula_structural   Ce2Nd(Co3As2)3
_chemical_formula_sum   'Ce4 Nd2 Co18 As12'
_cell_volume   548.21055056
_cell_formula_units_Z   2
loop_
 _symmetry_equiv_pos_site_id
 _symmetry_equiv_pos_as_xyz
  1  'x, y, z'
loop_
 _atom_site_type_symbol
 _atom_site_label
 _atom_site_symmetry_multiplicity
 _atom_site_fract_x
 _atom_site_fract_y
 _atom_site_fract_z
 _atom_site_occupancy
  Ce  Ce0  1  0.000000  0.500000  0.524634  1
  Ce  Ce1  1  0.500000  0.000000  0.477574  1
  Ce  Ce2  1  0.500000  0.815728  0.208890  1
  Ce  Ce3  1  0.500000  0.184272  0.208890  1
  Nd  Nd4  1  0.000000  0.685532  0.792533  1
  Nd  Nd5  1  0.000000  0.314468  0.792533  1
  Co  Co6  1  0.500000  0.500000  0.155158  1
  Co  Co7  1  0.000000  0.000000  0.847477  1
  Co  Co8  1  0.500000  0.500000  0.695874  1
  Co  Co9  1  0.000000  0.000000  0.298850  1
  Co  Co10  1  0.000000  0.500000  0.983050  1
  Co  Co11  1  0.500000  0.000000  0.017795  1
  Co  Co12  1  0.500000  0.333735  0.997159  1
  Co  Co13  1  0.500000  0.666265  0.997159  1
  Co  Co14  1  0.000000  0.166196  0.005467  1
  Co  Co15  1  0.000000  0.833804  0.005467  1
  Co  Co16  1  0.500000  0.301834  0.426684  1
  Co  Co17  1  0.500000  0.698166  0.426684  1
  Co  Co18  1  0.000000  0.196007  0.571133  1
  Co  Co19  1  0.000000  0.803993  0.571133  1
  Co  Co20  1  0.500000  0.883598  0.709896  1
  Co  Co21  1  0.500000  0.116402  0.709896  1
  Co  Co22  1  0.000000  0.618766  0.288689  1
  Co  Co23  1  0.000000  0.381234  0.288689  1
  As  As24  1  0.500000  0.500000  0.879572  1
  As  As25  1  0.000000  0.000000  0.118750  1
  As  As26  1  0.500000  0.500000  0.343199  1
  As  As27  1  0.000000  0.000000  0.658345  1
  As  As28  1  0.500000  0.306952  0.612270  1
  As  As29  1  0.500000  0.693048  0.612270  1
  As  As30  1  0.000000  0.191625  0.387262  1
  As  As31  1  0.000000  0.808375  0.387262  1
  As  As32  1  0.500000  0.849055  0.893992  1
  As  As33  1  0.500000  0.150945  0.893992  1
  As  As34  1  0.000000  0.651295  0.105886  1
  As  As35  1  0.000000  0.348705  0.105886  1
