# generated using pymatgen
data_Y8Er12Si15Au
_symmetry_space_group_name_H-M   'P 1'
_cell_length_a   7.65458534
_cell_length_b   7.69478397
_cell_length_c   14.09544300
_cell_angle_alpha   89.93520442
_cell_angle_beta   89.96605481
_cell_angle_gamma   89.99317081
_symmetry_Int_Tables_number   1
_chemical_formula_structural   Y8Er12Si15Au
_chemical_formula_sum   'Y8 Er12 Si15 Au1'
_cell_volume   830.22627544
_cell_formula_units_Z   1
loop_
 _symmetry_equiv_pos_site_id
 _symmetry_equiv_pos_as_xyz
  1  'x, y, z'
loop_
 _atom_site_type_symbol
 _atom_site_label
 _atom_site_symmetry_multiplicity
 _atom_site_fract_x
 _atom_site_fract_y
 _atom_site_fract_z
 _atom_site_occupancy
  Y  Y0  1  0.983907  0.363349  0.208847  1
  Y  Y1  1  0.007453  0.640450  0.709365  1
  Y  Y2  1  0.139106  0.499414  0.460198  1
  Y  Y3  1  0.509005  0.857757  0.039576  1
  Y  Y4  1  0.857649  0.505102  0.958239  1
  Y  Y5  1  0.493913  0.138895  0.544049  1
  Y  Y6  1  0.360079  0.993016  0.791233  1
  Y  Y7  1  0.644289  0.003312  0.289508  1
  Er  Er8  1  0.183291  0.184555  0.000102  1
  Er  Er9  1  0.820109  0.819047  0.500128  1
  Er  Er10  1  0.317384  0.683385  0.250567  1
  Er  Er11  1  0.683396  0.317830  0.749840  1
  Er  Er12  1  0.141942  0.009785  0.375668  1
  Er  Er13  1  0.861019  0.992461  0.875124  1
  Er  Er14  1  0.491989  0.639859  0.627625  1
  Er  Er15  1  0.362655  0.506493  0.873671  1
  Er  Er16  1  0.507316  0.357960  0.125041  1
  Er  Er17  1  0.639701  0.493769  0.377205  1
  Er  Er18  1  0.009164  0.140196  0.623845  1
  Er  Er19  1  0.989901  0.859346  0.122455  1
  Si  Si20  1  0.653390  0.703396  0.814484  1
  Si  Si21  1  0.205160  0.849240  0.566082  1
  Si  Si22  1  0.151279  0.792627  0.935782  1
  Si  Si23  1  0.797328  0.152023  0.062468  1
  Si  Si24  1  0.845305  0.201682  0.436339  1
  Si  Si25  1  0.297193  0.346865  0.687027  1
  Si  Si26  1  0.701026  0.654652  0.186270  1
  Si  Si27  1  0.295684  0.050291  0.183934  1
  Si  Si28  1  0.706906  0.939785  0.688175  1
  Si  Si29  1  0.438829  0.794223  0.440680  1
  Si  Si30  1  0.206144  0.563346  0.059679  1
  Si  Si31  1  0.560711  0.204401  0.937528  1
  Si  Si32  1  0.794876  0.439200  0.563162  1
  Si  Si33  1  0.061018  0.291698  0.811743  1
  Si  Si34  1  0.936146  0.708400  0.311488  1
  Au  Au35  1  0.345738  0.302192  0.312872  1
