# generated using pymatgen
data_Yb3(ZnRu2)2
_symmetry_space_group_name_H-M   'P 1'
_cell_length_a   5.35194553
_cell_length_b   5.36968788
_cell_length_c   12.92221836
_cell_angle_alpha   90.25665897
_cell_angle_beta   90.86855307
_cell_angle_gamma   121.13755655
_symmetry_Int_Tables_number   1
_chemical_formula_structural   Yb3(ZnRu2)2
_chemical_formula_sum   'Yb6 Zn4 Ru8'
_cell_volume   317.79005994
_cell_formula_units_Z   2
loop_
 _symmetry_equiv_pos_site_id
 _symmetry_equiv_pos_as_xyz
  1  'x, y, z'
loop_
 _atom_site_type_symbol
 _atom_site_label
 _atom_site_symmetry_multiplicity
 _atom_site_fract_x
 _atom_site_fract_y
 _atom_site_fract_z
 _atom_site_occupancy
  Yb  Yb0  1  0.327860  0.672085  0.914524  1
  Yb  Yb1  1  0.988917  0.997183  0.255759  1
  Yb  Yb2  1  0.665178  0.337752  0.585346  1
  Yb  Yb3  1  0.334822  0.662248  0.664654  1
  Yb  Yb4  1  0.011083  0.002817  0.994241  1
  Yb  Yb5  1  0.672140  0.327915  0.335476  1
  Zn  Zn6  1  0.500000  0.500000  0.125000  1
  Zn  Zn7  1  0.169938  0.837386  0.457569  1
  Zn  Zn8  1  0.830062  0.162614  0.792431  1
  Zn  Zn9  1  0.500000  0.000000  0.125000  1
  Ru  Ru10  1  0.175924  0.342755  0.458673  1
  Ru  Ru11  1  0.824076  0.657245  0.791327  1
  Ru  Ru12  1  0.318344  0.650175  0.286851  1
  Ru  Ru13  1  0.000000  0.000000  0.625000  1
  Ru  Ru14  1  0.681656  0.349825  0.963149  1
  Ru  Ru15  1  0.000000  0.500000  0.125000  1
  Ru  Ru16  1  0.664633  0.828331  0.461081  1
  Ru  Ru17  1  0.335367  0.171669  0.788919  1
