# generated using pymatgen
data_LaYHo2(WO6)2
_symmetry_space_group_name_H-M   'P 1'
_cell_length_a   5.47039000
_cell_length_b   7.79018415
_cell_length_c   11.57373400
_cell_angle_alpha   75.75463352
_cell_angle_beta   90.00000000
_cell_angle_gamma   90.00000000
_symmetry_Int_Tables_number   1
_chemical_formula_structural   LaYHo2(WO6)2
_chemical_formula_sum   'La2 Y2 Ho4 W4 O24'
_cell_volume   478.05259955
_cell_formula_units_Z   2
loop_
 _symmetry_equiv_pos_site_id
 _symmetry_equiv_pos_as_xyz
  1  'x, y, z'
loop_
 _atom_site_type_symbol
 _atom_site_label
 _atom_site_symmetry_multiplicity
 _atom_site_fract_x
 _atom_site_fract_y
 _atom_site_fract_z
 _atom_site_occupancy
  La  La0  1  0.686735  0.500000  0.750000  1
  La  La1  1  0.313265  0.500000  0.250000  1
  Y  Y2  1  0.740977  0.000000  0.750000  1
  Y  Y3  1  0.259023  0.000000  0.250000  1
  Ho  Ho4  1  0.188295  0.799373  0.576520  1
  Ho  Ho5  1  0.811705  0.799373  0.076520  1
  Ho  Ho6  1  0.188295  0.200627  0.923480  1
  Ho  Ho7  1  0.811705  0.200627  0.423480  1
  W  W8  1  0.251779  0.728290  0.884575  1
  W  W9  1  0.748221  0.728290  0.384575  1
  W  W10  1  0.251779  0.271710  0.615425  1
  W  W11  1  0.748221  0.271710  0.115425  1
  O  O12  1  0.040060  0.941825  0.896369  1
  O  O13  1  0.529597  0.846238  0.931718  1
  O  O14  1  0.959940  0.941825  0.396369  1
  O  O15  1  0.453574  0.795038  0.727720  1
  O  O16  1  0.470403  0.846238  0.431718  1
  O  O17  1  0.988541  0.721080  0.768914  1
  O  O18  1  0.546426  0.795038  0.227720  1
  O  O19  1  0.860875  0.643546  0.544365  1
  O  O20  1  0.346546  0.494236  0.888728  1
  O  O21  1  0.011459  0.721080  0.268914  1
  O  O22  1  0.346546  0.505764  0.611272  1
  O  O23  1  0.860875  0.356454  0.955635  1
  O  O24  1  0.139125  0.643546  0.044365  1
  O  O25  1  0.653454  0.494236  0.388728  1
  O  O26  1  0.988541  0.278920  0.731086  1
  O  O27  1  0.653454  0.505764  0.111272  1
  O  O28  1  0.139125  0.356454  0.455635  1
  O  O29  1  0.453574  0.204962  0.772280  1
  O  O30  1  0.011459  0.278920  0.231086  1
  O  O31  1  0.529597  0.153762  0.568282  1
  O  O32  1  0.546426  0.204962  0.272280  1
  O  O33  1  0.040060  0.058175  0.603631  1
  O  O34  1  0.470403  0.153762  0.068282  1
  O  O35  1  0.959940  0.058175  0.103631  1
