# generated using pymatgen
data_NiSb12Ru2Pt
_symmetry_space_group_name_H-M   'P 1'
_cell_length_a   8.08021380
_cell_length_b   8.09007959
_cell_length_c   9.35457679
_cell_angle_alpha   54.75179673
_cell_angle_beta   55.07475691
_cell_angle_gamma   70.77792799
_symmetry_Int_Tables_number   1
_chemical_formula_structural   NiSb12Ru2Pt
_chemical_formula_sum   'Ni1 Sb12 Ru2 Pt1'
_cell_volume   409.45008184
_cell_formula_units_Z   1
loop_
 _symmetry_equiv_pos_site_id
 _symmetry_equiv_pos_as_xyz
  1  'x, y, z'
loop_
 _atom_site_type_symbol
 _atom_site_label
 _atom_site_symmetry_multiplicity
 _atom_site_fract_x
 _atom_site_fract_y
 _atom_site_fract_z
 _atom_site_occupancy
  Ni  Ni0  1  0.500000  0.000000  0.500000  1
  Sb  Sb1  1  0.156799  0.156080  0.177548  1
  Sb  Sb2  1  0.843201  0.843920  0.822452  1
  Sb  Sb3  1  0.838772  0.851805  0.497942  1
  Sb  Sb4  1  0.161228  0.148195  0.502058  1
  Sb  Sb5  1  0.812402  0.504777  0.335992  1
  Sb  Sb6  1  0.187598  0.495223  0.664008  1
  Sb  Sb7  1  0.505832  0.820103  0.338034  1
  Sb  Sb8  1  0.494168  0.179897  0.661966  1
  Sb  Sb9  1  0.654778  0.337613  0.849888  1
  Sb  Sb10  1  0.345222  0.662387  0.150112  1
  Sb  Sb11  1  0.660734  0.335669  0.158745  1
  Sb  Sb12  1  0.339266  0.664331  0.841255  1
  Ru  Ru13  1  0.000000  0.500000  0.000000  1
  Ru  Ru14  1  0.500000  0.000000  0.000000  1
  Pt  Pt15  1  0.000000  0.500000  0.500000  1
