# generated using pymatgen
data_Ca2Zn14Ni3
_symmetry_space_group_name_H-M   'P 1'
_cell_length_a   6.72283187
_cell_length_b   6.72283185
_cell_length_c   6.72283060
_cell_angle_alpha   83.33969904
_cell_angle_beta   83.33968826
_cell_angle_gamma   83.33969353
_symmetry_Int_Tables_number   1
_chemical_formula_structural   Ca2Zn14Ni3
_chemical_formula_sum   'Ca2 Zn14 Ni3'
_cell_volume   298.13756015
_cell_formula_units_Z   1
loop_
 _symmetry_equiv_pos_site_id
 _symmetry_equiv_pos_as_xyz
  1  'x, y, z'
loop_
 _atom_site_type_symbol
 _atom_site_label
 _atom_site_symmetry_multiplicity
 _atom_site_fract_x
 _atom_site_fract_y
 _atom_site_fract_z
 _atom_site_occupancy
  Ca  Ca0  1  0.658875  0.658875  0.658875  1
  Ca  Ca1  1  0.341125  0.341125  0.341125  1
  Zn  Zn2  1  0.345339  0.345339  0.856439  1
  Zn  Zn3  1  0.856439  0.345339  0.345339  1
  Zn  Zn4  1  0.104832  0.104832  0.104832  1
  Zn  Zn5  1  0.895168  0.895168  0.895168  1
  Zn  Zn6  1  0.293412  0.706588  0.000000  1
  Zn  Zn7  1  0.706588  0.000000  0.293412  1
  Zn  Zn8  1  0.000000  0.293412  0.706588  1
  Zn  Zn9  1  0.706588  0.293412  0.000000  1
  Zn  Zn10  1  0.293412  0.000000  0.706588  1
  Zn  Zn11  1  0.000000  0.706588  0.293412  1
  Zn  Zn12  1  0.143561  0.654661  0.654661  1
  Zn  Zn13  1  0.654661  0.654661  0.143561  1
  Zn  Zn14  1  0.654661  0.143561  0.654661  1
  Zn  Zn15  1  0.345339  0.856439  0.345339  1
  Ni  Ni16  1  0.000000  0.000000  0.500000  1
  Ni  Ni17  1  0.000000  0.500000  0.000000  1
  Ni  Ni18  1  0.500000  0.000000  0.000000  1
