# generated using pymatgen
data_Tm6MnCo15(NiP6)2
_symmetry_space_group_name_H-M   'P 1'
_cell_length_a   3.67248600
_cell_length_b   10.46673900
_cell_length_c   12.12998400
_cell_angle_alpha   90.00000000
_cell_angle_beta   90.00000000
_cell_angle_gamma   90.00000000
_symmetry_Int_Tables_number   1
_chemical_formula_structural   Tm6MnCo15(NiP6)2
_chemical_formula_sum   'Tm6 Mn1 Co15 Ni2 P12'
_cell_volume   466.26387811
_cell_formula_units_Z   1
loop_
 _symmetry_equiv_pos_site_id
 _symmetry_equiv_pos_as_xyz
  1  'x, y, z'
loop_
 _atom_site_type_symbol
 _atom_site_label
 _atom_site_symmetry_multiplicity
 _atom_site_fract_x
 _atom_site_fract_y
 _atom_site_fract_z
 _atom_site_occupancy
  Tm  Tm0  1  0.000000  0.500000  0.521801  1
  Tm  Tm1  1  0.500000  0.000000  0.476689  1
  Tm  Tm2  1  0.500000  0.818235  0.206844  1
  Tm  Tm3  1  0.500000  0.181765  0.206844  1
  Tm  Tm4  1  0.000000  0.682746  0.795364  1
  Tm  Tm5  1  0.000000  0.317254  0.795364  1
  Mn  Mn6  1  0.500000  0.500000  0.160502  1
  Co  Co7  1  0.000000  0.000000  0.296229  1
  Co  Co8  1  0.000000  0.500000  0.986274  1
  Co  Co9  1  0.500000  0.000000  0.015474  1
  Co  Co10  1  0.500000  0.333609  0.994840  1
  Co  Co11  1  0.500000  0.666391  0.994840  1
  Co  Co12  1  0.000000  0.166406  0.004911  1
  Co  Co13  1  0.000000  0.833594  0.004911  1
  Co  Co14  1  0.500000  0.297774  0.430534  1
  Co  Co15  1  0.500000  0.702226  0.430534  1
  Co  Co16  1  0.000000  0.202279  0.568424  1
  Co  Co17  1  0.000000  0.797721  0.568424  1
  Co  Co18  1  0.500000  0.878121  0.709176  1
  Co  Co19  1  0.500000  0.121879  0.709176  1
  Co  Co20  1  0.000000  0.621231  0.290714  1
  Co  Co21  1  0.000000  0.378769  0.290714  1
  Ni  Ni22  1  0.000000  0.000000  0.837803  1
  Ni  Ni23  1  0.500000  0.500000  0.702917  1
  P  P24  1  0.500000  0.500000  0.882839  1
  P  P25  1  0.000000  0.000000  0.118217  1
  P  P26  1  0.500000  0.500000  0.347344  1
  P  P27  1  0.000000  0.000000  0.652077  1
  P  P28  1  0.500000  0.311531  0.615907  1
  P  P29  1  0.500000  0.688469  0.615907  1
  P  P30  1  0.000000  0.187478  0.383408  1
  P  P31  1  0.000000  0.812522  0.383408  1
  P  P32  1  0.500000  0.846192  0.893245  1
  P  P33  1  0.500000  0.153808  0.893245  1
  P  P34  1  0.000000  0.654389  0.107548  1
  P  P35  1  0.000000  0.345611  0.107548  1
