# generated using pymatgen
data_TbEr7Re(B8Ir)3
_symmetry_space_group_name_H-M   'P 1'
_cell_length_a   3.64400400
_cell_length_b   9.15012788
_cell_length_c   11.48073703
_cell_angle_alpha   90.13773922
_cell_angle_beta   90.00000000
_cell_angle_gamma   90.00000000
_symmetry_Int_Tables_number   1
_chemical_formula_structural   TbEr7Re(B8Ir)3
_chemical_formula_sum   'Tb1 Er7 Re1 B24 Ir3'
_cell_volume   382.80228641
_cell_formula_units_Z   1
loop_
 _symmetry_equiv_pos_site_id
 _symmetry_equiv_pos_as_xyz
  1  'x, y, z'
loop_
 _atom_site_type_symbol
 _atom_site_label
 _atom_site_symmetry_multiplicity
 _atom_site_fract_x
 _atom_site_fract_y
 _atom_site_fract_z
 _atom_site_occupancy
  Tb  Tb0  1  0.000000  0.320936  0.413528  1
  Er  Er1  1  0.000000  0.683554  0.590784  1
  Er  Er2  1  0.000000  0.820588  0.082595  1
  Er  Er3  1  0.000000  0.175823  0.912126  1
  Er  Er4  1  0.000000  0.943538  0.373144  1
  Er  Er5  1  0.000000  0.053571  0.626385  1
  Er  Er6  1  0.000000  0.443640  0.125963  1
  Er  Er7  1  0.000000  0.557260  0.875108  1
  Re  Re8  1  0.000000  0.862796  0.821607  1
  B  B9  1  0.500000  0.553987  0.434338  1
  B  B10  1  0.500000  0.448097  0.567002  1
  B  B11  1  0.500000  0.053131  0.066105  1
  B  B12  1  0.500000  0.946948  0.933369  1
  B  B13  1  0.500000  0.750301  0.420834  1
  B  B14  1  0.500000  0.250376  0.579535  1
  B  B15  1  0.500000  0.248811  0.078670  1
  B  B16  1  0.500000  0.752082  0.920183  1
  B  B17  1  0.500000  0.792237  0.265100  1
  B  B18  1  0.500000  0.207671  0.733513  1
  B  B19  1  0.500000  0.292700  0.234327  1
  B  B20  1  0.500000  0.707970  0.766205  1
  B  B21  1  0.500000  0.631189  0.184415  1
  B  B22  1  0.500000  0.368272  0.815785  1
  B  B23  1  0.500000  0.131494  0.315122  1
  B  B24  1  0.500000  0.868846  0.685505  1
  B  B25  1  0.500000  0.981161  0.212706  1
  B  B26  1  0.500000  0.017623  0.786592  1
  B  B27  1  0.500000  0.481600  0.287027  1
  B  B28  1  0.500000  0.518507  0.714216  1
  B  B29  1  0.500000  0.608830  0.031334  1
  B  B30  1  0.500000  0.388813  0.969951  1
  B  B31  1  0.500000  0.108695  0.469429  1
  B  B32  1  0.500000  0.891287  0.528836  1
  Ir  Ir33  1  0.000000  0.637786  0.322373  1
  Ir  Ir34  1  0.000000  0.362920  0.678382  1
  Ir  Ir35  1  0.000000  0.136955  0.177907  1
