# generated using pymatgen
data_NaLuHf3Ni9As7
_symmetry_space_group_name_H-M   'P 1'
_cell_length_a   9.75524800
_cell_length_b   9.75524749
_cell_length_c   3.83882800
_cell_angle_alpha   90.00000000
_cell_angle_beta   90.00000000
_cell_angle_gamma   120.00000760
_symmetry_Int_Tables_number   1
_chemical_formula_structural   NaLuHf3Ni9As7
_chemical_formula_sum   'Na1 Lu1 Hf3 Ni9 As7'
_cell_volume   316.37769584
_cell_formula_units_Z   1
loop_
 _symmetry_equiv_pos_site_id
 _symmetry_equiv_pos_as_xyz
  1  'x, y, z'
loop_
 _atom_site_type_symbol
 _atom_site_label
 _atom_site_symmetry_multiplicity
 _atom_site_fract_x
 _atom_site_fract_y
 _atom_site_fract_z
 _atom_site_occupancy
  Na  Na0  1  0.666667  0.333333  0.500000  1
  Lu  Lu1  1  0.333333  0.666667  0.000000  1
  Hf  Hf2  1  0.231526  0.121089  0.500000  1
  Hf  Hf3  1  0.878911  0.110437  0.500000  1
  Hf  Hf4  1  0.889563  0.768474  0.500000  1
  Ni  Ni5  1  0.126565  0.283805  0.000000  1
  Ni  Ni6  1  0.716195  0.842760  0.000000  1
  Ni  Ni7  1  0.157240  0.873435  0.000000  1
  Ni  Ni8  1  0.420745  0.359886  0.000000  1
  Ni  Ni9  1  0.640114  0.060860  0.000000  1
  Ni  Ni10  1  0.939140  0.579255  0.000000  1
  Ni  Ni11  1  0.061954  0.437642  0.500000  1
  Ni  Ni12  1  0.562358  0.624312  0.500000  1
  Ni  Ni13  1  0.375688  0.938046  0.500000  1
  As  As14  1  0.297035  0.420517  0.500000  1
  As  As15  1  0.579483  0.876517  0.500000  1
  As  As16  1  0.123483  0.702965  0.500000  1
  As  As17  1  0.426496  0.109563  0.000000  1
  As  As18  1  0.890437  0.316933  0.000000  1
  As  As19  1  0.683067  0.573504  0.000000  1
  As  As20  1  0.000000  0.000000  0.000000  1
