# generated using pymatgen
data_LaNd11(SiI3)4
_symmetry_space_group_name_H-M   'P 1'
_cell_length_a   10.85797415
_cell_length_b   10.85797478
_cell_length_c   10.88105716
_cell_angle_alpha   109.44402663
_cell_angle_beta   109.44402360
_cell_angle_gamma   109.48155870
_symmetry_Int_Tables_number   1
_chemical_formula_structural   LaNd11(SiI3)4
_chemical_formula_sum   'La1 Nd11 Si4 I12'
_cell_volume   988.05853984
_cell_formula_units_Z   1
loop_
 _symmetry_equiv_pos_site_id
 _symmetry_equiv_pos_as_xyz
  1  'x, y, z'
loop_
 _atom_site_type_symbol
 _atom_site_label
 _atom_site_symmetry_multiplicity
 _atom_site_fract_x
 _atom_site_fract_y
 _atom_site_fract_z
 _atom_site_occupancy
  La  La0  1  0.234995  0.265005  0.750000  1
  Nd  Nd1  1  0.464576  0.482715  0.233423  1
  Nd  Nd2  1  0.748585  0.231833  0.266928  1
  Nd  Nd3  1  0.748638  0.017389  0.480995  1
  Nd  Nd4  1  0.231862  0.464101  0.480832  1
  Nd  Nd5  1  0.268167  0.751415  0.233072  1
  Nd  Nd6  1  0.035899  0.268138  0.019168  1
  Nd  Nd7  1  0.017285  0.035424  0.266577  1
  Nd  Nd8  1  0.482611  0.751362  0.019005  1
  Nd  Nd9  1  0.482175  0.232504  0.463827  1
  Nd  Nd10  1  0.017933  0.482067  0.750000  1
  Nd  Nd11  1  0.267496  0.017825  0.036173  1
  Si  Si12  1  0.249981  0.250019  0.250000  1
  Si  Si13  1  0.499633  0.000367  0.250000  1
  Si  Si14  1  0.999382  0.249790  0.499056  1
  Si  Si15  1  0.250210  0.500618  0.000944  1
  I  I16  1  0.250046  0.756969  0.743405  1
  I  I17  1  0.516768  0.510994  0.756263  1
  I  I18  1  0.986370  0.743178  0.993421  1
  I  I19  1  0.743031  0.249954  0.756595  1
  I  I20  1  0.989006  0.983232  0.743737  1
  I  I21  1  0.249391  0.990230  0.503998  1
  I  I22  1  0.756822  0.513630  0.506579  1
  I  I23  1  0.509770  0.250609  0.996002  1
  I  I24  1  0.756759  0.743241  0.250000  1
  I  I25  1  0.742955  0.993270  0.986247  1
  I  I26  1  0.992924  0.507076  0.250000  1
  I  I27  1  0.506730  0.757045  0.513753  1
