# generated using pymatgen
data_Hf16Co4ReIr3
_symmetry_space_group_name_H-M   'P 1'
_cell_length_a   8.60518537
_cell_length_b   8.60518542
_cell_length_c   8.60518556
_cell_angle_alpha   59.77605502
_cell_angle_beta   59.77605722
_cell_angle_gamma   59.77606036
_symmetry_Int_Tables_number   1
_chemical_formula_structural   Hf16Co4ReIr3
_chemical_formula_sum   'Hf16 Co4 Re1 Ir3'
_cell_volume   448.28264665
_cell_formula_units_Z   1
loop_
 _symmetry_equiv_pos_site_id
 _symmetry_equiv_pos_as_xyz
  1  'x, y, z'
loop_
 _atom_site_type_symbol
 _atom_site_label
 _atom_site_symmetry_multiplicity
 _atom_site_fract_x
 _atom_site_fract_y
 _atom_site_fract_z
 _atom_site_occupancy
  Hf  Hf0  1  0.056896  0.647770  0.647770  1
  Hf  Hf1  1  0.647770  0.056896  0.647770  1
  Hf  Hf2  1  0.647770  0.647770  0.056896  1
  Hf  Hf3  1  0.645513  0.645513  0.645513  1
  Hf  Hf4  1  0.800440  0.800440  0.198957  1
  Hf  Hf5  1  0.199490  0.199490  0.799009  1
  Hf  Hf6  1  0.800440  0.198957  0.800440  1
  Hf  Hf7  1  0.199490  0.799009  0.199490  1
  Hf  Hf8  1  0.198957  0.800440  0.800440  1
  Hf  Hf9  1  0.799009  0.199490  0.199490  1
  Hf  Hf10  1  0.436317  0.436317  0.068127  1
  Hf  Hf11  1  0.063719  0.063719  0.436502  1
  Hf  Hf12  1  0.436317  0.068127  0.436317  1
  Hf  Hf13  1  0.063719  0.436502  0.063719  1
  Hf  Hf14  1  0.068127  0.436317  0.436317  1
  Hf  Hf15  1  0.436502  0.063719  0.063719  1
  Co  Co16  1  0.423971  0.857834  0.857834  1
  Co  Co17  1  0.857834  0.423971  0.857834  1
  Co  Co18  1  0.857834  0.857834  0.423971  1
  Co  Co19  1  0.859305  0.859305  0.859305  1
  Re  Re20  1  0.417837  0.417837  0.417837  1
  Ir  Ir21  1  0.753267  0.414739  0.414739  1
  Ir  Ir22  1  0.414739  0.753267  0.414739  1
  Ir  Ir23  1  0.414739  0.414739  0.753267  1
