# generated using pymatgen
data_YbHo3(Sc3Ge4)2
_symmetry_space_group_name_H-M   'P 1'
_cell_length_a   7.22503501
_cell_length_b   7.50227557
_cell_length_c   14.12467858
_cell_angle_alpha   90.09660394
_cell_angle_beta   88.71486916
_cell_angle_gamma   90.14304133
_symmetry_Int_Tables_number   1
_chemical_formula_structural   YbHo3(Sc3Ge4)2
_chemical_formula_sum   'Yb2 Ho6 Sc12 Ge16'
_cell_volume   765.42097031
_cell_formula_units_Z   2
loop_
 _symmetry_equiv_pos_site_id
 _symmetry_equiv_pos_as_xyz
  1  'x, y, z'
loop_
 _atom_site_type_symbol
 _atom_site_label
 _atom_site_symmetry_multiplicity
 _atom_site_fract_x
 _atom_site_fract_y
 _atom_site_fract_z
 _atom_site_occupancy
  Yb  Yb0  1  0.003149  0.175788  0.095837  1
  Yb  Yb1  1  0.996851  0.824212  0.904163  1
  Ho  Ho2  1  0.494230  0.677726  0.901334  1
  Ho  Ho3  1  0.998171  0.820961  0.595152  1
  Ho  Ho4  1  0.505770  0.322274  0.098666  1
  Ho  Ho5  1  0.001829  0.179039  0.404848  1
  Ho  Ho6  1  0.499444  0.322473  0.404363  1
  Ho  Ho7  1  0.500556  0.677527  0.595637  1
  Sc  Sc8  1  0.169596  0.501959  0.747560  1
  Sc  Sc9  1  0.830404  0.498041  0.252440  1
  Sc  Sc10  1  0.329649  0.001650  0.252301  1
  Sc  Sc11  1  0.670351  0.998350  0.747699  1
  Sc  Sc12  1  0.339256  0.165900  0.625659  1
  Sc  Sc13  1  0.660744  0.834100  0.374341  1
  Sc  Sc14  1  0.160085  0.665696  0.376258  1
  Sc  Sc15  1  0.670489  0.832222  0.126219  1
  Sc  Sc16  1  0.839915  0.334304  0.623742  1
  Sc  Sc17  1  0.329511  0.167778  0.873781  1
  Sc  Sc18  1  0.828758  0.331639  0.875331  1
  Sc  Sc19  1  0.171242  0.668361  0.124669  1
  Ge  Ge20  1  0.031054  0.126345  0.750500  1
  Ge  Ge21  1  0.968946  0.873655  0.249500  1
  Ge  Ge22  1  0.466139  0.625489  0.249067  1
  Ge  Ge23  1  0.533861  0.374511  0.750933  1
  Ge  Ge24  1  0.302455  0.859986  0.748199  1
  Ge  Ge25  1  0.697545  0.140014  0.251801  1
  Ge  Ge26  1  0.198394  0.361229  0.250712  1
  Ge  Ge27  1  0.801606  0.638771  0.749288  1
  Ge  Ge28  1  0.183898  0.457028  0.541706  1
  Ge  Ge29  1  0.816102  0.542972  0.458294  1
  Ge  Ge30  1  0.319939  0.957757  0.459091  1
  Ge  Ge31  1  0.833372  0.539280  0.042593  1
  Ge  Ge32  1  0.680061  0.042243  0.540909  1
  Ge  Ge33  1  0.166628  0.460720  0.957407  1
  Ge  Ge34  1  0.658679  0.036704  0.957949  1
  Ge  Ge35  1  0.341321  0.963296  0.042051  1
