# generated using pymatgen
data_La4Sn8Pd3Rh
_symmetry_space_group_name_H-M   'P 1'
_cell_length_a   9.10349856
_cell_length_b   9.10349786
_cell_length_c   9.69894109
_cell_angle_alpha   90.22531553
_cell_angle_beta   89.77468380
_cell_angle_gamma   149.94464871
_symmetry_Int_Tables_number   1
_chemical_formula_structural   La4Sn8Pd3Rh
_chemical_formula_sum   'La4 Sn8 Pd3 Rh1'
_cell_volume   402.56241935
_cell_formula_units_Z   1
loop_
 _symmetry_equiv_pos_site_id
 _symmetry_equiv_pos_as_xyz
  1  'x, y, z'
loop_
 _atom_site_type_symbol
 _atom_site_label
 _atom_site_symmetry_multiplicity
 _atom_site_fract_x
 _atom_site_fract_y
 _atom_site_fract_z
 _atom_site_occupancy
  La  La0  1  0.498220  0.501780  0.499433  1
  La  La1  1  0.499664  0.500336  0.998314  1
  La  La2  1  0.297307  0.702693  0.249126  1
  La  La3  1  0.703981  0.296019  0.750129  1
  Sn  Sn4  1  0.910539  0.089461  0.746172  1
  Sn  Sn5  1  0.927370  0.072630  0.255047  1
  Sn  Sn6  1  0.089049  0.910951  0.250270  1
  Sn  Sn7  1  0.071320  0.928680  0.750235  1
  Sn  Sn8  1  0.698830  0.301170  0.409305  1
  Sn  Sn9  1  0.304490  0.695510  0.590269  1
  Sn  Sn10  1  0.303379  0.696621  0.906747  1
  Sn  Sn11  1  0.697479  0.302521  0.092749  1
  Pd  Pd12  1  0.147639  0.852361  0.506971  1
  Pd  Pd13  1  0.853901  0.146099  0.007360  1
  Pd  Pd14  1  0.147183  0.852817  0.992937  1
  Rh  Rh15  1  0.849648  0.150352  0.494937  1
