# generated using pymatgen
data_PrNd(RuO4)2
_symmetry_space_group_name_H-M   'P 1'
_cell_length_a   5.46288402
_cell_length_b   7.70907927
_cell_length_c   7.49740700
_cell_angle_alpha   80.17800984
_cell_angle_beta   90.58528279
_cell_angle_gamma   93.05698540
_symmetry_Int_Tables_number   1
_chemical_formula_structural   PrNd(RuO4)2
_chemical_formula_sum   'Pr2 Nd2 Ru4 O16'
_cell_volume   310.67339803
_cell_formula_units_Z   2
loop_
 _symmetry_equiv_pos_site_id
 _symmetry_equiv_pos_as_xyz
  1  'x, y, z'
loop_
 _atom_site_type_symbol
 _atom_site_label
 _atom_site_symmetry_multiplicity
 _atom_site_fract_x
 _atom_site_fract_y
 _atom_site_fract_z
 _atom_site_occupancy
  Pr  Pr0  1  0.265601  0.136313  0.601841  1
  Pr  Pr1  1  0.734151  0.864091  0.398365  1
  Nd  Nd2  1  0.195121  0.180060  0.095122  1
  Nd  Nd3  1  0.805057  0.819687  0.905043  1
  Ru  Ru4  1  0.240268  0.661890  0.206484  1
  Ru  Ru5  1  0.759731  0.338023  0.793290  1
  Ru  Ru6  1  0.715308  0.339337  0.297754  1
  Ru  Ru7  1  0.284730  0.660788  0.702046  1
  O  O8  1  0.074350  0.452632  0.702868  1
  O  O9  1  0.925450  0.547261  0.296687  1
  O  O10  1  0.634101  0.333480  0.549551  1
  O  O11  1  0.366251  0.666457  0.450466  1
  O  O12  1  0.835777  0.340266  0.050225  1
  O  O13  1  0.164377  0.659932  0.949464  1
  O  O14  1  0.404613  0.440959  0.208057  1
  O  O15  1  0.594912  0.558811  0.792929  1
  O  O16  1  0.052668  0.882930  0.172923  1
  O  O17  1  0.947564  0.116830  0.827170  1
  O  O18  1  0.497774  0.115295  0.320191  1
  O  O19  1  0.502407  0.884687  0.679807  1
  O  O20  1  0.471915  0.197314  0.867844  1
  O  O21  1  0.527887  0.802912  0.131965  1
  O  O22  1  0.967706  0.169170  0.372784  1
  O  O23  1  0.032281  0.830869  0.627122  1
