# generated using pymatgen
data_Er12Co4BiRu
_symmetry_space_group_name_H-M   'P 1'
_cell_length_a   8.25523441
_cell_length_b   8.25523393
_cell_length_c   8.25523386
_cell_angle_alpha   110.52003182
_cell_angle_beta   111.38170458
_cell_angle_gamma   106.55201523
_symmetry_Int_Tables_number   1
_chemical_formula_structural   Er12Co4BiRu
_chemical_formula_sum   'Er12 Co4 Bi1 Ru1'
_cell_volume   432.21462919
_cell_formula_units_Z   1
loop_
 _symmetry_equiv_pos_site_id
 _symmetry_equiv_pos_as_xyz
  1  'x, y, z'
loop_
 _atom_site_type_symbol
 _atom_site_label
 _atom_site_symmetry_multiplicity
 _atom_site_fract_x
 _atom_site_fract_y
 _atom_site_fract_z
 _atom_site_occupancy
  Er  Er0  1  0.284658  0.182602  0.467260  1
  Er  Er1  1  0.715342  0.817398  0.532740  1
  Er  Er2  1  0.284658  0.817398  0.102057  1
  Er  Er3  1  0.715342  0.182602  0.897943  1
  Er  Er4  1  0.619281  0.311262  0.308019  1
  Er  Er5  1  0.380719  0.688738  0.691981  1
  Er  Er6  1  0.003245  0.311262  0.691981  1
  Er  Er7  1  0.996755  0.688738  0.308019  1
  Er  Er8  1  0.212529  0.409038  0.196508  1
  Er  Er9  1  0.787471  0.590962  0.803492  1
  Er  Er10  1  0.212529  0.016021  0.803492  1
  Er  Er11  1  0.787471  0.983979  0.196508  1
  Co  Co12  1  0.000000  0.375429  0.375429  1
  Co  Co13  1  0.000000  0.624571  0.624571  1
  Co  Co14  1  0.388568  0.888568  0.500000  1
  Co  Co15  1  0.611432  0.111432  0.500000  1
  Bi  Bi16  1  0.500000  0.500000  0.000000  1
  Ru  Ru17  1  0.000000  0.000000  0.000000  1
