# generated using pymatgen
data_Yb5Th3(Pt2Pb)4
_symmetry_space_group_name_H-M   'P 1'
_cell_length_a   7.99187274
_cell_length_b   7.99187274
_cell_length_c   7.36246200
_cell_angle_alpha   90.00000000
_cell_angle_beta   90.00000000
_cell_angle_gamma   90.88387763
_symmetry_Int_Tables_number   1
_chemical_formula_structural   Yb5Th3(Pt2Pb)4
_chemical_formula_sum   'Yb5 Th3 Pt8 Pb4'
_cell_volume   470.18471494
_cell_formula_units_Z   1
loop_
 _symmetry_equiv_pos_site_id
 _symmetry_equiv_pos_as_xyz
  1  'x, y, z'
loop_
 _atom_site_type_symbol
 _atom_site_label
 _atom_site_symmetry_multiplicity
 _atom_site_fract_x
 _atom_site_fract_y
 _atom_site_fract_z
 _atom_site_occupancy
  Yb  Yb0  1  0.339525  0.342861  0.500000  1
  Yb  Yb1  1  0.657139  0.660475  0.500000  1
  Yb  Yb2  1  0.174348  0.825652  0.500000  1
  Yb  Yb3  1  0.841579  0.158421  0.000000  1
  Yb  Yb4  1  0.159485  0.840515  0.000000  1
  Th  Th5  1  0.674872  0.675686  0.000000  1
  Th  Th6  1  0.827884  0.172116  0.500000  1
  Th  Th7  1  0.324314  0.325128  0.000000  1
  Pt  Pt8  1  0.867523  0.870812  0.737246  1
  Pt  Pt9  1  0.129188  0.132477  0.737246  1
  Pt  Pt10  1  0.632599  0.367401  0.763232  1
  Pt  Pt11  1  0.632599  0.367401  0.236768  1
  Pt  Pt12  1  0.374450  0.625550  0.230059  1
  Pt  Pt13  1  0.129188  0.132477  0.262754  1
  Pt  Pt14  1  0.867523  0.870812  0.262754  1
  Pt  Pt15  1  0.374450  0.625550  0.769941  1
  Pb  Pb16  1  0.494432  0.997765  0.745879  1
  Pb  Pb17  1  0.494432  0.997765  0.254121  1
  Pb  Pb18  1  0.002235  0.505568  0.745879  1
  Pb  Pb19  1  0.002235  0.505568  0.254121  1
