# generated using pymatgen
data_Y5B4Pd2Pt2Rh11
_symmetry_space_group_name_H-M   'P 1'
_cell_length_a   4.22463900
_cell_length_b   4.22463900
_cell_length_c   20.77652500
_cell_angle_alpha   90.00000000
_cell_angle_beta   90.00000000
_cell_angle_gamma   90.00000000
_symmetry_Int_Tables_number   1
_chemical_formula_structural   Y5B4Pd2Pt2Rh11
_chemical_formula_sum   'Y5 B4 Pd2 Pt2 Rh11'
_cell_volume   370.81058154
_cell_formula_units_Z   1
loop_
 _symmetry_equiv_pos_site_id
 _symmetry_equiv_pos_as_xyz
  1  'x, y, z'
loop_
 _atom_site_type_symbol
 _atom_site_label
 _atom_site_symmetry_multiplicity
 _atom_site_fract_x
 _atom_site_fract_y
 _atom_site_fract_z
 _atom_site_occupancy
  Y  Y0  1  0.000000  0.000000  0.901132  1
  Y  Y1  1  0.000000  0.000000  0.098868  1
  Y  Y2  1  0.000000  0.000000  0.298540  1
  Y  Y3  1  0.000000  0.000000  0.500000  1
  Y  Y4  1  0.000000  0.000000  0.701460  1
  B  B5  1  0.500000  0.500000  0.192938  1
  B  B6  1  0.500000  0.500000  0.398273  1
  B  B7  1  0.500000  0.500000  0.601727  1
  B  B8  1  0.500000  0.500000  0.807062  1
  Pd  Pd9  1  0.500000  0.000000  0.000000  1
  Pd  Pd10  1  0.000000  0.500000  0.000000  1
  Pt  Pt11  1  0.500000  0.500000  0.907252  1
  Pt  Pt12  1  0.500000  0.500000  0.092748  1
  Rh  Rh13  1  0.500000  0.500000  0.297342  1
  Rh  Rh14  1  0.500000  0.500000  0.500000  1
  Rh  Rh15  1  0.500000  0.500000  0.702658  1
  Rh  Rh16  1  0.500000  0.000000  0.198770  1
  Rh  Rh17  1  0.500000  0.000000  0.399132  1
  Rh  Rh18  1  0.500000  0.000000  0.600868  1
  Rh  Rh19  1  0.500000  0.000000  0.801230  1
  Rh  Rh20  1  0.000000  0.500000  0.198770  1
  Rh  Rh21  1  0.000000  0.500000  0.399132  1
  Rh  Rh22  1  0.000000  0.500000  0.600868  1
  Rh  Rh23  1  0.000000  0.500000  0.801230  1
