# generated using pymatgen
data_Yb3ErIr8
_symmetry_space_group_name_H-M   'P 1'
_cell_length_a   5.32486201
_cell_length_b   5.32486134
_cell_length_c   8.69402900
_cell_angle_alpha   90.00046052
_cell_angle_beta   89.99953917
_cell_angle_gamma   119.99968124
_symmetry_Int_Tables_number   1
_chemical_formula_structural   Yb3ErIr8
_chemical_formula_sum   'Yb3 Er1 Ir8'
_cell_volume   213.48618284
_cell_formula_units_Z   1
loop_
 _symmetry_equiv_pos_site_id
 _symmetry_equiv_pos_as_xyz
  1  'x, y, z'
loop_
 _atom_site_type_symbol
 _atom_site_label
 _atom_site_symmetry_multiplicity
 _atom_site_fract_x
 _atom_site_fract_y
 _atom_site_fract_z
 _atom_site_occupancy
  Yb  Yb0  1  0.333344  0.666656  0.426922  1
  Yb  Yb1  1  0.333353  0.666647  0.067766  1
  Yb  Yb2  1  0.666670  0.333330  0.937839  1
  Er  Er3  1  0.666668  0.333332  0.570234  1
  Ir  Ir4  1  0.999999  0.000001  0.498987  1
  Ir  Ir5  1  0.000003  0.999997  0.999872  1
  Ir  Ir6  1  0.170908  0.341837  0.748520  1
  Ir  Ir7  1  0.170906  0.829094  0.748525  1
  Ir  Ir8  1  0.658163  0.829092  0.748520  1
  Ir  Ir9  1  0.829208  0.658408  0.250936  1
  Ir  Ir10  1  0.829184  0.170816  0.250943  1
  Ir  Ir11  1  0.341592  0.170792  0.250936  1
