# generated using pymatgen
data_Nd4Ga4RuRh3
_symmetry_space_group_name_H-M   'P 1'
_cell_length_a   7.35202401
_cell_length_b   4.64278300
_cell_length_c   7.21881901
_cell_angle_alpha   90.00000000
_cell_angle_beta   89.99447928
_cell_angle_gamma   90.00000000
_symmetry_Int_Tables_number   1
_chemical_formula_structural   Nd4Ga4RuRh3
_chemical_formula_sum   'Nd4 Ga4 Ru1 Rh3'
_cell_volume   246.40609910
_cell_formula_units_Z   1
loop_
 _symmetry_equiv_pos_site_id
 _symmetry_equiv_pos_as_xyz
  1  'x, y, z'
loop_
 _atom_site_type_symbol
 _atom_site_label
 _atom_site_symmetry_multiplicity
 _atom_site_fract_x
 _atom_site_fract_y
 _atom_site_fract_z
 _atom_site_occupancy
  Nd  Nd0  1  0.026780  0.750001  0.190472  1
  Nd  Nd1  1  0.527315  0.750001  0.307867  1
  Nd  Nd2  1  0.473951  0.250000  0.692422  1
  Nd  Nd3  1  0.970156  0.250000  0.810898  1
  Ga  Ga4  1  0.309657  0.250000  0.104434  1
  Ga  Ga5  1  0.809903  0.250000  0.392075  1
  Ga  Ga6  1  0.189551  0.750001  0.604727  1
  Ga  Ga7  1  0.693403  0.750001  0.900619  1
  Ru  Ru8  1  0.657991  0.250000  0.065703  1
  Rh  Rh9  1  0.159038  0.250000  0.431480  1
  Rh  Rh10  1  0.840535  0.750001  0.568079  1
  Rh  Rh11  1  0.341723  0.750001  0.931225  1
