# generated using pymatgen
data_La5GeTe4
_symmetry_space_group_name_H-M   'P 1'
_cell_length_a   7.81472450
_cell_length_b   7.81472430
_cell_length_c   11.03436300
_cell_angle_alpha   61.56936539
_cell_angle_beta   61.56936617
_cell_angle_gamma   33.15611316
_symmetry_Int_Tables_number   1
_chemical_formula_structural   La5GeTe4
_chemical_formula_sum   'La5 Ge1 Te4'
_cell_volume   319.86637550
_cell_formula_units_Z   1
loop_
 _symmetry_equiv_pos_site_id
 _symmetry_equiv_pos_as_xyz
  1  'x, y, z'
loop_
 _atom_site_type_symbol
 _atom_site_label
 _atom_site_symmetry_multiplicity
 _atom_site_fract_x
 _atom_site_fract_y
 _atom_site_fract_z
 _atom_site_occupancy
  La  La0  1  0.000000  0.000000  0.500000  1
  La  La1  1  0.589044  0.589044  0.094090  1
  La  La2  1  0.190675  0.190675  0.719719  1
  La  La3  1  0.809325  0.809325  0.280281  1
  La  La4  1  0.410956  0.410956  0.905910  1
  Ge  Ge5  1  0.000000  0.000000  0.000000  1
  Te  Te6  1  0.606569  0.606569  0.592410  1
  Te  Te7  1  0.196250  0.196250  0.195117  1
  Te  Te8  1  0.803750  0.803750  0.804883  1
  Te  Te9  1  0.393431  0.393431  0.407590  1
