# generated using pymatgen
data_Ca9YIr4
_symmetry_space_group_name_H-M   'P 1'
_cell_length_a   6.52438178
_cell_length_b   7.57664399
_cell_length_c   8.60932073
_cell_angle_alpha   97.33023112
_cell_angle_beta   112.26642796
_cell_angle_gamma   89.99999929
_symmetry_Int_Tables_number   1
_chemical_formula_structural   Ca9YIr4
_chemical_formula_sum   'Ca9 Y1 Ir4'
_cell_volume   390.08782116
_cell_formula_units_Z   1
loop_
 _symmetry_equiv_pos_site_id
 _symmetry_equiv_pos_as_xyz
  1  'x, y, z'
loop_
 _atom_site_type_symbol
 _atom_site_label
 _atom_site_symmetry_multiplicity
 _atom_site_fract_x
 _atom_site_fract_y
 _atom_site_fract_z
 _atom_site_occupancy
  Ca  Ca0  1  0.970842  0.918354  0.172155  1
  Ca  Ca1  1  0.798686  0.581646  0.827845  1
  Ca  Ca2  1  0.023582  0.081763  0.825832  1
  Ca  Ca3  1  0.197751  0.418237  0.174168  1
  Ca  Ca4  1  0.638572  0.823733  0.434205  1
  Ca  Ca5  1  0.204365  0.676267  0.565795  1
  Ca  Ca6  1  0.361009  0.177100  0.562076  1
  Ca  Ca7  1  0.798934  0.322900  0.437924  1
  Ca  Ca8  1  0.425937  0.750000  0.000000  1
  Y  Y9  1  0.566100  0.250000  0.000000  1
  Ir  Ir10  1  0.817641  0.571802  0.213819  1
  Ir  Ir11  1  0.603821  0.928198  0.786181  1
  Ir  Ir12  1  0.188942  0.414421  0.785124  1
  Ir  Ir13  1  0.403819  0.085579  0.214876  1
