# generated using pymatgen
data_TbTiNb5Sn6
_symmetry_space_group_name_H-M   'P 1'
_cell_length_a   5.79444050
_cell_length_b   5.79444048
_cell_length_c   9.62413700
_cell_angle_alpha   90.00000000
_cell_angle_beta   90.00000000
_cell_angle_gamma   119.91118401
_symmetry_Int_Tables_number   1
_chemical_formula_structural   TbTiNb5Sn6
_chemical_formula_sum   'Tb1 Ti1 Nb5 Sn6'
_cell_volume   280.09375577
_cell_formula_units_Z   1
loop_
 _symmetry_equiv_pos_site_id
 _symmetry_equiv_pos_as_xyz
  1  'x, y, z'
loop_
 _atom_site_type_symbol
 _atom_site_label
 _atom_site_symmetry_multiplicity
 _atom_site_fract_x
 _atom_site_fract_y
 _atom_site_fract_z
 _atom_site_occupancy
  Tb  Tb0  1  0.000000  0.000000  0.998201  1
  Ti  Ti1  1  0.500000  0.500000  0.248630  1
  Nb  Nb2  1  0.000000  0.500001  0.249292  1
  Nb  Nb3  1  0.500001  0.999999  0.249292  1
  Nb  Nb4  1  0.500000  0.500000  0.749936  1
  Nb  Nb5  1  0.000000  0.500001  0.752306  1
  Nb  Nb6  1  0.500001  0.999999  0.752306  1
  Sn  Sn7  1  0.334481  0.665519  0.001467  1
  Sn  Sn8  1  0.665518  0.334483  0.001467  1
  Sn  Sn9  1  0.000000  0.000000  0.327944  1
  Sn  Sn10  1  0.000000  0.000000  0.670144  1
  Sn  Sn11  1  0.334514  0.665487  0.499508  1
  Sn  Sn12  1  0.665486  0.334513  0.499508  1
