# generated using pymatgen
data_Ho12GaFe2Co2Pb
_symmetry_space_group_name_H-M   'P 1'
_cell_length_a   8.31730686
_cell_length_b   8.31730725
_cell_length_c   8.31730765
_cell_angle_alpha   111.60804420
_cell_angle_beta   109.16531152
_cell_angle_gamma   107.66493840
_symmetry_Int_Tables_number   1
_chemical_formula_structural   Ho12GaFe2Co2Pb
_chemical_formula_sum   'Ho12 Ga1 Fe2 Co2 Pb1'
_cell_volume   442.38418446
_cell_formula_units_Z   1
loop_
 _symmetry_equiv_pos_site_id
 _symmetry_equiv_pos_as_xyz
  1  'x, y, z'
loop_
 _atom_site_type_symbol
 _atom_site_label
 _atom_site_symmetry_multiplicity
 _atom_site_fract_x
 _atom_site_fract_y
 _atom_site_fract_z
 _atom_site_occupancy
  Ho  Ho0  1  0.971288  0.267775  0.703514  1
  Ho  Ho1  1  0.028712  0.732225  0.296486  1
  Ho  Ho2  1  0.675836  0.862928  0.187092  1
  Ho  Ho3  1  0.324164  0.511257  0.187092  1
  Ho  Ho4  1  0.324164  0.137072  0.812908  1
  Ho  Ho5  1  0.675836  0.488743  0.812908  1
  Ho  Ho6  1  0.564261  0.267775  0.296486  1
  Ho  Ho7  1  0.435739  0.732225  0.703514  1
  Ho  Ho8  1  0.179855  0.779434  0.959289  1
  Ho  Ho9  1  0.820145  0.779434  0.599580  1
  Ho  Ho10  1  0.179855  0.220566  0.400420  1
  Ho  Ho11  1  0.820145  0.220566  0.040711  1
  Ga  Ga12  1  0.000000  0.500000  0.500000  1
  Fe  Fe13  1  0.109930  0.109930  0.000000  1
  Fe  Fe14  1  0.890070  0.890070  0.000000  1
  Co  Co15  1  0.655967  0.500000  0.155967  1
  Co  Co16  1  0.344033  0.500000  0.844033  1
  Pb  Pb17  1  0.500000  0.000000  0.500000  1
