# generated using pymatgen
data_Ti2VSi12Mo17
_symmetry_space_group_name_H-M   'P 1'
_cell_length_a   4.88827118
_cell_length_b   7.27899745
_cell_length_c   13.73905700
_cell_angle_alpha   90.00000000
_cell_angle_beta   90.00000000
_cell_angle_gamma   109.53527013
_symmetry_Int_Tables_number   1
_chemical_formula_structural   Ti2VSi12Mo17
_chemical_formula_sum   'Ti2 V1 Si12 Mo17'
_cell_volume   460.71841504
_cell_formula_units_Z   1
loop_
 _symmetry_equiv_pos_site_id
 _symmetry_equiv_pos_as_xyz
  1  'x, y, z'
loop_
 _atom_site_type_symbol
 _atom_site_label
 _atom_site_symmetry_multiplicity
 _atom_site_fract_x
 _atom_site_fract_y
 _atom_site_fract_z
 _atom_site_occupancy
  Ti  Ti0  1  0.000010  0.499651  0.250000  1
  Ti  Ti1  1  0.498419  0.499509  0.750000  1
  V  V2  1  0.998429  0.500025  0.750000  1
  Si  Si3  1  0.250203  0.000071  0.999778  1
  Si  Si4  1  0.749820  0.999753  0.501055  1
  Si  Si5  1  0.749820  0.999753  0.998945  1
  Si  Si6  1  0.250203  0.000071  0.500222  1
  Si  Si7  1  0.748650  0.500161  0.081798  1
  Si  Si8  1  0.240894  0.500011  0.584770  1
  Si  Si9  1  0.748650  0.500161  0.418202  1
  Si  Si10  1  0.240894  0.500011  0.915230  1
  Si  Si11  1  0.420709  0.835414  0.250000  1
  Si  Si12  1  0.922790  0.831379  0.750000  1
  Si  Si13  1  0.086665  0.165056  0.250000  1
  Si  Si14  1  0.592571  0.168468  0.750000  1
  Mo  Mo15  1  0.927773  0.851036  0.349844  1
  Mo  Mo16  1  0.425069  0.850004  0.849275  1
  Mo  Mo17  1  0.578651  0.149414  0.149291  1
  Mo  Mo18  1  0.076247  0.150199  0.650265  1
  Mo  Mo19  1  0.147189  0.300399  0.073878  1
  Mo  Mo20  1  0.645440  0.299073  0.576086  1
  Mo  Mo21  1  0.349999  0.699079  0.426600  1
  Mo  Mo22  1  0.850182  0.701063  0.924521  1
  Mo  Mo23  1  0.349999  0.699079  0.073400  1
  Mo  Mo24  1  0.850182  0.701063  0.575479  1
  Mo  Mo25  1  0.147189  0.300399  0.426122  1
  Mo  Mo26  1  0.645440  0.299073  0.923914  1
  Mo  Mo27  1  0.578651  0.149414  0.350709  1
  Mo  Mo28  1  0.076247  0.150199  0.849735  1
  Mo  Mo29  1  0.927773  0.851036  0.150156  1
  Mo  Mo30  1  0.425069  0.850004  0.650725  1
  Mo  Mo31  1  0.500168  0.499972  0.250000  1
