# generated using pymatgen
data_Ca3Tb(SiPd14)2
_symmetry_space_group_name_H-M   'P 1'
_cell_length_a   8.92020000
_cell_length_b   8.92020000
_cell_length_c   7.11470900
_cell_angle_alpha   90.00000000
_cell_angle_beta   90.00000000
_cell_angle_gamma   90.00000000
_symmetry_Int_Tables_number   1
_chemical_formula_structural   Ca3Tb(SiPd14)2
_chemical_formula_sum   'Ca3 Tb1 Si2 Pd28'
_cell_volume   566.11716774
_cell_formula_units_Z   1
loop_
 _symmetry_equiv_pos_site_id
 _symmetry_equiv_pos_as_xyz
  1  'x, y, z'
loop_
 _atom_site_type_symbol
 _atom_site_label
 _atom_site_symmetry_multiplicity
 _atom_site_fract_x
 _atom_site_fract_y
 _atom_site_fract_z
 _atom_site_occupancy
  Ca  Ca0  1  0.500000  0.000000  0.937026  1
  Ca  Ca1  1  0.000000  0.500000  0.062974  1
  Ca  Ca2  1  0.000000  0.000000  0.500000  1
  Tb  Tb3  1  0.500000  0.500000  0.500000  1
  Si  Si4  1  0.500000  0.000000  0.447591  1
  Si  Si5  1  0.000000  0.500000  0.552409  1
  Pd  Pd6  1  0.334152  0.833574  0.615909  1
  Pd  Pd7  1  0.334152  0.166426  0.615909  1
  Pd  Pd8  1  0.665848  0.833574  0.615909  1
  Pd  Pd9  1  0.665848  0.166426  0.615909  1
  Pd  Pd10  1  0.166426  0.665848  0.384091  1
  Pd  Pd11  1  0.166426  0.334152  0.384091  1
  Pd  Pd12  1  0.833574  0.665848  0.384091  1
  Pd  Pd13  1  0.833574  0.334152  0.384091  1
  Pd  Pd14  1  0.500000  0.769109  0.258442  1
  Pd  Pd15  1  0.500000  0.230891  0.258442  1
  Pd  Pd16  1  0.270795  0.000000  0.256733  1
  Pd  Pd17  1  0.729205  0.000000  0.256733  1
  Pd  Pd18  1  0.000000  0.729205  0.743267  1
  Pd  Pd19  1  0.000000  0.270795  0.743267  1
  Pd  Pd20  1  0.230891  0.500000  0.741558  1
  Pd  Pd21  1  0.769109  0.500000  0.741558  1
  Pd  Pd22  1  0.500000  0.349417  0.853598  1
  Pd  Pd23  1  0.500000  0.650583  0.853598  1
  Pd  Pd24  1  0.848998  0.000000  0.855417  1
  Pd  Pd25  1  0.151002  0.000000  0.855417  1
  Pd  Pd26  1  0.000000  0.151002  0.144583  1
  Pd  Pd27  1  0.000000  0.848998  0.144583  1
  Pd  Pd28  1  0.650583  0.500000  0.146402  1
  Pd  Pd29  1  0.349417  0.500000  0.146402  1
  Pd  Pd30  1  0.250084  0.749916  0.000000  1
  Pd  Pd31  1  0.250084  0.250084  0.000000  1
  Pd  Pd32  1  0.749916  0.749916  0.000000  1
  Pd  Pd33  1  0.749916  0.250084  0.000000  1
