# generated using pymatgen
data_Y9ScCd3Co
_symmetry_space_group_name_H-M   'P 1'
_cell_length_a   9.57241800
_cell_length_b   9.57238208
_cell_length_c   9.70312400
_cell_angle_alpha   90.00000000
_cell_angle_beta   90.00000000
_cell_angle_gamma   120.00007253
_symmetry_Int_Tables_number   1
_chemical_formula_structural   Y9ScCd3Co
_chemical_formula_sum   'Y18 Sc2 Cd6 Co2'
_cell_volume   769.98732414
_cell_formula_units_Z   2
loop_
 _symmetry_equiv_pos_site_id
 _symmetry_equiv_pos_as_xyz
  1  'x, y, z'
loop_
 _atom_site_type_symbol
 _atom_site_label
 _atom_site_symmetry_multiplicity
 _atom_site_fract_x
 _atom_site_fract_y
 _atom_site_fract_z
 _atom_site_occupancy
  Y  Y0  1  0.209851  0.790148  0.437410  1
  Y  Y1  1  0.209851  0.419703  0.437411  1
  Y  Y2  1  0.580298  0.790149  0.437411  1
  Y  Y3  1  0.790149  0.209852  0.562590  1
  Y  Y4  1  0.790149  0.580297  0.562589  1
  Y  Y5  1  0.419702  0.209851  0.562589  1
  Y  Y6  1  0.790149  0.209852  0.937410  1
  Y  Y7  1  0.790149  0.580297  0.937411  1
  Y  Y8  1  0.419702  0.209851  0.937411  1
  Y  Y9  1  0.209851  0.790148  0.062590  1
  Y  Y10  1  0.209851  0.419703  0.062589  1
  Y  Y11  1  0.580298  0.790149  0.062589  1
  Y  Y12  1  0.542127  0.457872  0.250000  1
  Y  Y13  1  0.542128  0.084256  0.250000  1
  Y  Y14  1  0.915744  0.457872  0.250000  1
  Y  Y15  1  0.457873  0.542128  0.750000  1
  Y  Y16  1  0.457872  0.915744  0.750000  1
  Y  Y17  1  0.084256  0.542128  0.750000  1
  Sc  Sc18  1  0.000000  0.000000  0.500000  1
  Sc  Sc19  1  0.000000  0.000000  0.000000  1
  Cd  Cd20  1  0.889101  0.110902  0.250000  1
  Cd  Cd21  1  0.889098  0.778198  0.250000  1
  Cd  Cd22  1  0.221804  0.110904  0.250000  1
  Cd  Cd23  1  0.110899  0.889098  0.750000  1
  Cd  Cd24  1  0.110902  0.221802  0.750000  1
  Cd  Cd25  1  0.778196  0.889096  0.750000  1
  Co  Co26  1  0.333332  0.666665  0.250000  1
  Co  Co27  1  0.666668  0.333335  0.750000  1
