# generated using pymatgen
data_SrTh3(Zn5Ga)2
_symmetry_space_group_name_H-M   'P 1'
_cell_length_a   8.47907116
_cell_length_b   8.47907169
_cell_length_c   8.94874100
_cell_angle_alpha   90.11527316
_cell_angle_beta   89.88472684
_cell_angle_gamma   149.33170735
_symmetry_Int_Tables_number   1
_chemical_formula_structural   SrTh3(Zn5Ga)2
_chemical_formula_sum   'Sr1 Th3 Zn10 Ga2'
_cell_volume   328.15936864
_cell_formula_units_Z   1
loop_
 _symmetry_equiv_pos_site_id
 _symmetry_equiv_pos_as_xyz
  1  'x, y, z'
loop_
 _atom_site_type_symbol
 _atom_site_label
 _atom_site_symmetry_multiplicity
 _atom_site_fract_x
 _atom_site_fract_y
 _atom_site_fract_z
 _atom_site_occupancy
  Sr  Sr0  1  0.000000  0.000000  0.000000  1
  Th  Th1  1  0.204794  0.795206  0.251371  1
  Th  Th2  1  0.795206  0.204794  0.748629  1
  Th  Th3  1  0.000000  0.000000  0.500000  1
  Zn  Zn4  1  0.813317  0.186683  0.393576  1
  Zn  Zn5  1  0.186683  0.813317  0.606424  1
  Zn  Zn6  1  0.812671  0.187329  0.108001  1
  Zn  Zn7  1  0.187329  0.812671  0.891999  1
  Zn  Zn8  1  0.652052  0.347948  0.480673  1
  Zn  Zn9  1  0.347948  0.652052  0.519327  1
  Zn  Zn10  1  0.653487  0.346513  0.020610  1
  Zn  Zn11  1  0.346513  0.653487  0.979390  1
  Zn  Zn12  1  0.403674  0.596326  0.253288  1
  Zn  Zn13  1  0.596326  0.403674  0.746712  1
  Ga  Ga14  1  0.559355  0.440645  0.256834  1
  Ga  Ga15  1  0.440645  0.559355  0.743166  1
