# generated using pymatgen
data_Yb12Zn6Ga6Sb7RuO48
_symmetry_space_group_name_H-M   'P 1'
_cell_length_a   10.63882079
_cell_length_b   10.60482885
_cell_length_c   10.63882200
_cell_angle_alpha   109.40651315
_cell_angle_beta   109.53586398
_cell_angle_gamma   109.40650103
_symmetry_Int_Tables_number   1
_chemical_formula_structural   Yb12Zn6Ga6Sb7RuO48
_chemical_formula_sum   'Yb12 Zn6 Ga6 Sb7 Ru1 O48'
_cell_volume   924.73010497
_cell_formula_units_Z   1
loop_
 _symmetry_equiv_pos_site_id
 _symmetry_equiv_pos_as_xyz
  1  'x, y, z'
loop_
 _atom_site_type_symbol
 _atom_site_label
 _atom_site_symmetry_multiplicity
 _atom_site_fract_x
 _atom_site_fract_y
 _atom_site_fract_z
 _atom_site_occupancy
  Yb  Yb0  1  0.251546  0.378766  0.129155  1
  Yb  Yb1  1  0.379103  0.752526  0.130768  1
  Yb  Yb2  1  0.375196  0.125363  0.251073  1
  Yb  Yb3  1  0.872333  0.626273  0.245513  1
  Yb  Yb4  1  0.123387  0.247531  0.370775  1
  Yb  Yb5  1  0.746871  0.119718  0.371768  1
  Yb  Yb6  1  0.249644  0.872920  0.623120  1
  Yb  Yb7  1  0.871830  0.749934  0.622697  1
  Yb  Yb8  1  0.123734  0.374971  0.748699  1
  Yb  Yb9  1  0.625652  0.874841  0.750498  1
  Yb  Yb10  1  0.627642  0.250960  0.879298  1
  Yb  Yb11  1  0.751352  0.628573  0.879571  1
  Zn  Zn12  1  0.754942  0.878397  0.125956  1
  Zn  Zn13  1  0.871501  0.244898  0.117415  1
  Zn  Zn14  1  0.617221  0.371314  0.245201  1
  Zn  Zn15  1  0.127875  0.876693  0.251577  1
  Zn  Zn16  1  0.623903  0.746279  0.373987  1
  Zn  Zn17  1  0.256606  0.630133  0.374823  1
  Ga  Ga18  1  0.751074  0.377586  0.626793  1
  Ga  Ga19  1  0.374643  0.248384  0.626387  1
  Ga  Ga20  1  0.875699  0.125731  0.749181  1
  Ga  Ga21  1  0.373410  0.623851  0.749520  1
  Ga  Ga22  1  0.250811  0.125509  0.874938  1
  Ga  Ga23  1  0.124455  0.749506  0.874899  1
  Sb  Sb24  1  0.001723  0.002606  0.001473  1
  Sb  Sb25  1  0.500593  0.998104  0.001523  1
  Sb  Sb26  1  0.501245  0.500621  0.001495  1
  Sb  Sb27  1  0.000099  0.502645  0.002355  1
  Sb  Sb28  1  0.502170  0.000073  0.499919  1
  Sb  Sb29  1  0.999996  0.996856  0.497791  1
  Sb  Sb30  1  0.497601  0.500176  0.500447  1
  Ru  Ru31  1  0.995457  0.498339  0.493264  1
  O  O32  1  0.317807  0.906663  0.024450  1
  O  O33  1  0.207204  0.120469  0.025575  1
  O  O34  1  0.705045  0.672341  0.083099  1
  O  O35  1  0.880567  0.414226  0.088008  1
  O  O36  1  0.966502  0.675426  0.085080  1
  O  O37  1  0.620208  0.412435  0.087275  1
  O  O38  1  0.585576  0.909706  0.118223  1
  O  O39  1  0.033633  0.208855  0.120450  1
  O  O40  1  0.463988  0.586296  0.169494  1
  O  O41  1  0.205408  0.585333  0.170834  1
  O  O42  1  0.124094  0.035987  0.205901  1
  O  O43  1  0.586462  0.172082  0.207241  1
  O  O44  1  0.464606  0.378339  0.296632  1
  O  O45  1  0.332087  0.919915  0.296502  1
  O  O46  1  0.914433  0.038582  0.331313  1
  O  O47  1  0.913344  0.305169  0.327821  1
  O  O48  1  0.290994  0.468251  0.385473  1
  O  O49  1  0.591758  0.915903  0.384094  1
  O  O50  1  0.825424  0.522923  0.415665  1
  O  O51  1  0.089156  0.878093  0.415107  1
  O  O52  1  0.828814  0.791928  0.417139  1
  O  O53  1  0.085833  0.609821  0.414946  1
  O  O54  1  0.596784  0.183802  0.476807  1
  O  O55  1  0.381190  0.293626  0.476613  1
  O  O56  1  0.621937  0.705879  0.537142  1
  O  O57  1  0.412648  0.831153  0.537724  1
  O  O58  1  0.909727  0.387159  0.586734  1
  O  O59  1  0.180221  0.207058  0.588533  1
  O  O60  1  0.918503  0.122449  0.595304  1
  O  O61  1  0.173074  0.476197  0.590135  1
  O  O62  1  0.418600  0.095132  0.623640  1
  O  O63  1  0.705951  0.528131  0.621483  1
  O  O64  1  0.085555  0.699134  0.676067  1
  O  O65  1  0.093723  0.972862  0.680882  1
  O  O66  1  0.681969  0.089334  0.707745  1
  O  O67  1  0.524414  0.616509  0.707953  1
  O  O68  1  0.406924  0.816951  0.791946  1
  O  O69  1  0.883826  0.975119  0.793080  1
  O  O70  1  0.793971  0.412105  0.819932  1
  O  O71  1  0.525948  0.406196  0.820456  1
  O  O72  1  0.974319  0.795697  0.875860  1
  O  O73  1  0.404352  0.081620  0.878104  1
  O  O74  1  0.375095  0.580526  0.901868  1
  O  O75  1  0.026052  0.322771  0.904621  1
  O  O76  1  0.116298  0.589664  0.908345  1
  O  O77  1  0.292526  0.319674  0.910361  1
  O  O78  1  0.668103  0.084112  0.963061  1
  O  O79  1  0.796027  0.878306  0.963389  1
