# generated using pymatgen
data_Rb8Li4Dy3TlSb8
_symmetry_space_group_name_H-M   'P 1'
_cell_length_a   11.18747400
_cell_length_b   11.18747234
_cell_length_c   7.20857112
_cell_angle_alpha   90.05151194
_cell_angle_beta   89.94847134
_cell_angle_gamma   100.11514416
_symmetry_Int_Tables_number   1
_chemical_formula_structural   Rb8Li4Dy3TlSb8
_chemical_formula_sum   'Rb8 Li4 Dy3 Tl1 Sb8'
_cell_volume   888.19753289
_cell_formula_units_Z   1
loop_
 _symmetry_equiv_pos_site_id
 _symmetry_equiv_pos_as_xyz
  1  'x, y, z'
loop_
 _atom_site_type_symbol
 _atom_site_label
 _atom_site_symmetry_multiplicity
 _atom_site_fract_x
 _atom_site_fract_y
 _atom_site_fract_z
 _atom_site_occupancy
  Rb  Rb0  1  0.570653  0.929166  0.747039  1
  Rb  Rb1  1  0.929166  0.570653  0.252961  1
  Rb  Rb2  1  0.429775  0.078965  0.257139  1
  Rb  Rb3  1  0.078965  0.429775  0.742861  1
  Rb  Rb4  1  0.669985  0.321717  0.772414  1
  Rb  Rb5  1  0.824336  0.175822  0.280809  1
  Rb  Rb6  1  0.321717  0.669985  0.227586  1
  Rb  Rb7  1  0.175822  0.824336  0.719191  1
  Li  Li8  1  0.618370  0.618370  0.000000  1
  Li  Li9  1  0.878519  0.878519  0.500000  1
  Li  Li10  1  0.378784  0.378784  0.000000  1
  Li  Li11  1  0.123695  0.123695  0.500000  1
  Dy  Dy12  1  0.869152  0.869152  0.000000  1
  Dy  Dy13  1  0.625295  0.625295  0.500000  1
  Dy  Dy14  1  0.130606  0.130606  0.000000  1
  Tl  Tl15  1  0.374290  0.374290  0.500000  1
  Sb  Sb16  1  0.348533  0.154572  0.749321  1
  Sb  Sb17  1  0.154572  0.348533  0.250679  1
  Sb  Sb18  1  0.651083  0.844405  0.249743  1
  Sb  Sb19  1  0.844405  0.651083  0.750257  1
  Sb  Sb20  1  0.905531  0.096297  0.761267  1
  Sb  Sb21  1  0.597186  0.403260  0.256127  1
  Sb  Sb22  1  0.096297  0.905531  0.238733  1
  Sb  Sb23  1  0.403260  0.597186  0.743873  1
