# generated using pymatgen
data_SrTh(BPt4)2
_symmetry_space_group_name_H-M   'P 1'
_cell_length_a   5.49589400
_cell_length_b   5.49589502
_cell_length_c   7.73449900
_cell_angle_alpha   90.00000000
_cell_angle_beta   90.00000000
_cell_angle_gamma   119.99999385
_symmetry_Int_Tables_number   1
_chemical_formula_structural   SrTh(BPt4)2
_chemical_formula_sum   'Sr1 Th1 B2 Pt8'
_cell_volume   202.32037563
_cell_formula_units_Z   1
loop_
 _symmetry_equiv_pos_site_id
 _symmetry_equiv_pos_as_xyz
  1  'x, y, z'
loop_
 _atom_site_type_symbol
 _atom_site_label
 _atom_site_symmetry_multiplicity
 _atom_site_fract_x
 _atom_site_fract_y
 _atom_site_fract_z
 _atom_site_occupancy
  Sr  Sr0  1  0.000000  0.000000  0.500000  1
  Th  Th1  1  0.000000  0.000000  0.000000  1
  B  B2  1  0.666667  0.333333  0.500000  1
  B  B3  1  0.333333  0.666667  0.500000  1
  Pt  Pt4  1  0.500000  0.500000  0.699339  1
  Pt  Pt5  1  0.500000  0.000000  0.699339  1
  Pt  Pt6  1  0.000000  0.500000  0.699339  1
  Pt  Pt7  1  0.500000  0.500000  0.300661  1
  Pt  Pt8  1  0.500000  0.000000  0.300661  1
  Pt  Pt9  1  0.000000  0.500000  0.300661  1
  Pt  Pt10  1  0.666667  0.333333  0.000000  1
  Pt  Pt11  1  0.333333  0.666667  0.000000  1
