# generated using pymatgen
data_Tb2LuMg3Ge2Au
_symmetry_space_group_name_H-M   'P 1'
_cell_length_a   7.26588500
_cell_length_b   7.24711051
_cell_length_c   4.34462900
_cell_angle_alpha   90.00000000
_cell_angle_beta   90.00000000
_cell_angle_gamma   120.08572942
_symmetry_Int_Tables_number   1
_chemical_formula_structural   Tb2LuMg3Ge2Au
_chemical_formula_sum   'Tb2 Lu1 Mg3 Ge2 Au1'
_cell_volume   197.95246364
_cell_formula_units_Z   1
loop_
 _symmetry_equiv_pos_site_id
 _symmetry_equiv_pos_as_xyz
  1  'x, y, z'
loop_
 _atom_site_type_symbol
 _atom_site_label
 _atom_site_symmetry_multiplicity
 _atom_site_fract_x
 _atom_site_fract_y
 _atom_site_fract_z
 _atom_site_occupancy
  Tb  Tb0  1  0.001245  0.583447  0.000000  1
  Tb  Tb1  1  0.417798  0.416553  0.000000  1
  Lu  Lu2  1  0.584579  0.000000  0.000000  1
  Mg  Mg3  1  0.245024  0.000000  0.500000  1
  Mg  Mg4  1  0.999077  0.243211  0.500000  1
  Mg  Mg5  1  0.755866  0.756789  0.500000  1
  Ge  Ge6  1  0.335811  0.670642  0.500000  1
  Ge  Ge7  1  0.665170  0.329358  0.500000  1
  Au  Au8  1  0.995432  0.000000  0.000000  1
