# generated using pymatgen
data_LiLa19(Ir2Ru)4
_symmetry_space_group_name_H-M   'P 1'
_cell_length_a   11.34661000
_cell_length_b   11.34661000
_cell_length_c   6.65642500
_cell_angle_alpha   90.00000000
_cell_angle_beta   90.00000000
_cell_angle_gamma   90.00000000
_symmetry_Int_Tables_number   1
_chemical_formula_structural   LiLa19(Ir2Ru)4
_chemical_formula_sum   'Li1 La19 Ir8 Ru4'
_cell_volume   856.98515419
_cell_formula_units_Z   1
loop_
 _symmetry_equiv_pos_site_id
 _symmetry_equiv_pos_as_xyz
  1  'x, y, z'
loop_
 _atom_site_type_symbol
 _atom_site_label
 _atom_site_symmetry_multiplicity
 _atom_site_fract_x
 _atom_site_fract_y
 _atom_site_fract_z
 _atom_site_occupancy
  Li  Li0  1  0.500000  0.500000  0.500000  1
  La  La1  1  0.298039  0.086630  0.387447  1
  La  La2  1  0.295358  0.908967  0.889478  1
  La  La3  1  0.704642  0.091033  0.889478  1
  La  La4  1  0.701961  0.913370  0.387447  1
  La  La5  1  0.589545  0.794021  0.890193  1
  La  La6  1  0.586807  0.220517  0.394060  1
  La  La7  1  0.413193  0.779483  0.394060  1
  La  La8  1  0.410455  0.205979  0.890193  1
  La  La9  1  0.220517  0.413193  0.605940  1
  La  La10  1  0.205979  0.589545  0.109807  1
  La  La11  1  0.794021  0.410455  0.109807  1
  La  La12  1  0.779483  0.586807  0.605940  1
  La  La13  1  0.908967  0.704642  0.110522  1
  La  La14  1  0.913370  0.298039  0.612553  1
  La  La15  1  0.086630  0.701961  0.612553  1
  La  La16  1  0.091033  0.295358  0.110522  1
  La  La17  1  0.000000  0.000000  0.500000  1
  La  La18  1  0.000000  0.000000  0.000000  1
  La  La19  1  0.500000  0.500000  0.000000  1
  Ir  Ir20  1  0.847546  0.152108  0.251851  1
  Ir  Ir21  1  0.847892  0.847546  0.748149  1
  Ir  Ir22  1  0.152108  0.152454  0.748149  1
  Ir  Ir23  1  0.152454  0.847892  0.251851  1
  Ir  Ir24  1  0.654992  0.345166  0.758498  1
  Ir  Ir25  1  0.654834  0.654992  0.241502  1
  Ir  Ir26  1  0.345166  0.345008  0.241502  1
  Ir  Ir27  1  0.345008  0.654834  0.758498  1
  Ru  Ru28  1  0.500000  0.000000  0.122945  1
  Ru  Ru29  1  0.500000  0.000000  0.619400  1
  Ru  Ru30  1  0.000000  0.500000  0.877055  1
  Ru  Ru31  1  0.000000  0.500000  0.380600  1
