# generated using pymatgen
data_Tb2Pr3DyCoBr10
_symmetry_space_group_name_H-M   'P 1'
_cell_length_a   7.49069590
_cell_length_b   9.45765209
_cell_length_c   9.37830122
_cell_angle_alpha   107.36926008
_cell_angle_beta   95.55006946
_cell_angle_gamma   105.16986794
_symmetry_Int_Tables_number   1
_chemical_formula_structural   Tb2Pr3DyCoBr10
_chemical_formula_sum   'Tb2 Pr3 Dy1 Co1 Br10'
_cell_volume   600.88316984
_cell_formula_units_Z   1
loop_
 _symmetry_equiv_pos_site_id
 _symmetry_equiv_pos_as_xyz
  1  'x, y, z'
loop_
 _atom_site_type_symbol
 _atom_site_label
 _atom_site_symmetry_multiplicity
 _atom_site_fract_x
 _atom_site_fract_y
 _atom_site_fract_z
 _atom_site_occupancy
  Tb  Tb0  1  0.349944  0.125999  0.672190  1
  Tb  Tb1  1  0.650121  0.868909  0.326817  1
  Pr  Pr2  1  0.964029  0.298165  0.593743  1
  Pr  Pr3  1  0.873260  0.950826  0.737060  1
  Pr  Pr4  1  0.124464  0.048754  0.261618  1
  Dy  Dy5  1  0.035564  0.711810  0.409045  1
  Co  Co6  1  0.999207  0.999636  0.499338  1
  Br  Br7  1  0.447982  0.822333  0.578978  1
  Br  Br8  1  0.544172  0.171522  0.416210  1
  Br  Br9  1  0.917958  0.632259  0.666544  1
  Br  Br10  1  0.086765  0.378991  0.325324  1
  Br  Br11  1  0.250979  0.082709  0.948428  1
  Br  Br12  1  0.746514  0.915506  0.051419  1
  Br  Br13  1  0.349439  0.437683  0.770593  1
  Br  Br14  1  0.668876  0.561642  0.234509  1
  Br  Br15  1  0.760387  0.245791  0.843061  1
  Br  Br16  1  0.230341  0.747466  0.165121  1
