# generated using pymatgen
data_Lu2Ga4PtAu
_symmetry_space_group_name_H-M   'P 1'
_cell_length_a   5.52532500
_cell_length_b   5.52532435
_cell_length_c   6.60645700
_cell_angle_alpha   90.00000000
_cell_angle_beta   90.00000000
_cell_angle_gamma   132.74471474
_symmetry_Int_Tables_number   1
_chemical_formula_structural   Lu2Ga4PtAu
_chemical_formula_sum   'Lu2 Ga4 Pt1 Au1'
_cell_volume   148.11808497
_cell_formula_units_Z   1
loop_
 _symmetry_equiv_pos_site_id
 _symmetry_equiv_pos_as_xyz
  1  'x, y, z'
loop_
 _atom_site_type_symbol
 _atom_site_label
 _atom_site_symmetry_multiplicity
 _atom_site_fract_x
 _atom_site_fract_y
 _atom_site_fract_z
 _atom_site_occupancy
  Lu  Lu0  1  0.588531  0.411469  0.250000  1
  Lu  Lu1  1  0.413738  0.586262  0.750000  1
  Ga  Ga2  1  0.874877  0.125123  0.454892  1
  Ga  Ga3  1  0.124268  0.875732  0.553293  1
  Ga  Ga4  1  0.874877  0.125123  0.045108  1
  Ga  Ga5  1  0.124268  0.875732  0.946707  1
  Pt  Pt6  1  0.700519  0.299481  0.750000  1
  Au  Au7  1  0.298922  0.701078  0.250000  1
