# generated using pymatgen
data_Ba2TcAs4Ir3
_symmetry_space_group_name_H-M   'P 1'
_cell_length_a   5.90441900
_cell_length_b   7.04826863
_cell_length_c   5.90884712
_cell_angle_alpha   65.06324977
_cell_angle_beta   89.99990296
_cell_angle_gamma   89.99995094
_symmetry_Int_Tables_number   1
_chemical_formula_structural   Ba2TcAs4Ir3
_chemical_formula_sum   'Ba2 Tc1 As4 Ir3'
_cell_volume   222.97764265
_cell_formula_units_Z   1
loop_
 _symmetry_equiv_pos_site_id
 _symmetry_equiv_pos_as_xyz
  1  'x, y, z'
loop_
 _atom_site_type_symbol
 _atom_site_label
 _atom_site_symmetry_multiplicity
 _atom_site_fract_x
 _atom_site_fract_y
 _atom_site_fract_z
 _atom_site_occupancy
  Ba  Ba0  1  0.992521  0.000001  0.999999  1
  Ba  Ba1  1  0.507587  0.999999  0.500001  1
  Tc  Tc2  1  0.249837  0.499999  0.499999  1
  As  As3  1  0.494750  0.708085  0.149681  1
  As  As4  1  0.005265  0.708616  0.640335  1
  As  As5  1  0.005268  0.291384  0.359664  1
  As  As6  1  0.494753  0.291917  0.850318  1
  Ir  Ir7  1  0.249630  0.500001  0.000001  1
  Ir  Ir8  1  0.750272  0.500001  0.000000  1
  Ir  Ir9  1  0.750119  0.499997  0.500000  1
