# generated using pymatgen
data_Ag(ClO4)2
_symmetry_space_group_name_H-M   'P 1'
_cell_length_a   5.28040920
_cell_length_b   7.31695678
_cell_length_c   8.99913900
_cell_angle_alpha   90.00000000
_cell_angle_beta   90.00000000
_cell_angle_gamma   91.77020232
_symmetry_Int_Tables_number   1
_chemical_formula_structural   Ag(ClO4)2
_chemical_formula_sum   'Ag2 Cl4 O16'
_cell_volume   347.52953303
_cell_formula_units_Z   2
loop_
 _symmetry_equiv_pos_site_id
 _symmetry_equiv_pos_as_xyz
  1  'x, y, z'
loop_
 _atom_site_type_symbol
 _atom_site_label
 _atom_site_symmetry_multiplicity
 _atom_site_fract_x
 _atom_site_fract_y
 _atom_site_fract_z
 _atom_site_occupancy
  Ag  Ag0  1  0.500000  0.500000  0.500000  1
  Ag  Ag1  1  0.000000  0.000000  0.000000  1
  Cl  Cl2  1  0.575655  0.261075  0.182292  1
  Cl  Cl3  1  0.924345  0.238925  0.682292  1
  Cl  Cl4  1  0.424345  0.738925  0.817708  1
  Cl  Cl5  1  0.075655  0.761075  0.317708  1
  O  O6  1  0.585194  0.271135  0.348856  1
  O  O7  1  0.914806  0.228865  0.848856  1
  O  O8  1  0.414806  0.728865  0.651144  1
  O  O9  1  0.085194  0.771135  0.151144  1
  O  O10  1  0.315981  0.254019  0.132653  1
  O  O11  1  0.184019  0.245981  0.632653  1
  O  O12  1  0.684019  0.745981  0.867347  1
  O  O13  1  0.815981  0.754019  0.367347  1
  O  O14  1  0.692372  0.079373  0.153795  1
  O  O15  1  0.807628  0.420627  0.653795  1
  O  O16  1  0.307628  0.920627  0.846205  1
  O  O17  1  0.192372  0.579373  0.346205  1
  O  O18  1  0.722079  0.407431  0.116686  1
  O  O19  1  0.777921  0.092569  0.616686  1
  O  O20  1  0.277921  0.592569  0.883314  1
  O  O21  1  0.222079  0.907431  0.383314  1
