# generated using pymatgen
data_Y4Re5Ru3
_symmetry_space_group_name_H-M   'P 1'
_cell_length_a   5.35708478
_cell_length_b   5.35708498
_cell_length_c   9.16607500
_cell_angle_alpha   90.00000000
_cell_angle_beta   90.00000000
_cell_angle_gamma   121.95396503
_symmetry_Int_Tables_number   1
_chemical_formula_structural   Y4Re5Ru3
_chemical_formula_sum   'Y4 Re5 Ru3'
_cell_volume   223.19208627
_cell_formula_units_Z   1
loop_
 _symmetry_equiv_pos_site_id
 _symmetry_equiv_pos_as_xyz
  1  'x, y, z'
loop_
 _atom_site_type_symbol
 _atom_site_label
 _atom_site_symmetry_multiplicity
 _atom_site_fract_x
 _atom_site_fract_y
 _atom_site_fract_z
 _atom_site_occupancy
  Y  Y0  1  0.336234  0.663766  0.436098  1
  Y  Y1  1  0.664560  0.335440  0.563199  1
  Y  Y2  1  0.664560  0.335440  0.936801  1
  Y  Y3  1  0.336234  0.663766  0.063902  1
  Re  Re4  1  0.168170  0.340328  0.750000  1
  Re  Re5  1  0.171789  0.828211  0.750000  1
  Re  Re6  1  0.334908  0.171401  0.250000  1
  Re  Re7  1  0.828599  0.665092  0.250000  1
  Re  Re8  1  0.659672  0.831830  0.750000  1
  Ru  Ru9  1  0.006033  0.993967  0.001486  1
  Ru  Ru10  1  0.823208  0.176792  0.250000  1
  Ru  Ru11  1  0.006033  0.993967  0.498514  1
