# generated using pymatgen
data_La2MoN3
_symmetry_space_group_name_H-M   'P 1'
_cell_length_a   6.26184006
_cell_length_b   6.26184046
_cell_length_c   12.43077197
_cell_angle_alpha   87.59470323
_cell_angle_beta   87.59470417
_cell_angle_gamma   127.75908197
_symmetry_Int_Tables_number   1
_chemical_formula_structural   La2MoN3
_chemical_formula_sum   'La8 Mo4 N12'
_cell_volume   383.59465023
_cell_formula_units_Z   4
loop_
 _symmetry_equiv_pos_site_id
 _symmetry_equiv_pos_as_xyz
  1  'x, y, z'
loop_
 _atom_site_type_symbol
 _atom_site_label
 _atom_site_symmetry_multiplicity
 _atom_site_fract_x
 _atom_site_fract_y
 _atom_site_fract_z
 _atom_site_occupancy
  La  La0  1  0.981849  0.582127  0.857729  1
  La  La1  1  0.417873  0.018151  0.642271  1
  La  La2  1  0.662002  0.880009  0.926243  1
  La  La3  1  0.119991  0.337998  0.573757  1
  La  La4  1  0.018151  0.417873  0.142271  1
  La  La5  1  0.880009  0.662002  0.426243  1
  La  La6  1  0.582127  0.981849  0.357729  1
  La  La7  1  0.337998  0.119991  0.073757  1
  Mo  Mo8  1  0.712569  0.701539  0.674116  1
  Mo  Mo9  1  0.298461  0.287431  0.825884  1
  Mo  Mo10  1  0.701539  0.712569  0.174116  1
  Mo  Mo11  1  0.287431  0.298461  0.325884  1
  N  N12  1  0.151318  0.341104  0.958120  1
  N  N13  1  0.993573  0.006427  0.250000  1
  N  N14  1  0.006427  0.993573  0.750000  1
  N  N15  1  0.367545  0.632455  0.750000  1
  N  N16  1  0.632455  0.367545  0.250000  1
  N  N17  1  0.658896  0.848682  0.541880  1
  N  N18  1  0.848682  0.658896  0.041880  1
  N  N19  1  0.130414  0.475904  0.373562  1
  N  N20  1  0.475904  0.130414  0.873562  1
  N  N21  1  0.869586  0.524096  0.626438  1
  N  N22  1  0.341104  0.151318  0.458120  1
  N  N23  1  0.524096  0.869586  0.126438  1
