# generated using pymatgen
data_RbNi2(Sb6Os)2
_symmetry_space_group_name_H-M   'P 1'
_cell_length_a   8.12121191
_cell_length_b   8.13758485
_cell_length_c   8.13758535
_cell_angle_alpha   109.45558060
_cell_angle_beta   109.50955196
_cell_angle_gamma   109.53025707
_symmetry_Int_Tables_number   1
_chemical_formula_structural   RbNi2(Sb6Os)2
_chemical_formula_sum   'Rb1 Ni2 Sb12 Os2'
_cell_volume   413.57194881
_cell_formula_units_Z   1
loop_
 _symmetry_equiv_pos_site_id
 _symmetry_equiv_pos_as_xyz
  1  'x, y, z'
loop_
 _atom_site_type_symbol
 _atom_site_label
 _atom_site_symmetry_multiplicity
 _atom_site_fract_x
 _atom_site_fract_y
 _atom_site_fract_z
 _atom_site_occupancy
  Rb  Rb0  1  0.000000  0.000000  0.000000  1
  Ni  Ni1  1  0.000000  0.000000  0.500000  1
  Ni  Ni2  1  0.000000  0.500000  0.000000  1
  Sb  Sb3  1  0.339745  0.182307  0.839665  1
  Sb  Sb4  1  0.660255  0.817693  0.160335  1
  Sb  Sb5  1  0.660255  0.499917  0.842561  1
  Sb  Sb6  1  0.339745  0.500083  0.157439  1
  Sb  Sb7  1  0.181626  0.840312  0.341314  1
  Sb  Sb8  1  0.818374  0.159688  0.658686  1
  Sb  Sb9  1  0.501212  0.842983  0.658231  1
  Sb  Sb10  1  0.498788  0.157017  0.341769  1
  Sb  Sb11  1  0.843238  0.343493  0.182908  1
  Sb  Sb12  1  0.156762  0.656507  0.817092  1
  Sb  Sb13  1  0.843238  0.660330  0.499742  1
  Sb  Sb14  1  0.156762  0.339670  0.500258  1
  Os  Os15  1  0.500000  0.000000  0.000000  1
  Os  Os16  1  0.500000  0.500000  0.500000  1
