# generated using pymatgen
data_SmAg3(TeO4)4
_symmetry_space_group_name_H-M   'P 1'
_cell_length_a   5.05554735
_cell_length_b   5.17003241
_cell_length_c   12.95816300
_cell_angle_alpha   90.00000000
_cell_angle_beta   90.00000000
_cell_angle_gamma   88.66028881
_symmetry_Int_Tables_number   1
_chemical_formula_structural   SmAg3(TeO4)4
_chemical_formula_sum   'Sm1 Ag3 Te4 O16'
_cell_volume   338.59937635
_cell_formula_units_Z   1
loop_
 _symmetry_equiv_pos_site_id
 _symmetry_equiv_pos_as_xyz
  1  'x, y, z'
loop_
 _atom_site_type_symbol
 _atom_site_label
 _atom_site_symmetry_multiplicity
 _atom_site_fract_x
 _atom_site_fract_y
 _atom_site_fract_z
 _atom_site_occupancy
  Sm  Sm0  1  0.750000  0.000000  0.674127  1
  Ag  Ag1  1  0.250000  0.500000  0.834942  1
  Ag  Ag2  1  0.250000  0.000000  0.326980  1
  Ag  Ag3  1  0.750000  0.500000  0.166954  1
  Te  Te4  1  0.750000  0.500000  0.420937  1
  Te  Te5  1  0.250000  0.000000  0.075232  1
  Te  Te6  1  0.250000  0.500000  0.567859  1
  Te  Te7  1  0.750000  0.000000  0.933756  1
  O  O8  1  0.117539  0.270482  0.667109  1
  O  O9  1  0.605659  0.211180  0.825652  1
  O  O10  1  0.894341  0.788820  0.825652  1
  O  O11  1  0.382461  0.729518  0.667109  1
  O  O12  1  0.898103  0.720403  0.322561  1
  O  O13  1  0.405391  0.783399  0.179443  1
  O  O14  1  0.094609  0.216601  0.179443  1
  O  O15  1  0.601897  0.279597  0.322561  1
  O  O16  1  0.578060  0.291987  0.543863  1
  O  O17  1  0.063432  0.209163  0.960763  1
  O  O18  1  0.436568  0.790837  0.960763  1
  O  O19  1  0.921940  0.708013  0.543863  1
  O  O20  1  0.427104  0.710294  0.455278  1
  O  O21  1  0.937182  0.785870  0.044937  1
  O  O22  1  0.562818  0.214130  0.044937  1
  O  O23  1  0.072896  0.289706  0.455278  1
