# generated using pymatgen
data_Ce10CuGeBi6
_symmetry_space_group_name_H-M   'P 1'
_cell_length_a   6.51751401
_cell_length_b   9.61435113
_cell_length_c   9.61666803
_cell_angle_alpha   119.99204268
_cell_angle_beta   90.00131049
_cell_angle_gamma   89.99737988
_symmetry_Int_Tables_number   1
_chemical_formula_structural   Ce10CuGeBi6
_chemical_formula_sum   'Ce10 Cu1 Ge1 Bi6'
_cell_volume   521.90568229
_cell_formula_units_Z   1
loop_
 _symmetry_equiv_pos_site_id
 _symmetry_equiv_pos_as_xyz
  1  'x, y, z'
loop_
 _atom_site_type_symbol
 _atom_site_label
 _atom_site_symmetry_multiplicity
 _atom_site_fract_x
 _atom_site_fract_y
 _atom_site_fract_z
 _atom_site_occupancy
  Ce  Ce0  1  0.499993  0.333381  0.666738  1
  Ce  Ce1  1  0.499993  0.666644  0.333262  1
  Ce  Ce2  1  0.000003  0.666647  0.333286  1
  Ce  Ce3  1  0.000003  0.333361  0.666714  1
  Ce  Ce4  1  0.749643  0.257057  0.000000  1
  Ce  Ce5  1  0.749678  0.742866  0.743028  1
  Ce  Ce6  1  0.749678  0.999838  0.256972  1
  Ce  Ce7  1  0.250272  0.742996  0.000000  1
  Ce  Ce8  1  0.250354  0.257149  0.257014  1
  Ce  Ce9  1  0.250354  0.000135  0.742986  1
  Cu  Cu10  1  0.999967  0.999981  0.000000  1
  Ge  Ge11  1  0.499996  0.999984  0.000000  1
  Bi  Bi12  1  0.750029  0.615777  0.000000  1
  Bi  Bi13  1  0.750039  0.384139  0.384177  1
  Bi  Bi14  1  0.750039  0.999964  0.615823  1
  Bi  Bi15  1  0.249986  0.384220  0.000000  1
  Bi  Bi16  1  0.249988  0.615850  0.615836  1
  Bi  Bi17  1  0.249988  0.000013  0.384164  1
