# generated using pymatgen
data_Np(AgTe)3
_symmetry_space_group_name_H-M   'P 1'
_cell_length_a   7.24759700
_cell_length_b   8.32295700
_cell_length_c   13.83228400
_cell_angle_alpha   90.00000000
_cell_angle_beta   90.00000000
_cell_angle_gamma   90.00000000
_symmetry_Int_Tables_number   1
_chemical_formula_structural   Np(AgTe)3
_chemical_formula_sum   'Np4 Ag12 Te12'
_cell_volume   834.38326425
_cell_formula_units_Z   4
loop_
 _symmetry_equiv_pos_site_id
 _symmetry_equiv_pos_as_xyz
  1  'x, y, z'
loop_
 _atom_site_type_symbol
 _atom_site_label
 _atom_site_symmetry_multiplicity
 _atom_site_fract_x
 _atom_site_fract_y
 _atom_site_fract_z
 _atom_site_occupancy
  Np  Np0  1  0.243340  0.749313  0.832251  1
  Np  Np1  1  0.743340  0.250687  0.332251  1
  Np  Np2  1  0.743340  0.250687  0.667749  1
  Np  Np3  1  0.243340  0.749313  0.167749  1
  Ag  Ag4  1  0.382057  0.123125  0.833810  1
  Ag  Ag5  1  0.628666  0.604732  0.000000  1
  Ag  Ag6  1  0.882057  0.876875  0.666190  1
  Ag  Ag7  1  0.605190  0.625858  0.668871  1
  Ag  Ag8  1  0.864606  0.890139  0.000000  1
  Ag  Ag9  1  0.128666  0.395268  0.500000  1
  Ag  Ag10  1  0.605190  0.625858  0.331129  1
  Ag  Ag11  1  0.364606  0.109861  0.500000  1
  Ag  Ag12  1  0.882057  0.876875  0.333810  1
  Ag  Ag13  1  0.382057  0.123125  0.166190  1
  Ag  Ag14  1  0.105190  0.374142  0.831129  1
  Ag  Ag15  1  0.105190  0.374142  0.168871  1
  Te  Te16  1  0.008556  0.560595  0.332019  1
  Te  Te17  1  0.508556  0.439405  0.167981  1
  Te  Te18  1  0.977778  0.058698  0.168252  1
  Te  Te19  1  0.008556  0.560595  0.667981  1
  Te  Te20  1  0.023147  0.573716  0.000000  1
  Te  Te21  1  0.508556  0.439405  0.832019  1
  Te  Te22  1  0.477778  0.941302  0.331748  1
  Te  Te23  1  0.477778  0.941302  0.668252  1
  Te  Te24  1  0.967742  0.078677  0.500000  1
  Te  Te25  1  0.467742  0.921323  0.000000  1
  Te  Te26  1  0.977778  0.058698  0.831748  1
  Te  Te27  1  0.523147  0.426284  0.500000  1
