# generated using pymatgen
data_Y4Zr3AlPt4
_symmetry_space_group_name_H-M   'P 1'
_cell_length_a   4.59524100
_cell_length_b   7.13981490
_cell_length_c   8.19321985
_cell_angle_alpha   87.37466623
_cell_angle_beta   90.00000000
_cell_angle_gamma   90.00000000
_symmetry_Int_Tables_number   1
_chemical_formula_structural   Y4Zr3AlPt4
_chemical_formula_sum   'Y4 Zr3 Al1 Pt4'
_cell_volume   268.53060255
_cell_formula_units_Z   1
loop_
 _symmetry_equiv_pos_site_id
 _symmetry_equiv_pos_as_xyz
  1  'x, y, z'
loop_
 _atom_site_type_symbol
 _atom_site_label
 _atom_site_symmetry_multiplicity
 _atom_site_fract_x
 _atom_site_fract_y
 _atom_site_fract_z
 _atom_site_occupancy
  Y  Y0  1  0.250000  0.036820  0.671941  1
  Y  Y1  1  0.250000  0.516716  0.814319  1
  Y  Y2  1  0.750000  0.988904  0.336288  1
  Y  Y3  1  0.750000  0.473719  0.187449  1
  Zr  Zr4  1  0.250000  0.141744  0.071919  1
  Zr  Zr5  1  0.250000  0.639591  0.434058  1
  Zr  Zr6  1  0.750000  0.854949  0.922134  1
  Al  Al7  1  0.750000  0.357916  0.573637  1
  Pt  Pt8  1  0.250000  0.267264  0.385658  1
  Pt  Pt9  1  0.250000  0.766929  0.101383  1
  Pt  Pt10  1  0.750000  0.724532  0.609958  1
  Pt  Pt11  1  0.750000  0.230917  0.891255  1
