# generated using pymatgen
data_SmTiNb5Sn6
_symmetry_space_group_name_H-M   'P 1'
_cell_length_a   5.81753800
_cell_length_b   5.80729310
_cell_length_c   9.65222300
_cell_angle_alpha   90.00001581
_cell_angle_beta   89.99997828
_cell_angle_gamma   120.05836320
_symmetry_Int_Tables_number   1
_chemical_formula_structural   SmTiNb5Sn6
_chemical_formula_sum   'Sm1 Ti1 Nb5 Sn6'
_cell_volume   282.23784107
_cell_formula_units_Z   1
loop_
 _symmetry_equiv_pos_site_id
 _symmetry_equiv_pos_as_xyz
  1  'x, y, z'
loop_
 _atom_site_type_symbol
 _atom_site_label
 _atom_site_symmetry_multiplicity
 _atom_site_fract_x
 _atom_site_fract_y
 _atom_site_fract_z
 _atom_site_occupancy
  Sm  Sm0  1  0.999991  0.000000  0.999428  1
  Ti  Ti1  1  0.499980  0.000000  0.249301  1
  Nb  Nb2  1  0.499981  0.500002  0.249764  1
  Nb  Nb3  1  0.999981  0.499998  0.249764  1
  Nb  Nb4  1  0.499984  0.000000  0.749462  1
  Nb  Nb5  1  0.499978  0.499997  0.751022  1
  Nb  Nb6  1  0.999983  0.500003  0.751022  1
  Sn  Sn7  1  0.333679  0.667380  0.000981  1
  Sn  Sn8  1  0.666300  0.332620  0.000981  1
  Sn  Sn9  1  0.333864  0.667759  0.499382  1
  Sn  Sn10  1  0.666105  0.332241  0.499382  1
  Sn  Sn11  1  0.999987  0.000000  0.331849  1
  Sn  Sn12  1  0.999987  0.000000  0.667663  1
