# generated using pymatgen
data_TbNd3(ScPt)4
_symmetry_space_group_name_H-M   'P 1'
_cell_length_a   4.69135200
_cell_length_b   7.10846598
_cell_length_c   8.52647848
_cell_angle_alpha   90.15205960
_cell_angle_beta   90.00000000
_cell_angle_gamma   90.00000000
_symmetry_Int_Tables_number   1
_chemical_formula_structural   TbNd3(ScPt)4
_chemical_formula_sum   'Tb1 Nd3 Sc4 Pt4'
_cell_volume   284.34269834
_cell_formula_units_Z   1
loop_
 _symmetry_equiv_pos_site_id
 _symmetry_equiv_pos_as_xyz
  1  'x, y, z'
loop_
 _atom_site_type_symbol
 _atom_site_label
 _atom_site_symmetry_multiplicity
 _atom_site_fract_x
 _atom_site_fract_y
 _atom_site_fract_z
 _atom_site_occupancy
  Tb  Tb0  1  0.750000  0.018706  0.679102  1
  Nd  Nd1  1  0.750000  0.516766  0.819198  1
  Nd  Nd2  1  0.250000  0.983497  0.322677  1
  Nd  Nd3  1  0.250000  0.483409  0.178098  1
  Sc  Sc4  1  0.750000  0.639423  0.428901  1
  Sc  Sc5  1  0.250000  0.359452  0.573826  1
  Sc  Sc6  1  0.750000  0.138978  0.070959  1
  Sc  Sc7  1  0.250000  0.860601  0.923313  1
  Pt  Pt8  1  0.250000  0.740080  0.597022  1
  Pt  Pt9  1  0.250000  0.234465  0.902415  1
  Pt  Pt10  1  0.750000  0.763523  0.093209  1
  Pt  Pt11  1  0.750000  0.261101  0.411282  1
