# generated using pymatgen
data_Dy2Ga3Tc14C3
_symmetry_space_group_name_H-M   'P 1'
_cell_length_a   6.94720750
_cell_length_b   6.94720704
_cell_length_c   6.94720745
_cell_angle_alpha   82.25055457
_cell_angle_beta   82.25054451
_cell_angle_gamma   82.25054979
_symmetry_Int_Tables_number   1
_chemical_formula_structural   Dy2Ga3Tc14C3
_chemical_formula_sum   'Dy2 Ga3 Tc14 C3'
_cell_volume   326.86929241
_cell_formula_units_Z   1
loop_
 _symmetry_equiv_pos_site_id
 _symmetry_equiv_pos_as_xyz
  1  'x, y, z'
loop_
 _atom_site_type_symbol
 _atom_site_label
 _atom_site_symmetry_multiplicity
 _atom_site_fract_x
 _atom_site_fract_y
 _atom_site_fract_z
 _atom_site_occupancy
  Dy  Dy0  1  0.657379  0.657379  0.657379  1
  Dy  Dy1  1  0.342621  0.342621  0.342621  1
  Ga  Ga2  1  0.000000  0.000000  0.500000  1
  Ga  Ga3  1  0.500000  0.000000  0.000000  1
  Ga  Ga4  1  0.000000  0.500000  0.000000  1
  Tc  Tc5  1  0.723074  0.276926  0.000000  1
  Tc  Tc6  1  0.000000  0.723074  0.276926  1
  Tc  Tc7  1  0.276926  0.000000  0.723074  1
  Tc  Tc8  1  0.000000  0.276926  0.723074  1
  Tc  Tc9  1  0.723074  0.000000  0.276926  1
  Tc  Tc10  1  0.276926  0.723074  0.000000  1
  Tc  Tc11  1  0.352128  0.352128  0.848569  1
  Tc  Tc12  1  0.848569  0.352128  0.352128  1
  Tc  Tc13  1  0.352128  0.848569  0.352128  1
  Tc  Tc14  1  0.647872  0.647872  0.151431  1
  Tc  Tc15  1  0.151431  0.647872  0.647872  1
  Tc  Tc16  1  0.647872  0.151431  0.647872  1
  Tc  Tc17  1  0.904241  0.904241  0.904241  1
  Tc  Tc18  1  0.095759  0.095759  0.095759  1
  C  C19  1  0.500000  0.500000  0.000000  1
  C  C20  1  0.000000  0.500000  0.500000  1
  C  C21  1  0.500000  0.000000  0.500000  1
