# generated using pymatgen
data_Y2Ho2TmSn4
_symmetry_space_group_name_H-M   'P 1'
_cell_length_a   8.01714100
_cell_length_b   8.16187400
_cell_length_c   15.43889000
_cell_angle_alpha   90.00000000
_cell_angle_beta   90.00000000
_cell_angle_gamma   90.00000000
_symmetry_Int_Tables_number   1
_chemical_formula_structural   Y2Ho2TmSn4
_chemical_formula_sum   'Y8 Ho8 Tm4 Sn16'
_cell_volume   1010.24214116
_cell_formula_units_Z   4
loop_
 _symmetry_equiv_pos_site_id
 _symmetry_equiv_pos_as_xyz
  1  'x, y, z'
loop_
 _atom_site_type_symbol
 _atom_site_label
 _atom_site_symmetry_multiplicity
 _atom_site_fract_x
 _atom_site_fract_y
 _atom_site_fract_z
 _atom_site_occupancy
  Y  Y0  1  0.520245  0.321004  0.902714  1
  Y  Y1  1  0.020245  0.178996  0.597286  1
  Y  Y2  1  0.479755  0.678996  0.402714  1
  Y  Y3  1  0.979755  0.821004  0.097286  1
  Y  Y4  1  0.479755  0.678996  0.097286  1
  Y  Y5  1  0.979755  0.821004  0.402714  1
  Y  Y6  1  0.520245  0.321004  0.597286  1
  Y  Y7  1  0.020245  0.178996  0.902714  1
  Ho  Ho8  1  0.366618  0.836840  0.877461  1
  Ho  Ho9  1  0.866618  0.663160  0.622539  1
  Ho  Ho10  1  0.633382  0.163160  0.377461  1
  Ho  Ho11  1  0.133382  0.336840  0.122539  1
  Ho  Ho12  1  0.633382  0.163160  0.122539  1
  Ho  Ho13  1  0.133382  0.336840  0.377461  1
  Ho  Ho14  1  0.366618  0.836840  0.622539  1
  Ho  Ho15  1  0.866618  0.663160  0.877461  1
  Tm  Tm16  1  0.198205  0.503334  0.750000  1
  Tm  Tm17  1  0.698205  0.996666  0.750000  1
  Tm  Tm18  1  0.801795  0.496666  0.250000  1
  Tm  Tm19  1  0.301795  0.003334  0.250000  1
  Sn  Sn20  1  0.294804  0.037502  0.041967  1
  Sn  Sn21  1  0.794804  0.462498  0.458033  1
  Sn  Sn22  1  0.705196  0.962498  0.541967  1
  Sn  Sn23  1  0.205196  0.537502  0.958033  1
  Sn  Sn24  1  0.705196  0.962498  0.958033  1
  Sn  Sn25  1  0.205196  0.537502  0.541967  1
  Sn  Sn26  1  0.294804  0.037502  0.458033  1
  Sn  Sn27  1  0.794804  0.462498  0.041967  1
  Sn  Sn28  1  0.563958  0.619863  0.750000  1
  Sn  Sn29  1  0.063958  0.880137  0.750000  1
  Sn  Sn30  1  0.436042  0.380137  0.250000  1
  Sn  Sn31  1  0.936042  0.119863  0.250000  1
  Sn  Sn32  1  0.329642  0.148056  0.750000  1
  Sn  Sn33  1  0.829642  0.351944  0.750000  1
  Sn  Sn34  1  0.670358  0.851944  0.250000  1
  Sn  Sn35  1  0.170358  0.648056  0.250000  1
