# generated using pymatgen
data_Ca4ZnSiPt4
_symmetry_space_group_name_H-M   'P 1'
_cell_length_a   5.65724092
_cell_length_b   5.65724015
_cell_length_c   7.78212700
_cell_angle_alpha   79.62287049
_cell_angle_beta   79.62287191
_cell_angle_gamma   61.04961277
_symmetry_Int_Tables_number   1
_chemical_formula_structural   Ca4ZnSiPt4
_chemical_formula_sum   'Ca4 Zn1 Si1 Pt4'
_cell_volume   213.12105571
_cell_formula_units_Z   1
loop_
 _symmetry_equiv_pos_site_id
 _symmetry_equiv_pos_as_xyz
  1  'x, y, z'
loop_
 _atom_site_type_symbol
 _atom_site_label
 _atom_site_symmetry_multiplicity
 _atom_site_fract_x
 _atom_site_fract_y
 _atom_site_fract_z
 _atom_site_occupancy
  Ca  Ca0  1  0.779060  0.520166  0.348690  1
  Ca  Ca1  1  0.479834  0.220940  0.151310  1
  Ca  Ca2  1  0.215453  0.480580  0.650045  1
  Ca  Ca3  1  0.519420  0.784547  0.849955  1
  Zn  Zn4  1  0.873910  0.126090  0.750000  1
  Si  Si5  1  0.110859  0.889141  0.250000  1
  Pt  Pt6  1  0.011230  0.735099  0.012303  1
  Pt  Pt7  1  0.264901  0.988770  0.487697  1
  Pt  Pt8  1  0.002446  0.257112  0.006897  1
  Pt  Pt9  1  0.742888  0.997554  0.493103  1
