# generated using pymatgen
data_Nd6Dy10AlCd3Ir4
_symmetry_space_group_name_H-M   'P 1'
_cell_length_a   9.70762819
_cell_length_b   9.70762760
_cell_length_c   9.70762844
_cell_angle_alpha   60.16415335
_cell_angle_beta   60.16414920
_cell_angle_gamma   60.16415475
_symmetry_Int_Tables_number   1
_chemical_formula_structural   Nd6Dy10AlCd3Ir4
_chemical_formula_sum   'Nd6 Dy10 Al1 Cd3 Ir4'
_cell_volume   649.28601426
_cell_formula_units_Z   1
loop_
 _symmetry_equiv_pos_site_id
 _symmetry_equiv_pos_as_xyz
  1  'x, y, z'
loop_
 _atom_site_type_symbol
 _atom_site_label
 _atom_site_symmetry_multiplicity
 _atom_site_fract_x
 _atom_site_fract_y
 _atom_site_fract_z
 _atom_site_occupancy
  Nd  Nd0  1  0.938676  0.560015  0.560015  1
  Nd  Nd1  1  0.558392  0.941436  0.941436  1
  Nd  Nd2  1  0.560015  0.938676  0.560015  1
  Nd  Nd3  1  0.941436  0.558392  0.941436  1
  Nd  Nd4  1  0.560015  0.560015  0.938676  1
  Nd  Nd5  1  0.941436  0.941436  0.558392  1
  Dy  Dy6  1  0.347488  0.347488  0.347488  1
  Dy  Dy7  1  0.350023  0.350023  0.953145  1
  Dy  Dy8  1  0.350023  0.953145  0.350023  1
  Dy  Dy9  1  0.953145  0.350023  0.350023  1
  Dy  Dy10  1  0.811632  0.187580  0.187580  1
  Dy  Dy11  1  0.188795  0.809998  0.809998  1
  Dy  Dy12  1  0.187580  0.811632  0.187580  1
  Dy  Dy13  1  0.809998  0.188795  0.809998  1
  Dy  Dy14  1  0.187580  0.187580  0.811632  1
  Dy  Dy15  1  0.809998  0.809998  0.188795  1
  Al  Al16  1  0.578835  0.578835  0.578835  1
  Cd  Cd17  1  0.579685  0.579685  0.264376  1
  Cd  Cd18  1  0.579685  0.264376  0.579685  1
  Cd  Cd19  1  0.264376  0.579685  0.579685  1
  Ir  Ir20  1  0.141953  0.141953  0.141953  1
  Ir  Ir21  1  0.141751  0.141751  0.575731  1
  Ir  Ir22  1  0.141751  0.575731  0.141751  1
  Ir  Ir23  1  0.575731  0.141751  0.141751  1
