# generated using pymatgen
data_Y8Sn(PdPt7)3
_symmetry_space_group_name_H-M   'P 1'
_cell_length_a   8.43532300
_cell_length_b   8.43798800
_cell_length_c   8.44357800
_cell_angle_alpha   90.00000000
_cell_angle_beta   90.00000000
_cell_angle_gamma   90.00000000
_symmetry_Int_Tables_number   1
_chemical_formula_structural   Y8Sn(PdPt7)3
_chemical_formula_sum   'Y8 Sn1 Pd3 Pt21'
_cell_volume   600.98985373
_cell_formula_units_Z   1
loop_
 _symmetry_equiv_pos_site_id
 _symmetry_equiv_pos_as_xyz
  1  'x, y, z'
loop_
 _atom_site_type_symbol
 _atom_site_label
 _atom_site_symmetry_multiplicity
 _atom_site_fract_x
 _atom_site_fract_y
 _atom_site_fract_z
 _atom_site_occupancy
  Y  Y0  1  0.250898  0.251032  0.251105  1
  Y  Y1  1  0.749317  0.749049  0.748947  1
  Y  Y2  1  0.749317  0.749049  0.251053  1
  Y  Y3  1  0.749102  0.251032  0.748895  1
  Y  Y4  1  0.250898  0.251032  0.748895  1
  Y  Y5  1  0.250683  0.749049  0.251053  1
  Y  Y6  1  0.250683  0.749049  0.748947  1
  Y  Y7  1  0.749102  0.251032  0.251105  1
  Sn  Sn8  1  0.000000  0.000378  0.000000  1
  Pd  Pd9  1  0.500000  0.743979  0.500000  1
  Pd  Pd10  1  0.500000  0.499937  0.255787  1
  Pd  Pd11  1  0.500000  0.499937  0.744213  1
  Pt  Pt12  1  0.267775  0.500033  0.000000  1
  Pt  Pt13  1  0.732225  0.500033  0.000000  1
  Pt  Pt14  1  0.000000  0.266839  0.500000  1
  Pt  Pt15  1  0.500000  0.267529  0.000000  1
  Pt  Pt16  1  0.000000  0.732538  0.500000  1
  Pt  Pt17  1  0.500000  0.732223  0.000000  1
  Pt  Pt18  1  0.500000  0.000132  0.267246  1
  Pt  Pt19  1  0.267526  0.000324  0.500000  1
  Pt  Pt20  1  0.500000  0.000132  0.732754  1
  Pt  Pt21  1  0.732474  0.000324  0.500000  1
  Pt  Pt22  1  0.000000  0.499998  0.267063  1
  Pt  Pt23  1  0.000000  0.499998  0.732937  1
  Pt  Pt24  1  0.255726  0.499537  0.500000  1
  Pt  Pt25  1  0.744274  0.499537  0.500000  1
  Pt  Pt26  1  0.500000  0.255889  0.500000  1
  Pt  Pt27  1  0.314264  0.999928  0.000000  1
  Pt  Pt28  1  0.685736  0.999928  0.000000  1
  Pt  Pt29  1  0.000000  0.314279  0.000000  1
  Pt  Pt30  1  0.000000  0.686416  0.000000  1
  Pt  Pt31  1  0.000000  0.999914  0.313359  1
  Pt  Pt32  1  0.000000  0.999914  0.686641  1
