# generated using pymatgen
data_Y5(ErTe4)3
_symmetry_space_group_name_H-M   'P 1'
_cell_length_a   14.41434273
_cell_length_b   13.74317680
_cell_length_c   7.54782858
_cell_angle_alpha   79.42573954
_cell_angle_beta   69.59412913
_cell_angle_gamma   30.96568786
_symmetry_Int_Tables_number   1
_chemical_formula_structural   Y5(ErTe4)3
_chemical_formula_sum   'Y5 Er3 Te12'
_cell_volume   700.07389473
_cell_formula_units_Z   1
loop_
 _symmetry_equiv_pos_site_id
 _symmetry_equiv_pos_as_xyz
  1  'x, y, z'
loop_
 _atom_site_type_symbol
 _atom_site_label
 _atom_site_symmetry_multiplicity
 _atom_site_fract_x
 _atom_site_fract_y
 _atom_site_fract_z
 _atom_site_occupancy
  Y  Y0  1  0.000461  0.000461  0.499539  1
  Y  Y1  1  0.499465  0.499465  0.000535  1
  Y  Y2  1  0.249480  0.249480  0.750520  1
  Y  Y3  1  0.750524  0.750524  0.249476  1
  Y  Y4  1  0.667310  0.667310  0.832690  1
  Er  Er5  1  0.832624  0.832624  0.667376  1
  Er  Er6  1  0.582571  0.582571  0.417429  1
  Er  Er7  1  0.417358  0.417358  0.582642  1
  Te  Te8  1  0.668154  0.165265  0.829925  1
  Te  Te9  1  0.335468  0.830500  0.166539  1
  Te  Te10  1  0.830500  0.335468  0.667493  1
  Te  Te11  1  0.165265  0.668154  0.336657  1
  Te  Te12  1  0.581823  0.084751  0.420121  1
  Te  Te13  1  0.914392  0.419072  0.085840  1
  Te  Te14  1  0.419072  0.914392  0.580696  1
  Te  Te15  1  0.084751  0.581823  0.913305  1
  Te  Te16  1  0.749990  0.250031  0.249825  1
  Te  Te17  1  0.250031  0.749990  0.750154  1
  Te  Te18  1  0.499360  0.001400  0.000747  1
  Te  Te19  1  0.001400  0.499360  0.498492  1
