# generated using pymatgen
data_ScTa3(PO4)6
_symmetry_space_group_name_H-M   'P 1'
_cell_length_a   8.79412602
_cell_length_b   9.06470320
_cell_length_c   8.79411500
_cell_angle_alpha   89.99714781
_cell_angle_beta   60.00011023
_cell_angle_gamma   119.01553618
_symmetry_Int_Tables_number   1
_chemical_formula_structural   ScTa3(PO4)6
_chemical_formula_sum   'Sc1 Ta3 P6 O24'
_cell_volume   502.94271039
_cell_formula_units_Z   1
loop_
 _symmetry_equiv_pos_site_id
 _symmetry_equiv_pos_as_xyz
  1  'x, y, z'
loop_
 _atom_site_type_symbol
 _atom_site_label
 _atom_site_symmetry_multiplicity
 _atom_site_fract_x
 _atom_site_fract_y
 _atom_site_fract_z
 _atom_site_occupancy
  Sc  Sc0  1  0.719250  0.078818  0.640296  1
  Ta  Ta1  1  0.284074  0.925990  0.357955  1
  Ta  Ta2  1  0.284625  0.426813  0.857683  1
  Ta  Ta3  1  0.715273  0.572837  0.142311  1
  P  P4  1  0.784552  0.752611  0.748814  1
  P  P5  1  0.493482  0.248848  0.535722  1
  P  P6  1  0.501639  0.752685  0.466527  1
  P  P7  1  0.219749  0.248949  0.244530  1
  P  P8  1  0.784690  0.248897  0.970729  1
  P  P9  1  0.219345  0.752650  0.031764  1
  O  O10  1  0.653593  0.914379  0.483008  1
  O  O11  1  0.002161  0.713452  0.086106  1
  O  O12  1  0.220915  0.583846  0.002723  1
  O  O13  1  0.225981  0.779286  0.204507  1
  O  O14  1  0.986758  0.275449  0.943579  1
  O  O15  1  0.787483  0.415919  0.011767  1
  O  O16  1  0.785659  0.231080  0.800826  1
  O  O17  1  0.799832  0.713630  0.911632  1
  O  O18  1  0.983871  0.779152  0.569434  1
  O  O19  1  0.644799  0.231280  0.554408  1
  O  O20  1  0.777556  0.914180  0.739128  1
  O  O21  1  0.586662  0.583704  0.776463  1
  O  O22  1  0.589172  0.083696  0.145636  1
  O  O23  1  0.616454  0.415801  0.371490  1
  O  O24  1  0.218974  0.275285  0.069676  1
  O  O25  1  0.345064  0.275332  0.711269  1
  O  O26  1  0.625433  0.713591  0.288517  1
  O  O27  1  0.348983  0.083529  0.505475  1
  O  O28  1  0.397439  0.914250  0.863194  1
  O  O29  1  0.360477  0.583897  0.636878  1
  O  O30  1  0.229477  0.083783  0.265289  1
  O  O31  1  0.427868  0.416068  0.200484  1
  O  O32  1  0.348736  0.779099  0.446571  1
  O  O33  1  0.032104  0.231220  0.413479  1
