# generated using pymatgen
data_Er3ZnCo9GeB4
_symmetry_space_group_name_H-M   'P 1'
_cell_length_a   5.10802400
_cell_length_b   5.10802439
_cell_length_c   9.54183900
_cell_angle_alpha   90.00000000
_cell_angle_beta   90.00000000
_cell_angle_gamma   119.99999746
_symmetry_Int_Tables_number   1
_chemical_formula_structural   Er3ZnCo9GeB4
_chemical_formula_sum   'Er3 Zn1 Co9 Ge1 B4'
_cell_volume   215.60986061
_cell_formula_units_Z   1
loop_
 _symmetry_equiv_pos_site_id
 _symmetry_equiv_pos_as_xyz
  1  'x, y, z'
loop_
 _atom_site_type_symbol
 _atom_site_label
 _atom_site_symmetry_multiplicity
 _atom_site_fract_x
 _atom_site_fract_y
 _atom_site_fract_z
 _atom_site_occupancy
  Er  Er0  1  0.000000  0.000000  0.000000  1
  Er  Er1  1  0.000000  0.000000  0.659554  1
  Er  Er2  1  0.000000  0.000000  0.340446  1
  Zn  Zn3  1  0.666667  0.333333  0.000000  1
  Co  Co4  1  0.500195  0.499805  0.500000  1
  Co  Co5  1  0.500195  0.000390  0.500000  1
  Co  Co6  1  0.999610  0.499805  0.500000  1
  Co  Co7  1  0.498854  0.501146  0.793544  1
  Co  Co8  1  0.498854  0.997708  0.793544  1
  Co  Co9  1  0.002292  0.501146  0.793544  1
  Co  Co10  1  0.498854  0.501146  0.206456  1
  Co  Co11  1  0.498854  0.997708  0.206456  1
  Co  Co12  1  0.002292  0.501146  0.206456  1
  Ge  Ge13  1  0.333333  0.666667  0.000000  1
  B  B14  1  0.666667  0.333333  0.651666  1
  B  B15  1  0.333333  0.666667  0.650163  1
  B  B16  1  0.333333  0.666667  0.349837  1
  B  B17  1  0.666667  0.333333  0.348334  1
