# generated using pymatgen
data_Y5Fe9Co7(P4Ru)3
_symmetry_space_group_name_H-M   'P 1'
_cell_length_a   12.02417000
_cell_length_b   12.02416978
_cell_length_c   3.71532500
_cell_angle_alpha   90.00000000
_cell_angle_beta   90.00000000
_cell_angle_gamma   119.99999511
_symmetry_Int_Tables_number   1
_chemical_formula_structural   Y5Fe9Co7(P4Ru)3
_chemical_formula_sum   'Y5 Fe9 Co7 P12 Ru3'
_cell_volume   465.19781957
_cell_formula_units_Z   1
loop_
 _symmetry_equiv_pos_site_id
 _symmetry_equiv_pos_as_xyz
  1  'x, y, z'
loop_
 _atom_site_type_symbol
 _atom_site_label
 _atom_site_symmetry_multiplicity
 _atom_site_fract_x
 _atom_site_fract_y
 _atom_site_fract_z
 _atom_site_occupancy
  Y  Y0  1  0.333333  0.666667  0.500000  1
  Y  Y1  1  0.666667  0.333333  0.500000  1
  Y  Y2  1  0.000970  0.186049  0.000000  1
  Y  Y3  1  0.813951  0.814921  0.000000  1
  Y  Y4  1  0.185079  0.999030  0.000000  1
  Fe  Fe5  1  0.623619  0.823324  0.500000  1
  Fe  Fe6  1  0.176676  0.800294  0.500000  1
  Fe  Fe7  1  0.199706  0.376381  0.500000  1
  Fe  Fe8  1  0.377174  0.195076  0.500000  1
  Fe  Fe9  1  0.817902  0.622826  0.500000  1
  Fe  Fe10  1  0.804924  0.182098  0.500000  1
  Fe  Fe11  1  0.517423  0.640953  0.000000  1
  Fe  Fe12  1  0.359047  0.876470  0.000000  1
  Fe  Fe13  1  0.123530  0.482577  0.000000  1
  Co  Co14  1  0.485732  0.124569  0.000000  1
  Co  Co15  1  0.638837  0.514268  0.000000  1
  Co  Co16  1  0.875431  0.361163  0.000000  1
  Co  Co17  1  0.998362  0.716225  0.000000  1
  Co  Co18  1  0.283775  0.282137  0.000000  1
  Co  Co19  1  0.717863  0.001638  0.000000  1
  Co  Co20  1  0.000000  0.000000  0.500000  1
  P  P21  1  0.004501  0.366326  0.500000  1
  P  P22  1  0.633674  0.638175  0.500000  1
  P  P23  1  0.361825  0.995499  0.500000  1
  P  P24  1  0.521800  0.832664  0.000000  1
  P  P25  1  0.167336  0.689136  0.000000  1
  P  P26  1  0.310864  0.478200  0.000000  1
  P  P27  1  0.476992  0.308511  0.000000  1
  P  P28  1  0.831518  0.523008  0.000000  1
  P  P29  1  0.691489  0.168482  0.000000  1
  P  P30  1  0.998742  0.816956  0.500000  1
  P  P31  1  0.183044  0.181786  0.500000  1
  P  P32  1  0.818214  0.001258  0.500000  1
  Ru  Ru33  1  0.997121  0.553264  0.500000  1
  Ru  Ru34  1  0.446736  0.443857  0.500000  1
  Ru  Ru35  1  0.556143  0.002879  0.500000  1
