# generated using pymatgen
data_Na2Sn2Ge2O7
_symmetry_space_group_name_H-M   'P 1'
_cell_length_a   5.57723002
_cell_length_b   5.57748711
_cell_length_c   7.63273905
_cell_angle_alpha   90.01507506
_cell_angle_beta   89.99515385
_cell_angle_gamma   119.99623964
_symmetry_Int_Tables_number   1
_chemical_formula_structural   Na2Sn2Ge2O7
_chemical_formula_sum   'Na2 Sn2 Ge2 O7'
_cell_volume   205.62912029
_cell_formula_units_Z   1
loop_
 _symmetry_equiv_pos_site_id
 _symmetry_equiv_pos_as_xyz
  1  'x, y, z'
loop_
 _atom_site_type_symbol
 _atom_site_label
 _atom_site_symmetry_multiplicity
 _atom_site_fract_x
 _atom_site_fract_y
 _atom_site_fract_z
 _atom_site_occupancy
  Na  Na0  1  0.333352  0.666682  0.066436  1
  Na  Na1  1  0.666648  0.333318  0.933564  1
  Sn  Sn2  1  0.666746  0.333421  0.366649  1
  Sn  Sn3  1  0.333254  0.666578  0.633351  1
  Ge  Ge4  1  0.000050  0.999961  0.263799  1
  Ge  Ge5  1  0.999949  0.000039  0.736200  1
  O  O6  1  0.739350  0.072816  0.194611  1
  O  O7  1  0.927230  0.666554  0.194580  1
  O  O8  1  0.333480  0.260645  0.194625  1
  O  O9  1  0.000000  0.999999  0.499999  1
  O  O10  1  0.666519  0.739355  0.805375  1
  O  O11  1  0.072769  0.333446  0.805421  1
  O  O12  1  0.260650  0.927184  0.805389  1
