# generated using pymatgen
data_DyLuMn4Fe8P7
_symmetry_space_group_name_H-M   'P 1'
_cell_length_a   9.04158300
_cell_length_b   9.15513606
_cell_length_c   3.59638300
_cell_angle_alpha   90.00000000
_cell_angle_beta   90.00000000
_cell_angle_gamma   120.19238483
_symmetry_Int_Tables_number   1
_chemical_formula_structural   DyLuMn4Fe8P7
_chemical_formula_sum   'Dy1 Lu1 Mn4 Fe8 P7'
_cell_volume   257.31236332
_cell_formula_units_Z   1
loop_
 _symmetry_equiv_pos_site_id
 _symmetry_equiv_pos_as_xyz
  1  'x, y, z'
loop_
 _atom_site_type_symbol
 _atom_site_label
 _atom_site_symmetry_multiplicity
 _atom_site_fract_x
 _atom_site_fract_y
 _atom_site_fract_z
 _atom_site_occupancy
  Dy  Dy0  1  0.331305  0.661305  0.500000  1
  Lu  Lu1  1  0.669525  0.340267  0.000000  1
  Mn  Mn2  1  0.610761  0.049365  0.500000  1
  Mn  Mn3  1  0.123529  0.892728  0.500000  1
  Mn  Mn4  1  0.102800  0.223724  0.500000  1
  Mn  Mn5  1  0.773245  0.877014  0.500000  1
  Fe  Fe6  1  0.377346  0.948445  0.000000  1
  Fe  Fe7  1  0.057036  0.426516  0.000000  1
  Fe  Fe8  1  0.574032  0.627178  0.000000  1
  Fe  Fe9  1  0.881678  0.728067  0.000000  1
  Fe  Fe10  1  0.272436  0.153498  0.000000  1
  Fe  Fe11  1  0.840844  0.120055  0.000000  1
  Fe  Fe12  1  0.948611  0.564959  0.500000  1
  Fe  Fe13  1  0.437159  0.386521  0.500000  1
  P  P14  1  0.109836  0.696933  0.000000  1
  P  P15  1  0.301065  0.410501  0.000000  1
  P  P16  1  0.588048  0.876757  0.000000  1
  P  P17  1  0.712134  0.592479  0.500000  1
  P  P18  1  0.406441  0.128253  0.500000  1
  P  P19  1  0.884685  0.295496  0.500000  1
  P  P20  1  0.997486  0.999941  0.000000  1
