# generated using pymatgen
data_AcFe3P12Rh
_symmetry_space_group_name_H-M   'P 1'
_cell_length_a   6.87345057
_cell_length_b   6.87345103
_cell_length_c   6.87345106
_cell_angle_alpha   109.53152600
_cell_angle_beta   109.53152429
_cell_angle_gamma   109.53152902
_symmetry_Int_Tables_number   1
_chemical_formula_structural   AcFe3P12Rh
_chemical_formula_sum   'Ac1 Fe3 P12 Rh1'
_cell_volume   249.41876856
_cell_formula_units_Z   1
loop_
 _symmetry_equiv_pos_site_id
 _symmetry_equiv_pos_as_xyz
  1  'x, y, z'
loop_
 _atom_site_type_symbol
 _atom_site_label
 _atom_site_symmetry_multiplicity
 _atom_site_fract_x
 _atom_site_fract_y
 _atom_site_fract_z
 _atom_site_occupancy
  Ac  Ac0  1  0.000000  0.000000  0.000000  1
  Fe  Fe1  1  0.000000  0.000000  0.500000  1
  Fe  Fe2  1  0.000000  0.500000  0.000000  1
  Fe  Fe3  1  0.500000  0.000000  0.000000  1
  P  P4  1  0.862896  0.652483  0.494945  1
  P  P5  1  0.847400  0.351923  0.200071  1
  P  P6  1  0.152600  0.648077  0.799929  1
  P  P7  1  0.347517  0.505055  0.137104  1
  P  P8  1  0.505055  0.137104  0.347517  1
  P  P9  1  0.137104  0.347517  0.505055  1
  P  P10  1  0.648077  0.799929  0.152600  1
  P  P11  1  0.200071  0.847400  0.351923  1
  P  P12  1  0.652483  0.494945  0.862896  1
  P  P13  1  0.799929  0.152600  0.648077  1
  P  P14  1  0.351923  0.200071  0.847400  1
  P  P15  1  0.494945  0.862896  0.652483  1
  Rh  Rh16  1  0.500000  0.500000  0.500000  1
