# generated using pymatgen
data_LaSc2NiIr8
_symmetry_space_group_name_H-M   'P 1'
_cell_length_a   5.15941100
_cell_length_b   8.84775700
_cell_length_c   8.84775700
_cell_angle_alpha   90.00000000
_cell_angle_beta   90.00000000
_cell_angle_gamma   90.00000000
_symmetry_Int_Tables_number   1
_chemical_formula_structural   LaSc2NiIr8
_chemical_formula_sum   'La2 Sc4 Ni2 Ir16'
_cell_volume   403.89315971
_cell_formula_units_Z   2
loop_
 _symmetry_equiv_pos_site_id
 _symmetry_equiv_pos_as_xyz
  1  'x, y, z'
loop_
 _atom_site_type_symbol
 _atom_site_label
 _atom_site_symmetry_multiplicity
 _atom_site_fract_x
 _atom_site_fract_y
 _atom_site_fract_z
 _atom_site_occupancy
  La  La0  1  0.000000  0.500000  0.500000  1
  La  La1  1  0.000000  0.000000  0.000000  1
  Sc  Sc2  1  0.000000  0.623648  0.123648  1
  Sc  Sc3  1  0.000000  0.376352  0.876352  1
  Sc  Sc4  1  0.000000  0.876352  0.623648  1
  Sc  Sc5  1  0.000000  0.123648  0.376352  1
  Ni  Ni6  1  0.500000  0.000000  0.500000  1
  Ni  Ni7  1  0.500000  0.500000  0.000000  1
  Ir  Ir8  1  0.757778  0.174800  0.674800  1
  Ir  Ir9  1  0.757778  0.825200  0.325200  1
  Ir  Ir10  1  0.757778  0.325200  0.174800  1
  Ir  Ir11  1  0.757778  0.674800  0.825200  1
  Ir  Ir12  1  0.242222  0.825200  0.325200  1
  Ir  Ir13  1  0.242222  0.174800  0.674800  1
  Ir  Ir14  1  0.242222  0.674800  0.825200  1
  Ir  Ir15  1  0.242222  0.325200  0.174800  1
  Ir  Ir16  1  0.500000  0.711006  0.563400  1
  Ir  Ir17  1  0.500000  0.288994  0.436600  1
  Ir  Ir18  1  0.500000  0.788994  0.063400  1
  Ir  Ir19  1  0.500000  0.211006  0.936600  1
  Ir  Ir20  1  0.500000  0.563400  0.288994  1
  Ir  Ir21  1  0.500000  0.436600  0.711006  1
  Ir  Ir22  1  0.500000  0.063400  0.211006  1
  Ir  Ir23  1  0.500000  0.936600  0.788994  1
