# generated using pymatgen
data_YbNp3O8
_symmetry_space_group_name_H-M   'P 1'
_cell_length_a   5.32244689
_cell_length_b   5.32138600
_cell_length_c   5.32322589
_cell_angle_alpha   90.00000000
_cell_angle_beta   90.06618874
_cell_angle_gamma   90.00000000
_symmetry_Int_Tables_number   1
_chemical_formula_structural   YbNp3O8
_chemical_formula_sum   'Yb1 Np3 O8'
_cell_volume   150.76853153
_cell_formula_units_Z   1
loop_
 _symmetry_equiv_pos_site_id
 _symmetry_equiv_pos_as_xyz
  1  'x, y, z'
loop_
 _atom_site_type_symbol
 _atom_site_label
 _atom_site_symmetry_multiplicity
 _atom_site_fract_x
 _atom_site_fract_y
 _atom_site_fract_z
 _atom_site_occupancy
  Yb  Yb0  1  0.000000  0.250032  0.250000  1
  Np  Np1  1  0.499999  0.749990  0.250000  1
  Np  Np2  1  0.499999  0.250007  0.750001  1
  Np  Np3  1  0.000000  0.750061  0.750001  1
  O  O4  1  0.256462  0.993662  0.994742  1
  O  O5  1  0.256562  0.506496  0.994783  1
  O  O6  1  0.743538  0.993662  0.505257  1
  O  O7  1  0.743438  0.506496  0.505216  1
  O  O8  1  0.256159  0.506157  0.507333  1
  O  O9  1  0.256034  0.993635  0.507346  1
  O  O10  1  0.743841  0.506157  0.992667  1
  O  O11  1  0.743966  0.993635  0.992654  1
