# generated using pymatgen
data_Tb4DyCo16(TcP4)3
_symmetry_space_group_name_H-M   'P 1'
_cell_length_a   12.04036001
_cell_length_b   12.04131006
_cell_length_c   3.71631400
_cell_angle_alpha   90.00000000
_cell_angle_beta   90.00000000
_cell_angle_gamma   120.00260684
_symmetry_Int_Tables_number   1
_chemical_formula_structural   Tb4DyCo16(TcP4)3
_chemical_formula_sum   'Tb4 Dy1 Co16 Tc3 P12'
_cell_volume   466.60010967
_cell_formula_units_Z   1
loop_
 _symmetry_equiv_pos_site_id
 _symmetry_equiv_pos_as_xyz
  1  'x, y, z'
loop_
 _atom_site_type_symbol
 _atom_site_label
 _atom_site_symmetry_multiplicity
 _atom_site_fract_x
 _atom_site_fract_y
 _atom_site_fract_z
 _atom_site_occupancy
  Tb  Tb0  1  0.666618  0.333288  0.000000  1
  Tb  Tb1  1  0.333382  0.666671  0.000000  1
  Tb  Tb2  1  0.185009  0.184959  0.500000  1
  Tb  Tb3  1  0.814991  0.999950  0.500000  1
  Dy  Dy4  1  0.000000  0.814963  0.500000  1
  Co  Co5  1  0.821077  0.197285  0.000000  1
  Co  Co6  1  0.803054  0.624100  0.000000  1
  Co  Co7  1  0.376056  0.178793  0.000000  1
  Co  Co8  1  0.196946  0.821046  0.000000  1
  Co  Co9  1  0.623944  0.802737  0.000000  1
  Co  Co10  1  0.178923  0.376208  0.000000  1
  Co  Co11  1  0.643102  0.125713  0.500000  1
  Co  Co12  1  0.874302  0.517587  0.500000  1
  Co  Co13  1  0.482554  0.356834  0.500000  1
  Co  Co14  1  0.125698  0.643286  0.500000  1
  Co  Co15  1  0.517446  0.874282  0.500000  1
  Co  Co16  1  0.356898  0.482612  0.500000  1
  Co  Co17  1  0.717809  0.717629  0.500000  1
  Co  Co18  1  0.282191  0.999820  0.500000  1
  Co  Co19  1  0.000000  0.282435  0.500000  1
  Co  Co20  1  0.000000  0.999760  0.000000  1
  Tc  Tc21  1  0.554495  0.554418  0.000000  1
  Tc  Tc22  1  0.445505  0.999923  0.000000  1
  Tc  Tc23  1  0.000000  0.445767  0.000000  1
  P  P24  1  0.363471  0.363498  0.000000  1
  P  P25  1  0.636529  0.000027  0.000000  1
  P  P26  1  0.000000  0.636873  0.000000  1
  P  P27  1  0.835308  0.313954  0.500000  1
  P  P28  1  0.686076  0.521349  0.500000  1
  P  P29  1  0.478509  0.164641  0.500000  1
  P  P30  1  0.313924  0.835273  0.500000  1
  P  P31  1  0.521491  0.686132  0.500000  1
  P  P32  1  0.164692  0.478645  0.500000  1
  P  P33  1  0.820884  0.820514  0.000000  1
  P  P34  1  0.179116  0.999630  0.000000  1
  P  P35  1  0.000000  0.179396  0.000000  1
