# generated using pymatgen
data_Rb3Yb(US3)2
_symmetry_space_group_name_H-M   'P 1'
_cell_length_a   7.13283248
_cell_length_b   7.13283199
_cell_length_c   7.91734300
_cell_angle_alpha   81.41379013
_cell_angle_beta   81.41378260
_cell_angle_gamma   120.07720521
_symmetry_Int_Tables_number   1
_chemical_formula_structural   Rb3Yb(US3)2
_chemical_formula_sum   'Rb3 Yb1 U2 S6'
_cell_volume   332.63452023
_cell_formula_units_Z   1
loop_
 _symmetry_equiv_pos_site_id
 _symmetry_equiv_pos_as_xyz
  1  'x, y, z'
loop_
 _atom_site_type_symbol
 _atom_site_label
 _atom_site_symmetry_multiplicity
 _atom_site_fract_x
 _atom_site_fract_y
 _atom_site_fract_z
 _atom_site_occupancy
  Rb  Rb0  1  0.661079  0.338921  0.500000  1
  Rb  Rb1  1  0.338921  0.661079  0.500000  1
  Rb  Rb2  1  0.000000  0.000000  0.500000  1
  Yb  Yb3  1  0.500000  0.500000  0.000000  1
  U  U4  1  0.832753  0.167247  0.000000  1
  U  U5  1  0.167247  0.832753  0.000000  1
  S  S6  1  0.779036  0.779036  0.191130  1
  S  S7  1  0.220964  0.220964  0.808870  1
  S  S8  1  0.435235  0.091865  0.194364  1
  S  S9  1  0.564765  0.908135  0.805636  1
  S  S10  1  0.908135  0.564765  0.805636  1
  S  S11  1  0.091865  0.435235  0.194364  1
