# generated using pymatgen
data_Tb15Lu(CdCo)4
_symmetry_space_group_name_H-M   'P 1'
_cell_length_a   9.49338413
_cell_length_b   9.49338419
_cell_length_c   9.51145100
_cell_angle_alpha   59.93702963
_cell_angle_beta   59.93702941
_cell_angle_gamma   59.89217415
_symmetry_Int_Tables_number   1
_chemical_formula_structural   Tb15Lu(CdCo)4
_chemical_formula_sum   'Tb15 Lu1 Cd4 Co4'
_cell_volume   605.06967963
_cell_formula_units_Z   1
loop_
 _symmetry_equiv_pos_site_id
 _symmetry_equiv_pos_as_xyz
  1  'x, y, z'
loop_
 _atom_site_type_symbol
 _atom_site_label
 _atom_site_symmetry_multiplicity
 _atom_site_fract_x
 _atom_site_fract_y
 _atom_site_fract_z
 _atom_site_occupancy
  Tb  Tb0  1  0.596012  0.596012  0.597770  1
  Tb  Tb1  1  0.189570  0.810587  0.812229  1
  Tb  Tb2  1  0.061359  0.061359  0.438641  1
  Tb  Tb3  1  0.437852  0.062779  0.061811  1
  Tb  Tb4  1  0.810587  0.189570  0.812229  1
  Tb  Tb5  1  0.437852  0.062779  0.437557  1
  Tb  Tb6  1  0.597120  0.209896  0.596492  1
  Tb  Tb7  1  0.811406  0.811406  0.188594  1
  Tb  Tb8  1  0.209896  0.597120  0.596492  1
  Tb  Tb9  1  0.810587  0.189570  0.187614  1
  Tb  Tb10  1  0.062779  0.437852  0.437557  1
  Tb  Tb11  1  0.189570  0.810587  0.187614  1
  Tb  Tb12  1  0.596012  0.596012  0.210206  1
  Tb  Tb13  1  0.188688  0.188688  0.811312  1
  Tb  Tb14  1  0.062779  0.437852  0.061811  1
  Lu  Lu15  1  0.438700  0.438700  0.061300  1
  Cd  Cd16  1  0.830387  0.830387  0.508709  1
  Cd  Cd17  1  0.830387  0.830387  0.830515  1
  Cd  Cd18  1  0.507567  0.829786  0.831323  1
  Cd  Cd19  1  0.829786  0.507567  0.831323  1
  Co  Co20  1  0.391050  0.391050  0.389572  1
  Co  Co21  1  0.827567  0.391433  0.390500  1
  Co  Co22  1  0.391433  0.827567  0.390500  1
  Co  Co23  1  0.391050  0.391050  0.828328  1
