# generated using pymatgen
data_Zr10Ga2SnSb5
_symmetry_space_group_name_H-M   'P 1'
_cell_length_a   8.70394100
_cell_length_b   8.70394219
_cell_length_c   5.88183800
_cell_angle_alpha   90.00000000
_cell_angle_beta   90.00000000
_cell_angle_gamma   120.07761469
_symmetry_Int_Tables_number   1
_chemical_formula_structural   Zr10Ga2SnSb5
_chemical_formula_sum   'Zr10 Ga2 Sn1 Sb5'
_cell_volume   385.59858764
_cell_formula_units_Z   1
loop_
 _symmetry_equiv_pos_site_id
 _symmetry_equiv_pos_as_xyz
  1  'x, y, z'
loop_
 _atom_site_type_symbol
 _atom_site_label
 _atom_site_symmetry_multiplicity
 _atom_site_fract_x
 _atom_site_fract_y
 _atom_site_fract_z
 _atom_site_occupancy
  Zr  Zr0  1  0.000249  0.267036  0.250000  1
  Zr  Zr1  1  0.732312  0.000310  0.750000  1
  Zr  Zr2  1  0.733482  0.733482  0.250000  1
  Zr  Zr3  1  0.666729  0.332877  0.500443  1
  Zr  Zr4  1  0.000310  0.732312  0.750000  1
  Zr  Zr5  1  0.266669  0.266669  0.750000  1
  Zr  Zr6  1  0.332877  0.666729  0.999557  1
  Zr  Zr7  1  0.666729  0.332877  0.999557  1
  Zr  Zr8  1  0.332877  0.666729  0.500443  1
  Zr  Zr9  1  0.267036  0.000249  0.250000  1
  Ga  Ga10  1  0.999375  0.999375  0.999356  1
  Ga  Ga11  1  0.999375  0.999375  0.500644  1
  Sn  Sn12  1  0.612036  0.612036  0.750000  1
  Sb  Sb13  1  0.610416  0.999366  0.250000  1
  Sb  Sb14  1  0.389209  0.000040  0.750000  1
  Sb  Sb15  1  0.390913  0.390913  0.250000  1
  Sb  Sb16  1  0.999366  0.610416  0.250000  1
  Sb  Sb17  1  0.000040  0.389209  0.750000  1
