# generated using pymatgen
data_Tm5P12Ru5Rh14
_symmetry_space_group_name_H-M   'P 1'
_cell_length_a   12.64025499
_cell_length_b   12.60300930
_cell_length_c   3.92111200
_cell_angle_alpha   90.00000000
_cell_angle_beta   90.00000000
_cell_angle_gamma   120.02670927
_symmetry_Int_Tables_number   1
_chemical_formula_structural   Tm5P12Ru5Rh14
_chemical_formula_sum   'Tm5 P12 Ru5 Rh14'
_cell_volume   540.82034609
_cell_formula_units_Z   1
loop_
 _symmetry_equiv_pos_site_id
 _symmetry_equiv_pos_as_xyz
  1  'x, y, z'
loop_
 _atom_site_type_symbol
 _atom_site_label
 _atom_site_symmetry_multiplicity
 _atom_site_fract_x
 _atom_site_fract_y
 _atom_site_fract_z
 _atom_site_occupancy
  Tm  Tm0  1  0.666236  0.330743  0.000000  1
  Tm  Tm1  1  0.334762  0.668541  0.000000  1
  Tm  Tm2  1  0.814416  0.001073  0.500000  1
  Tm  Tm3  1  0.184423  0.186124  0.500000  1
  Tm  Tm4  1  0.000025  0.813304  0.500000  1
  P  P5  1  0.636132  0.999506  0.000000  1
  P  P6  1  0.363656  0.363949  0.000000  1
  P  P7  1  0.000179  0.635886  0.000000  1
  P  P8  1  0.688319  0.518524  0.500000  1
  P  P9  1  0.829276  0.307941  0.500000  1
  P  P10  1  0.316953  0.834620  0.500000  1
  P  P11  1  0.518914  0.690139  0.500000  1
  P  P12  1  0.179881  0.000206  0.000000  1
  P  P13  1  0.819603  0.818725  0.000000  1
  P  P14  1  0.997034  0.180867  0.000000  1
  P  P15  1  0.478914  0.167379  0.500000  1
  P  P16  1  0.169100  0.481651  0.500000  1
  Ru  Ru17  1  0.512707  0.871910  0.500000  1
  Ru  Ru18  1  0.716753  0.716624  0.500000  1
  Ru  Ru19  1  0.000722  0.283845  0.500000  1
  Ru  Ru20  1  0.817407  0.195274  0.000000  1
  Ru  Ru21  1  0.280047  0.999633  0.500000  1
  Rh  Rh22  1  0.625304  0.805672  0.000000  1
  Rh  Rh23  1  0.183006  0.376622  0.000000  1
  Rh  Rh24  1  0.374962  0.182141  0.000000  1
  Rh  Rh25  1  0.193072  0.818276  0.000000  1
  Rh  Rh26  1  0.805198  0.622631  0.000000  1
  Rh  Rh27  1  0.868761  0.506990  0.500000  1
  Rh  Rh28  1  0.492300  0.360050  0.500000  1
  Rh  Rh29  1  0.635858  0.127870  0.500000  1
  Rh  Rh30  1  0.133228  0.641899  0.500000  1
  Rh  Rh31  1  0.361043  0.491848  0.500000  1
  Rh  Rh32  1  0.999451  0.000114  0.000000  1
  Rh  Rh33  1  0.452252  0.998687  0.000000  1
  Rh  Rh34  1  0.547920  0.547331  0.000000  1
  Rh  Rh35  1  0.002190  0.453401  0.000000  1
