# generated using pymatgen
data_Ce12MnSi6Tc5
_symmetry_space_group_name_H-M   'P 1'
_cell_length_a   7.73259315
_cell_length_b   7.73259255
_cell_length_c   9.38737800
_cell_angle_alpha   90.05171934
_cell_angle_beta   90.05171934
_cell_angle_gamma   119.97674643
_symmetry_Int_Tables_number   1
_chemical_formula_structural   Ce12MnSi6Tc5
_chemical_formula_sum   'Ce12 Mn1 Si6 Tc5'
_cell_volume   486.21262683
_cell_formula_units_Z   1
loop_
 _symmetry_equiv_pos_site_id
 _symmetry_equiv_pos_as_xyz
  1  'x, y, z'
loop_
 _atom_site_type_symbol
 _atom_site_label
 _atom_site_symmetry_multiplicity
 _atom_site_fract_x
 _atom_site_fract_y
 _atom_site_fract_z
 _atom_site_occupancy
  Ce  Ce0  1  0.000524  0.581977  0.506440  1
  Ce  Ce1  1  0.581977  0.000524  0.506440  1
  Ce  Ce2  1  0.417109  0.417109  0.505412  1
  Ce  Ce3  1  0.001895  0.415147  0.003337  1
  Ce  Ce4  1  0.415147  0.001895  0.003337  1
  Ce  Ce5  1  0.561991  0.561991  0.996062  1
  Ce  Ce6  1  0.998989  0.740410  0.174920  1
  Ce  Ce7  1  0.740410  0.998989  0.174920  1
  Ce  Ce8  1  0.257656  0.257656  0.175455  1
  Ce  Ce9  1  0.009599  0.262228  0.678220  1
  Ce  Ce10  1  0.262228  0.009599  0.678220  1
  Ce  Ce11  1  0.741038  0.741038  0.676266  1
  Mn  Mn12  1  0.353120  0.353120  0.839911  1
  Si  Si13  1  0.665591  0.332393  0.267641  1
  Si  Si14  1  0.332393  0.665591  0.267641  1
  Si  Si15  1  0.334253  0.667505  0.767810  1
  Si  Si16  1  0.667505  0.334253  0.767810  1
  Si  Si17  1  0.999977  0.999977  0.423617  1
  Si  Si18  1  0.002113  0.002113  0.922163  1
  Tc  Tc19  1  0.999293  0.342568  0.339739  1
  Tc  Tc20  1  0.342568  0.999293  0.339739  1
  Tc  Tc21  1  0.656826  0.656826  0.336404  1
  Tc  Tc22  1  0.000604  0.657198  0.838871  1
  Tc  Tc23  1  0.657198  0.000604  0.838871  1
