# generated using pymatgen
data_Y7HoRe2(B12Rh)2
_symmetry_space_group_name_H-M   'P 1'
_cell_length_a   3.68500300
_cell_length_b   9.16593148
_cell_length_c   11.55968302
_cell_angle_alpha   90.44604770
_cell_angle_beta   90.00000000
_cell_angle_gamma   90.00000000
_symmetry_Int_Tables_number   1
_chemical_formula_structural   Y7HoRe2(B12Rh)2
_chemical_formula_sum   'Y7 Ho1 Re2 B24 Rh2'
_cell_volume   390.43362858
_cell_formula_units_Z   1
loop_
 _symmetry_equiv_pos_site_id
 _symmetry_equiv_pos_as_xyz
  1  'x, y, z'
loop_
 _atom_site_type_symbol
 _atom_site_label
 _atom_site_symmetry_multiplicity
 _atom_site_fract_x
 _atom_site_fract_y
 _atom_site_fract_z
 _atom_site_occupancy
  Y  Y0  1  0.000000  0.318711  0.410766  1
  Y  Y1  1  0.000000  0.681270  0.589330  1
  Y  Y2  1  0.000000  0.826226  0.082691  1
  Y  Y3  1  0.000000  0.173739  0.917192  1
  Y  Y4  1  0.000000  0.945211  0.371859  1
  Y  Y5  1  0.000000  0.054763  0.628214  1
  Y  Y6  1  0.000000  0.442577  0.126442  1
  Ho  Ho7  1  0.000000  0.557735  0.873092  1
  Re  Re8  1  0.000000  0.138716  0.179623  1
  Re  Re9  1  0.000000  0.860858  0.820395  1
  B  B10  1  0.500000  0.554360  0.433959  1
  B  B11  1  0.500000  0.445658  0.566166  1
  B  B12  1  0.500000  0.053014  0.067638  1
  B  B13  1  0.500000  0.946813  0.932305  1
  B  B14  1  0.500000  0.748398  0.421221  1
  B  B15  1  0.500000  0.251653  0.578840  1
  B  B16  1  0.500000  0.247860  0.081457  1
  B  B17  1  0.500000  0.751700  0.918410  1
  B  B18  1  0.500000  0.790722  0.265435  1
  B  B19  1  0.500000  0.209401  0.734604  1
  B  B20  1  0.500000  0.292350  0.234534  1
  B  B21  1  0.500000  0.707343  0.765665  1
  B  B22  1  0.500000  0.632620  0.183820  1
  B  B23  1  0.500000  0.367822  0.816193  1
  B  B24  1  0.500000  0.132120  0.314381  1
  B  B25  1  0.500000  0.867790  0.685708  1
  B  B26  1  0.500000  0.983471  0.212888  1
  B  B27  1  0.500000  0.016443  0.787151  1
  B  B28  1  0.500000  0.483811  0.287878  1
  B  B29  1  0.500000  0.516298  0.712475  1
  B  B30  1  0.500000  0.606910  0.029395  1
  B  B31  1  0.500000  0.393383  0.969960  1
  B  B32  1  0.500000  0.108716  0.470676  1
  B  B33  1  0.500000  0.891277  0.529381  1
  Rh  Rh34  1  0.000000  0.637702  0.321618  1
  Rh  Rh35  1  0.000000  0.362561  0.678639  1
