# generated using pymatgen
data_Y2Er2NiAu3O14
_symmetry_space_group_name_H-M   'P 1'
_cell_length_a   7.33020128
_cell_length_b   7.31519878
_cell_length_c   7.32023900
_cell_angle_alpha   59.97720071
_cell_angle_beta   60.04494309
_cell_angle_gamma   60.08635670
_symmetry_Int_Tables_number   1
_chemical_formula_structural   Y2Er2NiAu3O14
_chemical_formula_sum   'Y2 Er2 Ni1 Au3 O14'
_cell_volume   277.78409990
_cell_formula_units_Z   1
loop_
 _symmetry_equiv_pos_site_id
 _symmetry_equiv_pos_as_xyz
  1  'x, y, z'
loop_
 _atom_site_type_symbol
 _atom_site_label
 _atom_site_symmetry_multiplicity
 _atom_site_fract_x
 _atom_site_fract_y
 _atom_site_fract_z
 _atom_site_occupancy
  Y  Y0  1  0.125000  0.125000  0.125000  1
  Y  Y1  1  0.125000  0.125000  0.625000  1
  Er  Er2  1  0.625000  0.125000  0.125000  1
  Er  Er3  1  0.125000  0.625000  0.125000  1
  Ni  Ni4  1  0.125000  0.625000  0.625000  1
  Au  Au5  1  0.625000  0.625000  0.625000  1
  Au  Au6  1  0.625000  0.625000  0.125000  1
  Au  Au7  1  0.625000  0.125000  0.625000  1
  O  O8  1  0.991663  0.999850  0.004244  1
  O  O9  1  0.258337  0.250150  0.245756  1
  O  O10  1  0.284078  0.277326  0.719298  1
  O  O11  1  0.537139  0.528050  0.967405  1
  O  O12  1  0.710522  0.282925  0.724583  1
  O  O13  1  0.710522  0.282925  0.281971  1
  O  O14  1  0.283696  0.717361  0.721859  1
  O  O15  1  0.283696  0.717361  0.277084  1
  O  O16  1  0.712861  0.721950  0.282595  1
  O  O17  1  0.966304  0.532639  0.528141  1
  O  O18  1  0.539478  0.967075  0.968029  1
  O  O19  1  0.965922  0.972674  0.530702  1
  O  O20  1  0.966304  0.532639  0.972916  1
  O  O21  1  0.539478  0.967075  0.525417  1
