# generated using pymatgen
data_Fe3Pb(NO3)8
_symmetry_space_group_name_H-M   'P 1'
_cell_length_a   7.91090401
_cell_length_b   7.91090494
_cell_length_c   7.91090475
_cell_angle_alpha   88.20694155
_cell_angle_beta   88.20693963
_cell_angle_gamma   88.20694408
_symmetry_Int_Tables_number   1
_chemical_formula_structural   Fe3Pb(NO3)8
_chemical_formula_sum   'Fe3 Pb1 N8 O24'
_cell_volume   494.37107279
_cell_formula_units_Z   1
loop_
 _symmetry_equiv_pos_site_id
 _symmetry_equiv_pos_as_xyz
  1  'x, y, z'
loop_
 _atom_site_type_symbol
 _atom_site_label
 _atom_site_symmetry_multiplicity
 _atom_site_fract_x
 _atom_site_fract_y
 _atom_site_fract_z
 _atom_site_occupancy
  Fe  Fe0  1  0.500000  0.500000  0.000000  1
  Fe  Fe1  1  0.000000  0.500000  0.500000  1
  Fe  Fe2  1  0.500000  0.000000  0.500000  1
  Pb  Pb3  1  0.000000  0.000000  0.000000  1
  N  N4  1  0.357671  0.191401  0.824219  1
  N  N5  1  0.824219  0.357671  0.191401  1
  N  N6  1  0.191401  0.824219  0.357671  1
  N  N7  1  0.675124  0.675124  0.675124  1
  N  N8  1  0.642329  0.808599  0.175781  1
  N  N9  1  0.175781  0.642329  0.808599  1
  N  N10  1  0.808599  0.175781  0.642329  1
  N  N11  1  0.324876  0.324876  0.324876  1
  O  O12  1  0.478223  0.292736  0.817799  1
  O  O13  1  0.817799  0.478223  0.292736  1
  O  O14  1  0.292736  0.817799  0.478223  1
  O  O15  1  0.245357  0.202259  0.940362  1
  O  O16  1  0.347836  0.077831  0.714687  1
  O  O17  1  0.714687  0.347836  0.077831  1
  O  O18  1  0.677237  0.558890  0.788769  1
  O  O19  1  0.202259  0.940362  0.245357  1
  O  O20  1  0.788769  0.677237  0.558890  1
  O  O21  1  0.940362  0.245357  0.202259  1
  O  O22  1  0.558890  0.788769  0.677237  1
  O  O23  1  0.077831  0.714687  0.347836  1
  O  O24  1  0.521777  0.707264  0.182201  1
  O  O25  1  0.182201  0.521777  0.707264  1
  O  O26  1  0.707264  0.182201  0.521777  1
  O  O27  1  0.754643  0.797741  0.059638  1
  O  O28  1  0.652164  0.922169  0.285313  1
  O  O29  1  0.285313  0.652164  0.922169  1
  O  O30  1  0.322763  0.441110  0.211231  1
  O  O31  1  0.797741  0.059638  0.754643  1
  O  O32  1  0.211231  0.322763  0.441110  1
  O  O33  1  0.059638  0.754643  0.797741  1
  O  O34  1  0.441110  0.211231  0.322763  1
  O  O35  1  0.922169  0.285313  0.652164  1
