# generated using pymatgen
data_La2Nd3Y(CI5)2
_symmetry_space_group_name_H-M   'P 1'
_cell_length_a   7.94339237
_cell_length_b   9.74904090
_cell_length_c   9.84264836
_cell_angle_alpha   107.01209661
_cell_angle_beta   96.30837578
_cell_angle_gamma   104.74303755
_symmetry_Int_Tables_number   1
_chemical_formula_structural   La2Nd3Y(CI5)2
_chemical_formula_sum   'La2 Nd3 Y1 C2 I10'
_cell_volume   690.72476380
_cell_formula_units_Z   1
loop_
 _symmetry_equiv_pos_site_id
 _symmetry_equiv_pos_as_xyz
  1  'x, y, z'
loop_
 _atom_site_type_symbol
 _atom_site_label
 _atom_site_symmetry_multiplicity
 _atom_site_fract_x
 _atom_site_fract_y
 _atom_site_fract_z
 _atom_site_occupancy
  La  La0  1  0.887821  0.957211  0.226691  1
  La  La1  1  0.377438  0.135918  0.180614  1
  Nd  Nd2  1  0.027649  0.736095  0.921661  1
  Nd  Nd3  1  0.105735  0.039236  0.776589  1
  Nd  Nd4  1  0.967550  0.263033  0.074448  1
  Y  Y5  1  0.634229  0.870430  0.825690  1
  C  C6  1  0.085626  0.029244  0.040680  1
  C  C7  1  0.910272  0.969888  0.959682  1
  I  I8  1  0.208370  0.739855  0.652616  1
  I  I9  1  0.911573  0.625119  0.176122  1
  I  I10  1  0.086616  0.367133  0.818514  1
  I  I11  1  0.739655  0.912780  0.546429  1
  I  I12  1  0.253611  0.083316  0.465061  1
  I  I13  1  0.649733  0.552811  0.727490  1
  I  I14  1  0.453970  0.803576  0.081079  1
  I  I15  1  0.811579  0.271656  0.357983  1
  I  I16  1  0.341483  0.460317  0.269864  1
  I  I17  1  0.547089  0.182380  0.898786  1
