# generated using pymatgen
data_DyY2P2S
_symmetry_space_group_name_H-M   'P 1'
_cell_length_a   6.91108785
_cell_length_b   6.91108811
_cell_length_c   6.91108664
_cell_angle_alpha   146.52772573
_cell_angle_beta   132.14122907
_cell_angle_gamma   59.66112645
_symmetry_Int_Tables_number   1
_chemical_formula_structural   DyY2P2S
_chemical_formula_sum   'Dy1 Y2 P2 S1'
_cell_volume   133.78793348
_cell_formula_units_Z   1
loop_
 _symmetry_equiv_pos_site_id
 _symmetry_equiv_pos_as_xyz
  1  'x, y, z'
loop_
 _atom_site_type_symbol
 _atom_site_label
 _atom_site_symmetry_multiplicity
 _atom_site_fract_x
 _atom_site_fract_y
 _atom_site_fract_z
 _atom_site_occupancy
  Dy  Dy0  1  0.500000  0.000000  0.500000  1
  Y  Y1  1  0.171437  0.671437  0.500000  1
  Y  Y2  1  0.828563  0.328563  0.500000  1
  P  P3  1  0.665307  0.665307  0.000000  1
  P  P4  1  0.334693  0.334693  0.000000  1
  S  S5  1  0.000000  0.000000  0.000000  1
