# generated using pymatgen
data_Hf4Mn3Si4Ni
_symmetry_space_group_name_H-M   'P 1'
_cell_length_a   3.73547900
_cell_length_b   6.49095203
_cell_length_c   7.48298059
_cell_angle_alpha   90.19196836
_cell_angle_beta   90.00000000
_cell_angle_gamma   90.00000000
_symmetry_Int_Tables_number   1
_chemical_formula_structural   Hf4Mn3Si4Ni
_chemical_formula_sum   'Hf4 Mn3 Si4 Ni1'
_cell_volume   181.43742763
_cell_formula_units_Z   1
loop_
 _symmetry_equiv_pos_site_id
 _symmetry_equiv_pos_as_xyz
  1  'x, y, z'
loop_
 _atom_site_type_symbol
 _atom_site_label
 _atom_site_symmetry_multiplicity
 _atom_site_fract_x
 _atom_site_fract_y
 _atom_site_fract_z
 _atom_site_occupancy
  Hf  Hf0  1  0.250000  0.974567  0.320966  1
  Hf  Hf1  1  0.250000  0.473786  0.180746  1
  Hf  Hf2  1  0.750000  0.018862  0.681626  1
  Hf  Hf3  1  0.750000  0.525346  0.819271  1
  Mn  Mn4  1  0.250000  0.861744  0.933975  1
  Mn  Mn5  1  0.750000  0.645374  0.435145  1
  Mn  Mn6  1  0.750000  0.143349  0.062663  1
  Si  Si7  1  0.250000  0.723865  0.623634  1
  Si  Si8  1  0.250000  0.229206  0.873934  1
  Si  Si9  1  0.750000  0.274377  0.385786  1
  Si  Si10  1  0.750000  0.772138  0.119812  1
  Ni  Ni11  1  0.250000  0.357385  0.562442  1
