# generated using pymatgen
data_Y12ZnFe4Sn
_symmetry_space_group_name_H-M   'P 1'
_cell_length_a   8.42347751
_cell_length_b   8.42347772
_cell_length_c   8.42347787
_cell_angle_alpha   110.87638941
_cell_angle_beta   110.72769530
_cell_angle_gamma   106.84119949
_symmetry_Int_Tables_number   1
_chemical_formula_structural   Y12ZnFe4Sn
_chemical_formula_sum   'Y12 Zn1 Fe4 Sn1'
_cell_volume   459.37645458
_cell_formula_units_Z   1
loop_
 _symmetry_equiv_pos_site_id
 _symmetry_equiv_pos_as_xyz
  1  'x, y, z'
loop_
 _atom_site_type_symbol
 _atom_site_label
 _atom_site_symmetry_multiplicity
 _atom_site_fract_x
 _atom_site_fract_y
 _atom_site_fract_z
 _atom_site_occupancy
  Y  Y0  1  0.429329  0.224628  0.204701  1
  Y  Y1  1  0.570671  0.775372  0.795299  1
  Y  Y2  1  0.019929  0.224628  0.795299  1
  Y  Y3  1  0.980071  0.775372  0.204701  1
  Y  Y4  1  0.186273  0.284426  0.470698  1
  Y  Y5  1  0.813727  0.715574  0.529302  1
  Y  Y6  1  0.186273  0.715574  0.901847  1
  Y  Y7  1  0.813727  0.284426  0.098153  1
  Y  Y8  1  0.311541  0.612497  0.300956  1
  Y  Y9  1  0.688459  0.387503  0.699044  1
  Y  Y10  1  0.311541  0.010585  0.699044  1
  Y  Y11  1  0.688459  0.989415  0.300956  1
  Zn  Zn12  1  0.000000  0.000000  0.000000  1
  Fe  Fe13  1  0.385335  0.000000  0.385335  1
  Fe  Fe14  1  0.614665  0.000000  0.614665  1
  Fe  Fe15  1  0.106500  0.606500  0.500000  1
  Fe  Fe16  1  0.893500  0.393500  0.500000  1
  Sn  Sn17  1  0.500000  0.500000  0.000000  1
