# generated using pymatgen
data_Dy5Ho7Co4BiIr
_symmetry_space_group_name_H-M   'P 1'
_cell_length_a   8.31159288
_cell_length_b   8.31257152
_cell_length_c   8.31159275
_cell_angle_alpha   111.11140879
_cell_angle_beta   110.57491471
_cell_angle_gamma   106.75676046
_symmetry_Int_Tables_number   1
_chemical_formula_structural   Dy5Ho7Co4BiIr
_chemical_formula_sum   'Dy5 Ho7 Co4 Bi1 Ir1'
_cell_volume   441.33709408
_cell_formula_units_Z   1
loop_
 _symmetry_equiv_pos_site_id
 _symmetry_equiv_pos_as_xyz
  1  'x, y, z'
loop_
 _atom_site_type_symbol
 _atom_site_label
 _atom_site_symmetry_multiplicity
 _atom_site_fract_x
 _atom_site_fract_y
 _atom_site_fract_z
 _atom_site_occupancy
  Dy  Dy0  1  0.817716  0.714145  0.531557  1
  Dy  Dy1  1  0.182118  0.285912  0.468244  1
  Dy  Dy2  1  0.182589  0.714145  0.896430  1
  Dy  Dy3  1  0.817667  0.285912  0.103793  1
  Dy  Dy4  1  0.687969  0.378734  0.690766  1
  Ho  Ho5  1  0.312248  0.621911  0.309662  1
  Ho  Ho6  1  0.687770  0.997337  0.309567  1
  Ho  Ho7  1  0.312114  0.002412  0.690298  1
  Ho  Ho8  1  0.591747  0.789171  0.802775  1
  Ho  Ho9  1  0.408058  0.210840  0.196976  1
  Ho  Ho10  1  0.986397  0.789171  0.197424  1
  Ho  Ho11  1  0.013863  0.210840  0.802782  1
  Co  Co12  1  0.622778  0.999699  0.622786  1
  Co  Co13  1  0.376913  0.999699  0.376921  1
  Co  Co14  1  0.111043  0.611078  0.500035  1
  Co  Co15  1  0.889107  0.389006  0.499899  1
  Bi  Bi16  1  0.499929  0.500048  0.000119  1
  Ir  Ir17  1  0.999974  0.999941  0.999966  1
