# generated using pymatgen
data_Dy11HoGa2(NiRu)2
_symmetry_space_group_name_H-M   'P 1'
_cell_length_a   8.33755810
_cell_length_b   8.33797262
_cell_length_c   8.33755901
_cell_angle_alpha   112.95959762
_cell_angle_beta   110.19363037
_cell_angle_gamma   105.34862702
_symmetry_Int_Tables_number   1
_chemical_formula_structural   Dy11HoGa2(NiRu)2
_chemical_formula_sum   'Dy11 Ho1 Ga2 Ni2 Ru2'
_cell_volume   444.20162839
_cell_formula_units_Z   1
loop_
 _symmetry_equiv_pos_site_id
 _symmetry_equiv_pos_as_xyz
  1  'x, y, z'
loop_
 _atom_site_type_symbol
 _atom_site_label
 _atom_site_symmetry_multiplicity
 _atom_site_fract_x
 _atom_site_fract_y
 _atom_site_fract_z
 _atom_site_occupancy
  Dy  Dy0  1  0.435199  0.241544  0.193524  1
  Dy  Dy1  1  0.564929  0.758396  0.806679  1
  Dy  Dy2  1  0.048020  0.241544  0.806345  1
  Dy  Dy3  1  0.951717  0.758396  0.193467  1
  Dy  Dy4  1  0.179957  0.279281  0.459360  1
  Dy  Dy5  1  0.819895  0.720707  0.540504  1
  Dy  Dy6  1  0.180205  0.720707  0.900812  1
  Dy  Dy7  1  0.819920  0.279281  0.099324  1
  Dy  Dy8  1  0.329101  0.640255  0.311156  1
  Dy  Dy9  1  0.671012  0.359716  0.688702  1
  Dy  Dy10  1  0.328992  0.017852  0.688860  1
  Ho  Ho11  1  0.670940  0.982443  0.311503  1
  Ga  Ga12  1  0.500060  0.500138  0.000078  1
  Ga  Ga13  1  0.000026  0.000027  0.000001  1
  Ni  Ni14  1  0.117919  0.617947  0.500027  1
  Ni  Ni15  1  0.881892  0.381759  0.499866  1
  Ru  Ru16  1  0.329704  0.000003  0.329492  1
  Ru  Ru17  1  0.670511  0.000003  0.670299  1
