# generated using pymatgen
data_DyPa3(CdNi2)2
_symmetry_space_group_name_H-M   'P 1'
_cell_length_a   7.52274146
_cell_length_b   7.52274146
_cell_length_c   3.50588200
_cell_angle_alpha   90.00000000
_cell_angle_beta   90.00000000
_cell_angle_gamma   88.35781454
_symmetry_Int_Tables_number   1
_chemical_formula_structural   DyPa3(CdNi2)2
_chemical_formula_sum   'Dy1 Pa3 Cd2 Ni4'
_cell_volume   198.32212183
_cell_formula_units_Z   1
loop_
 _symmetry_equiv_pos_site_id
 _symmetry_equiv_pos_as_xyz
  1  'x, y, z'
loop_
 _atom_site_type_symbol
 _atom_site_label
 _atom_site_symmetry_multiplicity
 _atom_site_fract_x
 _atom_site_fract_y
 _atom_site_fract_z
 _atom_site_occupancy
  Dy  Dy0  1  0.328704  0.828704  0.500000  1
  Pa  Pa1  1  0.828947  0.671703  0.500000  1
  Pa  Pa2  1  0.171703  0.328947  0.500000  1
  Pa  Pa3  1  0.669168  0.169168  0.500000  1
  Cd  Cd4  1  0.006446  0.997017  0.000000  1
  Cd  Cd5  1  0.497017  0.506446  0.000000  1
  Ni  Ni6  1  0.381594  0.141992  0.000000  1
  Ni  Ni7  1  0.866188  0.366188  0.000000  1
  Ni  Ni8  1  0.108240  0.608240  0.000000  1
  Ni  Ni9  1  0.641992  0.881594  0.000000  1
