# generated using pymatgen
data_Ac2B8Os3Ru5
_symmetry_space_group_name_H-M   'P 1'
_cell_length_a   7.71486656
_cell_length_b   7.72017785
_cell_length_c   4.01234280
_cell_angle_alpha   90.14042897
_cell_angle_beta   90.07110119
_cell_angle_gamma   89.98377945
_symmetry_Int_Tables_number   1
_chemical_formula_structural   Ac2B8Os3Ru5
_chemical_formula_sum   'Ac2 B8 Os3 Ru5'
_cell_volume   238.97479536
_cell_formula_units_Z   1
loop_
 _symmetry_equiv_pos_site_id
 _symmetry_equiv_pos_as_xyz
  1  'x, y, z'
loop_
 _atom_site_type_symbol
 _atom_site_label
 _atom_site_symmetry_multiplicity
 _atom_site_fract_x
 _atom_site_fract_y
 _atom_site_fract_z
 _atom_site_occupancy
  Ac  Ac0  1  0.502056  0.501118  0.002972  1
  Ac  Ac1  1  0.997317  0.000320  0.500214  1
  B  B2  1  0.664709  0.784063  0.607117  1
  B  B3  1  0.282678  0.835223  0.106512  1
  B  B4  1  0.836461  0.714953  0.892156  1
  B  B5  1  0.214274  0.667346  0.393084  1
  B  B6  1  0.788269  0.333410  0.391868  1
  B  B7  1  0.166881  0.285938  0.891697  1
  B  B8  1  0.711749  0.167268  0.108172  1
  B  B9  1  0.332209  0.211080  0.607667  1
  Os  Os10  1  0.355715  0.106398  0.106497  1
  Os  Os11  1  0.395260  0.856561  0.606362  1
  Os  Os12  1  0.105942  0.643396  0.893113  1
  Ru  Ru13  1  0.144478  0.392610  0.392999  1
  Ru  Ru14  1  0.856618  0.605692  0.392484  1
  Ru  Ru15  1  0.893066  0.355856  0.892237  1
  Ru  Ru16  1  0.645080  0.894201  0.107200  1
  Ru  Ru17  1  0.607237  0.144567  0.607650  1
