# generated using pymatgen
data_Ho2Tm3Ni19
_symmetry_space_group_name_H-M   'P 1'
_cell_length_a   4.88865537
_cell_length_b   4.88865588
_cell_length_c   16.30028585
_cell_angle_alpha   81.37560437
_cell_angle_beta   81.37560344
_cell_angle_gamma   59.99999875
_symmetry_Int_Tables_number   1
_chemical_formula_structural   Ho2Tm3Ni19
_chemical_formula_sum   'Ho2 Tm3 Ni19'
_cell_volume   332.27258790
_cell_formula_units_Z   1
loop_
 _symmetry_equiv_pos_site_id
 _symmetry_equiv_pos_as_xyz
  1  'x, y, z'
loop_
 _atom_site_type_symbol
 _atom_site_label
 _atom_site_symmetry_multiplicity
 _atom_site_fract_x
 _atom_site_fract_y
 _atom_site_fract_z
 _atom_site_occupancy
  Ho  Ho0  1  0.921575  0.921575  0.235275  1
  Ho  Ho1  1  0.078425  0.078425  0.764725  1
  Tm  Tm2  1  0.000000  0.000000  0.000000  1
  Tm  Tm3  1  0.847964  0.847964  0.456109  1
  Tm  Tm4  1  0.152036  0.152036  0.543891  1
  Ni  Ni5  1  0.500000  0.500000  0.500000  1
  Ni  Ni6  1  0.749428  0.749429  0.751715  1
  Ni  Ni7  1  0.250571  0.250571  0.248286  1
  Ni  Ni8  1  0.666835  0.666835  0.999496  1
  Ni  Ni9  1  0.333165  0.333165  0.000504  1
  Ni  Ni10  1  0.583877  0.583877  0.248370  1
  Ni  Ni11  1  0.416123  0.416123  0.751630  1
  Ni  Ni12  1  0.375475  0.375475  0.372091  1
  Ni  Ni13  1  0.876960  0.375475  0.372091  1
  Ni  Ni14  1  0.375475  0.876960  0.372091  1
  Ni  Ni15  1  0.624525  0.624525  0.627909  1
  Ni  Ni16  1  0.123040  0.624525  0.627909  1
  Ni  Ni17  1  0.624525  0.123040  0.627909  1
  Ni  Ni18  1  0.459515  0.459515  0.122692  1
  Ni  Ni19  1  0.958277  0.459515  0.122692  1
  Ni  Ni20  1  0.459515  0.958277  0.122692  1
  Ni  Ni21  1  0.540485  0.540485  0.877308  1
  Ni  Ni22  1  0.041723  0.540485  0.877308  1
  Ni  Ni23  1  0.540485  0.041723  0.877308  1
