# generated using pymatgen
data_Ho12Ni4BiRh
_symmetry_space_group_name_H-M   'P 1'
_cell_length_a   8.32382694
_cell_length_b   8.31886982
_cell_length_c   8.32382773
_cell_angle_alpha   111.56852462
_cell_angle_beta   109.77371783
_cell_angle_gamma   107.12601784
_symmetry_Int_Tables_number   1
_chemical_formula_structural   Ho12Ni4BiRh
_chemical_formula_sum   'Ho12 Ni4 Bi1 Rh1'
_cell_volume   442.89576554
_cell_formula_units_Z   1
loop_
 _symmetry_equiv_pos_site_id
 _symmetry_equiv_pos_as_xyz
  1  'x, y, z'
loop_
 _atom_site_type_symbol
 _atom_site_label
 _atom_site_symmetry_multiplicity
 _atom_site_fract_x
 _atom_site_fract_y
 _atom_site_fract_z
 _atom_site_occupancy
  Ho  Ho0  1  0.819199  0.706778  0.525966  1
  Ho  Ho1  1  0.180801  0.293222  0.474034  1
  Ho  Ho2  1  0.180812  0.706778  0.887578  1
  Ho  Ho3  1  0.819188  0.293222  0.112422  1
  Ho  Ho4  1  0.682807  0.375495  0.692688  1
  Ho  Ho5  1  0.317193  0.624505  0.307312  1
  Ho  Ho6  1  0.682916  0.990343  0.307428  1
  Ho  Ho7  1  0.317084  0.009657  0.692572  1
  Ho  Ho8  1  0.597674  0.791921  0.805725  1
  Ho  Ho9  1  0.402326  0.208079  0.194275  1
  Ho  Ho10  1  0.986196  0.791921  0.194247  1
  Ho  Ho11  1  0.013804  0.208079  0.805753  1
  Ni  Ni12  1  0.630637  0.000000  0.630637  1
  Ni  Ni13  1  0.369363  0.000000  0.369363  1
  Ni  Ni14  1  0.121971  0.621436  0.499465  1
  Ni  Ni15  1  0.878029  0.378564  0.500535  1
  Bi  Bi16  1  0.500000  0.500000  0.000000  1
  Rh  Rh17  1  0.000000  0.000000  0.000000  1
