# generated using pymatgen
data_ErLu3(Co5P3)4
_symmetry_space_group_name_H-M   'P 1'
_cell_length_a   3.62273000
_cell_length_b   10.22668261
_cell_length_c   11.67338757
_cell_angle_alpha   89.96228537
_cell_angle_beta   90.00000000
_cell_angle_gamma   90.00000000
_symmetry_Int_Tables_number   1
_chemical_formula_structural   ErLu3(Co5P3)4
_chemical_formula_sum   'Er1 Lu3 Co20 P12'
_cell_volume   432.48152120
_cell_formula_units_Z   1
loop_
 _symmetry_equiv_pos_site_id
 _symmetry_equiv_pos_as_xyz
  1  'x, y, z'
loop_
 _atom_site_type_symbol
 _atom_site_label
 _atom_site_symmetry_multiplicity
 _atom_site_fract_x
 _atom_site_fract_y
 _atom_site_fract_z
 _atom_site_occupancy
  Er  Er0  1  0.750000  0.082705  0.796922  1
  Lu  Lu1  1  0.250000  0.582464  0.702745  1
  Lu  Lu2  1  0.250000  0.917371  0.202612  1
  Lu  Lu3  1  0.750000  0.417556  0.297346  1
  Co  Co4  1  0.250000  0.717458  0.992909  1
  Co  Co5  1  0.250000  0.782247  0.492148  1
  Co  Co6  1  0.750000  0.282534  0.007851  1
  Co  Co7  1  0.750000  0.217667  0.507664  1
  Co  Co8  1  0.250000  0.407469  0.486840  1
  Co  Co9  1  0.250000  0.092384  0.988136  1
  Co  Co10  1  0.750000  0.592515  0.513188  1
  Co  Co11  1  0.750000  0.907022  0.013481  1
  Co  Co12  1  0.250000  0.221813  0.177106  1
  Co  Co13  1  0.250000  0.279061  0.676663  1
  Co  Co14  1  0.750000  0.778276  0.823225  1
  Co  Co15  1  0.750000  0.721356  0.323133  1
  Co  Co16  1  0.250000  0.882279  0.698838  1
  Co  Co17  1  0.250000  0.616782  0.199650  1
  Co  Co18  1  0.750000  0.116987  0.300282  1
  Co  Co19  1  0.750000  0.383805  0.800670  1
  Co  Co20  1  0.250000  0.468338  0.931536  1
  Co  Co21  1  0.250000  0.032142  0.430394  1
  Co  Co22  1  0.750000  0.532429  0.068999  1
  Co  Co23  1  0.750000  0.967134  0.567715  1
  P  P24  1  0.250000  0.418684  0.113120  1
  P  P25  1  0.250000  0.081506  0.611614  1
  P  P26  1  0.750000  0.581610  0.887252  1
  P  P27  1  0.750000  0.918477  0.386485  1
  P  P28  1  0.250000  0.269827  0.870633  1
  P  P29  1  0.250000  0.231367  0.369955  1
  P  P30  1  0.750000  0.731082  0.130272  1
  P  P31  1  0.750000  0.768651  0.630041  1
  P  P32  1  0.250000  0.600432  0.390773  1
  P  P33  1  0.250000  0.898552  0.891051  1
  P  P34  1  0.750000  0.399513  0.609400  1
  P  P35  1  0.750000  0.100507  0.109351  1
