# generated using pymatgen
data_ScMn5P3
_symmetry_space_group_name_H-M   'P 1'
_cell_length_a   3.49850000
_cell_length_b   10.61622600
_cell_length_c   12.16781700
_cell_angle_alpha   90.00000000
_cell_angle_beta   90.00000000
_cell_angle_gamma   90.00000000
_symmetry_Int_Tables_number   1
_chemical_formula_structural   ScMn5P3
_chemical_formula_sum   'Sc4 Mn20 P12'
_cell_volume   451.92326875
_cell_formula_units_Z   4
loop_
 _symmetry_equiv_pos_site_id
 _symmetry_equiv_pos_as_xyz
  1  'x, y, z'
loop_
 _atom_site_type_symbol
 _atom_site_label
 _atom_site_symmetry_multiplicity
 _atom_site_fract_x
 _atom_site_fract_y
 _atom_site_fract_z
 _atom_site_occupancy
  Sc  Sc0  1  0.250000  0.583406  0.705708  1
  Sc  Sc1  1  0.250000  0.916594  0.205708  1
  Sc  Sc2  1  0.750000  0.416594  0.294292  1
  Sc  Sc3  1  0.750000  0.083406  0.794292  1
  Mn  Mn4  1  0.250000  0.717525  0.985641  1
  Mn  Mn5  1  0.250000  0.782475  0.485641  1
  Mn  Mn6  1  0.750000  0.282475  0.014359  1
  Mn  Mn7  1  0.750000  0.217525  0.514359  1
  Mn  Mn8  1  0.250000  0.409431  0.491275  1
  Mn  Mn9  1  0.250000  0.090569  0.991275  1
  Mn  Mn10  1  0.750000  0.590569  0.508725  1
  Mn  Mn11  1  0.750000  0.909431  0.008725  1
  Mn  Mn12  1  0.250000  0.214537  0.178943  1
  Mn  Mn13  1  0.250000  0.285464  0.678943  1
  Mn  Mn14  1  0.750000  0.785464  0.821057  1
  Mn  Mn15  1  0.750000  0.714536  0.321057  1
  Mn  Mn16  1  0.250000  0.881379  0.695908  1
  Mn  Mn17  1  0.250000  0.618621  0.195908  1
  Mn  Mn18  1  0.750000  0.118621  0.304092  1
  Mn  Mn19  1  0.750000  0.381379  0.804092  1
  Mn  Mn20  1  0.250000  0.463009  0.933575  1
  Mn  Mn21  1  0.250000  0.036991  0.433575  1
  Mn  Mn22  1  0.750000  0.536991  0.066425  1
  Mn  Mn23  1  0.750000  0.963009  0.566425  1
  P  P24  1  0.250000  0.412644  0.118638  1
  P  P25  1  0.250000  0.087356  0.618638  1
  P  P26  1  0.750000  0.587356  0.881362  1
  P  P27  1  0.750000  0.912644  0.381362  1
  P  P28  1  0.250000  0.258856  0.871331  1
  P  P29  1  0.250000  0.241144  0.371331  1
  P  P30  1  0.750000  0.741144  0.128669  1
  P  P31  1  0.750000  0.758856  0.628669  1
  P  P32  1  0.250000  0.588759  0.383331  1
  P  P33  1  0.250000  0.911241  0.883331  1
  P  P34  1  0.750000  0.411241  0.616669  1
  P  P35  1  0.750000  0.088759  0.116669  1
