# generated using pymatgen
data_Nd4YRu2
_symmetry_space_group_name_H-M   'P 1'
_cell_length_a   6.60020029
_cell_length_b   7.36637297
_cell_length_c   8.82887053
_cell_angle_alpha   96.08858795
_cell_angle_beta   111.94925829
_cell_angle_gamma   89.99999872
_symmetry_Int_Tables_number   1
_chemical_formula_structural   Nd4YRu2
_chemical_formula_sum   'Nd8 Y2 Ru4'
_cell_volume   395.52928567
_cell_formula_units_Z   2
loop_
 _symmetry_equiv_pos_site_id
 _symmetry_equiv_pos_as_xyz
  1  'x, y, z'
loop_
 _atom_site_type_symbol
 _atom_site_label
 _atom_site_symmetry_multiplicity
 _atom_site_fract_x
 _atom_site_fract_y
 _atom_site_fract_z
 _atom_site_occupancy
  Nd  Nd0  1  0.979094  0.915091  0.183207  1
  Nd  Nd1  1  0.795887  0.584909  0.816793  1
  Nd  Nd2  1  0.020906  0.084909  0.816793  1
  Nd  Nd3  1  0.204113  0.415091  0.183207  1
  Nd  Nd4  1  0.638700  0.813312  0.430096  1
  Nd  Nd5  1  0.208604  0.686688  0.569904  1
  Nd  Nd6  1  0.361300  0.186688  0.569904  1
  Nd  Nd7  1  0.791396  0.313312  0.430096  1
  Y  Y8  1  0.428021  0.750000  0.000000  1
  Y  Y9  1  0.571979  0.250000  0.000000  1
  Ru  Ru10  1  0.819462  0.573874  0.217754  1
  Ru  Ru11  1  0.601708  0.926126  0.782246  1
  Ru  Ru12  1  0.180538  0.426126  0.782246  1
  Ru  Ru13  1  0.398292  0.073874  0.217754  1
