# generated using pymatgen
data_Pa2FeOs3
_symmetry_space_group_name_H-M   'P 1'
_cell_length_a   5.49936406
_cell_length_b   5.11805148
_cell_length_c   5.49936400
_cell_angle_alpha   57.50325274
_cell_angle_beta   60.00000037
_cell_angle_gamma   57.50324877
_symmetry_Int_Tables_number   1
_chemical_formula_structural   Pa2FeOs3
_chemical_formula_sum   'Pa2 Fe1 Os3'
_cell_volume   105.13560475
_cell_formula_units_Z   1
loop_
 _symmetry_equiv_pos_site_id
 _symmetry_equiv_pos_as_xyz
  1  'x, y, z'
loop_
 _atom_site_type_symbol
 _atom_site_label
 _atom_site_symmetry_multiplicity
 _atom_site_fract_x
 _atom_site_fract_y
 _atom_site_fract_z
 _atom_site_occupancy
  Pa  Pa0  1  0.502243  0.493270  0.502243  1
  Pa  Pa1  1  0.747757  0.756730  0.747757  1
  Fe  Fe2  1  0.125000  0.625000  0.125000  1
  Os  Os3  1  0.125000  0.125000  0.125000  1
  Os  Os4  1  0.625000  0.125000  0.125000  1
  Os  Os5  1  0.125000  0.125000  0.625000  1
