# generated using pymatgen
data_Th3Ga3CuRh2
_symmetry_space_group_name_H-M   'P 1'
_cell_length_a   7.32425200
_cell_length_b   7.32425311
_cell_length_c   4.00579400
_cell_angle_alpha   90.00000000
_cell_angle_beta   90.00000000
_cell_angle_gamma   120.00000402
_symmetry_Int_Tables_number   1
_chemical_formula_structural   Th3Ga3CuRh2
_chemical_formula_sum   'Th3 Ga3 Cu1 Rh2'
_cell_volume   186.09977510
_cell_formula_units_Z   1
loop_
 _symmetry_equiv_pos_site_id
 _symmetry_equiv_pos_as_xyz
  1  'x, y, z'
loop_
 _atom_site_type_symbol
 _atom_site_label
 _atom_site_symmetry_multiplicity
 _atom_site_fract_x
 _atom_site_fract_y
 _atom_site_fract_z
 _atom_site_occupancy
  Th  Th0  1  0.000000  0.418541  0.500000  1
  Th  Th1  1  0.581459  0.581459  0.500000  1
  Th  Th2  1  0.418541  0.000000  0.500000  1
  Ga  Ga3  1  0.000000  0.763131  0.000000  1
  Ga  Ga4  1  0.236869  0.236869  0.000000  1
  Ga  Ga5  1  0.763131  0.000000  0.000000  1
  Cu  Cu6  1  0.000000  0.000000  0.500000  1
  Rh  Rh7  1  0.333333  0.666667  0.000000  1
  Rh  Rh8  1  0.666667  0.333333  0.000000  1
