# generated using pymatgen
data_Ta3TlInBr9
_symmetry_space_group_name_H-M   'P 1'
_cell_length_a   10.63044244
_cell_length_b   10.59962723
_cell_length_c   10.47531300
_cell_angle_alpha   77.00211542
_cell_angle_beta   76.40606477
_cell_angle_gamma   116.38306617
_symmetry_Int_Tables_number   1
_chemical_formula_structural   Ta3TlInBr9
_chemical_formula_sum   'Ta6 Tl2 In2 Br18'
_cell_volume   951.42128637
_cell_formula_units_Z   2
loop_
 _symmetry_equiv_pos_site_id
 _symmetry_equiv_pos_as_xyz
  1  'x, y, z'
loop_
 _atom_site_type_symbol
 _atom_site_label
 _atom_site_symmetry_multiplicity
 _atom_site_fract_x
 _atom_site_fract_y
 _atom_site_fract_z
 _atom_site_occupancy
  Ta  Ta0  1  0.605252  0.613003  0.117769  1
  Ta  Ta1  1  0.394748  0.386997  0.882231  1
  Ta  Ta2  1  0.461615  0.298504  0.132783  1
  Ta  Ta3  1  0.538385  0.701496  0.867217  1
  Ta  Ta4  1  0.707471  0.546069  0.869372  1
  Ta  Ta5  1  0.292529  0.453931  0.130628  1
  Tl  Tl6  1  0.954974  0.267613  0.671235  1
  Tl  Tl7  1  0.045026  0.732387  0.328765  1
  In  In8  1  0.724429  0.045908  0.335598  1
  In  In9  1  0.275571  0.954092  0.664402  1
  Br  Br10  1  0.710153  0.305615  0.002550  1
  Br  Br11  1  0.289847  0.694385  0.997450  1
  Br  Br12  1  0.402882  0.013682  0.324843  1
  Br  Br13  1  0.597118  0.986318  0.675157  1
  Br  Br14  1  0.996858  0.609445  0.679725  1
  Br  Br15  1  0.003142  0.390555  0.320275  1
  Br  Br16  1  0.323846  0.108831  0.018684  1
  Br  Br17  1  0.676154  0.891169  0.981316  1
  Br  Br18  1  0.888301  0.695562  0.984058  1
  Br  Br19  1  0.111699  0.304438  0.015942  1
  Br  Br20  1  0.753969  0.768461  0.279540  1
  Br  Br21  1  0.246031  0.231539  0.720460  1
  Br  Br22  1  0.807818  0.810308  0.674198  1
  Br  Br23  1  0.192182  0.189692  0.325802  1
  Br  Br24  1  0.581937  0.389028  0.310025  1
  Br  Br25  1  0.418063  0.610972  0.689975  1
  Br  Br26  1  0.627749  0.418571  0.691786  1
  Br  Br27  1  0.372251  0.581429  0.308214  1
