# generated using pymatgen
data_Tb3Mg2PaRh3
_symmetry_space_group_name_H-M   'P 1'
_cell_length_a   7.65438882
_cell_length_b   7.65438764
_cell_length_c   3.96283100
_cell_angle_alpha   90.00000000
_cell_angle_beta   90.00000000
_cell_angle_gamma   120.56544552
_symmetry_Int_Tables_number   1
_chemical_formula_structural   Tb3Mg2PaRh3
_chemical_formula_sum   'Tb3 Mg2 Pa1 Rh3'
_cell_volume   199.91911627
_cell_formula_units_Z   1
loop_
 _symmetry_equiv_pos_site_id
 _symmetry_equiv_pos_as_xyz
  1  'x, y, z'
loop_
 _atom_site_type_symbol
 _atom_site_label
 _atom_site_symmetry_multiplicity
 _atom_site_fract_x
 _atom_site_fract_y
 _atom_site_fract_z
 _atom_site_occupancy
  Tb  Tb0  1  0.033669  0.591277  0.500000  1
  Tb  Tb1  1  0.375707  0.375707  0.500000  1
  Tb  Tb2  1  0.591277  0.033669  0.500000  1
  Mg  Mg3  1  0.994854  0.245836  0.000000  1
  Mg  Mg4  1  0.245836  0.994854  0.000000  1
  Pa  Pa5  1  0.733637  0.733637  0.000000  1
  Rh  Rh6  1  0.369789  0.678556  0.000000  1
  Rh  Rh7  1  0.976673  0.976673  0.500000  1
  Rh  Rh8  1  0.678556  0.369789  0.000000  1
