# generated using pymatgen
data_Ti3Cr2AsP2Ru
_symmetry_space_group_name_H-M   'P 1'
_cell_length_a   6.46839256
_cell_length_b   6.47879291
_cell_length_c   3.36498200
_cell_angle_alpha   90.00000000
_cell_angle_beta   90.00000000
_cell_angle_gamma   119.93021895
_symmetry_Int_Tables_number   1
_chemical_formula_structural   Ti3Cr2AsP2Ru
_chemical_formula_sum   'Ti3 Cr2 As1 P2 Ru1'
_cell_volume   122.21057679
_cell_formula_units_Z   1
loop_
 _symmetry_equiv_pos_site_id
 _symmetry_equiv_pos_as_xyz
  1  'x, y, z'
loop_
 _atom_site_type_symbol
 _atom_site_label
 _atom_site_symmetry_multiplicity
 _atom_site_fract_x
 _atom_site_fract_y
 _atom_site_fract_z
 _atom_site_occupancy
  Ti  Ti0  1  0.403701  0.413550  0.500000  1
  Ti  Ti1  1  0.582688  0.980135  0.500000  1
  Ti  Ti2  1  0.015544  0.611530  0.500000  1
  Cr  Cr3  1  0.244312  0.990798  0.000000  1
  Cr  Cr4  1  0.746009  0.754608  0.000000  1
  As  As5  1  0.665087  0.333997  0.000000  1
  P  P6  1  0.335413  0.669121  0.000000  1
  P  P7  1  0.999166  0.995937  0.500000  1
  Ru  Ru8  1  0.008080  0.250324  0.000000  1
