# generated using pymatgen
data_Yb12Ge8Pd7Pt
_symmetry_space_group_name_H-M   'P 1'
_cell_length_a   5.57270404
_cell_length_b   8.15804041
_cell_length_c   13.34743328
_cell_angle_alpha   90.00601839
_cell_angle_beta   89.90861786
_cell_angle_gamma   90.03573776
_symmetry_Int_Tables_number   1
_chemical_formula_structural   Yb12Ge8Pd7Pt
_chemical_formula_sum   'Yb12 Ge8 Pd7 Pt1'
_cell_volume   606.80471957
_cell_formula_units_Z   1
loop_
 _symmetry_equiv_pos_site_id
 _symmetry_equiv_pos_as_xyz
  1  'x, y, z'
loop_
 _atom_site_type_symbol
 _atom_site_label
 _atom_site_symmetry_multiplicity
 _atom_site_fract_x
 _atom_site_fract_y
 _atom_site_fract_z
 _atom_site_occupancy
  Yb  Yb0  1  0.646436  0.253265  0.249443  1
  Yb  Yb1  1  0.352267  0.746356  0.749812  1
  Yb  Yb2  1  0.353302  0.754821  0.249064  1
  Yb  Yb3  1  0.647587  0.245545  0.749838  1
  Yb  Yb4  1  0.145643  0.390696  0.102036  1
  Yb  Yb5  1  0.855338  0.607954  0.897623  1
  Yb  Yb6  1  0.855750  0.607697  0.602318  1
  Yb  Yb7  1  0.855301  0.891276  0.398313  1
  Yb  Yb8  1  0.144423  0.392349  0.397974  1
  Yb  Yb9  1  0.144024  0.107877  0.602458  1
  Yb  Yb10  1  0.143512  0.107803  0.898132  1
  Yb  Yb11  1  0.856187  0.893024  0.101979  1
  Ge  Ge12  1  0.144220  0.104358  0.250394  1
  Ge  Ge13  1  0.854875  0.894717  0.749901  1
  Ge  Ge14  1  0.856100  0.604362  0.249707  1
  Ge  Ge15  1  0.145911  0.395111  0.750048  1
  Ge  Ge16  1  0.648697  0.249740  0.000825  1
  Ge  Ge17  1  0.349975  0.750944  0.000945  1
  Ge  Ge18  1  0.349856  0.750025  0.499476  1
  Ge  Ge19  1  0.650492  0.250034  0.499856  1
  Pd  Pd20  1  0.621992  0.962421  0.909116  1
  Pd  Pd21  1  0.621758  0.962826  0.590406  1
  Pd  Pd22  1  0.622625  0.537577  0.409329  1
  Pd  Pd23  1  0.378156  0.037476  0.409418  1
  Pd  Pd24  1  0.377524  0.462765  0.590375  1
  Pd  Pd25  1  0.377253  0.462228  0.909417  1
  Pd  Pd26  1  0.623807  0.538052  0.090285  1
  Pt  Pt27  1  0.376988  0.038702  0.091514  1
