# generated using pymatgen
data_HoTm11InGaCo4
_symmetry_space_group_name_H-M   'P 1'
_cell_length_a   8.24699444
_cell_length_b   8.22847964
_cell_length_c   8.22848169
_cell_angle_alpha   111.90268959
_cell_angle_beta   109.69961678
_cell_angle_gamma   106.76652178
_symmetry_Int_Tables_number   1
_chemical_formula_structural   HoTm11InGaCo4
_chemical_formula_sum   'Ho1 Tm11 In1 Ga1 Co4'
_cell_volume   429.43328399
_cell_formula_units_Z   1
loop_
 _symmetry_equiv_pos_site_id
 _symmetry_equiv_pos_as_xyz
  1  'x, y, z'
loop_
 _atom_site_type_symbol
 _atom_site_label
 _atom_site_symmetry_multiplicity
 _atom_site_fract_x
 _atom_site_fract_y
 _atom_site_fract_z
 _atom_site_occupancy
  Ho  Ho0  1  0.566383  0.266398  0.299985  1
  Tm  Tm1  1  0.180672  0.218371  0.399683  1
  Tm  Tm2  1  0.180672  0.780989  0.962303  1
  Tm  Tm3  1  0.675595  0.487696  0.813500  1
  Tm  Tm4  1  0.675595  0.862095  0.187898  1
  Tm  Tm5  1  0.967967  0.267004  0.700963  1
  Tm  Tm6  1  0.033707  0.734249  0.299458  1
  Tm  Tm7  1  0.324175  0.136528  0.811808  1
  Tm  Tm8  1  0.324175  0.512368  0.187646  1
  Tm  Tm9  1  0.818394  0.217991  0.035913  1
  Tm  Tm10  1  0.818394  0.782479  0.600403  1
  Tm  Tm11  1  0.434614  0.733209  0.701404  1
  In  In12  1  0.499403  0.000059  0.499345  1
  Ga  Ga13  1  0.001144  0.501454  0.499690  1
  Co  Co14  1  0.885009  0.884897  0.000113  1
  Co  Co15  1  0.343108  0.499791  0.843317  1
  Co  Co16  1  0.658458  0.500282  0.158176  1
  Co  Co17  1  0.112535  0.114140  0.998395  1
