# generated using pymatgen
data_Dy2Ho6Ti3Si16Mo9
_symmetry_space_group_name_H-M   'P 1'
_cell_length_a   6.90223906
_cell_length_b   6.90219974
_cell_length_c   12.78627431
_cell_angle_alpha   89.98983380
_cell_angle_beta   89.99555993
_cell_angle_gamma   89.77678496
_symmetry_Int_Tables_number   1
_chemical_formula_structural   Dy2Ho6Ti3Si16Mo9
_chemical_formula_sum   'Dy2 Ho6 Ti3 Si16 Mo9'
_cell_volume   609.14156337
_cell_formula_units_Z   1
loop_
 _symmetry_equiv_pos_site_id
 _symmetry_equiv_pos_as_xyz
  1  'x, y, z'
loop_
 _atom_site_type_symbol
 _atom_site_label
 _atom_site_symmetry_multiplicity
 _atom_site_fract_x
 _atom_site_fract_y
 _atom_site_fract_z
 _atom_site_occupancy
  Dy  Dy0  1  0.339990  0.002460  0.468433  1
  Dy  Dy1  1  0.496343  0.839420  0.719162  1
  Ho  Ho2  1  0.499891  0.161012  0.217434  1
  Ho  Ho3  1  0.839635  0.496656  0.280830  1
  Ho  Ho4  1  0.160937  0.499875  0.782595  1
  Ho  Ho5  1  0.658975  0.999381  0.968735  1
  Ho  Ho6  1  0.002079  0.340249  0.531470  1
  Ho  Ho7  1  0.999319  0.658931  0.031347  1
  Ti  Ti8  1  0.170803  0.830730  0.248496  1
  Ti  Ti9  1  0.830777  0.170890  0.751499  1
  Ti  Ti10  1  0.669526  0.669385  0.499966  1
  Si  Si11  1  0.199757  0.129937  0.683921  1
  Si  Si12  1  0.373282  0.696580  0.934424  1
  Si  Si13  1  0.629503  0.299964  0.433669  1
  Si  Si14  1  0.696717  0.373276  0.065775  1
  Si  Si15  1  0.299422  0.628493  0.566125  1
  Si  Si16  1  0.797448  0.871202  0.184166  1
  Si  Si17  1  0.129335  0.200381  0.316034  1
  Si  Si18  1  0.871620  0.797434  0.815893  1
  Si  Si19  1  0.287509  0.963103  0.061702  1
  Si  Si20  1  0.540414  0.790475  0.313497  1
  Si  Si21  1  0.457498  0.211784  0.815210  1
  Si  Si22  1  0.790930  0.540075  0.686372  1
  Si  Si23  1  0.211319  0.457528  0.184854  1
  Si  Si24  1  0.710959  0.041864  0.563789  1
  Si  Si25  1  0.963039  0.287532  0.938382  1
  Si  Si26  1  0.041359  0.710150  0.436082  1
  Mo  Mo27  1  0.331008  0.331012  0.000034  1
  Mo  Mo28  1  0.155417  0.001683  0.873279  1
  Mo  Mo29  1  0.496275  0.665978  0.124727  1
  Mo  Mo30  1  0.505896  0.340945  0.624779  1
  Mo  Mo31  1  0.666258  0.496202  0.875358  1
  Mo  Mo32  1  0.340856  0.505594  0.375168  1
  Mo  Mo33  1  0.840888  0.993621  0.374238  1
  Mo  Mo34  1  0.001421  0.155470  0.126845  1
  Mo  Mo35  1  0.993597  0.840729  0.625707  1
