# generated using pymatgen
data_LaNpBeZn25
_symmetry_space_group_name_H-M   'P 1'
_cell_length_a   8.62921794
_cell_length_b   8.62914542
_cell_length_c   8.62912100
_cell_angle_alpha   60.00571717
_cell_angle_beta   60.00551212
_cell_angle_gamma   60.00615447
_symmetry_Int_Tables_number   1
_chemical_formula_structural   LaNpBeZn25
_chemical_formula_sum   'La1 Np1 Be1 Zn25'
_cell_volume   454.40995502
_cell_formula_units_Z   1
loop_
 _symmetry_equiv_pos_site_id
 _symmetry_equiv_pos_as_xyz
  1  'x, y, z'
loop_
 _atom_site_type_symbol
 _atom_site_label
 _atom_site_symmetry_multiplicity
 _atom_site_fract_x
 _atom_site_fract_y
 _atom_site_fract_z
 _atom_site_occupancy
  La  La0  1  0.749721  0.750106  0.750138  1
  Np  Np1  1  0.250166  0.249784  0.250019  1
  Be  Be2  1  0.500031  0.499992  0.500018  1
  Zn  Zn3  1  0.999990  0.000044  0.999900  1
  Zn  Zn4  1  0.790783  0.559735  0.209920  1
  Zn  Zn5  1  0.209924  0.439593  0.790622  1
  Zn  Zn6  1  0.559986  0.790289  0.439722  1
  Zn  Zn7  1  0.439646  0.210076  0.559852  1
  Zn  Zn8  1  0.306824  0.947000  0.692206  1
  Zn  Zn9  1  0.692205  0.054021  0.306764  1
  Zn  Zn10  1  0.947036  0.306747  0.053733  1
  Zn  Zn11  1  0.053713  0.692524  0.947009  1
  Zn  Zn12  1  0.209964  0.790688  0.559775  1
  Zn  Zn13  1  0.790352  0.209929  0.439761  1
  Zn  Zn14  1  0.439717  0.559980  0.790369  1
  Zn  Zn15  1  0.559665  0.439562  0.209928  1
  Zn  Zn16  1  0.692544  0.306682  0.946986  1
  Zn  Zn17  1  0.306636  0.692450  0.053871  1
  Zn  Zn18  1  0.053938  0.947051  0.306656  1
  Zn  Zn19  1  0.946934  0.053746  0.692583  1
  Zn  Zn20  1  0.560014  0.210085  0.790439  1
  Zn  Zn21  1  0.439566  0.790694  0.210049  1
  Zn  Zn22  1  0.790462  0.439501  0.559964  1
  Zn  Zn23  1  0.210015  0.559780  0.439616  1
  Zn  Zn24  1  0.947228  0.692205  0.306634  1
  Zn  Zn25  1  0.053766  0.306808  0.692484  1
  Zn  Zn26  1  0.306650  0.053897  0.947274  1
  Zn  Zn27  1  0.692525  0.947033  0.053707  1
