# generated using pymatgen
data_Dy7Sn22BiOs6
_symmetry_space_group_name_H-M   'P 1'
_cell_length_a   9.87256800
_cell_length_b   9.87256777
_cell_length_c   10.13258200
_cell_angle_alpha   90.00000000
_cell_angle_beta   90.00000000
_cell_angle_gamma   119.99999407
_symmetry_Int_Tables_number   1
_chemical_formula_structural   Dy7Sn22BiOs6
_chemical_formula_sum   'Dy7 Sn22 Bi1 Os6'
_cell_volume   855.28536750
_cell_formula_units_Z   1
loop_
 _symmetry_equiv_pos_site_id
 _symmetry_equiv_pos_as_xyz
  1  'x, y, z'
loop_
 _atom_site_type_symbol
 _atom_site_label
 _atom_site_symmetry_multiplicity
 _atom_site_fract_x
 _atom_site_fract_y
 _atom_site_fract_z
 _atom_site_occupancy
  Dy  Dy0  1  0.000000  0.000000  0.000000  1
  Dy  Dy1  1  0.485333  0.514667  0.301784  1
  Dy  Dy2  1  0.514667  0.485333  0.698216  1
  Dy  Dy3  1  0.485333  0.970666  0.301784  1
  Dy  Dy4  1  0.514667  0.029334  0.698216  1
  Dy  Dy5  1  0.029334  0.514667  0.301784  1
  Dy  Dy6  1  0.970666  0.485333  0.698216  1
  Sn  Sn7  1  0.349927  0.000000  0.000000  1
  Sn  Sn8  1  0.650073  0.000000  0.000000  1
  Sn  Sn9  1  0.000000  0.349927  0.000000  1
  Sn  Sn10  1  0.000000  0.650073  0.000000  1
  Sn  Sn11  1  0.650073  0.650073  0.000000  1
  Sn  Sn12  1  0.349927  0.349927  0.000000  1
  Sn  Sn13  1  0.333333  0.666667  0.824741  1
  Sn  Sn14  1  0.666667  0.333333  0.175259  1
  Sn  Sn15  1  0.779519  0.220481  0.462889  1
  Sn  Sn16  1  0.220481  0.779519  0.537111  1
  Sn  Sn17  1  0.779519  0.559037  0.462889  1
  Sn  Sn18  1  0.220481  0.440963  0.537111  1
  Sn  Sn19  1  0.440963  0.220481  0.462889  1
  Sn  Sn20  1  0.559037  0.779519  0.537111  1
  Sn  Sn21  1  0.333333  0.666667  0.129841  1
  Sn  Sn22  1  0.666667  0.333333  0.870159  1
  Sn  Sn23  1  0.118266  0.881734  0.274598  1
  Sn  Sn24  1  0.881734  0.118266  0.725402  1
  Sn  Sn25  1  0.118266  0.236533  0.274598  1
  Sn  Sn26  1  0.881734  0.763467  0.725402  1
  Sn  Sn27  1  0.763467  0.881734  0.274598  1
  Sn  Sn28  1  0.236533  0.118266  0.725402  1
  Bi  Bi29  1  0.000000  0.000000  0.500000  1
  Os  Os30  1  0.830018  0.169982  0.202159  1
  Os  Os31  1  0.169982  0.830018  0.797841  1
  Os  Os32  1  0.830018  0.660036  0.202159  1
  Os  Os33  1  0.169982  0.339964  0.797841  1
  Os  Os34  1  0.339964  0.169982  0.202159  1
  Os  Os35  1  0.660036  0.830018  0.797841  1
