# generated using pymatgen
data_NdSn5BiRu4
_symmetry_space_group_name_H-M   'P 1'
_cell_length_a   6.98290608
_cell_length_b   6.98290672
_cell_length_c   7.01170152
_cell_angle_alpha   119.95024974
_cell_angle_beta   119.95024778
_cell_angle_gamma   89.98327154
_symmetry_Int_Tables_number   1
_chemical_formula_structural   NdSn5BiRu4
_chemical_formula_sum   'Nd1 Sn5 Bi1 Ru4'
_cell_volume   242.15625998
_cell_formula_units_Z   1
loop_
 _symmetry_equiv_pos_site_id
 _symmetry_equiv_pos_as_xyz
  1  'x, y, z'
loop_
 _atom_site_type_symbol
 _atom_site_label
 _atom_site_symmetry_multiplicity
 _atom_site_fract_x
 _atom_site_fract_y
 _atom_site_fract_z
 _atom_site_occupancy
  Nd  Nd0  1  0.997019  0.997019  0.995706  1
  Sn  Sn1  1  0.117936  0.117936  0.590643  1
  Sn  Sn2  1  0.881893  0.529378  0.408620  1
  Sn  Sn3  1  0.529378  0.881893  0.408620  1
  Sn  Sn4  1  0.002636  0.500424  0.003017  1
  Sn  Sn5  1  0.500424  0.002636  0.003017  1
  Bi  Bi6  1  0.469105  0.469105  0.588775  1
  Ru  Ru7  1  0.407062  0.407062  0.153886  1
  Ru  Ru8  1  0.751108  0.751108  0.158994  1
  Ru  Ru9  1  0.247385  0.596054  0.844360  1
  Ru  Ru10  1  0.596054  0.247385  0.844360  1
