# generated using pymatgen
data_Tm12Th4Mg4RuRh3
_symmetry_space_group_name_H-M   'P 1'
_cell_length_a   9.74334021
_cell_length_b   9.74334023
_cell_length_c   9.74333936
_cell_angle_alpha   59.35469586
_cell_angle_beta   59.35469735
_cell_angle_gamma   59.35469498
_symmetry_Int_Tables_number   1
_chemical_formula_structural   Tm12Th4Mg4RuRh3
_chemical_formula_sum   'Tm12 Th4 Mg4 Ru1 Rh3'
_cell_volume   644.43924378
_cell_formula_units_Z   1
loop_
 _symmetry_equiv_pos_site_id
 _symmetry_equiv_pos_as_xyz
  1  'x, y, z'
loop_
 _atom_site_type_symbol
 _atom_site_label
 _atom_site_symmetry_multiplicity
 _atom_site_fract_x
 _atom_site_fract_y
 _atom_site_fract_z
 _atom_site_occupancy
  Tm  Tm0  1  0.063802  0.436493  0.436493  1
  Tm  Tm1  1  0.434645  0.064256  0.064256  1
  Tm  Tm2  1  0.436493  0.063802  0.436493  1
  Tm  Tm3  1  0.064256  0.434645  0.064256  1
  Tm  Tm4  1  0.436493  0.436493  0.063802  1
  Tm  Tm5  1  0.064256  0.064256  0.434645  1
  Tm  Tm6  1  0.183343  0.817500  0.817500  1
  Tm  Tm7  1  0.815882  0.183389  0.183389  1
  Tm  Tm8  1  0.817500  0.183343  0.817500  1
  Tm  Tm9  1  0.183389  0.815882  0.183389  1
  Tm  Tm10  1  0.817500  0.817500  0.183343  1
  Tm  Tm11  1  0.183389  0.183389  0.815882  1
  Th  Th12  1  0.598824  0.598824  0.598824  1
  Th  Th13  1  0.597637  0.597637  0.204560  1
  Th  Th14  1  0.597637  0.204560  0.597637  1
  Th  Th15  1  0.204560  0.597637  0.597637  1
  Mg  Mg16  1  0.830798  0.830798  0.830798  1
  Mg  Mg17  1  0.830025  0.830025  0.507146  1
  Mg  Mg18  1  0.830025  0.507146  0.830025  1
  Mg  Mg19  1  0.507146  0.830025  0.830025  1
  Ru  Ru20  1  0.394584  0.394584  0.394584  1
  Rh  Rh21  1  0.393293  0.393293  0.821229  1
  Rh  Rh22  1  0.393293  0.821229  0.393293  1
  Rh  Rh23  1  0.821229  0.393293  0.393293  1
