# generated using pymatgen
data_Nd2GaSi3IrRh5
_symmetry_space_group_name_H-M   'P 1'
_cell_length_a   6.72788912
_cell_length_b   6.73046221
_cell_length_c   6.72833171
_cell_angle_alpha   130.20404257
_cell_angle_beta   114.42056178
_cell_angle_gamma   86.61675052
_symmetry_Int_Tables_number   1
_chemical_formula_structural   Nd2GaSi3IrRh5
_chemical_formula_sum   'Nd2 Ga1 Si3 Ir1 Rh5'
_cell_volume   202.18901919
_cell_formula_units_Z   1
loop_
 _symmetry_equiv_pos_site_id
 _symmetry_equiv_pos_as_xyz
  1  'x, y, z'
loop_
 _atom_site_type_symbol
 _atom_site_label
 _atom_site_symmetry_multiplicity
 _atom_site_fract_x
 _atom_site_fract_y
 _atom_site_fract_z
 _atom_site_occupancy
  Nd  Nd0  1  0.749880  0.043368  0.293266  1
  Nd  Nd1  1  0.251265  0.971525  0.720038  1
  Ga  Ga2  1  0.591916  0.387698  0.797223  1
  Si  Si3  1  0.434234  0.634264  0.200786  1
  Si  Si4  1  0.070635  0.271944  0.200571  1
  Si  Si5  1  0.905005  0.697380  0.792023  1
  Ir  Ir6  1  0.213650  0.504836  0.717878  1
  Rh  Rh7  1  0.726380  0.995432  0.728397  1
  Rh  Rh8  1  0.786727  0.505095  0.291049  1
  Rh  Rh9  1  0.267169  0.995747  0.269559  1
  Rh  Rh10  1  0.475105  0.496639  0.467841  1
  Rh  Rh11  1  0.028031  0.496072  0.021367  1
