# generated using pymatgen
data_Yb2SmU(B4Ru)4
_symmetry_space_group_name_H-M   'P 1'
_cell_length_a   3.55801600
_cell_length_b   5.95427108
_cell_length_c   11.51274530
_cell_angle_alpha   90.02241345
_cell_angle_beta   90.00000000
_cell_angle_gamma   90.00000000
_symmetry_Int_Tables_number   1
_chemical_formula_structural   Yb2SmU(B4Ru)4
_chemical_formula_sum   'Yb2 Sm1 U1 B16 Ru4'
_cell_volume   243.90200084
_cell_formula_units_Z   1
loop_
 _symmetry_equiv_pos_site_id
 _symmetry_equiv_pos_as_xyz
  1  'x, y, z'
loop_
 _atom_site_type_symbol
 _atom_site_label
 _atom_site_symmetry_multiplicity
 _atom_site_fract_x
 _atom_site_fract_y
 _atom_site_fract_z
 _atom_site_occupancy
  Yb  Yb0  1  0.500000  0.127728  0.353116  1
  Yb  Yb1  1  0.500000  0.871380  0.648646  1
  Sm  Sm2  1  0.500000  0.370833  0.847282  1
  U  U3  1  0.500000  0.628960  0.152801  1
  B  B4  1  0.000000  0.973666  0.192205  1
  B  B5  1  0.000000  0.022696  0.808207  1
  B  B6  1  0.000000  0.477594  0.307898  1
  B  B7  1  0.000000  0.525385  0.689361  1
  B  B8  1  0.000000  0.787636  0.313780  1
  B  B9  1  0.000000  0.211273  0.682769  1
  B  B10  1  0.000000  0.291108  0.186080  1
  B  B11  1  0.000000  0.716663  0.813055  1
  B  B12  1  0.000000  0.862795  0.468810  1
  B  B13  1  0.000000  0.135685  0.529416  1
  B  B14  1  0.000000  0.366160  0.032952  1
  B  B15  1  0.000000  0.636029  0.970568  1
  B  B16  1  0.000000  0.886364  0.048088  1
  B  B17  1  0.000000  0.109339  0.953668  1
  B  B18  1  0.000000  0.385951  0.453342  1
  B  B19  1  0.000000  0.612962  0.545270  1
  Ru  Ru20  1  0.500000  0.637492  0.405781  1
  Ru  Ru21  1  0.500000  0.362661  0.589238  1
  Ru  Ru22  1  0.500000  0.141445  0.095579  1
  Ru  Ru23  1  0.500000  0.858195  0.912090  1
