# generated using pymatgen
data_Tb17Dy3(IrRh3)3
_symmetry_space_group_name_H-M   'P 1'
_cell_length_a   10.93904111
_cell_length_b   10.93891935
_cell_length_c   6.38823000
_cell_angle_alpha   89.99918871
_cell_angle_beta   89.99918339
_cell_angle_gamma   89.96357123
_symmetry_Int_Tables_number   1
_chemical_formula_structural   Tb17Dy3(IrRh3)3
_chemical_formula_sum   'Tb17 Dy3 Ir3 Rh9'
_cell_volume   764.42367785
_cell_formula_units_Z   1
loop_
 _symmetry_equiv_pos_site_id
 _symmetry_equiv_pos_as_xyz
  1  'x, y, z'
loop_
 _atom_site_type_symbol
 _atom_site_label
 _atom_site_symmetry_multiplicity
 _atom_site_fract_x
 _atom_site_fract_y
 _atom_site_fract_z
 _atom_site_occupancy
  Tb  Tb0  1  0.291134  0.089999  0.378637  1
  Tb  Tb1  1  0.291153  0.909832  0.878615  1
  Tb  Tb2  1  0.709062  0.088755  0.878713  1
  Tb  Tb3  1  0.708705  0.909959  0.378482  1
  Tb  Tb4  1  0.588013  0.789805  0.879688  1
  Tb  Tb5  1  0.587603  0.209423  0.378639  1
  Tb  Tb6  1  0.412010  0.789936  0.379270  1
  Tb  Tb7  1  0.410715  0.209516  0.879866  1
  Tb  Tb8  1  0.210202  0.412009  0.620305  1
  Tb  Tb9  1  0.210061  0.588012  0.120741  1
  Tb  Tb10  1  0.790582  0.412374  0.121373  1
  Tb  Tb11  1  0.790479  0.589264  0.620126  1
  Tb  Tb12  1  0.910007  0.708927  0.121303  1
  Tb  Tb13  1  0.911239  0.290998  0.621343  1
  Tb  Tb14  1  0.090175  0.708789  0.621445  1
  Tb  Tb15  1  0.090035  0.291233  0.121459  1
  Tb  Tb16  1  0.999872  0.999958  0.499927  1
  Dy  Dy17  1  0.000044  0.000122  0.000069  1
  Dy  Dy18  1  0.499726  0.500074  0.999982  1
  Dy  Dy19  1  0.499927  0.500272  0.500018  1
  Ir  Ir20  1  0.654405  0.653838  0.250065  1
  Ir  Ir21  1  0.346165  0.345588  0.249949  1
  Ir  Ir22  1  0.345598  0.654401  0.749991  1
  Rh  Rh23  1  0.846272  0.153722  0.249809  1
  Rh  Rh24  1  0.846647  0.846966  0.750359  1
  Rh  Rh25  1  0.153026  0.153360  0.750023  1
  Rh  Rh26  1  0.153128  0.846881  0.249813  1
  Rh  Rh27  1  0.654575  0.345429  0.749992  1
  Rh  Rh28  1  0.500269  0.000467  0.123983  1
  Rh  Rh29  1  0.500340  0.000700  0.624467  1
  Rh  Rh30  1  0.999298  0.499662  0.875518  1
  Rh  Rh31  1  0.999534  0.499729  0.376032  1
