# generated using pymatgen
data_YEr2Hf(Al8Pt3)3
_symmetry_space_group_name_H-M   'P 1'
_cell_length_a   7.51249507
_cell_length_b   7.51078895
_cell_length_c   13.08858214
_cell_angle_alpha   84.50989651
_cell_angle_beta   100.97492578
_cell_angle_gamma   119.85909280
_symmetry_Int_Tables_number   1
_chemical_formula_structural   YEr2Hf(Al8Pt3)3
_chemical_formula_sum   'Y1 Er2 Hf1 Al24 Pt9'
_cell_volume   628.76900730
_cell_formula_units_Z   1
loop_
 _symmetry_equiv_pos_site_id
 _symmetry_equiv_pos_as_xyz
  1  'x, y, z'
loop_
 _atom_site_type_symbol
 _atom_site_label
 _atom_site_symmetry_multiplicity
 _atom_site_fract_x
 _atom_site_fract_y
 _atom_site_fract_z
 _atom_site_occupancy
  Y  Y0  1  0.732395  0.999024  0.191293  1
  Er  Er1  1  0.061865  0.668105  0.191925  1
  Er  Er2  1  0.938375  0.332014  0.807938  1
  Hf  Hf3  1  0.266965  0.000468  0.807696  1
  Al  Al4  1  0.812616  0.869185  0.815324  1
  Al  Al5  1  0.192647  0.130520  0.184411  1
  Al  Al6  1  0.984072  0.668765  0.941215  1
  Al  Al7  1  0.018837  0.334702  0.055144  1
  Al  Al8  1  0.398339  0.669120  0.816456  1
  Al  Al9  1  0.601891  0.336329  0.183126  1
  Al  Al10  1  0.885390  0.667131  0.674389  1
  Al  Al11  1  0.116718  0.334591  0.328879  1
  Al  Al12  1  0.597331  0.452431  0.815990  1
  Al  Al13  1  0.396833  0.542286  0.184012  1
  Al  Al14  1  0.231347  0.337968  0.673167  1
  Al  Al15  1  0.770137  0.660549  0.330156  1
  Al  Al16  1  0.852981  0.333339  0.559168  1
  Al  Al17  1  0.186819  0.999673  0.560394  1
  Al  Al18  1  0.814387  0.000263  0.441482  1
  Al  Al19  1  0.350736  0.998849  0.053649  1
  Al  Al20  1  0.644077  0.001704  0.940920  1
  Al  Al21  1  0.555176  0.993177  0.674609  1
  Al  Al22  1  0.443804  0.006078  0.328858  1
  Al  Al23  1  0.521032  0.667160  0.562636  1
  Al  Al24  1  0.478825  0.332456  0.438350  1
  Al  Al25  1  0.683335  0.667220  0.046639  1
  Al  Al26  1  0.315217  0.329235  0.949417  1
  Al  Al27  1  0.147431  0.667170  0.441651  1
  Pt  Pt28  1  0.328032  0.671416  0.999167  1
  Pt  Pt29  1  0.545688  0.323181  0.638362  1
  Pt  Pt30  1  0.454388  0.675374  0.363079  1
  Pt  Pt31  1  0.889750  0.009756  0.640036  1
  Pt  Pt32  1  0.112168  0.991586  0.361299  1
  Pt  Pt33  1  0.671950  0.328539  0.999067  1
  Pt  Pt34  1  0.203104  0.666689  0.640170  1
  Pt  Pt35  1  0.795795  0.333109  0.361111  1
  Pt  Pt36  1  0.999550  0.000837  0.998813  1
