# generated using pymatgen
data_Zr5CoSn2Pb
_symmetry_space_group_name_H-M   'P 1'
_cell_length_a   5.84354300
_cell_length_b   8.76666497
_cell_length_c   8.76666411
_cell_angle_alpha   119.98219008
_cell_angle_beta   90.00000000
_cell_angle_gamma   90.00000000
_symmetry_Int_Tables_number   1
_chemical_formula_structural   Zr5CoSn2Pb
_chemical_formula_sum   'Zr10 Co2 Sn4 Pb2'
_cell_volume   389.00355022
_cell_formula_units_Z   2
loop_
 _symmetry_equiv_pos_site_id
 _symmetry_equiv_pos_as_xyz
  1  'x, y, z'
loop_
 _atom_site_type_symbol
 _atom_site_label
 _atom_site_symmetry_multiplicity
 _atom_site_fract_x
 _atom_site_fract_y
 _atom_site_fract_z
 _atom_site_occupancy
  Zr  Zr0  1  0.750000  0.759214  0.759214  1
  Zr  Zr1  1  0.250000  0.240786  0.240786  1
  Zr  Zr2  1  0.750000  0.994627  0.245714  1
  Zr  Zr3  1  0.250000  0.005373  0.754286  1
  Zr  Zr4  1  0.750000  0.245714  0.994627  1
  Zr  Zr5  1  0.250000  0.754286  0.005373  1
  Zr  Zr6  1  0.000000  0.669404  0.330596  1
  Zr  Zr7  1  0.000000  0.330596  0.669404  1
  Zr  Zr8  1  0.500000  0.330596  0.669404  1
  Zr  Zr9  1  0.500000  0.669404  0.330596  1
  Co  Co10  1  0.000000  0.000000  0.000000  1
  Co  Co11  1  0.500000  0.000000  0.000000  1
  Sn  Sn12  1  0.750000  0.998231  0.602444  1
  Sn  Sn13  1  0.250000  0.001769  0.397556  1
  Sn  Sn14  1  0.750000  0.602444  0.998231  1
  Sn  Sn15  1  0.250000  0.397556  0.001769  1
  Pb  Pb16  1  0.750000  0.395407  0.395407  1
  Pb  Pb17  1  0.250000  0.604593  0.604593  1
