# generated using pymatgen
data_SmNb6InCl18
_symmetry_space_group_name_H-M   'P 1'
_cell_length_a   10.25494885
_cell_length_b   10.25494922
_cell_length_c   10.25494928
_cell_angle_alpha   55.23196083
_cell_angle_beta   55.23195247
_cell_angle_gamma   55.23196146
_symmetry_Int_Tables_number   1
_chemical_formula_structural   SmNb6InCl18
_chemical_formula_sum   'Sm1 Nb6 In1 Cl18'
_cell_volume   678.06233364
_cell_formula_units_Z   1
loop_
 _symmetry_equiv_pos_site_id
 _symmetry_equiv_pos_as_xyz
  1  'x, y, z'
loop_
 _atom_site_type_symbol
 _atom_site_label
 _atom_site_symmetry_multiplicity
 _atom_site_fract_x
 _atom_site_fract_y
 _atom_site_fract_z
 _atom_site_occupancy
  Sm  Sm0  1  0.498395  0.498395  0.498395  1
  Nb  Nb1  1  0.799720  0.148976  0.913478  1
  Nb  Nb2  1  0.913478  0.799720  0.148976  1
  Nb  Nb3  1  0.148976  0.913478  0.799720  1
  Nb  Nb4  1  0.201387  0.851367  0.085573  1
  Nb  Nb5  1  0.085573  0.201387  0.851367  1
  Nb  Nb6  1  0.851367  0.085573  0.201387  1
  In  In7  1  0.221409  0.221409  0.221409  1
  Cl  Cl8  1  0.862138  0.413235  0.726711  1
  Cl  Cl9  1  0.726711  0.862138  0.413235  1
  Cl  Cl10  1  0.413235  0.726711  0.862138  1
  Cl  Cl11  1  0.137623  0.586278  0.274275  1
  Cl  Cl12  1  0.274275  0.137623  0.586278  1
  Cl  Cl13  1  0.586278  0.274275  0.137623  1
  Cl  Cl14  1  0.530498  0.340138  0.810417  1
  Cl  Cl15  1  0.810417  0.530498  0.340138  1
  Cl  Cl16  1  0.340138  0.810417  0.530498  1
  Cl  Cl17  1  0.464863  0.661026  0.193003  1
  Cl  Cl18  1  0.193003  0.464863  0.661026  1
  Cl  Cl19  1  0.661026  0.193003  0.464863  1
  Cl  Cl20  1  0.661660  0.938573  0.073337  1
  Cl  Cl21  1  0.073337  0.661660  0.938573  1
  Cl  Cl22  1  0.938573  0.073337  0.661660  1
  Cl  Cl23  1  0.338178  0.062353  0.926530  1
  Cl  Cl24  1  0.926530  0.338178  0.062353  1
  Cl  Cl25  1  0.062353  0.926530  0.338178  1
