# generated using pymatgen
data_Dy17Tm3Si13As3
_symmetry_space_group_name_H-M   'P 1'
_cell_length_a   7.55164555
_cell_length_b   7.61472096
_cell_length_c   14.53722261
_cell_angle_alpha   89.87332309
_cell_angle_beta   89.16637834
_cell_angle_gamma   90.00917461
_symmetry_Int_Tables_number   1
_chemical_formula_structural   Dy17Tm3Si13As3
_chemical_formula_sum   'Dy17 Tm3 Si13 As3'
_cell_volume   835.85316942
_cell_formula_units_Z   1
loop_
 _symmetry_equiv_pos_site_id
 _symmetry_equiv_pos_as_xyz
  1  'x, y, z'
loop_
 _atom_site_type_symbol
 _atom_site_label
 _atom_site_symmetry_multiplicity
 _atom_site_fract_x
 _atom_site_fract_y
 _atom_site_fract_z
 _atom_site_occupancy
  Dy  Dy0  1  0.288878  0.001882  0.751845  1
  Dy  Dy1  1  0.038401  0.824777  0.106504  1
  Dy  Dy2  1  0.524739  0.673916  0.397448  1
  Dy  Dy3  1  0.461216  0.325620  0.893590  1
  Dy  Dy4  1  0.974336  0.180475  0.601945  1
  Dy  Dy5  1  0.969896  0.177688  0.894153  1
  Dy  Dy6  1  0.478993  0.323297  0.600982  1
  Dy  Dy7  1  0.529178  0.677892  0.105533  1
  Dy  Dy8  1  0.019917  0.816815  0.397979  1
  Dy  Dy9  1  0.614019  0.837208  0.882378  1
  Dy  Dy10  1  0.121208  0.663827  0.618966  1
  Dy  Dy11  1  0.887171  0.336993  0.117065  1
  Dy  Dy12  1  0.378108  0.164245  0.382040  1
  Dy  Dy13  1  0.383166  0.164735  0.117085  1
  Dy  Dy14  1  0.877821  0.334739  0.380673  1
  Dy  Dy15  1  0.116498  0.664841  0.882781  1
  Dy  Dy16  1  0.624058  0.834930  0.618261  1
  Tm  Tm17  1  0.712226  0.998412  0.254063  1
  Tm  Tm18  1  0.213310  0.500246  0.250831  1
  Tm  Tm19  1  0.786506  0.498524  0.746440  1
  Si  Si20  1  0.824076  0.628830  0.249554  1
  Si  Si21  1  0.324906  0.870647  0.250813  1
  Si  Si22  1  0.675128  0.130580  0.749663  1
  Si  Si23  1  0.173454  0.372143  0.749221  1
  Si  Si24  1  0.087918  0.110776  0.249508  1
  Si  Si25  1  0.587840  0.387602  0.248082  1
  Si  Si26  1  0.413340  0.612288  0.750230  1
  Si  Si27  1  0.911752  0.888959  0.750687  1
  Si  Si28  1  0.215014  0.466816  0.456641  1
  Si  Si29  1  0.224821  0.475288  0.046288  1
  Si  Si30  1  0.718624  0.031189  0.455566  1
  Si  Si31  1  0.275304  0.974726  0.954479  1
  Si  Si32  1  0.786776  0.532599  0.544048  1
  As  As33  1  0.772396  0.523578  0.953162  1
  As  As34  1  0.281595  0.969345  0.544885  1
  As  As35  1  0.727411  0.023568  0.046612  1
