# generated using pymatgen
data_Zr5ZnBiSb
_symmetry_space_group_name_H-M   'P 1'
_cell_length_a   5.57880709
_cell_length_b   8.44798443
_cell_length_c   8.45625800
_cell_angle_alpha   83.74717991
_cell_angle_beta   70.73955097
_cell_angle_gamma   70.71996063
_symmetry_Int_Tables_number   1
_chemical_formula_structural   Zr5ZnBiSb
_chemical_formula_sum   'Zr10 Zn2 Bi2 Sb2'
_cell_volume   355.13323641
_cell_formula_units_Z   2
loop_
 _symmetry_equiv_pos_site_id
 _symmetry_equiv_pos_as_xyz
  1  'x, y, z'
loop_
 _atom_site_type_symbol
 _atom_site_label
 _atom_site_symmetry_multiplicity
 _atom_site_fract_x
 _atom_site_fract_y
 _atom_site_fract_z
 _atom_site_occupancy
  Zr  Zr0  1  0.251761  0.500000  0.500000  1
  Zr  Zr1  1  0.748239  0.500000  0.500000  1
  Zr  Zr2  1  0.078916  0.133482  0.708687  1
  Zr  Zr3  1  0.921084  0.866518  0.291313  1
  Zr  Zr4  1  0.785361  0.285573  0.143706  1
  Zr  Zr5  1  0.429067  0.285573  0.856294  1
  Zr  Zr6  1  0.214639  0.714427  0.856294  1
  Zr  Zr7  1  0.570933  0.714427  0.143706  1
  Zr  Zr8  1  0.712398  0.866518  0.708687  1
  Zr  Zr9  1  0.287602  0.133482  0.291313  1
  Zn  Zn10  1  0.250000  0.000000  0.000000  1
  Zn  Zn11  1  0.750000  0.000000  0.000000  1
  Bi  Bi12  1  0.165578  0.500000  0.168845  1
  Bi  Bi13  1  0.834422  0.500000  0.831155  1
  Sb  Sb14  1  0.337084  0.825832  0.500000  1
  Sb  Sb15  1  0.662916  0.174168  0.500000  1
