# generated using pymatgen
data_LaNdTiCrO8
_symmetry_space_group_name_H-M   'P 1'
_cell_length_a   6.24538712
_cell_length_b   6.24538605
_cell_length_c   6.24538622
_cell_angle_alpha   106.00635343
_cell_angle_beta   106.00635059
_cell_angle_gamma   116.64826749
_symmetry_Int_Tables_number   1
_chemical_formula_structural   LaNdTiCrO8
_chemical_formula_sum   'La1 Nd1 Ti1 Cr1 O8'
_cell_volume   185.29045944
_cell_formula_units_Z   1
loop_
 _symmetry_equiv_pos_site_id
 _symmetry_equiv_pos_as_xyz
  1  'x, y, z'
loop_
 _atom_site_type_symbol
 _atom_site_label
 _atom_site_symmetry_multiplicity
 _atom_site_fract_x
 _atom_site_fract_y
 _atom_site_fract_z
 _atom_site_occupancy
  La  La0  1  0.000000  0.000000  0.000000  1
  Nd  Nd1  1  0.250000  0.750000  0.500000  1
  Ti  Ti2  1  0.750000  0.250000  0.500000  1
  Cr  Cr3  1  0.500000  0.500000  0.000000  1
  O  O4  1  0.345072  0.520205  0.175132  1
  O  O5  1  0.380021  0.062013  0.318008  1
  O  O6  1  0.744004  0.062013  0.681992  1
  O  O7  1  0.345072  0.169940  0.824868  1
  O  O8  1  0.830060  0.654928  0.175132  1
  O  O9  1  0.937987  0.255996  0.318008  1
  O  O10  1  0.937987  0.619979  0.681992  1
  O  O11  1  0.479795  0.654928  0.824868  1
