# generated using pymatgen
data_DyYErTaO7
_symmetry_space_group_name_H-M   'P 1'
_cell_length_a   6.49081597
_cell_length_b   6.49081635
_cell_length_c   7.46044000
_cell_angle_alpha   89.95987668
_cell_angle_beta   89.95987937
_cell_angle_gamma   108.51438893
_symmetry_Int_Tables_number   1
_chemical_formula_structural   DyYErTaO7
_chemical_formula_sum   'Dy2 Y2 Er2 Ta2 O14'
_cell_volume   298.04567405
_cell_formula_units_Z   2
loop_
 _symmetry_equiv_pos_site_id
 _symmetry_equiv_pos_as_xyz
  1  'x, y, z'
loop_
 _atom_site_type_symbol
 _atom_site_label
 _atom_site_symmetry_multiplicity
 _atom_site_fract_x
 _atom_site_fract_y
 _atom_site_fract_z
 _atom_site_occupancy
  Dy  Dy0  1  0.999979  0.465071  0.741311  1
  Dy  Dy1  1  0.534929  0.000021  0.758689  1
  Y  Y2  1  0.463332  0.462380  0.000810  1
  Y  Y3  1  0.537620  0.536668  0.499190  1
  Er  Er4  1  0.000582  0.535220  0.240961  1
  Er  Er5  1  0.464780  0.999418  0.259039  1
  Ta  Ta6  1  0.002229  0.002649  0.498854  1
  Ta  Ta7  1  0.997351  0.997771  0.001146  1
  O  O8  1  0.932018  0.067982  0.750000  1
  O  O9  1  0.639774  0.360226  0.750000  1
  O  O10  1  0.308431  0.050678  0.543175  1
  O  O11  1  0.949322  0.691569  0.956825  1
  O  O12  1  0.630534  0.369466  0.250000  1
  O  O13  1  0.918080  0.671386  0.523006  1
  O  O14  1  0.328614  0.081920  0.976994  1
  O  O15  1  0.081385  0.328334  0.026188  1
  O  O16  1  0.671666  0.918615  0.473812  1
  O  O17  1  0.370717  0.629283  0.750000  1
  O  O18  1  0.693098  0.953071  0.047337  1
  O  O19  1  0.046929  0.306902  0.452663  1
  O  O20  1  0.358019  0.641981  0.250000  1
  O  O21  1  0.070611  0.929389  0.250000  1
