# generated using pymatgen
data_Y8ReIrBr8
_symmetry_space_group_name_H-M   'P 1'
_cell_length_a   8.98911957
_cell_length_b   8.98911807
_cell_length_c   6.59921904
_cell_angle_alpha   89.50229538
_cell_angle_beta   89.50229505
_cell_angle_gamma   89.29298898
_symmetry_Int_Tables_number   1
_chemical_formula_structural   Y8ReIrBr8
_chemical_formula_sum   'Y8 Re1 Ir1 Br8'
_cell_volume   533.16465173
_cell_formula_units_Z   1
loop_
 _symmetry_equiv_pos_site_id
 _symmetry_equiv_pos_as_xyz
  1  'x, y, z'
loop_
 _atom_site_type_symbol
 _atom_site_label
 _atom_site_symmetry_multiplicity
 _atom_site_fract_x
 _atom_site_fract_y
 _atom_site_fract_z
 _atom_site_occupancy
  Y  Y0  1  0.749033  0.099954  0.992093  1
  Y  Y1  1  0.099124  0.750596  0.486693  1
  Y  Y2  1  0.097855  0.249135  0.994143  1
  Y  Y3  1  0.248990  0.097944  0.488713  1
  Y  Y4  1  0.902056  0.751010  0.011287  1
  Y  Y5  1  0.900046  0.250967  0.507907  1
  Y  Y6  1  0.249404  0.900876  0.013307  1
  Y  Y7  1  0.750865  0.902145  0.505857  1
  Re  Re8  1  0.995171  0.004829  0.250000  1
  Ir  Ir9  1  0.005017  0.994983  0.750000  1
  Br  Br10  1  0.581309  0.182700  0.592246  1
  Br  Br11  1  0.810776  0.585024  0.406815  1
  Br  Br12  1  0.414976  0.189224  0.093185  1
  Br  Br13  1  0.189105  0.413665  0.594031  1
  Br  Br14  1  0.586335  0.810895  0.905969  1
  Br  Br15  1  0.419596  0.816957  0.409425  1
  Br  Br16  1  0.183043  0.580404  0.090575  1
  Br  Br17  1  0.817300  0.418691  0.907754  1
