# generated using pymatgen
data_Yb2Tm3Bi3C
_symmetry_space_group_name_H-M   'P 1'
_cell_length_a   9.14389500
_cell_length_b   9.14389357
_cell_length_c   6.52147800
_cell_angle_alpha   90.00000000
_cell_angle_beta   90.00000000
_cell_angle_gamma   120.00000155
_symmetry_Int_Tables_number   1
_chemical_formula_structural   Yb2Tm3Bi3C
_chemical_formula_sum   'Yb4 Tm6 Bi6 C2'
_cell_volume   472.21420955
_cell_formula_units_Z   2
loop_
 _symmetry_equiv_pos_site_id
 _symmetry_equiv_pos_as_xyz
  1  'x, y, z'
loop_
 _atom_site_type_symbol
 _atom_site_label
 _atom_site_symmetry_multiplicity
 _atom_site_fract_x
 _atom_site_fract_y
 _atom_site_fract_z
 _atom_site_occupancy
  Yb  Yb0  1  0.666667  0.333333  0.000000  1
  Yb  Yb1  1  0.333333  0.666667  0.000000  1
  Yb  Yb2  1  0.333333  0.666667  0.500000  1
  Yb  Yb3  1  0.666667  0.333333  0.500000  1
  Tm  Tm4  1  0.796277  0.796277  0.750000  1
  Tm  Tm5  1  0.203723  0.000000  0.750000  1
  Tm  Tm6  1  0.000000  0.203723  0.750000  1
  Tm  Tm7  1  0.203723  0.203723  0.250000  1
  Tm  Tm8  1  0.796277  0.000000  0.250000  1
  Tm  Tm9  1  0.000000  0.796277  0.250000  1
  Bi  Bi10  1  0.397965  0.397965  0.750000  1
  Bi  Bi11  1  0.602035  0.000000  0.750000  1
  Bi  Bi12  1  0.000000  0.602035  0.750000  1
  Bi  Bi13  1  0.602035  0.602035  0.250000  1
  Bi  Bi14  1  0.397965  0.000000  0.250000  1
  Bi  Bi15  1  0.000000  0.397965  0.250000  1
  C  C16  1  0.000000  0.000000  0.000000  1
  C  C17  1  0.000000  0.000000  0.500000  1
