# generated using pymatgen
data_Tm7NpSiPd24
_symmetry_space_group_name_H-M   'P 1'
_cell_length_a   8.32918479
_cell_length_b   8.32918414
_cell_length_c   8.32918400
_cell_angle_alpha   89.53374175
_cell_angle_beta   89.53374179
_cell_angle_gamma   89.53373939
_symmetry_Int_Tables_number   1
_chemical_formula_structural   Tm7NpSiPd24
_chemical_formula_sum   'Tm7 Np1 Si1 Pd24'
_cell_volume   577.78266436
_cell_formula_units_Z   1
loop_
 _symmetry_equiv_pos_site_id
 _symmetry_equiv_pos_as_xyz
  1  'x, y, z'
loop_
 _atom_site_type_symbol
 _atom_site_label
 _atom_site_symmetry_multiplicity
 _atom_site_fract_x
 _atom_site_fract_y
 _atom_site_fract_z
 _atom_site_occupancy
  Tm  Tm0  1  0.744491  0.744491  0.744491  1
  Tm  Tm1  1  0.746049  0.746049  0.253539  1
  Tm  Tm2  1  0.746049  0.253539  0.746049  1
  Tm  Tm3  1  0.254449  0.254449  0.748096  1
  Tm  Tm4  1  0.254449  0.748096  0.254449  1
  Tm  Tm5  1  0.253539  0.746049  0.746049  1
  Tm  Tm6  1  0.748096  0.254449  0.254449  1
  Np  Np7  1  0.256958  0.256958  0.256958  1
  Si  Si8  1  0.995879  0.995879  0.995879  1
  Pd  Pd9  1  0.257047  0.500570  0.001948  1
  Pd  Pd10  1  0.743350  0.498484  0.999480  1
  Pd  Pd11  1  0.001948  0.257047  0.500570  1
  Pd  Pd12  1  0.500570  0.257047  0.001948  1
  Pd  Pd13  1  0.999480  0.743350  0.498484  1
  Pd  Pd14  1  0.498484  0.743350  0.999480  1
  Pd  Pd15  1  0.500570  0.001948  0.257047  1
  Pd  Pd16  1  0.257047  0.001948  0.500570  1
  Pd  Pd17  1  0.498484  0.999480  0.743350  1
  Pd  Pd18  1  0.743350  0.999480  0.498484  1
  Pd  Pd19  1  0.001948  0.500570  0.257047  1
  Pd  Pd20  1  0.999480  0.498484  0.743350  1
  Pd  Pd21  1  0.253563  0.501486  0.501486  1
  Pd  Pd22  1  0.748801  0.499822  0.499822  1
  Pd  Pd23  1  0.501486  0.253563  0.501486  1
  Pd  Pd24  1  0.499822  0.748801  0.499822  1
  Pd  Pd25  1  0.501486  0.501486  0.253563  1
  Pd  Pd26  1  0.499822  0.499822  0.748801  1
  Pd  Pd27  1  0.276299  0.001392  0.001392  1
  Pd  Pd28  1  0.717533  0.998343  0.998343  1
  Pd  Pd29  1  0.001392  0.276299  0.001392  1
  Pd  Pd30  1  0.998343  0.717533  0.998343  1
  Pd  Pd31  1  0.001392  0.001392  0.276299  1
  Pd  Pd32  1  0.998343  0.998343  0.717533  1
