# generated using pymatgen
data_La5Pr3(IrBr6)2
_symmetry_space_group_name_H-M   'P 1'
_cell_length_a   4.29535600
_cell_length_b   13.90974321
_cell_length_c   14.76120700
_cell_angle_alpha   89.92725236
_cell_angle_beta   90.00000000
_cell_angle_gamma   90.00000000
_symmetry_Int_Tables_number   1
_chemical_formula_structural   La5Pr3(IrBr6)2
_chemical_formula_sum   'La5 Pr3 Ir2 Br12'
_cell_volume   881.94153681
_cell_formula_units_Z   1
loop_
 _symmetry_equiv_pos_site_id
 _symmetry_equiv_pos_as_xyz
  1  'x, y, z'
loop_
 _atom_site_type_symbol
 _atom_site_label
 _atom_site_symmetry_multiplicity
 _atom_site_fract_x
 _atom_site_fract_y
 _atom_site_fract_z
 _atom_site_occupancy
  La  La0  1  0.500000  0.109273  0.350156  1
  La  La1  1  0.500000  0.888825  0.648653  1
  La  La2  1  0.500000  0.610020  0.148598  1
  La  La3  1  0.500000  0.391340  0.852679  1
  La  La4  1  0.000000  0.128024  0.584886  1
  Pr  Pr5  1  0.000000  0.872762  0.415836  1
  Pr  Pr6  1  0.000000  0.628405  0.916157  1
  Pr  Pr7  1  0.000000  0.372355  0.084884  1
  Ir  Ir8  1  0.500000  0.000463  0.500368  1
  Ir  Ir9  1  0.500000  0.500490  0.000596  1
  Br  Br10  1  0.500000  0.236862  0.171221  1
  Br  Br11  1  0.500000  0.761718  0.827337  1
  Br  Br12  1  0.500000  0.740214  0.325723  1
  Br  Br13  1  0.500000  0.262672  0.674636  1
  Br  Br14  1  0.000000  0.252208  0.413669  1
  Br  Br15  1  0.000000  0.746710  0.582509  1
  Br  Br16  1  0.000000  0.752240  0.082867  1
  Br  Br17  1  0.000000  0.248737  0.917599  1
  Br  Br18  1  0.000000  0.995898  0.247279  1
  Br  Br19  1  0.000000  0.999959  0.753457  1
  Br  Br20  1  0.000000  0.496629  0.251872  1
  Br  Br21  1  0.000000  0.504196  0.749020  1
