# generated using pymatgen
data_Pr12PRuI17
_symmetry_space_group_name_H-M   'P 1'
_cell_length_a   10.10179119
_cell_length_b   12.07726571
_cell_length_c   12.08517268
_cell_angle_alpha   93.62418733
_cell_angle_beta   104.72486857
_cell_angle_gamma   114.65308194
_symmetry_Int_Tables_number   1
_chemical_formula_structural   Pr12PRuI17
_chemical_formula_sum   'Pr12 P1 Ru1 I17'
_cell_volume   1271.76556956
_cell_formula_units_Z   1
loop_
 _symmetry_equiv_pos_site_id
 _symmetry_equiv_pos_as_xyz
  1  'x, y, z'
loop_
 _atom_site_type_symbol
 _atom_site_label
 _atom_site_symmetry_multiplicity
 _atom_site_fract_x
 _atom_site_fract_y
 _atom_site_fract_z
 _atom_site_occupancy
  Pr  Pr0  1  0.058438  0.513580  0.324026  1
  Pr  Pr1  1  0.988430  0.809849  0.581046  1
  Pr  Pr2  1  0.642985  0.240275  0.285064  1
  Pr  Pr3  1  0.011371  0.188808  0.419060  1
  Pr  Pr4  1  0.221681  0.669612  0.990016  1
  Pr  Pr5  1  0.262375  0.986260  0.895331  1
  Pr  Pr6  1  0.356590  0.759517  0.717597  1
  Pr  Pr7  1  0.943091  0.488043  0.676085  1
  Pr  Pr8  1  0.738016  0.011223  0.106354  1
  Pr  Pr9  1  0.153192  0.287333  0.149393  1
  Pr  Pr10  1  0.776167  0.331005  0.008367  1
  Pr  Pr11  1  0.850732  0.713202  0.851205  1
  P  P12  1  0.103834  0.737961  0.784199  1
  Ru  Ru13  1  0.895932  0.261895  0.214105  1
  I  I14  1  0.785653  0.531731  0.422280  1
  I  I15  1  0.644189  0.422489  0.755586  1
  I  I16  1  0.842658  0.892595  0.325747  1
  I  I17  1  0.326403  0.212882  0.370388  1
  I  I18  1  0.157503  0.101596  0.678325  1
  I  I19  1  0.580666  0.048691  0.838717  1
  I  I20  1  0.754152  0.182432  0.540225  1
  I  I21  1  0.542817  0.703141  0.951179  1
  I  I22  1  0.361208  0.583376  0.241414  1
  I  I23  1  0.216316  0.474551  0.586642  1
  I  I24  1  0.056990  0.371590  0.893478  1
  I  I25  1  0.450135  0.292649  0.045002  1
  I  I26  1  0.999624  0.996856  0.996070  1
  I  I27  1  0.247139  0.820309  0.466358  1
  I  I28  1  0.407118  0.943046  0.153837  1
  I  I29  1  0.677485  0.787262  0.631798  1
  I  I30  1  0.947109  0.636243  0.101108  1
