# generated using pymatgen
data_LaBi(PSe4)2
_symmetry_space_group_name_H-M   'P 1'
_cell_length_a   7.16147600
_cell_length_b   9.62949414
_cell_length_c   13.84461700
_cell_angle_alpha   59.37061206
_cell_angle_beta   90.00000000
_cell_angle_gamma   90.00000000
_symmetry_Int_Tables_number   1
_chemical_formula_structural   LaBi(PSe4)2
_chemical_formula_sum   'La2 Bi2 P4 Se16'
_cell_volume   821.53894048
_cell_formula_units_Z   2
loop_
 _symmetry_equiv_pos_site_id
 _symmetry_equiv_pos_as_xyz
  1  'x, y, z'
loop_
 _atom_site_type_symbol
 _atom_site_label
 _atom_site_symmetry_multiplicity
 _atom_site_fract_x
 _atom_site_fract_y
 _atom_site_fract_z
 _atom_site_occupancy
  La  La0  1  0.682776  0.446440  0.164173  1
  La  La1  1  0.182776  0.553560  0.335826  1
  Bi  Bi2  1  0.336065  0.569263  0.829215  1
  Bi  Bi3  1  0.836065  0.430737  0.670785  1
  P  P4  1  0.231992  0.685315  0.041062  1
  P  P5  1  0.731992  0.314685  0.458938  1
  P  P6  1  0.763223  0.315392  0.957117  1
  P  P7  1  0.263223  0.684608  0.542883  1
  Se  Se8  1  0.230097  0.422231  0.592968  1
  Se  Se9  1  0.730097  0.577769  0.907032  1
  Se  Se10  1  0.765838  0.573636  0.410222  1
  Se  Se11  1  0.265838  0.426364  0.089778  1
  Se  Se12  1  0.254521  0.841780  0.361135  1
  Se  Se13  1  0.754521  0.158220  0.138865  1
  Se  Se14  1  0.746460  0.156930  0.642867  1
  Se  Se15  1  0.246460  0.843070  0.857133  1
  Se  Se16  1  0.528770  0.721771  0.613328  1
  Se  Se17  1  0.028770  0.278229  0.886672  1
  Se  Se18  1  0.465597  0.275902  0.390069  1
  Se  Se19  1  0.965597  0.724098  0.109931  1
  Se  Se20  1  0.043733  0.734581  0.635976  1
  Se  Se21  1  0.543733  0.265419  0.864024  1
  Se  Se22  1  0.950928  0.259413  0.367289  1
  Se  Se23  1  0.450928  0.740587  0.132711  1
