# generated using pymatgen
data_CdHg3Ir2(RuO7)2
_symmetry_space_group_name_H-M   'P 1'
_cell_length_a   7.32115061
_cell_length_b   7.32335620
_cell_length_c   7.32115115
_cell_angle_alpha   59.65867574
_cell_angle_beta   59.63278370
_cell_angle_gamma   59.65868240
_symmetry_Int_Tables_number   1
_chemical_formula_structural   CdHg3Ir2(RuO7)2
_chemical_formula_sum   'Cd1 Hg3 Ir2 Ru2 O14'
_cell_volume   275.35101716
_cell_formula_units_Z   1
loop_
 _symmetry_equiv_pos_site_id
 _symmetry_equiv_pos_as_xyz
  1  'x, y, z'
loop_
 _atom_site_type_symbol
 _atom_site_label
 _atom_site_symmetry_multiplicity
 _atom_site_fract_x
 _atom_site_fract_y
 _atom_site_fract_z
 _atom_site_occupancy
  Cd  Cd0  1  0.125000  0.125000  0.125000  1
  Hg  Hg1  1  0.125000  0.625000  0.125000  1
  Hg  Hg2  1  0.125000  0.125000  0.625000  1
  Hg  Hg3  1  0.625000  0.125000  0.125000  1
  Ir  Ir4  1  0.625000  0.625000  0.125000  1
  Ir  Ir5  1  0.125000  0.625000  0.625000  1
  Ru  Ru6  1  0.625000  0.125000  0.625000  1
  Ru  Ru7  1  0.625000  0.625000  0.625000  1
  O  O8  1  0.690013  0.695643  0.305972  1
  O  O9  1  0.944028  0.554357  0.559987  1
  O  O10  1  0.554831  0.944835  0.945121  1
  O  O11  1  0.945121  0.944835  0.554831  1
  O  O12  1  0.951767  0.542935  0.951767  1
  O  O13  1  0.564385  0.935895  0.564385  1
  O  O14  1  0.298233  0.707065  0.298233  1
  O  O15  1  0.305972  0.695643  0.690013  1
  O  O16  1  0.695169  0.305165  0.304879  1
  O  O17  1  0.685615  0.314105  0.685615  1
  O  O18  1  0.559987  0.554357  0.944028  1
  O  O19  1  0.304879  0.305165  0.695169  1
  O  O20  1  0.253680  0.247530  0.253680  1
  O  O21  1  0.996320  0.002470  0.996320  1
