# generated using pymatgen
data_YbSm3(PaOs3)2
_symmetry_space_group_name_H-M   'P 1'
_cell_length_a   5.80285800
_cell_length_b   5.80285971
_cell_length_c   8.40541200
_cell_angle_alpha   90.00000000
_cell_angle_beta   90.00000000
_cell_angle_gamma   119.99997882
_symmetry_Int_Tables_number   1
_chemical_formula_structural   YbSm3(PaOs3)2
_chemical_formula_sum   'Yb1 Sm3 Pa2 Os6'
_cell_volume   245.11717619
_cell_formula_units_Z   1
loop_
 _symmetry_equiv_pos_site_id
 _symmetry_equiv_pos_as_xyz
  1  'x, y, z'
loop_
 _atom_site_type_symbol
 _atom_site_label
 _atom_site_symmetry_multiplicity
 _atom_site_fract_x
 _atom_site_fract_y
 _atom_site_fract_z
 _atom_site_occupancy
  Yb  Yb0  1  0.333333  0.666667  0.439010  1
  Sm  Sm1  1  0.666667  0.333333  0.560953  1
  Sm  Sm2  1  0.666667  0.333333  0.933448  1
  Sm  Sm3  1  0.333333  0.666667  0.072557  1
  Pa  Pa4  1  0.000000  0.000000  0.999051  1
  Pa  Pa5  1  0.000000  0.000000  0.499273  1
  Os  Os6  1  0.169554  0.339109  0.750407  1
  Os  Os7  1  0.169554  0.830446  0.750407  1
  Os  Os8  1  0.338853  0.169426  0.248162  1
  Os  Os9  1  0.830574  0.661147  0.248162  1
  Os  Os10  1  0.660891  0.830446  0.750407  1
  Os  Os11  1  0.830574  0.169426  0.248162  1
