# generated using pymatgen
data_Yb2CeHo(Pd2Pb)2
_symmetry_space_group_name_H-M   'P 1'
_cell_length_a   7.91652350
_cell_length_b   7.91652304
_cell_length_c   3.67766800
_cell_angle_alpha   90.00000000
_cell_angle_beta   90.00000000
_cell_angle_gamma   91.32866389
_symmetry_Int_Tables_number   1
_chemical_formula_structural   Yb2CeHo(Pd2Pb)2
_chemical_formula_sum   'Yb2 Ce1 Ho1 Pd4 Pb2'
_cell_volume   230.42241462
_cell_formula_units_Z   1
loop_
 _symmetry_equiv_pos_site_id
 _symmetry_equiv_pos_as_xyz
  1  'x, y, z'
loop_
 _atom_site_type_symbol
 _atom_site_label
 _atom_site_symmetry_multiplicity
 _atom_site_fract_x
 _atom_site_fract_y
 _atom_site_fract_z
 _atom_site_occupancy
  Yb  Yb0  1  0.168882  0.328346  0.500000  1
  Yb  Yb1  1  0.828346  0.668882  0.500000  1
  Ce  Ce2  1  0.327672  0.827672  0.500000  1
  Ho  Ho3  1  0.673403  0.173403  0.500000  1
  Pd  Pd4  1  0.375088  0.123398  0.000000  1
  Pd  Pd5  1  0.130498  0.630498  0.000000  1
  Pd  Pd6  1  0.623398  0.875088  0.000000  1
  Pd  Pd7  1  0.874132  0.374132  0.000000  1
  Pb  Pb8  1  0.997681  0.000900  0.000000  1
  Pb  Pb9  1  0.500900  0.497681  0.000000  1
