# generated using pymatgen
data_Sr21Al8InSn6
_symmetry_space_group_name_H-M   'P 1'
_cell_length_a   12.20431044
_cell_length_b   12.20431165
_cell_length_c   12.20431000
_cell_angle_alpha   60.00000448
_cell_angle_beta   60.00000118
_cell_angle_gamma   59.99999939
_symmetry_Int_Tables_number   1
_chemical_formula_structural   Sr21Al8InSn6
_chemical_formula_sum   'Sr21 Al8 In1 Sn6'
_cell_volume   1285.36001238
_cell_formula_units_Z   1
loop_
 _symmetry_equiv_pos_site_id
 _symmetry_equiv_pos_as_xyz
  1  'x, y, z'
loop_
 _atom_site_type_symbol
 _atom_site_label
 _atom_site_symmetry_multiplicity
 _atom_site_fract_x
 _atom_site_fract_y
 _atom_site_fract_z
 _atom_site_occupancy
  Sr  Sr0  1  0.870411  0.870411  0.388765  1
  Sr  Sr1  1  0.611235  0.129589  0.129589  1
  Sr  Sr2  1  0.870411  0.388765  0.870411  1
  Sr  Sr3  1  0.129589  0.129589  0.129589  1
  Sr  Sr4  1  0.388765  0.870411  0.870411  1
  Sr  Sr5  1  0.870411  0.870411  0.870411  1
  Sr  Sr6  1  0.177189  0.822811  0.500000  1
  Sr  Sr7  1  0.822811  0.500000  0.500000  1
  Sr  Sr8  1  0.129589  0.129589  0.611235  1
  Sr  Sr9  1  0.822811  0.177189  0.500000  1
  Sr  Sr10  1  0.177189  0.500000  0.500000  1
  Sr  Sr11  1  0.129589  0.611235  0.129589  1
  Sr  Sr12  1  0.500000  0.500000  0.177189  1
  Sr  Sr13  1  0.500000  0.177189  0.822811  1
  Sr  Sr14  1  0.500000  0.822811  0.177189  1
  Sr  Sr15  1  0.500000  0.500000  0.822811  1
  Sr  Sr16  1  0.500000  0.177189  0.500000  1
  Sr  Sr17  1  0.177189  0.500000  0.822811  1
  Sr  Sr18  1  0.000000  0.000000  0.000000  1
  Sr  Sr19  1  0.500000  0.822811  0.500000  1
  Sr  Sr20  1  0.822811  0.500000  0.177189  1
  Al  Al21  1  0.694084  0.917749  0.694084  1
  Al  Al22  1  0.694084  0.694084  0.917749  1
  Al  Al23  1  0.694084  0.694084  0.694084  1
  Al  Al24  1  0.305916  0.082251  0.305916  1
  Al  Al25  1  0.917749  0.694084  0.694084  1
  Al  Al26  1  0.305916  0.305916  0.082251  1
  Al  Al27  1  0.082251  0.305916  0.305916  1
  Al  Al28  1  0.305916  0.305916  0.305916  1
  In  In29  1  0.500000  0.500000  0.500000  1
  Sn  Sn30  1  0.785841  0.214159  0.785841  1
  Sn  Sn31  1  0.785841  0.214159  0.214159  1
  Sn  Sn32  1  0.214159  0.785841  0.214159  1
  Sn  Sn33  1  0.214159  0.785841  0.785841  1
  Sn  Sn34  1  0.785841  0.785841  0.214159  1
  Sn  Sn35  1  0.214159  0.214159  0.785841  1
