# generated using pymatgen
data_Er8Si12Ir3Pt
_symmetry_space_group_name_H-M   'P 1'
_cell_length_a   8.14727500
_cell_length_b   8.14727464
_cell_length_c   7.84019400
_cell_angle_alpha   90.00000000
_cell_angle_beta   90.00000000
_cell_angle_gamma   119.99999738
_symmetry_Int_Tables_number   1
_chemical_formula_structural   Er8Si12Ir3Pt
_chemical_formula_sum   'Er8 Si12 Ir3 Pt1'
_cell_volume   450.69442344
_cell_formula_units_Z   1
loop_
 _symmetry_equiv_pos_site_id
 _symmetry_equiv_pos_as_xyz
  1  'x, y, z'
loop_
 _atom_site_type_symbol
 _atom_site_label
 _atom_site_symmetry_multiplicity
 _atom_site_fract_x
 _atom_site_fract_y
 _atom_site_fract_z
 _atom_site_occupancy
  Er  Er0  1  0.977938  0.488970  0.252570  1
  Er  Er1  1  0.511030  0.488970  0.252570  1
  Er  Er2  1  0.491033  0.982065  0.747874  1
  Er  Er3  1  0.017935  0.508967  0.747874  1
  Er  Er4  1  0.491033  0.508967  0.747874  1
  Er  Er5  1  0.511030  0.022062  0.252570  1
  Er  Er6  1  0.000000  0.000000  0.749078  1
  Er  Er7  1  0.000000  0.000000  0.249871  1
  Si  Si8  1  0.166551  0.833449  0.498771  1
  Si  Si9  1  0.166551  0.333102  0.498771  1
  Si  Si10  1  0.666898  0.833449  0.498771  1
  Si  Si11  1  0.334577  0.167289  0.000063  1
  Si  Si12  1  0.833652  0.667306  0.501064  1
  Si  Si13  1  0.832711  0.167289  0.000063  1
  Si  Si14  1  0.832711  0.665423  0.000063  1
  Si  Si15  1  0.164437  0.328874  0.999636  1
  Si  Si16  1  0.671126  0.835563  0.999636  1
  Si  Si17  1  0.332694  0.166348  0.501064  1
  Si  Si18  1  0.833652  0.166348  0.501064  1
  Si  Si19  1  0.164437  0.835563  0.999636  1
  Ir  Ir20  1  0.666667  0.333333  0.963913  1
  Ir  Ir21  1  0.666667  0.333333  0.535589  1
  Ir  Ir22  1  0.333333  0.666667  0.467025  1
  Pt  Pt23  1  0.333333  0.666667  0.034590  1
