# generated using pymatgen
data_I5Cl
_symmetry_space_group_name_H-M   'P 1'
_cell_length_a   5.40224897
_cell_length_b   8.52202297
_cell_length_c   12.23698998
_cell_angle_alpha   120.13141801
_cell_angle_beta   87.16088924
_cell_angle_gamma   116.93608076
_symmetry_Int_Tables_number   1
_chemical_formula_structural   I5Cl
_chemical_formula_sum   'I5 Cl1'
_cell_volume   422.66795529
_cell_formula_units_Z   1
loop_
 _symmetry_equiv_pos_site_id
 _symmetry_equiv_pos_as_xyz
  1  'x, y, z'
loop_
 _atom_site_type_symbol
 _atom_site_label
 _atom_site_symmetry_multiplicity
 _atom_site_fract_x
 _atom_site_fract_y
 _atom_site_fract_z
 _atom_site_occupancy
  I  I0  1  0.082467  0.166281  0.972609  1
  I  I1  1  0.497330  0.329018  0.839404  1
  I  I2  1  0.238897  0.007271  0.573883  1
  I  I3  1  0.842365  0.852794  0.212519  1
  I  I4  1  0.650132  0.014590  0.100366  1
  Cl  Cl5  1  0.997282  0.702489  0.322777  1
