# generated using pymatgen
data_Hf9NbRe3Os
_symmetry_space_group_name_H-M   'P 1'
_cell_length_a   8.72256400
_cell_length_b   8.72256263
_cell_length_c   8.52918500
_cell_angle_alpha   90.00000000
_cell_angle_beta   90.00000000
_cell_angle_gamma   119.99999763
_symmetry_Int_Tables_number   1
_chemical_formula_structural   Hf9NbRe3Os
_chemical_formula_sum   'Hf18 Nb2 Re6 Os2'
_cell_volume   561.98721732
_cell_formula_units_Z   2
loop_
 _symmetry_equiv_pos_site_id
 _symmetry_equiv_pos_as_xyz
  1  'x, y, z'
loop_
 _atom_site_type_symbol
 _atom_site_label
 _atom_site_symmetry_multiplicity
 _atom_site_fract_x
 _atom_site_fract_y
 _atom_site_fract_z
 _atom_site_occupancy
  Hf  Hf0  1  0.198335  0.801665  0.444568  1
  Hf  Hf1  1  0.198335  0.396671  0.444568  1
  Hf  Hf2  1  0.603329  0.801665  0.444568  1
  Hf  Hf3  1  0.801665  0.198335  0.555432  1
  Hf  Hf4  1  0.801665  0.603329  0.555432  1
  Hf  Hf5  1  0.396671  0.198335  0.555432  1
  Hf  Hf6  1  0.801665  0.198335  0.944568  1
  Hf  Hf7  1  0.801665  0.603329  0.944568  1
  Hf  Hf8  1  0.396671  0.198335  0.944568  1
  Hf  Hf9  1  0.198335  0.801665  0.055432  1
  Hf  Hf10  1  0.198335  0.396671  0.055432  1
  Hf  Hf11  1  0.603329  0.801665  0.055432  1
  Hf  Hf12  1  0.542099  0.457901  0.250000  1
  Hf  Hf13  1  0.542099  0.084198  0.250000  1
  Hf  Hf14  1  0.915802  0.457901  0.250000  1
  Hf  Hf15  1  0.457901  0.542099  0.750000  1
  Hf  Hf16  1  0.457901  0.915802  0.750000  1
  Hf  Hf17  1  0.084198  0.542099  0.750000  1
  Nb  Nb18  1  0.000000  0.000000  0.500000  1
  Nb  Nb19  1  0.000000  0.000000  0.000000  1
  Re  Re20  1  0.885756  0.114244  0.250000  1
  Re  Re21  1  0.885756  0.771512  0.250000  1
  Re  Re22  1  0.228488  0.114244  0.250000  1
  Re  Re23  1  0.114244  0.885756  0.750000  1
  Re  Re24  1  0.114244  0.228488  0.750000  1
  Re  Re25  1  0.771512  0.885756  0.750000  1
  Os  Os26  1  0.333333  0.666667  0.250000  1
  Os  Os27  1  0.666667  0.333333  0.750000  1
