# generated using pymatgen
data_GdHo(GaIr)2
_symmetry_space_group_name_H-M   'P 1'
_cell_length_a   4.24594900
_cell_length_b   6.89979413
_cell_length_c   7.91367600
_cell_angle_alpha   89.77728659
_cell_angle_beta   90.00000000
_cell_angle_gamma   90.00000000
_symmetry_Int_Tables_number   1
_chemical_formula_structural   GdHo(GaIr)2
_chemical_formula_sum   'Gd2 Ho2 Ga4 Ir4'
_cell_volume   231.83867735
_cell_formula_units_Z   2
loop_
 _symmetry_equiv_pos_site_id
 _symmetry_equiv_pos_as_xyz
  1  'x, y, z'
loop_
 _atom_site_type_symbol
 _atom_site_label
 _atom_site_symmetry_multiplicity
 _atom_site_fract_x
 _atom_site_fract_y
 _atom_site_fract_z
 _atom_site_occupancy
  Gd  Gd0  1  0.250000  0.530980  0.186102  1
  Gd  Gd1  1  0.750000  0.469020  0.813898  1
  Ho  Ho2  1  0.750000  0.969256  0.684187  1
  Ho  Ho3  1  0.250000  0.030744  0.315813  1
  Ga  Ga4  1  0.250000  0.649569  0.565170  1
  Ga  Ga5  1  0.750000  0.350431  0.434830  1
  Ga  Ga6  1  0.750000  0.854050  0.064785  1
  Ga  Ga7  1  0.250000  0.145950  0.935215  1
  Ir  Ir8  1  0.250000  0.768135  0.880852  1
  Ir  Ir9  1  0.750000  0.231865  0.119148  1
  Ir  Ir10  1  0.750000  0.736268  0.383497  1
  Ir  Ir11  1  0.250000  0.263732  0.616503  1
