# generated using pymatgen
data_Tm4LuRh2
_symmetry_space_group_name_H-M   'P 1'
_cell_length_a   6.37684593
_cell_length_b   7.07480038
_cell_length_c   8.43289797
_cell_angle_alpha   96.71042209
_cell_angle_beta   112.21563563
_cell_angle_gamma   90.00000079
_symmetry_Int_Tables_number   1
_chemical_formula_structural   Tm4LuRh2
_chemical_formula_sum   'Tm8 Lu2 Rh4'
_cell_volume   349.39080237
_cell_formula_units_Z   2
loop_
 _symmetry_equiv_pos_site_id
 _symmetry_equiv_pos_as_xyz
  1  'x, y, z'
loop_
 _atom_site_type_symbol
 _atom_site_label
 _atom_site_symmetry_multiplicity
 _atom_site_fract_x
 _atom_site_fract_y
 _atom_site_fract_z
 _atom_site_occupancy
  Tm  Tm0  1  0.523852  0.081942  0.814004  1
  Tm  Tm1  1  0.476148  0.918058  0.185996  1
  Tm  Tm2  1  0.709847  0.418058  0.185996  1
  Tm  Tm3  1  0.290153  0.581942  0.814004  1
  Tm  Tm4  1  0.289758  0.312436  0.439706  1
  Tm  Tm5  1  0.710242  0.687564  0.560294  1
  Tm  Tm6  1  0.850053  0.187564  0.560294  1
  Tm  Tm7  1  0.149947  0.812436  0.439706  1
  Lu  Lu8  1  0.073874  0.250000  0.000000  1
  Lu  Lu9  1  0.926126  0.750000  0.000000  1
  Rh  Rh10  1  0.322826  0.571097  0.219314  1
  Rh  Rh11  1  0.677174  0.428903  0.780686  1
  Rh  Rh12  1  0.103512  0.928903  0.780686  1
  Rh  Rh13  1  0.896488  0.071097  0.219314  1
