# generated using pymatgen
data_Ta4MnCr6Si
_symmetry_space_group_name_H-M   'P 1'
_cell_length_a   4.85323900
_cell_length_b   4.85323989
_cell_length_c   8.08995500
_cell_angle_alpha   90.00000000
_cell_angle_beta   90.00000000
_cell_angle_gamma   120.00000077
_symmetry_Int_Tables_number   1
_chemical_formula_structural   Ta4MnCr6Si
_chemical_formula_sum   'Ta4 Mn1 Cr6 Si1'
_cell_volume   165.02136355
_cell_formula_units_Z   1
loop_
 _symmetry_equiv_pos_site_id
 _symmetry_equiv_pos_as_xyz
  1  'x, y, z'
loop_
 _atom_site_type_symbol
 _atom_site_label
 _atom_site_symmetry_multiplicity
 _atom_site_fract_x
 _atom_site_fract_y
 _atom_site_fract_z
 _atom_site_occupancy
  Ta  Ta0  1  0.333333  0.666667  0.438591  1
  Ta  Ta1  1  0.666667  0.333333  0.561409  1
  Ta  Ta2  1  0.666667  0.333333  0.934524  1
  Ta  Ta3  1  0.333333  0.666667  0.065476  1
  Mn  Mn4  1  0.000000  0.000000  0.500000  1
  Cr  Cr5  1  0.829536  0.170464  0.251962  1
  Cr  Cr6  1  0.829536  0.659074  0.251962  1
  Cr  Cr7  1  0.340926  0.170464  0.251962  1
  Cr  Cr8  1  0.170464  0.829536  0.748038  1
  Cr  Cr9  1  0.170464  0.340926  0.748038  1
  Cr  Cr10  1  0.659074  0.829536  0.748038  1
  Si  Si11  1  0.000000  0.000000  0.000000  1
