# generated using pymatgen
data_Li2SiPt5
_symmetry_space_group_name_H-M   'P 1'
_cell_length_a   3.99649200
_cell_length_b   5.35088600
_cell_length_c   10.43752300
_cell_angle_alpha   90.00000000
_cell_angle_beta   90.00000000
_cell_angle_gamma   90.00000000
_symmetry_Int_Tables_number   1
_chemical_formula_structural   Li2SiPt5
_chemical_formula_sum   'Li4 Si2 Pt10'
_cell_volume   223.20406100
_cell_formula_units_Z   2
loop_
 _symmetry_equiv_pos_site_id
 _symmetry_equiv_pos_as_xyz
  1  'x, y, z'
loop_
 _atom_site_type_symbol
 _atom_site_label
 _atom_site_symmetry_multiplicity
 _atom_site_fract_x
 _atom_site_fract_y
 _atom_site_fract_z
 _atom_site_occupancy
  Li  Li0  1  0.500000  0.170391  0.141298  1
  Li  Li1  1  0.500000  0.829609  0.858702  1
  Li  Li2  1  0.500000  0.329609  0.641298  1
  Li  Li3  1  0.500000  0.670391  0.358702  1
  Si  Si4  1  0.000000  0.000000  0.500000  1
  Si  Si5  1  0.000000  0.500000  0.000000  1
  Pt  Pt6  1  0.500000  0.186963  0.395850  1
  Pt  Pt7  1  0.500000  0.813037  0.604150  1
  Pt  Pt8  1  0.500000  0.313037  0.895850  1
  Pt  Pt9  1  0.500000  0.686963  0.104150  1
  Pt  Pt10  1  0.000000  0.420436  0.234043  1
  Pt  Pt11  1  0.000000  0.579564  0.765957  1
  Pt  Pt12  1  0.000000  0.079564  0.734043  1
  Pt  Pt13  1  0.000000  0.920436  0.265957  1
  Pt  Pt14  1  0.000000  0.000000  0.000000  1
  Pt  Pt15  1  0.000000  0.500000  0.500000  1
