# generated using pymatgen
data_Pr4SmLu3(Si3Rh)4
_symmetry_space_group_name_H-M   'P 1'
_cell_length_a   8.22929900
_cell_length_b   8.22930013
_cell_length_c   8.10931900
_cell_angle_alpha   90.00000000
_cell_angle_beta   90.00000000
_cell_angle_gamma   119.99999950
_symmetry_Int_Tables_number   1
_chemical_formula_structural   Pr4SmLu3(Si3Rh)4
_chemical_formula_sum   'Pr4 Sm1 Lu3 Si12 Rh4'
_cell_volume   475.59881324
_cell_formula_units_Z   1
loop_
 _symmetry_equiv_pos_site_id
 _symmetry_equiv_pos_as_xyz
  1  'x, y, z'
loop_
 _atom_site_type_symbol
 _atom_site_label
 _atom_site_symmetry_multiplicity
 _atom_site_fract_x
 _atom_site_fract_y
 _atom_site_fract_z
 _atom_site_occupancy
  Pr  Pr0  1  0.000000  0.000000  0.250000  1
  Pr  Pr1  1  0.499282  0.500718  0.250000  1
  Pr  Pr2  1  0.499282  0.998563  0.250000  1
  Pr  Pr3  1  0.001437  0.500718  0.250000  1
  Sm  Sm4  1  0.000000  0.000000  0.750000  1
  Lu  Lu5  1  0.504412  0.495588  0.750000  1
  Lu  Lu6  1  0.991174  0.495588  0.750000  1
  Lu  Lu7  1  0.504412  0.008826  0.750000  1
  Si  Si8  1  0.833602  0.166398  0.507847  1
  Si  Si9  1  0.833602  0.667206  0.507847  1
  Si  Si10  1  0.332794  0.166398  0.507847  1
  Si  Si11  1  0.833602  0.166398  0.992153  1
  Si  Si12  1  0.833602  0.667206  0.992153  1
  Si  Si13  1  0.332794  0.166398  0.992153  1
  Si  Si14  1  0.168286  0.831714  0.991178  1
  Si  Si15  1  0.663429  0.831714  0.991178  1
  Si  Si16  1  0.168286  0.336571  0.991178  1
  Si  Si17  1  0.168286  0.831714  0.508822  1
  Si  Si18  1  0.663429  0.831714  0.508822  1
  Si  Si19  1  0.168286  0.336571  0.508822  1
  Rh  Rh20  1  0.666667  0.333333  0.525211  1
  Rh  Rh21  1  0.666667  0.333333  0.974789  1
  Rh  Rh22  1  0.333333  0.666667  0.951382  1
  Rh  Rh23  1  0.333333  0.666667  0.548618  1
