# generated using pymatgen
data_Li2HoNb2Ni9P7
_symmetry_space_group_name_H-M   'P 1'
_cell_length_a   9.17269300
_cell_length_b   9.19566121
_cell_length_c   3.66559200
_cell_angle_alpha   90.00000000
_cell_angle_beta   90.00000000
_cell_angle_gamma   119.67453845
_symmetry_Int_Tables_number   1
_chemical_formula_structural   Li2HoNb2Ni9P7
_chemical_formula_sum   'Li2 Ho1 Nb2 Ni9 P7'
_cell_volume   268.63930331
_cell_formula_units_Z   1
loop_
 _symmetry_equiv_pos_site_id
 _symmetry_equiv_pos_as_xyz
  1  'x, y, z'
loop_
 _atom_site_type_symbol
 _atom_site_label
 _atom_site_symmetry_multiplicity
 _atom_site_fract_x
 _atom_site_fract_y
 _atom_site_fract_z
 _atom_site_occupancy
  Li  Li0  1  0.232459  0.109207  0.500000  1
  Li  Li1  1  0.665415  0.333641  0.500000  1
  Ho  Ho2  1  0.330869  0.667657  0.000000  1
  Nb  Nb3  1  0.878012  0.777333  0.500000  1
  Nb  Nb4  1  0.896012  0.119081  0.500000  1
  Ni  Ni5  1  0.709096  0.873051  0.000000  1
  Ni  Ni6  1  0.167113  0.283097  0.000000  1
  Ni  Ni7  1  0.128645  0.846129  0.000000  1
  Ni  Ni8  1  0.627403  0.564350  0.000000  1
  Ni  Ni9  1  0.938015  0.369110  0.000000  1
  Ni  Ni10  1  0.432167  0.065490  0.000000  1
  Ni  Ni11  1  0.556964  0.948595  0.500000  1
  Ni  Ni12  1  0.389464  0.433404  0.500000  1
  Ni  Ni13  1  0.050767  0.609976  0.500000  1
  P  P14  1  0.584882  0.708973  0.500000  1
  P  P15  1  0.122023  0.410437  0.500000  1
  P  P16  1  0.285586  0.877967  0.500000  1
  P  P17  1  0.003662  0.002217  0.000000  1
  P  P18  1  0.882362  0.577531  0.000000  1
  P  P19  1  0.694200  0.119710  0.000000  1
  P  P20  1  0.424890  0.303043  0.000000  1
