# generated using pymatgen
data_Ho6Ti4Al12Rh7
_symmetry_space_group_name_H-M   'P 1'
_cell_length_a   8.98034483
_cell_length_b   8.98034496
_cell_length_c   8.98034500
_cell_angle_alpha   60.00000354
_cell_angle_beta   60.00000307
_cell_angle_gamma   59.99999827
_symmetry_Int_Tables_number   1
_chemical_formula_structural   Ho6Ti4Al12Rh7
_chemical_formula_sum   'Ho6 Ti4 Al12 Rh7'
_cell_volume   512.11096212
_cell_formula_units_Z   1
loop_
 _symmetry_equiv_pos_site_id
 _symmetry_equiv_pos_as_xyz
  1  'x, y, z'
loop_
 _atom_site_type_symbol
 _atom_site_label
 _atom_site_symmetry_multiplicity
 _atom_site_fract_x
 _atom_site_fract_y
 _atom_site_fract_z
 _atom_site_occupancy
  Ho  Ho0  1  0.703098  0.296902  0.296902  1
  Ho  Ho1  1  0.703098  0.296902  0.703098  1
  Ho  Ho2  1  0.703098  0.703098  0.296902  1
  Ho  Ho3  1  0.296902  0.703098  0.703098  1
  Ho  Ho4  1  0.296902  0.703098  0.296902  1
  Ho  Ho5  1  0.296902  0.296902  0.703098  1
  Ti  Ti6  1  0.642151  0.119283  0.119283  1
  Ti  Ti7  1  0.119283  0.642151  0.119283  1
  Ti  Ti8  1  0.119283  0.119283  0.642151  1
  Ti  Ti9  1  0.119283  0.119283  0.119283  1
  Al  Al10  1  0.357167  0.880945  0.880945  1
  Al  Al11  1  0.880945  0.357167  0.880945  1
  Al  Al12  1  0.880945  0.880945  0.357167  1
  Al  Al13  1  0.880945  0.880945  0.880945  1
  Al  Al14  1  0.010494  0.329836  0.329836  1
  Al  Al15  1  0.329836  0.010494  0.329836  1
  Al  Al16  1  0.329836  0.329836  0.010494  1
  Al  Al17  1  0.329836  0.329836  0.329836  1
  Al  Al18  1  0.984927  0.671691  0.671691  1
  Al  Al19  1  0.671691  0.984927  0.671691  1
  Al  Al20  1  0.671691  0.671691  0.984927  1
  Al  Al21  1  0.671691  0.671691  0.671691  1
  Rh  Rh22  1  0.000000  0.000000  0.000000  1
  Rh  Rh23  1  0.498689  0.001311  0.001311  1
  Rh  Rh24  1  0.498689  0.001311  0.498689  1
  Rh  Rh25  1  0.498689  0.498689  0.001311  1
  Rh  Rh26  1  0.001311  0.498689  0.498689  1
  Rh  Rh27  1  0.001311  0.498689  0.001311  1
  Rh  Rh28  1  0.001311  0.001311  0.498689  1
