# generated using pymatgen
data_Cs12NaLi7(VAs3)4
_symmetry_space_group_name_H-M   'P 1'
_cell_length_a   10.19838168
_cell_length_b   10.19838131
_cell_length_c   17.15210688
_cell_angle_alpha   89.98038222
_cell_angle_beta   89.98038330
_cell_angle_gamma   142.33732744
_symmetry_Int_Tables_number   1
_chemical_formula_structural   Cs12NaLi7(VAs3)4
_chemical_formula_sum   'Cs12 Na1 Li7 V4 As12'
_cell_volume   1090.00647537
_cell_formula_units_Z   1
loop_
 _symmetry_equiv_pos_site_id
 _symmetry_equiv_pos_as_xyz
  1  'x, y, z'
loop_
 _atom_site_type_symbol
 _atom_site_label
 _atom_site_symmetry_multiplicity
 _atom_site_fract_x
 _atom_site_fract_y
 _atom_site_fract_z
 _atom_site_occupancy
  Cs  Cs0  1  0.608542  0.946789  0.833457  1
  Cs  Cs1  1  0.287192  0.286072  0.319237  1
  Cs  Cs2  1  0.213901  0.214067  0.821210  1
  Cs  Cs3  1  0.713928  0.712808  0.680763  1
  Cs  Cs4  1  0.446067  0.106293  0.668698  1
  Cs  Cs5  1  0.893707  0.553933  0.331302  1
  Cs  Cs6  1  0.053211  0.391458  0.166543  1
  Cs  Cs7  1  0.392309  0.054451  0.166084  1
  Cs  Cs8  1  0.547582  0.889020  0.329956  1
  Cs  Cs9  1  0.110980  0.452418  0.670044  1
  Cs  Cs10  1  0.945549  0.607691  0.833916  1
  Cs  Cs11  1  0.785933  0.786099  0.178790  1
  Na  Na12  1  0.418740  0.581260  0.500000  1
  Li  Li13  1  0.080880  0.919120  0.000000  1
  Li  Li14  1  0.585230  0.414770  0.500000  1
  Li  Li15  1  0.918870  0.081130  0.000000  1
  Li  Li16  1  0.748389  0.251611  0.000000  1
  Li  Li17  1  0.750320  0.249680  0.500000  1
  Li  Li18  1  0.251619  0.748381  0.000000  1
  Li  Li19  1  0.247364  0.752636  0.500000  1
  V  V20  1  0.083985  0.916015  0.500000  1
  V  V21  1  0.418004  0.581996  0.000000  1
  V  V22  1  0.916053  0.083947  0.500000  1
  V  V23  1  0.581971  0.418029  0.000000  1
  As  As24  1  0.043647  0.364158  0.417228  1
  As  As25  1  0.876300  0.563850  0.075554  1
  As  As26  1  0.436150  0.123700  0.924446  1
  As  As27  1  0.635842  0.956353  0.582772  1
  As  As28  1  0.936434  0.621127  0.576743  1
  As  As29  1  0.123923  0.436623  0.924377  1
  As  As30  1  0.563377  0.876077  0.075623  1
  As  As31  1  0.378873  0.063566  0.423257  1
  As  As32  1  0.198266  0.193081  0.579189  1
  As  As33  1  0.707979  0.708037  0.923090  1
  As  As34  1  0.291963  0.292021  0.076910  1
  As  As35  1  0.806919  0.801734  0.420811  1
