# generated using pymatgen
data_Rb2TiCdSe4
_symmetry_space_group_name_H-M   'P 1'
_cell_length_a   14.59509786
_cell_length_b   12.98447870
_cell_length_c   7.94236900
_cell_angle_alpha   84.80903806
_cell_angle_beta   62.37456555
_cell_angle_gamma   32.81640157
_symmetry_Int_Tables_number   1
_chemical_formula_structural   Rb2TiCdSe4
_chemical_formula_sum   'Rb4 Ti2 Cd2 Se8'
_cell_volume   565.24502497
_cell_formula_units_Z   2
loop_
 _symmetry_equiv_pos_site_id
 _symmetry_equiv_pos_as_xyz
  1  'x, y, z'
loop_
 _atom_site_type_symbol
 _atom_site_label
 _atom_site_symmetry_multiplicity
 _atom_site_fract_x
 _atom_site_fract_y
 _atom_site_fract_z
 _atom_site_occupancy
  Rb  Rb0  1  0.678749  0.678749  0.321251  1
  Rb  Rb1  1  0.321251  0.321251  0.678749  1
  Rb  Rb2  1  0.928749  0.928749  0.571251  1
  Rb  Rb3  1  0.571251  0.571251  0.928749  1
  Ti  Ti4  1  0.750000  0.750000  0.750000  1
  Ti  Ti5  1  0.500000  0.500000  0.500000  1
  Cd  Cd6  1  0.000000  0.000000  0.000000  1
  Cd  Cd7  1  0.250000  0.250000  0.250000  1
  Se  Se8  1  0.377521  0.011116  0.924744  1
  Se  Se9  1  0.686621  0.924744  0.011116  1
  Se  Se10  1  0.924744  0.686621  0.377521  1
  Se  Se11  1  0.011116  0.377521  0.686621  1
  Se  Se12  1  0.238884  0.872479  0.563379  1
  Se  Se13  1  0.563379  0.325256  0.238884  1
  Se  Se14  1  0.325256  0.563379  0.872479  1
  Se  Se15  1  0.872479  0.238884  0.325256  1
