# generated using pymatgen
data_Rb2Be3S4
_symmetry_space_group_name_H-M   'P 1'
_cell_length_a   8.89130401
_cell_length_b   8.89130505
_cell_length_c   8.89130439
_cell_angle_alpha   145.44339336
_cell_angle_beta   108.21301523
_cell_angle_gamma   82.17679091
_symmetry_Int_Tables_number   1
_chemical_formula_structural   Rb2Be3S4
_chemical_formula_sum   'Rb4 Be6 S8'
_cell_volume   369.00664964
_cell_formula_units_Z   2
loop_
 _symmetry_equiv_pos_site_id
 _symmetry_equiv_pos_as_xyz
  1  'x, y, z'
loop_
 _atom_site_type_symbol
 _atom_site_label
 _atom_site_symmetry_multiplicity
 _atom_site_fract_x
 _atom_site_fract_y
 _atom_site_fract_z
 _atom_site_occupancy
  Rb  Rb0  1  0.622949  0.261457  0.884408  1
  Rb  Rb1  1  0.377051  0.738543  0.115592  1
  Rb  Rb2  1  0.122949  0.238543  0.361492  1
  Rb  Rb3  1  0.877051  0.761457  0.638508  1
  Be  Be4  1  0.750000  0.250000  0.500000  1
  Be  Be5  1  0.250000  0.750000  0.500000  1
  Be  Be6  1  0.986032  0.750000  0.236032  1
  Be  Be7  1  0.513968  0.750000  0.763968  1
  Be  Be8  1  0.013968  0.250000  0.763968  1
  Be  Be9  1  0.486032  0.250000  0.236032  1
  S  S10  1  0.031730  0.439551  0.142798  1
  S  S11  1  0.296752  0.888932  0.857202  1
  S  S12  1  0.203248  0.060449  0.592180  1
  S  S13  1  0.468270  0.611068  0.407820  1
  S  S14  1  0.968270  0.560449  0.857202  1
  S  S15  1  0.703248  0.111068  0.142798  1
  S  S16  1  0.796752  0.939551  0.407820  1
  S  S17  1  0.531730  0.388932  0.592180  1
