# generated using pymatgen
data_Rb2Th(IO3)6
_symmetry_space_group_name_H-M   'P 1'
_cell_length_a   8.13793257
_cell_length_b   8.11997929
_cell_length_c   8.13444859
_cell_angle_alpha   97.51549463
_cell_angle_beta   97.21000372
_cell_angle_gamma   97.33912602
_symmetry_Int_Tables_number   1
_chemical_formula_structural   Rb2Th(IO3)6
_chemical_formula_sum   'Rb2 Th1 I6 O18'
_cell_volume   522.98236895
_cell_formula_units_Z   1
loop_
 _symmetry_equiv_pos_site_id
 _symmetry_equiv_pos_as_xyz
  1  'x, y, z'
loop_
 _atom_site_type_symbol
 _atom_site_label
 _atom_site_symmetry_multiplicity
 _atom_site_fract_x
 _atom_site_fract_y
 _atom_site_fract_z
 _atom_site_occupancy
  Rb  Rb0  1  0.164164  0.164515  0.669120  1
  Rb  Rb1  1  0.835836  0.835485  0.330880  1
  Th  Th2  1  0.500000  0.500000  0.000000  1
  I  I3  1  0.111767  0.700843  0.818475  1
  I  I4  1  0.888233  0.299157  0.181525  1
  I  I5  1  0.295738  0.680640  0.386870  1
  I  I6  1  0.704262  0.319360  0.613130  1
  I  I7  1  0.321780  0.112333  0.207927  1
  I  I8  1  0.678220  0.887667  0.792073  1
  O  O9  1  0.264178  0.544632  0.832588  1
  O  O10  1  0.735822  0.455368  0.167412  1
  O  O11  1  0.266250  0.887954  0.886743  1
  O  O12  1  0.733750  0.112046  0.113257  1
  O  O13  1  0.083385  0.692102  0.591393  1
  O  O14  1  0.916615  0.307898  0.408607  1
  O  O15  1  0.300403  0.907989  0.418899  1
  O  O16  1  0.699597  0.092011  0.581101  1
  O  O17  1  0.450484  0.671197  0.232655  1
  O  O18  1  0.549516  0.328803  0.767345  1
  O  O19  1  0.109735  0.612273  0.231683  1
  O  O20  1  0.890265  0.387727  0.768317  1
  O  O21  1  0.095163  0.086505  0.202114  1
  O  O22  1  0.904837  0.913495  0.797886  1
  O  O23  1  0.392745  0.266202  0.395168  1
  O  O24  1  0.607255  0.733798  0.604832  1
  O  O25  1  0.335726  0.266575  0.053922  1
  O  O26  1  0.664274  0.733425  0.946078  1
