# generated using pymatgen
data_SmHo(SiTc2)4
_symmetry_space_group_name_H-M   'P 1'
_cell_length_a   7.37497436
_cell_length_b   7.37497332
_cell_length_c   4.13139500
_cell_angle_alpha   90.00000000
_cell_angle_beta   90.00000000
_cell_angle_gamma   91.28975186
_symmetry_Int_Tables_number   1
_chemical_formula_structural   SmHo(SiTc2)4
_chemical_formula_sum   'Sm1 Ho1 Si4 Tc8'
_cell_volume   224.65063272
_cell_formula_units_Z   1
loop_
 _symmetry_equiv_pos_site_id
 _symmetry_equiv_pos_as_xyz
  1  'x, y, z'
loop_
 _atom_site_type_symbol
 _atom_site_label
 _atom_site_symmetry_multiplicity
 _atom_site_fract_x
 _atom_site_fract_y
 _atom_site_fract_z
 _atom_site_occupancy
  Sm  Sm0  1  0.000000  0.000000  0.500000  1
  Ho  Ho1  1  0.500000  0.500000  0.000000  1
  Si  Si2  1  0.706274  0.706274  0.500000  1
  Si  Si3  1  0.293726  0.293726  0.500000  1
  Si  Si4  1  0.212370  0.787630  0.000000  1
  Si  Si5  1  0.787630  0.212370  0.000000  1
  Tc  Tc6  1  0.588752  0.160163  0.500000  1
  Tc  Tc7  1  0.411248  0.839837  0.500000  1
  Tc  Tc8  1  0.097517  0.349091  0.000000  1
  Tc  Tc9  1  0.902483  0.650909  0.000000  1
  Tc  Tc10  1  0.160163  0.588752  0.500000  1
  Tc  Tc11  1  0.839837  0.411248  0.500000  1
  Tc  Tc12  1  0.349091  0.097517  0.000000  1
  Tc  Tc13  1  0.650909  0.902483  0.000000  1
