# generated using pymatgen
data_YbGdB6Ru
_symmetry_space_group_name_H-M   'P 1'
_cell_length_a   3.69523600
_cell_length_b   9.08267100
_cell_length_c   11.46432600
_cell_angle_alpha   90.00000000
_cell_angle_beta   90.00000000
_cell_angle_gamma   90.00000000
_symmetry_Int_Tables_number   1
_chemical_formula_structural   YbGdB6Ru
_chemical_formula_sum   'Yb4 Gd4 B24 Ru4'
_cell_volume   384.77273519
_cell_formula_units_Z   4
loop_
 _symmetry_equiv_pos_site_id
 _symmetry_equiv_pos_as_xyz
  1  'x, y, z'
loop_
 _atom_site_type_symbol
 _atom_site_label
 _atom_site_symmetry_multiplicity
 _atom_site_fract_x
 _atom_site_fract_y
 _atom_site_fract_z
 _atom_site_occupancy
  Yb  Yb0  1  0.000000  0.941929  0.367110  1
  Yb  Yb1  1  0.000000  0.058071  0.632890  1
  Yb  Yb2  1  0.000000  0.441929  0.132890  1
  Yb  Yb3  1  0.000000  0.558071  0.867110  1
  Gd  Gd4  1  0.000000  0.322771  0.413483  1
  Gd  Gd5  1  0.000000  0.677229  0.586517  1
  Gd  Gd6  1  0.000000  0.822771  0.086517  1
  Gd  Gd7  1  0.000000  0.177229  0.913483  1
  B  B8  1  0.500000  0.555145  0.432126  1
  B  B9  1  0.500000  0.444855  0.567874  1
  B  B10  1  0.500000  0.055145  0.067874  1
  B  B11  1  0.500000  0.944855  0.932126  1
  B  B12  1  0.500000  0.750947  0.417707  1
  B  B13  1  0.500000  0.249053  0.582293  1
  B  B14  1  0.500000  0.250947  0.082293  1
  B  B15  1  0.500000  0.749053  0.917707  1
  B  B16  1  0.500000  0.790972  0.264983  1
  B  B17  1  0.500000  0.209028  0.735017  1
  B  B18  1  0.500000  0.290972  0.235017  1
  B  B19  1  0.500000  0.709028  0.764983  1
  B  B20  1  0.500000  0.629555  0.185276  1
  B  B21  1  0.500000  0.370445  0.814724  1
  B  B22  1  0.500000  0.129555  0.314724  1
  B  B23  1  0.500000  0.870445  0.685276  1
  B  B24  1  0.500000  0.983639  0.211948  1
  B  B25  1  0.500000  0.016361  0.788052  1
  B  B26  1  0.500000  0.483639  0.288052  1
  B  B27  1  0.500000  0.516361  0.711948  1
  B  B28  1  0.500000  0.595312  0.026331  1
  B  B29  1  0.500000  0.404688  0.973669  1
  B  B30  1  0.500000  0.095312  0.473669  1
  B  B31  1  0.500000  0.904688  0.526331  1
  Ru  Ru32  1  0.000000  0.639318  0.320205  1
  Ru  Ru33  1  0.000000  0.360682  0.679795  1
  Ru  Ru34  1  0.000000  0.139318  0.179795  1
  Ru  Ru35  1  0.000000  0.860682  0.820205  1
