# generated using pymatgen
data_Dy11ErPb10
_symmetry_space_group_name_H-M   'P 1'
_cell_length_a   11.76566112
_cell_length_b   11.76566122
_cell_length_c   11.76670125
_cell_angle_alpha   146.91104442
_cell_angle_beta   132.77248820
_cell_angle_gamma   58.86562091
_symmetry_Int_Tables_number   1
_chemical_formula_structural   Dy11ErPb10
_chemical_formula_sum   'Dy11 Er1 Pb10'
_cell_volume   647.27315119
_cell_formula_units_Z   1
loop_
 _symmetry_equiv_pos_site_id
 _symmetry_equiv_pos_as_xyz
  1  'x, y, z'
loop_
 _atom_site_type_symbol
 _atom_site_label
 _atom_site_symmetry_multiplicity
 _atom_site_fract_x
 _atom_site_fract_y
 _atom_site_fract_z
 _atom_site_occupancy
  Dy  Dy0  1  0.696477  0.946477  0.250000  1
  Dy  Dy1  1  0.249817  0.637112  0.612561  1
  Dy  Dy2  1  0.681370  0.941435  0.739998  1
  Dy  Dy3  1  0.024551  0.137254  0.887439  1
  Dy  Dy4  1  0.975291  0.862631  0.112453  1
  Dy  Dy5  1  0.798556  0.558602  0.239772  1
  Dy  Dy6  1  0.201436  0.441371  0.760002  1
  Dy  Dy7  1  0.303527  0.053527  0.750000  1
  Dy  Dy8  1  0.318829  0.058784  0.260228  1
  Dy  Dy9  1  0.303539  0.553539  0.250000  1
  Dy  Dy10  1  0.750176  0.362838  0.387547  1
  Er  Er11  1  0.696407  0.446407  0.750000  1
  Pb  Pb12  1  0.481519  0.573791  0.906549  1
  Pb  Pb13  1  0.599410  0.793670  0.804151  1
  Pb  Pb14  1  0.667243  0.074970  0.593451  1
  Pb  Pb15  1  0.000033  0.750033  0.750000  1
  Pb  Pb16  1  0.989520  0.295259  0.695849  1
  Pb  Pb17  1  0.518822  0.425723  0.092955  1
  Pb  Pb18  1  0.009559  0.704808  0.303645  1
  Pb  Pb19  1  0.401163  0.205915  0.196355  1
  Pb  Pb20  1  0.332768  0.925867  0.407045  1
  Pb  Pb21  1  0.999987  0.249987  0.250000  1
