# generated using pymatgen
data_Hf18ZnRe8As
_symmetry_space_group_name_H-M   'P 1'
_cell_length_a   8.59610922
_cell_length_b   8.59610948
_cell_length_c   8.66895500
_cell_angle_alpha   90.00000000
_cell_angle_beta   90.00000000
_cell_angle_gamma   120.00875875
_symmetry_Int_Tables_number   1
_chemical_formula_structural   Hf18ZnRe8As
_chemical_formula_sum   'Hf18 Zn1 Re8 As1'
_cell_volume   554.70605469
_cell_formula_units_Z   1
loop_
 _symmetry_equiv_pos_site_id
 _symmetry_equiv_pos_as_xyz
  1  'x, y, z'
loop_
 _atom_site_type_symbol
 _atom_site_label
 _atom_site_symmetry_multiplicity
 _atom_site_fract_x
 _atom_site_fract_y
 _atom_site_fract_z
 _atom_site_occupancy
  Hf  Hf0  1  0.805236  0.610449  0.548891  1
  Hf  Hf1  1  0.804865  0.195135  0.548571  1
  Hf  Hf2  1  0.389551  0.194764  0.548891  1
  Hf  Hf3  1  0.193546  0.387154  0.453628  1
  Hf  Hf4  1  0.193953  0.806047  0.453920  1
  Hf  Hf5  1  0.612846  0.806454  0.453628  1
  Hf  Hf6  1  0.193546  0.387154  0.046372  1
  Hf  Hf7  1  0.193953  0.806047  0.046080  1
  Hf  Hf8  1  0.612846  0.806454  0.046372  1
  Hf  Hf9  1  0.805236  0.610449  0.951109  1
  Hf  Hf10  1  0.804865  0.195135  0.951429  1
  Hf  Hf11  1  0.389551  0.194764  0.951109  1
  Hf  Hf12  1  0.459465  0.918610  0.750000  1
  Hf  Hf13  1  0.459244  0.540756  0.750000  1
  Hf  Hf14  1  0.081390  0.540535  0.750000  1
  Hf  Hf15  1  0.541248  0.082874  0.250000  1
  Hf  Hf16  1  0.541527  0.458473  0.250000  1
  Hf  Hf17  1  0.917126  0.458752  0.250000  1
  Zn  Zn18  1  0.666568  0.333432  0.750000  1
  Re  Re19  1  0.109256  0.218849  0.750000  1
  Re  Re20  1  0.109517  0.890483  0.750000  1
  Re  Re21  1  0.781151  0.890744  0.750000  1
  Re  Re22  1  0.890712  0.781168  0.250000  1
  Re  Re23  1  0.890467  0.109533  0.250000  1
  Re  Re24  1  0.218832  0.109288  0.250000  1
  Re  Re25  1  0.000014  0.999986  0.499775  1
  Re  Re26  1  0.000014  0.999986  0.000225  1
  As  As27  1  0.333476  0.666524  0.250000  1
