# generated using pymatgen
data_Y(SnRh2)2
_symmetry_space_group_name_H-M   'P 1'
_cell_length_a   4.40374400
_cell_length_b   9.72783500
_cell_length_c   11.86152400
_cell_angle_alpha   90.00000000
_cell_angle_beta   90.00000000
_cell_angle_gamma   90.00000000
_symmetry_Int_Tables_number   1
_chemical_formula_structural   Y(SnRh2)2
_chemical_formula_sum   'Y4 Sn8 Rh16'
_cell_volume   508.13458134
_cell_formula_units_Z   4
loop_
 _symmetry_equiv_pos_site_id
 _symmetry_equiv_pos_as_xyz
  1  'x, y, z'
loop_
 _atom_site_type_symbol
 _atom_site_label
 _atom_site_symmetry_multiplicity
 _atom_site_fract_x
 _atom_site_fract_y
 _atom_site_fract_z
 _atom_site_occupancy
  Y  Y0  1  0.250000  0.150516  0.827022  1
  Y  Y1  1  0.250000  0.349484  0.327022  1
  Y  Y2  1  0.750000  0.849484  0.172978  1
  Y  Y3  1  0.750000  0.650516  0.672978  1
  Sn  Sn4  1  0.250000  0.413711  0.638092  1
  Sn  Sn5  1  0.250000  0.086289  0.138092  1
  Sn  Sn6  1  0.750000  0.586289  0.361908  1
  Sn  Sn7  1  0.750000  0.913711  0.861908  1
  Sn  Sn8  1  0.250000  0.617383  0.063892  1
  Sn  Sn9  1  0.250000  0.882617  0.563892  1
  Sn  Sn10  1  0.750000  0.382617  0.936108  1
  Sn  Sn11  1  0.750000  0.117383  0.436108  1
  Rh  Rh12  1  0.250000  0.617920  0.496327  1
  Rh  Rh13  1  0.250000  0.882080  0.996327  1
  Rh  Rh14  1  0.750000  0.382080  0.503673  1
  Rh  Rh15  1  0.750000  0.117920  0.003673  1
  Rh  Rh16  1  0.250000  0.711125  0.274724  1
  Rh  Rh17  1  0.250000  0.788875  0.774724  1
  Rh  Rh18  1  0.750000  0.288875  0.725276  1
  Rh  Rh19  1  0.750000  0.211125  0.225276  1
  Rh  Rh20  1  0.250000  0.166514  0.563984  1
  Rh  Rh21  1  0.250000  0.333486  0.063984  1
  Rh  Rh22  1  0.750000  0.833486  0.436016  1
  Rh  Rh23  1  0.750000  0.666514  0.936016  1
  Rh  Rh24  1  0.250000  0.995311  0.344634  1
  Rh  Rh25  1  0.250000  0.504689  0.844634  1
  Rh  Rh26  1  0.750000  0.004689  0.655366  1
  Rh  Rh27  1  0.750000  0.495311  0.155366  1
