# generated using pymatgen
data_Nb4GaFe6Ge
_symmetry_space_group_name_H-M   'P 1'
_cell_length_a   4.88242700
_cell_length_b   4.88242654
_cell_length_c   8.00824000
_cell_angle_alpha   90.00000000
_cell_angle_beta   90.00000000
_cell_angle_gamma   120.00000986
_symmetry_Int_Tables_number   1
_chemical_formula_structural   Nb4GaFe6Ge
_chemical_formula_sum   'Nb4 Ga1 Fe6 Ge1'
_cell_volume   165.32523375
_cell_formula_units_Z   1
loop_
 _symmetry_equiv_pos_site_id
 _symmetry_equiv_pos_as_xyz
  1  'x, y, z'
loop_
 _atom_site_type_symbol
 _atom_site_label
 _atom_site_symmetry_multiplicity
 _atom_site_fract_x
 _atom_site_fract_y
 _atom_site_fract_z
 _atom_site_occupancy
  Nb  Nb0  1  0.333333  0.666667  0.433547  1
  Nb  Nb1  1  0.666667  0.333333  0.935152  1
  Nb  Nb2  1  0.666667  0.333333  0.566453  1
  Nb  Nb3  1  0.333333  0.666667  0.064848  1
  Ga  Ga4  1  0.000000  0.000000  0.500000  1
  Fe  Fe5  1  0.653888  0.826944  0.749985  1
  Fe  Fe6  1  0.346112  0.173056  0.250015  1
  Fe  Fe7  1  0.173056  0.346112  0.749985  1
  Fe  Fe8  1  0.826944  0.173056  0.250015  1
  Fe  Fe9  1  0.826944  0.653888  0.250015  1
  Fe  Fe10  1  0.173056  0.826944  0.749985  1
  Ge  Ge11  1  0.000000  0.000000  0.000000  1
