# generated using pymatgen
data_Tm12InCo4Tc
_symmetry_space_group_name_H-M   'P 1'
_cell_length_a   8.17186297
_cell_length_b   8.17186302
_cell_length_c   8.17186275
_cell_angle_alpha   111.36169385
_cell_angle_beta   110.77819641
_cell_angle_gamma   106.31957376
_symmetry_Int_Tables_number   1
_chemical_formula_structural   Tm12InCo4Tc
_chemical_formula_sum   'Tm12 In1 Co4 Tc1'
_cell_volume   419.13086167
_cell_formula_units_Z   1
loop_
 _symmetry_equiv_pos_site_id
 _symmetry_equiv_pos_as_xyz
  1  'x, y, z'
loop_
 _atom_site_type_symbol
 _atom_site_label
 _atom_site_symmetry_multiplicity
 _atom_site_fract_x
 _atom_site_fract_y
 _atom_site_fract_z
 _atom_site_occupancy
  Tm  Tm0  1  0.421118  0.225239  0.195879  1
  Tm  Tm1  1  0.578882  0.774761  0.804121  1
  Tm  Tm2  1  0.029361  0.225239  0.804121  1
  Tm  Tm3  1  0.970639  0.774761  0.195879  1
  Tm  Tm4  1  0.181593  0.277143  0.458736  1
  Tm  Tm5  1  0.818407  0.722857  0.541264  1
  Tm  Tm6  1  0.181593  0.722857  0.904451  1
  Tm  Tm7  1  0.818407  0.277143  0.095549  1
  Tm  Tm8  1  0.314899  0.619581  0.304683  1
  Tm  Tm9  1  0.685101  0.380419  0.695317  1
  Tm  Tm10  1  0.314899  0.010216  0.695317  1
  Tm  Tm11  1  0.685101  0.989784  0.304683  1
  In  In12  1  0.500000  0.500000  0.000000  1
  Co  Co13  1  0.373551  0.000000  0.373551  1
  Co  Co14  1  0.626449  0.000000  0.626449  1
  Co  Co15  1  0.112264  0.612264  0.500000  1
  Co  Co16  1  0.887736  0.387736  0.500000  1
  Tc  Tc17  1  0.000000  0.000000  0.000000  1
