# generated using pymatgen
data_Nd6Dy9Ho(CdIr)4
_symmetry_space_group_name_H-M   'P 1'
_cell_length_a   9.75702746
_cell_length_b   9.75702820
_cell_length_c   9.75697200
_cell_angle_alpha   60.00018374
_cell_angle_beta   60.00018124
_cell_angle_gamma   59.98769484
_symmetry_Int_Tables_number   1
_chemical_formula_structural   Nd6Dy9Ho(CdIr)4
_chemical_formula_sum   'Nd6 Dy9 Ho1 Cd4 Ir4'
_cell_volume   656.74373967
_cell_formula_units_Z   1
loop_
 _symmetry_equiv_pos_site_id
 _symmetry_equiv_pos_as_xyz
  1  'x, y, z'
loop_
 _atom_site_type_symbol
 _atom_site_label
 _atom_site_symmetry_multiplicity
 _atom_site_fract_x
 _atom_site_fract_y
 _atom_site_fract_z
 _atom_site_occupancy
  Nd  Nd0  1  0.940849  0.559060  0.559045  1
  Nd  Nd1  1  0.559060  0.940849  0.941045  1
  Nd  Nd2  1  0.559060  0.940849  0.559045  1
  Nd  Nd3  1  0.940849  0.559060  0.941045  1
  Nd  Nd4  1  0.559392  0.559392  0.940608  1
  Nd  Nd5  1  0.941171  0.941171  0.558829  1
  Dy  Dy6  1  0.347717  0.347717  0.347027  1
  Dy  Dy7  1  0.347717  0.347717  0.957539  1
  Dy  Dy8  1  0.348519  0.956597  0.347442  1
  Dy  Dy9  1  0.956597  0.348519  0.347442  1
  Dy  Dy10  1  0.811634  0.186997  0.188508  1
  Dy  Dy11  1  0.186997  0.811634  0.812861  1
  Dy  Dy12  1  0.186997  0.811634  0.188508  1
  Dy  Dy13  1  0.811634  0.186997  0.812861  1
  Dy  Dy14  1  0.187919  0.187919  0.812081  1
  Ho  Ho15  1  0.812222  0.812222  0.187778  1
  Cd  Cd16  1  0.579582  0.579582  0.579447  1
  Cd  Cd17  1  0.579582  0.579582  0.261389  1
  Cd  Cd18  1  0.579717  0.260891  0.579696  1
  Cd  Cd19  1  0.260891  0.579717  0.579696  1
  Ir  Ir20  1  0.141871  0.141871  0.140487  1
  Ir  Ir21  1  0.141871  0.141871  0.575770  1
  Ir  Ir22  1  0.141748  0.576404  0.140923  1
  Ir  Ir23  1  0.576404  0.141748  0.140923  1
