# generated using pymatgen
data_YHo15MgIn3Pt4
_symmetry_space_group_name_H-M   'P 1'
_cell_length_a   9.70038123
_cell_length_b   9.68406607
_cell_length_c   9.69083200
_cell_angle_alpha   59.97688562
_cell_angle_beta   60.03255894
_cell_angle_gamma   60.06853506
_symmetry_Int_Tables_number   1
_chemical_formula_structural   YHo15MgIn3Pt4
_chemical_formula_sum   'Y1 Ho15 Mg1 In3 Pt4'
_cell_volume   644.09195606
_cell_formula_units_Z   1
loop_
 _symmetry_equiv_pos_site_id
 _symmetry_equiv_pos_as_xyz
  1  'x, y, z'
loop_
 _atom_site_type_symbol
 _atom_site_label
 _atom_site_symmetry_multiplicity
 _atom_site_fract_x
 _atom_site_fract_y
 _atom_site_fract_z
 _atom_site_occupancy
  Y  Y0  1  0.186058  0.186598  0.813672  1
  Ho  Ho1  1  0.600108  0.599866  0.600002  1
  Ho  Ho2  1  0.600108  0.599866  0.200023  1
  Ho  Ho3  1  0.601315  0.198204  0.600241  1
  Ho  Ho4  1  0.194583  0.602106  0.601656  1
  Ho  Ho5  1  0.058720  0.442224  0.440495  1
  Ho  Ho6  1  0.439549  0.061045  0.060363  1
  Ho  Ho7  1  0.439549  0.061045  0.439043  1
  Ho  Ho8  1  0.058720  0.442224  0.058561  1
  Ho  Ho9  1  0.438941  0.439347  0.060856  1
  Ho  Ho10  1  0.058893  0.058505  0.441302  1
  Ho  Ho11  1  0.185689  0.813559  0.814544  1
  Ho  Ho12  1  0.813219  0.186477  0.187018  1
  Ho  Ho13  1  0.813219  0.186477  0.813286  1
  Ho  Ho14  1  0.185689  0.813559  0.186209  1
  Ho  Ho15  1  0.814679  0.813742  0.185790  1
  Mg  Mg16  1  0.516457  0.827812  0.827865  1
  In  In17  1  0.831780  0.833329  0.833731  1
  In  In18  1  0.831780  0.833329  0.501159  1
  In  In19  1  0.832191  0.500418  0.833695  1
  Pt  Pt20  1  0.392306  0.393016  0.393129  1
  Pt  Pt21  1  0.392306  0.393016  0.821551  1
  Pt  Pt22  1  0.391760  0.821905  0.393169  1
  Pt  Pt23  1  0.822384  0.392334  0.392642  1
