# generated using pymatgen
data_Ho7Er9CdIn3Ir4
_symmetry_space_group_name_H-M   'P 1'
_cell_length_a   9.58539941
_cell_length_b   9.58868598
_cell_length_c   9.59640200
_cell_angle_alpha   59.97337023
_cell_angle_beta   59.96201530
_cell_angle_gamma   60.01097804
_symmetry_Int_Tables_number   1
_chemical_formula_structural   Ho7Er9CdIn3Ir4
_chemical_formula_sum   'Ho7 Er9 Cd1 In3 Ir4'
_cell_volume   623.42824006
_cell_formula_units_Z   1
loop_
 _symmetry_equiv_pos_site_id
 _symmetry_equiv_pos_as_xyz
  1  'x, y, z'
loop_
 _atom_site_type_symbol
 _atom_site_label
 _atom_site_symmetry_multiplicity
 _atom_site_fract_x
 _atom_site_fract_y
 _atom_site_fract_z
 _atom_site_occupancy
  Ho  Ho0  1  0.058657  0.058982  0.441180  1
  Ho  Ho1  1  0.190759  0.811159  0.811207  1
  Ho  Ho2  1  0.811745  0.188988  0.188603  1
  Ho  Ho3  1  0.811745  0.188988  0.810664  1
  Ho  Ho4  1  0.190759  0.811159  0.186875  1
  Ho  Ho5  1  0.812894  0.810806  0.188150  1
  Ho  Ho6  1  0.191274  0.188337  0.810194  1
  Er  Er7  1  0.599417  0.598861  0.597075  1
  Er  Er8  1  0.599417  0.598861  0.204648  1
  Er  Er9  1  0.599908  0.202719  0.598687  1
  Er  Er10  1  0.202248  0.599904  0.598925  1
  Er  Er11  1  0.058504  0.440067  0.441858  1
  Er  Er12  1  0.438835  0.059956  0.060608  1
  Er  Er13  1  0.438835  0.059956  0.440600  1
  Er  Er14  1  0.058504  0.440067  0.059571  1
  Er  Er15  1  0.439847  0.439525  0.060314  1
  Cd  Cd16  1  0.503097  0.832009  0.832446  1
  In  In17  1  0.831298  0.832924  0.833153  1
  In  In18  1  0.831298  0.832924  0.502625  1
  In  In19  1  0.831112  0.502672  0.833108  1
  Ir  Ir20  1  0.391262  0.391564  0.391494  1
  Ir  Ir21  1  0.391262  0.391564  0.825680  1
  Ir  Ir22  1  0.391443  0.826135  0.391211  1
  Ir  Ir23  1  0.825883  0.391873  0.391123  1
