# generated using pymatgen
data_Nd4Mn4ZnFe3O20
_symmetry_space_group_name_H-M   'P 1'
_cell_length_a   5.80972100
_cell_length_b   7.59496247
_cell_length_c   8.76187866
_cell_angle_alpha   89.83908256
_cell_angle_beta   90.00000000
_cell_angle_gamma   90.00000000
_symmetry_Int_Tables_number   1
_chemical_formula_structural   Nd4Mn4ZnFe3O20
_chemical_formula_sum   'Nd4 Mn4 Zn1 Fe3 O20'
_cell_volume   386.61297988
_cell_formula_units_Z   1
loop_
 _symmetry_equiv_pos_site_id
 _symmetry_equiv_pos_as_xyz
  1  'x, y, z'
loop_
 _atom_site_type_symbol
 _atom_site_label
 _atom_site_symmetry_multiplicity
 _atom_site_fract_x
 _atom_site_fract_y
 _atom_site_fract_z
 _atom_site_occupancy
  Nd  Nd0  1  0.000000  0.361906  0.671602  1
  Nd  Nd1  1  0.000000  0.637666  0.327383  1
  Nd  Nd2  1  0.000000  0.863531  0.830562  1
  Nd  Nd3  1  0.000000  0.136766  0.170320  1
  Mn  Mn4  1  0.254436  0.499850  0.000079  1
  Mn  Mn5  1  0.748246  0.000252  0.500856  1
  Mn  Mn6  1  0.745564  0.499850  0.000079  1
  Mn  Mn7  1  0.251754  0.000252  0.500856  1
  Zn  Zn8  1  0.500000  0.107495  0.851298  1
  Fe  Fe9  1  0.500000  0.893347  0.142269  1
  Fe  Fe10  1  0.500000  0.610161  0.644456  1
  Fe  Fe11  1  0.500000  0.390452  0.356309  1
  O  O12  1  0.249079  0.900963  0.294109  1
  O  O13  1  0.239131  0.096730  0.701777  1
  O  O14  1  0.752125  0.402695  0.207075  1
  O  O15  1  0.752287  0.598732  0.793508  1
  O  O16  1  0.760869  0.096730  0.701777  1
  O  O17  1  0.750921  0.900963  0.294109  1
  O  O18  1  0.247713  0.598732  0.793508  1
  O  O19  1  0.247875  0.402695  0.207075  1
  O  O20  1  0.500000  0.352161  0.939164  1
  O  O21  1  0.500000  0.654617  0.065232  1
  O  O22  1  0.500000  0.846922  0.564617  1
  O  O23  1  0.500000  0.153520  0.435955  1
  O  O24  1  0.271054  0.996927  0.004191  1
  O  O25  1  0.724890  0.500224  0.500113  1
  O  O26  1  0.728946  0.996927  0.004191  1
  O  O27  1  0.275110  0.500224  0.500113  1
  O  O28  1  0.000000  0.156319  0.445817  1
  O  O29  1  0.000000  0.842321  0.551243  1
  O  O30  1  0.000000  0.656392  0.052794  1
  O  O31  1  0.000000  0.343678  0.947566  1
