# generated using pymatgen
data_Pr19SmSi15Rh
_symmetry_space_group_name_H-M   'P 1'
_cell_length_a   7.93252579
_cell_length_b   7.93514503
_cell_length_c   15.29639915
_cell_angle_alpha   90.08985727
_cell_angle_beta   89.80632046
_cell_angle_gamma   90.16173268
_symmetry_Int_Tables_number   1
_chemical_formula_structural   Pr19SmSi15Rh
_chemical_formula_sum   'Pr19 Sm1 Si15 Rh1'
_cell_volume   962.83269631
_cell_formula_units_Z   1
loop_
 _symmetry_equiv_pos_site_id
 _symmetry_equiv_pos_as_xyz
  1  'x, y, z'
loop_
 _atom_site_type_symbol
 _atom_site_label
 _atom_site_symmetry_multiplicity
 _atom_site_fract_x
 _atom_site_fract_y
 _atom_site_fract_z
 _atom_site_occupancy
  Pr  Pr0  1  0.190341  0.808314  0.249888  1
  Pr  Pr1  1  0.817625  0.187812  0.750310  1
  Pr  Pr2  1  0.692895  0.688241  0.500339  1
  Pr  Pr3  1  0.373815  0.010732  0.448770  1
  Pr  Pr4  1  0.490076  0.875386  0.698011  1
  Pr  Pr5  1  0.509985  0.123929  0.197667  1
  Pr  Pr6  1  0.875560  0.488330  0.300110  1
  Pr  Pr7  1  0.124578  0.509054  0.800376  1
  Pr  Pr8  1  0.626200  0.988426  0.948871  1
  Pr  Pr9  1  0.005054  0.376727  0.551855  1
  Pr  Pr10  1  0.988337  0.625030  0.051267  1
  Pr  Pr11  1  0.133969  0.986256  0.873988  1
  Pr  Pr12  1  0.516440  0.630275  0.125595  1
  Pr  Pr13  1  0.474225  0.362020  0.628452  1
  Pr  Pr14  1  0.627627  0.515952  0.874019  1
  Pr  Pr15  1  0.373252  0.483204  0.373597  1
  Pr  Pr16  1  0.872837  0.019812  0.376707  1
  Pr  Pr17  1  0.982657  0.126953  0.124138  1
  Pr  Pr18  1  0.025274  0.879942  0.625502  1
  Sm  Sm19  1  0.306480  0.306964  0.998268  1
  Si  Si20  1  0.332271  0.694181  0.950903  1
  Si  Si21  1  0.665049  0.303678  0.451822  1
  Si  Si22  1  0.696102  0.334487  0.049646  1
  Si  Si23  1  0.304289  0.667931  0.548431  1
  Si  Si24  1  0.804554  0.832711  0.202395  1
  Si  Si25  1  0.167812  0.197478  0.298246  1
  Si  Si26  1  0.833889  0.802744  0.799143  1
  Si  Si27  1  0.288515  0.923906  0.058359  1
  Si  Si28  1  0.578916  0.787689  0.309900  1
  Si  Si29  1  0.425732  0.208549  0.813126  1
  Si  Si30  1  0.784119  0.580753  0.690412  1
  Si  Si31  1  0.212842  0.421457  0.189253  1
  Si  Si32  1  0.705463  0.074745  0.558828  1
  Si  Si33  1  0.921705  0.288709  0.941881  1
  Si  Si34  1  0.079158  0.714730  0.441603  1
  Rh  Rh35  1  0.192354  0.172892  0.698321  1
