# generated using pymatgen
data_Tb2MgSi2(PPd5)4
_symmetry_space_group_name_H-M   'P 1'
_cell_length_a   8.67246401
_cell_length_b   8.66659744
_cell_length_c   8.66655998
_cell_angle_alpha   60.04490681
_cell_angle_beta   59.97782434
_cell_angle_gamma   59.97760723
_symmetry_Int_Tables_number   1
_chemical_formula_structural   Tb2MgSi2(PPd5)4
_chemical_formula_sum   'Tb2 Mg1 Si2 P4 Pd20'
_cell_volume   460.59963771
_cell_formula_units_Z   1
loop_
 _symmetry_equiv_pos_site_id
 _symmetry_equiv_pos_as_xyz
  1  'x, y, z'
loop_
 _atom_site_type_symbol
 _atom_site_label
 _atom_site_symmetry_multiplicity
 _atom_site_fract_x
 _atom_site_fract_y
 _atom_site_fract_z
 _atom_site_occupancy
  Tb  Tb0  1  0.250002  0.250003  0.249997  1
  Tb  Tb1  1  0.749998  0.749997  0.750003  1
  Mg  Mg2  1  0.000000  0.000000  0.000000  1
  Si  Si3  1  0.736604  0.263396  0.263398  1
  Si  Si4  1  0.263396  0.736604  0.736602  1
  P  P5  1  0.263540  0.736460  0.263541  1
  P  P6  1  0.736460  0.263540  0.736459  1
  P  P7  1  0.263547  0.263547  0.736453  1
  P  P8  1  0.736453  0.736453  0.263547  1
  Pd  Pd9  1  0.383593  0.385176  0.385179  1
  Pd  Pd10  1  0.616407  0.614824  0.614821  1
  Pd  Pd11  1  0.385175  0.383593  0.846053  1
  Pd  Pd12  1  0.385176  0.846058  0.383591  1
  Pd  Pd13  1  0.614825  0.616407  0.153947  1
  Pd  Pd14  1  0.614824  0.153942  0.616409  1
  Pd  Pd15  1  0.846059  0.385176  0.385174  1
  Pd  Pd16  1  0.153941  0.614824  0.614826  1
  Pd  Pd17  1  0.343419  0.999997  0.000002  1
  Pd  Pd18  1  0.656581  0.000003  0.999998  1
  Pd  Pd19  1  0.999996  0.343421  0.656582  1
  Pd  Pd20  1  0.000004  0.656579  0.343418  1
  Pd  Pd21  1  0.001892  0.345060  0.998106  1
  Pd  Pd22  1  0.654941  0.998107  0.345059  1
  Pd  Pd23  1  0.998108  0.654940  0.001894  1
  Pd  Pd24  1  0.345059  0.001893  0.654941  1
  Pd  Pd25  1  0.001893  0.998107  0.345062  1
  Pd  Pd26  1  0.998107  0.001893  0.654938  1
  Pd  Pd27  1  0.654938  0.345064  0.998106  1
  Pd  Pd28  1  0.345062  0.654936  0.001894  1
