# generated using pymatgen
data_Y5Lu15(Cd3Os)2
_symmetry_space_group_name_H-M   'P 1'
_cell_length_a   9.43931138
_cell_length_b   9.44148214
_cell_length_c   9.70570500
_cell_angle_alpha   90.00000000
_cell_angle_beta   90.00000000
_cell_angle_gamma   119.77187983
_symmetry_Int_Tables_number   1
_chemical_formula_structural   Y5Lu15(Cd3Os)2
_chemical_formula_sum   'Y5 Lu15 Cd6 Os2'
_cell_volume   750.81325846
_cell_formula_units_Z   1
loop_
 _symmetry_equiv_pos_site_id
 _symmetry_equiv_pos_as_xyz
  1  'x, y, z'
loop_
 _atom_site_type_symbol
 _atom_site_label
 _atom_site_symmetry_multiplicity
 _atom_site_fract_x
 _atom_site_fract_y
 _atom_site_fract_z
 _atom_site_occupancy
  Y  Y0  1  0.539156  0.078792  0.250000  1
  Y  Y1  1  0.921548  0.461346  0.250000  1
  Y  Y2  1  0.460827  0.539095  0.750000  1
  Y  Y3  1  0.461651  0.924615  0.750000  1
  Y  Y4  1  0.075655  0.538425  0.750000  1
  Lu  Lu5  1  0.000694  0.999151  0.499724  1
  Lu  Lu6  1  0.000694  0.999151  0.000276  1
  Lu  Lu7  1  0.210469  0.789727  0.440752  1
  Lu  Lu8  1  0.210568  0.419480  0.441364  1
  Lu  Lu9  1  0.580564  0.789439  0.441257  1
  Lu  Lu10  1  0.790370  0.209670  0.558356  1
  Lu  Lu11  1  0.788166  0.579191  0.557805  1
  Lu  Lu12  1  0.420526  0.211699  0.557713  1
  Lu  Lu13  1  0.790370  0.209670  0.941644  1
  Lu  Lu14  1  0.788166  0.579191  0.942195  1
  Lu  Lu15  1  0.420526  0.211699  0.942287  1
  Lu  Lu16  1  0.210469  0.789727  0.059248  1
  Lu  Lu17  1  0.210568  0.419480  0.058636  1
  Lu  Lu18  1  0.580564  0.789439  0.058743  1
  Lu  Lu19  1  0.536208  0.463843  0.250000  1
  Cd  Cd20  1  0.887002  0.113303  0.250000  1
  Cd  Cd21  1  0.883778  0.772057  0.250000  1
  Cd  Cd22  1  0.228279  0.116212  0.250000  1
  Cd  Cd23  1  0.113165  0.886775  0.750000  1
  Cd  Cd24  1  0.114087  0.225460  0.750000  1
  Cd  Cd25  1  0.774141  0.885801  0.750000  1
  Os  Os26  1  0.334718  0.664451  0.250000  1
  Os  Os27  1  0.667069  0.333108  0.750000  1
