# generated using pymatgen
data_Y3Er2(FeB3)2
_symmetry_space_group_name_H-M   'P 1'
_cell_length_a   5.40879235
_cell_length_b   5.40879264
_cell_length_c   8.27867809
_cell_angle_alpha   70.93320492
_cell_angle_beta   70.93320631
_cell_angle_gamma   59.99999778
_symmetry_Int_Tables_number   1
_chemical_formula_structural   Y3Er2(FeB3)2
_chemical_formula_sum   'Y3 Er2 Fe2 B6'
_cell_volume   194.25127306
_cell_formula_units_Z   1
loop_
 _symmetry_equiv_pos_site_id
 _symmetry_equiv_pos_as_xyz
  1  'x, y, z'
loop_
 _atom_site_type_symbol
 _atom_site_label
 _atom_site_symmetry_multiplicity
 _atom_site_fract_x
 _atom_site_fract_y
 _atom_site_fract_z
 _atom_site_occupancy
  Y  Y0  1  0.000000  0.000000  0.000000  1
  Y  Y1  1  0.748289  0.748289  0.755134  1
  Y  Y2  1  0.251711  0.251711  0.244866  1
  Er  Er3  1  0.582310  0.582310  0.253070  1
  Er  Er4  1  0.417690  0.417690  0.746930  1
  Fe  Fe5  1  0.881503  0.881503  0.355491  1
  Fe  Fe6  1  0.118497  0.118497  0.644509  1
  B  B7  1  0.500000  0.168156  0.500000  1
  B  B8  1  0.831844  0.500000  0.500000  1
  B  B9  1  0.168156  0.831844  0.500000  1
  B  B10  1  0.168156  0.500000  0.500000  1
  B  B11  1  0.831844  0.168156  0.500000  1
  B  B12  1  0.500000  0.831844  0.500000  1
