# generated using pymatgen
data_Th3As5Pd6
_symmetry_space_group_name_H-M   'P 1'
_cell_length_a   4.21029700
_cell_length_b   9.97378900
_cell_length_c   13.01379300
_cell_angle_alpha   90.00000000
_cell_angle_beta   90.00000000
_cell_angle_gamma   90.00000000
_symmetry_Int_Tables_number   1
_chemical_formula_structural   Th3As5Pd6
_chemical_formula_sum   'Th6 As10 Pd12'
_cell_volume   546.48318489
_cell_formula_units_Z   2
loop_
 _symmetry_equiv_pos_site_id
 _symmetry_equiv_pos_as_xyz
  1  'x, y, z'
loop_
 _atom_site_type_symbol
 _atom_site_label
 _atom_site_symmetry_multiplicity
 _atom_site_fract_x
 _atom_site_fract_y
 _atom_site_fract_z
 _atom_site_occupancy
  Th  Th0  1  0.000000  0.246786  0.334341  1
  Th  Th1  1  0.500000  0.753214  0.834341  1
  Th  Th2  1  0.500000  0.753214  0.165659  1
  Th  Th3  1  0.000000  0.254409  0.000000  1
  Th  Th4  1  0.500000  0.745591  0.500000  1
  Th  Th5  1  0.000000  0.246786  0.665659  1
  As  As6  1  0.000000  0.525446  0.126159  1
  As  As7  1  0.000000  0.852968  0.336854  1
  As  As8  1  0.000000  0.838273  0.000000  1
  As  As9  1  0.500000  0.474554  0.373841  1
  As  As10  1  0.500000  0.161727  0.500000  1
  As  As11  1  0.000000  0.525446  0.873841  1
  As  As12  1  0.500000  0.474554  0.626159  1
  As  As13  1  0.000000  0.852968  0.663146  1
  As  As14  1  0.500000  0.147032  0.163146  1
  As  As15  1  0.500000  0.147032  0.836854  1
  Pd  Pd16  1  0.000000  0.995403  0.167105  1
  Pd  Pd17  1  0.500000  0.004597  0.332895  1
  Pd  Pd18  1  0.500000  0.393365  0.183134  1
  Pd  Pd19  1  0.500000  0.527397  0.000000  1
  Pd  Pd20  1  0.000000  0.472603  0.500000  1
  Pd  Pd21  1  0.000000  0.606635  0.316866  1
  Pd  Pd22  1  0.000000  0.606635  0.683134  1
  Pd  Pd23  1  0.500000  0.000276  0.000000  1
  Pd  Pd24  1  0.000000  0.995403  0.832895  1
  Pd  Pd25  1  0.500000  0.393365  0.816866  1
  Pd  Pd26  1  0.000000  0.999724  0.500000  1
  Pd  Pd27  1  0.500000  0.004597  0.667105  1
