# generated using pymatgen
data_RbNpS6
_symmetry_space_group_name_H-M   'P 1'
_cell_length_a   8.38572713
_cell_length_b   8.38572563
_cell_length_c   7.89495094
_cell_angle_alpha   87.68014662
_cell_angle_beta   87.68015839
_cell_angle_gamma   119.97874940
_symmetry_Int_Tables_number   1
_chemical_formula_structural   RbNpS6
_chemical_formula_sum   'Rb2 Np2 S12'
_cell_volume   479.32213631
_cell_formula_units_Z   2
loop_
 _symmetry_equiv_pos_site_id
 _symmetry_equiv_pos_as_xyz
  1  'x, y, z'
loop_
 _atom_site_type_symbol
 _atom_site_label
 _atom_site_symmetry_multiplicity
 _atom_site_fract_x
 _atom_site_fract_y
 _atom_site_fract_z
 _atom_site_occupancy
  Rb  Rb0  1  0.671917  0.334895  0.002265  1
  Rb  Rb1  1  0.334895  0.671917  0.502265  1
  Np  Np2  1  0.988551  0.010532  0.743026  1
  Np  Np3  1  0.010532  0.988551  0.243026  1
  S  S4  1  0.947825  0.204866  0.481198  1
  S  S5  1  0.204866  0.947825  0.981198  1
  S  S6  1  0.287163  0.329582  0.812658  1
  S  S7  1  0.329582  0.287163  0.312658  1
  S  S8  1  0.074385  0.260249  0.991107  1
  S  S9  1  0.260249  0.074385  0.491107  1
  S  S10  1  0.721170  0.077126  0.652474  1
  S  S11  1  0.077126  0.721170  0.152474  1
  S  S12  1  0.957929  0.681749  0.697681  1
  S  S13  1  0.681749  0.957929  0.197681  1
  S  S14  1  0.816149  0.733394  0.516973  1
  S  S15  1  0.733394  0.816149  0.016973  1
