# generated using pymatgen
data_NdSmAl20Os3Rh
_symmetry_space_group_name_H-M   'P 1'
_cell_length_a   6.87897889
_cell_length_b   6.88564743
_cell_length_c   9.19609755
_cell_angle_alpha   90.24002318
_cell_angle_beta   90.09235918
_cell_angle_gamma   96.70119008
_symmetry_Int_Tables_number   1
_chemical_formula_structural   NdSmAl20Os3Rh
_chemical_formula_sum   'Nd1 Sm1 Al20 Os3 Rh1'
_cell_volume   432.60383233
_cell_formula_units_Z   1
loop_
 _symmetry_equiv_pos_site_id
 _symmetry_equiv_pos_as_xyz
  1  'x, y, z'
loop_
 _atom_site_type_symbol
 _atom_site_label
 _atom_site_symmetry_multiplicity
 _atom_site_fract_x
 _atom_site_fract_y
 _atom_site_fract_z
 _atom_site_occupancy
  Nd  Nd0  1  0.127709  0.874341  0.250134  1
  Sm  Sm1  1  0.871267  0.126484  0.750042  1
  Al  Al2  1  0.620530  0.376462  0.551672  1
  Al  Al3  1  0.379975  0.623069  0.448805  1
  Al  Al4  1  0.377843  0.622666  0.049237  1
  Al  Al5  1  0.622650  0.376832  0.950301  1
  Al  Al6  1  0.225946  0.225737  0.499901  1
  Al  Al7  1  0.773806  0.774514  0.500988  1
  Al  Al8  1  0.775639  0.776148  0.999021  1
  Al  Al9  1  0.224137  0.224057  0.000123  1
  Al  Al10  1  0.841328  0.159220  0.101209  1
  Al  Al11  1  0.158108  0.841311  0.898165  1
  Al  Al12  1  0.159574  0.841600  0.603769  1
  Al  Al13  1  0.839912  0.159002  0.396866  1
  Al  Al14  1  0.855917  0.587089  0.750160  1
  Al  Al15  1  0.143925  0.411882  0.249823  1
  Al  Al16  1  0.411939  0.143089  0.750430  1
  Al  Al17  1  0.589023  0.857009  0.249580  1
  Al  Al18  1  0.220790  0.482357  0.752191  1
  Al  Al19  1  0.778612  0.516845  0.247790  1
  Al  Al20  1  0.517486  0.781557  0.749434  1
  Al  Al21  1  0.483299  0.219043  0.250563  1
  Os  Os22  1  0.999870  0.499608  0.999540  1
  Os  Os23  1  0.500367  0.000120  0.999500  1
  Os  Os24  1  0.500387  0.000112  0.500501  1
  Rh  Rh25  1  0.999962  0.499847  0.500255  1
