# generated using pymatgen
data_Ce2Pr2Tl2CuRh3
_symmetry_space_group_name_H-M   'P 1'
_cell_length_a   7.90245100
_cell_length_b   7.90244963
_cell_length_c   3.73630500
_cell_angle_alpha   90.00000000
_cell_angle_beta   90.00000000
_cell_angle_gamma   85.78197889
_symmetry_Int_Tables_number   1
_chemical_formula_structural   Ce2Pr2Tl2CuRh3
_chemical_formula_sum   'Ce2 Pr2 Tl2 Cu1 Rh3'
_cell_volume   232.69547604
_cell_formula_units_Z   1
loop_
 _symmetry_equiv_pos_site_id
 _symmetry_equiv_pos_as_xyz
  1  'x, y, z'
loop_
 _atom_site_type_symbol
 _atom_site_label
 _atom_site_symmetry_multiplicity
 _atom_site_fract_x
 _atom_site_fract_y
 _atom_site_fract_z
 _atom_site_occupancy
  Ce  Ce0  1  0.165461  0.307735  0.500000  1
  Ce  Ce1  1  0.807735  0.665461  0.500000  1
  Pr  Pr2  1  0.677172  0.177172  0.500000  1
  Pr  Pr3  1  0.334515  0.834515  0.500000  1
  Tl  Tl4  1  0.996413  0.986853  0.000000  1
  Tl  Tl5  1  0.486853  0.496413  0.000000  1
  Cu  Cu6  1  0.125371  0.625371  0.000000  1
  Rh  Rh7  1  0.900451  0.400451  0.000000  1
  Rh  Rh8  1  0.644531  0.861499  0.000000  1
  Rh  Rh9  1  0.361499  0.144531  0.000000  1
