# generated using pymatgen
data_MgCd2Ni(PdO4)2
_symmetry_space_group_name_H-M   'P 1'
_cell_length_a   6.28672934
_cell_length_b   6.14104057
_cell_length_c   6.30214462
_cell_angle_alpha   60.71198445
_cell_angle_beta   88.77663571
_cell_angle_gamma   119.03572599
_symmetry_Int_Tables_number   1
_chemical_formula_structural   MgCd2Ni(PdO4)2
_chemical_formula_sum   'Mg1 Cd2 Ni1 Pd2 O8'
_cell_volume   174.52435824
_cell_formula_units_Z   1
loop_
 _symmetry_equiv_pos_site_id
 _symmetry_equiv_pos_as_xyz
  1  'x, y, z'
loop_
 _atom_site_type_symbol
 _atom_site_label
 _atom_site_symmetry_multiplicity
 _atom_site_fract_x
 _atom_site_fract_y
 _atom_site_fract_z
 _atom_site_occupancy
  Mg  Mg0  1  0.374950  0.250030  0.375022  1
  Cd  Cd1  1  0.979556  0.001715  0.979560  1
  Cd  Cd2  1  0.770479  0.498274  0.770476  1
  Ni  Ni3  1  0.375008  0.749963  0.374975  1
  Pd  Pd4  1  0.875104  0.250032  0.375063  1
  Pd  Pd5  1  0.375030  0.749990  0.875028  1
  O  O6  1  0.136132  0.285161  0.135711  1
  O  O7  1  0.614250  0.213950  0.184351  1
  O  O8  1  0.565623  0.715363  0.135685  1
  O  O9  1  0.135819  0.714046  0.136232  1
  O  O10  1  0.613838  0.214821  0.614299  1
  O  O11  1  0.135675  0.286092  0.565593  1
  O  O12  1  0.184357  0.784618  0.614284  1
  O  O13  1  0.614181  0.785944  0.613724  1
