# generated using pymatgen
data_La4HoTl2Sn
_symmetry_space_group_name_H-M   'P 1'
_cell_length_a   9.46313765
_cell_length_b   9.46313873
_cell_length_c   9.46313800
_cell_angle_alpha   96.28255443
_cell_angle_beta   96.97750111
_cell_angle_gamma   140.27212116
_symmetry_Int_Tables_number   1
_chemical_formula_structural   La4HoTl2Sn
_chemical_formula_sum   'La8 Ho2 Tl4 Sn2'
_cell_volume   509.39271218
_cell_formula_units_Z   2
loop_
 _symmetry_equiv_pos_site_id
 _symmetry_equiv_pos_as_xyz
  1  'x, y, z'
loop_
 _atom_site_type_symbol
 _atom_site_label
 _atom_site_symmetry_multiplicity
 _atom_site_fract_x
 _atom_site_fract_y
 _atom_site_fract_z
 _atom_site_occupancy
  La  La0  1  0.910967  0.221561  0.132566  1
  La  La1  1  0.224214  0.088887  0.313076  1
  La  La2  1  0.778898  0.908801  0.687701  1
  La  La3  1  0.091702  0.777698  0.869400  1
  La  La4  1  0.721105  0.408808  0.129907  1
  La  La5  1  0.275787  0.588855  0.864673  1
  La  La6  1  0.589044  0.721605  0.310610  1
  La  La7  1  0.408283  0.277691  0.685976  1
  Ho  Ho8  1  0.749996  0.253641  0.503645  1
  Ho  Ho9  1  0.250007  0.753658  0.503660  1
  Tl  Tl10  1  0.750000  0.749395  0.999390  1
  Tl  Tl11  1  0.249998  0.249382  0.999386  1
  Tl  Tl12  1  0.844651  0.653943  0.498614  1
  Tl  Tl13  1  0.655348  0.153961  0.809287  1
  Sn  Sn14  1  0.348880  0.846058  0.194933  1
  Sn  Sn15  1  0.151118  0.346057  0.497176  1
