# generated using pymatgen
data_NpTeF12
_symmetry_space_group_name_H-M   'P 1'
_cell_length_a   5.44459500
_cell_length_b   9.34281000
_cell_length_c   10.42373200
_cell_angle_alpha   90.00000000
_cell_angle_beta   90.00000000
_cell_angle_gamma   90.00000000
_symmetry_Int_Tables_number   1
_chemical_formula_structural   NpTeF12
_chemical_formula_sum   'Np2 Te2 F24'
_cell_volume   530.23248779
_cell_formula_units_Z   2
loop_
 _symmetry_equiv_pos_site_id
 _symmetry_equiv_pos_as_xyz
  1  'x, y, z'
loop_
 _atom_site_type_symbol
 _atom_site_label
 _atom_site_symmetry_multiplicity
 _atom_site_fract_x
 _atom_site_fract_y
 _atom_site_fract_z
 _atom_site_occupancy
  Np  Np0  1  0.597357  0.750000  0.627721  1
  Np  Np1  1  0.097357  0.250000  0.872279  1
  Te  Te2  1  0.402999  0.250000  0.372250  1
  Te  Te3  1  0.902999  0.750000  0.127750  1
  F  F4  1  0.550152  0.390995  0.271863  1
  F  F5  1  0.050152  0.609005  0.228137  1
  F  F6  1  0.438325  0.901878  0.735871  1
  F  F7  1  0.938325  0.098122  0.764129  1
  F  F8  1  0.173973  0.750000  0.018426  1
  F  F9  1  0.673973  0.250000  0.481574  1
  F  F10  1  0.804808  0.250000  0.989945  1
  F  F11  1  0.304808  0.750000  0.510055  1
  F  F12  1  0.631006  0.750000  0.236755  1
  F  F13  1  0.131006  0.250000  0.263245  1
  F  F14  1  0.390216  0.250000  0.754840  1
  F  F15  1  0.890216  0.750000  0.745160  1
  F  F16  1  0.754660  0.891117  0.027533  1
  F  F17  1  0.254660  0.108883  0.472467  1
  F  F18  1  0.256684  0.401926  0.980089  1
  F  F19  1  0.756684  0.598074  0.519911  1
  F  F20  1  0.256684  0.098074  0.980089  1
  F  F21  1  0.756684  0.901926  0.519911  1
  F  F22  1  0.754660  0.608883  0.027533  1
  F  F23  1  0.254660  0.391117  0.472467  1
  F  F24  1  0.050152  0.890995  0.228137  1
  F  F25  1  0.550152  0.109005  0.271863  1
  F  F26  1  0.938325  0.401878  0.764129  1
  F  F27  1  0.438325  0.598122  0.735871  1
