# generated using pymatgen
data_TbTh5(Ir5Rh)3
_symmetry_space_group_name_H-M   'P 1'
_cell_length_a   5.37475200
_cell_length_b   5.37473883
_cell_length_c   17.76342500
_cell_angle_alpha   89.99988274
_cell_angle_beta   90.00004264
_cell_angle_gamma   119.99977331
_symmetry_Int_Tables_number   1
_chemical_formula_structural   TbTh5(Ir5Rh)3
_chemical_formula_sum   'Tb1 Th5 Ir15 Rh3'
_cell_volume   444.40007788
_cell_formula_units_Z   1
loop_
 _symmetry_equiv_pos_site_id
 _symmetry_equiv_pos_as_xyz
  1  'x, y, z'
loop_
 _atom_site_type_symbol
 _atom_site_label
 _atom_site_symmetry_multiplicity
 _atom_site_fract_x
 _atom_site_fract_y
 _atom_site_fract_z
 _atom_site_occupancy
  Tb  Tb0  1  0.333332  0.666669  0.957977  1
  Th  Th1  1  0.333334  0.666667  0.543537  1
  Th  Th2  1  0.666671  0.333335  0.039931  1
  Th  Th3  1  0.666668  0.333332  0.457632  1
  Th  Th4  1  0.333334  0.666670  0.754266  1
  Th  Th5  1  0.666671  0.333337  0.248973  1
  Ir  Ir6  1  0.167445  0.334884  0.125900  1
  Ir  Ir7  1  0.832574  0.665153  0.626707  1
  Ir  Ir8  1  0.665114  0.832555  0.125899  1
  Ir  Ir9  1  0.167443  0.832554  0.125899  1
  Ir  Ir10  1  0.832574  0.167428  0.626704  1
  Ir  Ir11  1  0.334850  0.167426  0.626706  1
  Ir  Ir12  1  0.832766  0.665539  0.874221  1
  Ir  Ir13  1  0.832766  0.167234  0.874223  1
  Ir  Ir14  1  0.334461  0.167234  0.874221  1
  Ir  Ir15  1  0.665002  0.832497  0.372983  1
  Ir  Ir16  1  0.167499  0.832499  0.372983  1
  Ir  Ir17  1  0.167497  0.334992  0.372982  1
  Ir  Ir18  1  0.999999  0.999995  0.249351  1
  Ir  Ir19  1  0.999999  0.999999  0.998981  1
  Ir  Ir20  1  0.000000  0.999998  0.499836  1
  Rh  Rh21  1  0.000000  0.000010  0.750222  1
  Rh  Rh22  1  0.333336  0.666667  0.249594  1
  Rh  Rh23  1  0.666670  0.333332  0.750274  1
