# generated using pymatgen
data_Tm2Sc3Tl4
_symmetry_space_group_name_H-M   'P 1'
_cell_length_a   7.65789500
_cell_length_b   7.96462600
_cell_length_c   15.10857800
_cell_angle_alpha   90.00000000
_cell_angle_beta   90.00000000
_cell_angle_gamma   90.00000000
_symmetry_Int_Tables_number   1
_chemical_formula_structural   Tm2Sc3Tl4
_chemical_formula_sum   'Tm8 Sc12 Tl16'
_cell_volume   921.50646299
_cell_formula_units_Z   4
loop_
 _symmetry_equiv_pos_site_id
 _symmetry_equiv_pos_as_xyz
  1  'x, y, z'
loop_
 _atom_site_type_symbol
 _atom_site_label
 _atom_site_symmetry_multiplicity
 _atom_site_fract_x
 _atom_site_fract_y
 _atom_site_fract_z
 _atom_site_occupancy
  Tm  Tm0  1  0.995712  0.181406  0.092898  1
  Tm  Tm1  1  0.004288  0.818594  0.907102  1
  Tm  Tm2  1  0.504288  0.681406  0.907102  1
  Tm  Tm3  1  0.004288  0.818594  0.592898  1
  Tm  Tm4  1  0.495712  0.318594  0.092898  1
  Tm  Tm5  1  0.995712  0.181406  0.407102  1
  Tm  Tm6  1  0.495712  0.318594  0.407102  1
  Tm  Tm7  1  0.504288  0.681406  0.592898  1
  Sc  Sc8  1  0.166538  0.496436  0.750000  1
  Sc  Sc9  1  0.833462  0.503564  0.250000  1
  Sc  Sc10  1  0.333462  0.996436  0.250000  1
  Sc  Sc11  1  0.666538  0.003564  0.750000  1
  Sc  Sc12  1  0.335675  0.159578  0.626252  1
  Sc  Sc13  1  0.664325  0.840422  0.373748  1
  Sc  Sc14  1  0.164325  0.659578  0.373748  1
  Sc  Sc15  1  0.664325  0.840422  0.126252  1
  Sc  Sc16  1  0.835675  0.340422  0.626252  1
  Sc  Sc17  1  0.335675  0.159578  0.873748  1
  Sc  Sc18  1  0.835675  0.340422  0.873748  1
  Sc  Sc19  1  0.164325  0.659578  0.126252  1
  Tl  Tl20  1  0.027828  0.120703  0.750000  1
  Tl  Tl21  1  0.972172  0.879297  0.250000  1
  Tl  Tl22  1  0.472172  0.620703  0.250000  1
  Tl  Tl23  1  0.527828  0.379297  0.750000  1
  Tl  Tl24  1  0.303310  0.850783  0.750000  1
  Tl  Tl25  1  0.696690  0.149217  0.250000  1
  Tl  Tl26  1  0.196690  0.350783  0.250000  1
  Tl  Tl27  1  0.803310  0.649217  0.750000  1
  Tl  Tl28  1  0.183250  0.458714  0.541693  1
  Tl  Tl29  1  0.816750  0.541286  0.458307  1
  Tl  Tl30  1  0.316750  0.958714  0.458307  1
  Tl  Tl31  1  0.816750  0.541286  0.041693  1
  Tl  Tl32  1  0.683250  0.041286  0.541693  1
  Tl  Tl33  1  0.183250  0.458714  0.958307  1
  Tl  Tl34  1  0.683250  0.041286  0.958307  1
  Tl  Tl35  1  0.316750  0.958714  0.041693  1
