# generated using pymatgen
data_LaU4P12Ru19
_symmetry_space_group_name_H-M   'P 1'
_cell_length_a   12.61165172
_cell_length_b   12.63581630
_cell_length_c   3.94455700
_cell_angle_alpha   90.00000000
_cell_angle_beta   90.00000000
_cell_angle_gamma   120.06340249
_symmetry_Int_Tables_number   1
_chemical_formula_structural   LaU4P12Ru19
_chemical_formula_sum   'La1 U4 P12 Ru19'
_cell_volume   544.03434930
_cell_formula_units_Z   1
loop_
 _symmetry_equiv_pos_site_id
 _symmetry_equiv_pos_as_xyz
  1  'x, y, z'
loop_
 _atom_site_type_symbol
 _atom_site_label
 _atom_site_symmetry_multiplicity
 _atom_site_fract_x
 _atom_site_fract_y
 _atom_site_fract_z
 _atom_site_occupancy
  La  La0  1  0.000000  0.809740  0.500000  1
  U  U1  1  0.184014  0.183295  0.500000  1
  U  U2  1  0.815986  0.999281  0.500000  1
  U  U3  1  0.332809  0.667266  0.000000  1
  U  U4  1  0.667191  0.334456  0.000000  1
  P  P5  1  0.816237  0.817022  0.000000  1
  P  P6  1  0.183763  0.000785  0.000000  1
  P  P7  1  0.000000  0.186331  0.000000  1
  P  P8  1  0.171407  0.478012  0.500000  1
  P  P9  1  0.520284  0.692315  0.500000  1
  P  P10  1  0.307304  0.829441  0.500000  1
  P  P11  1  0.692696  0.522138  0.500000  1
  P  P12  1  0.828593  0.306606  0.500000  1
  P  P13  1  0.479716  0.172033  0.500000  1
  P  P14  1  0.370092  0.370546  0.000000  1
  P  P15  1  0.629908  0.000455  0.000000  1
  P  P16  1  0.000000  0.626440  0.000000  1
  Ru  Ru17  1  0.550483  0.553998  0.000000  1
  Ru  Ru18  1  0.449517  0.003515  0.000000  1
  Ru  Ru19  1  0.000000  0.445102  0.000000  1
  Ru  Ru20  1  0.712958  0.716436  0.500000  1
  Ru  Ru21  1  0.287042  0.003478  0.500000  1
  Ru  Ru22  1  0.000000  0.284471  0.500000  1
  Ru  Ru23  1  0.183536  0.375725  0.000000  1
  Ru  Ru24  1  0.623804  0.808590  0.000000  1
  Ru  Ru25  1  0.200963  0.816544  0.000000  1
  Ru  Ru26  1  0.799037  0.615581  0.000000  1
  Ru  Ru27  1  0.816464  0.192190  0.000000  1
  Ru  Ru28  1  0.376196  0.184786  0.000000  1
  Ru  Ru29  1  0.364141  0.493540  0.500000  1
  Ru  Ru30  1  0.505689  0.871226  0.500000  1
  Ru  Ru31  1  0.129228  0.632696  0.500000  1
  Ru  Ru32  1  0.870772  0.503467  0.500000  1
  Ru  Ru33  1  0.635859  0.129399  0.500000  1
  Ru  Ru34  1  0.494311  0.365535  0.500000  1
  Ru  Ru35  1  0.000000  0.007560  0.000000  1
