# generated using pymatgen
data_Tb2CeSn3IrRh2
_symmetry_space_group_name_H-M   'P 1'
_cell_length_a   7.60028646
_cell_length_b   7.52912110
_cell_length_c   3.93212000
_cell_angle_alpha   90.00000000
_cell_angle_beta   90.00000000
_cell_angle_gamma   120.16372102
_symmetry_Int_Tables_number   1
_chemical_formula_structural   Tb2CeSn3IrRh2
_chemical_formula_sum   'Tb2 Ce1 Sn3 Ir1 Rh2'
_cell_volume   194.54173719
_cell_formula_units_Z   1
loop_
 _symmetry_equiv_pos_site_id
 _symmetry_equiv_pos_as_xyz
  1  'x, y, z'
loop_
 _atom_site_type_symbol
 _atom_site_label
 _atom_site_symmetry_multiplicity
 _atom_site_fract_x
 _atom_site_fract_y
 _atom_site_fract_z
 _atom_site_occupancy
  Tb  Tb0  1  0.996353  0.406055  0.000000  1
  Tb  Tb1  1  0.593395  0.591142  0.000000  1
  Ce  Ce2  1  0.414210  0.000777  0.000000  1
  Sn  Sn3  1  0.257237  0.266391  0.500000  1
  Sn  Sn4  1  0.993305  0.735273  0.500000  1
  Sn  Sn5  1  0.749577  0.998401  0.500000  1
  Ir  Ir6  1  0.654165  0.318506  0.500000  1
  Rh  Rh7  1  0.335644  0.682779  0.500000  1
  Rh  Rh8  1  0.006115  0.000677  0.000000  1
