# generated using pymatgen
data_Sc3SiTc2Ge2Os
_symmetry_space_group_name_H-M   'P 1'
_cell_length_a   7.04916718
_cell_length_b   7.01678500
_cell_length_c   3.40851100
_cell_angle_alpha   90.00000000
_cell_angle_beta   90.00000000
_cell_angle_gamma   119.84815058
_symmetry_Int_Tables_number   1
_chemical_formula_structural   Sc3SiTc2Ge2Os
_chemical_formula_sum   'Sc3 Si1 Tc2 Ge2 Os1'
_cell_volume   146.22910070
_cell_formula_units_Z   1
loop_
 _symmetry_equiv_pos_site_id
 _symmetry_equiv_pos_as_xyz
  1  'x, y, z'
loop_
 _atom_site_type_symbol
 _atom_site_label
 _atom_site_symmetry_multiplicity
 _atom_site_fract_x
 _atom_site_fract_y
 _atom_site_fract_z
 _atom_site_occupancy
  Sc  Sc0  1  0.388648  0.389681  0.500000  1
  Sc  Sc1  1  0.611352  0.001034  0.500000  1
  Sc  Sc2  1  0.000000  0.607020  0.500000  1
  Si  Si3  1  0.000000  0.997905  0.500000  1
  Tc  Tc4  1  0.746773  0.747200  0.000000  1
  Tc  Tc5  1  0.253227  0.000427  0.000000  1
  Ge  Ge6  1  0.664202  0.334221  0.000000  1
  Ge  Ge7  1  0.335798  0.670020  0.000000  1
  Os  Os8  1  0.000000  0.252492  0.000000  1
