# generated using pymatgen
data_La3Nd13Cd4(RuAu)2
_symmetry_space_group_name_H-M   'P 1'
_cell_length_a   10.08384615
_cell_length_b   10.08415533
_cell_length_c   10.00446412
_cell_angle_alpha   59.85108745
_cell_angle_beta   59.80087831
_cell_angle_gamma   60.49419541
_symmetry_Int_Tables_number   1
_chemical_formula_structural   La3Nd13Cd4(RuAu)2
_chemical_formula_sum   'La3 Nd13 Cd4 Ru2 Au2'
_cell_volume   720.08575584
_cell_formula_units_Z   1
loop_
 _symmetry_equiv_pos_site_id
 _symmetry_equiv_pos_as_xyz
  1  'x, y, z'
loop_
 _atom_site_type_symbol
 _atom_site_label
 _atom_site_symmetry_multiplicity
 _atom_site_fract_x
 _atom_site_fract_y
 _atom_site_fract_z
 _atom_site_occupancy
  La  La0  1  0.060496  0.457204  0.423052  1
  La  La1  1  0.457469  0.059796  0.423592  1
  La  La2  1  0.683167  0.307531  0.691898  1
  Nd  Nd3  1  0.899328  0.898168  0.913355  1
  Nd  Nd4  1  0.440233  0.440999  0.057039  1
  Nd  Nd5  1  0.056516  0.054223  0.441500  1
  Nd  Nd6  1  0.449668  0.056837  0.059008  1
  Nd  Nd7  1  0.312552  0.683815  0.315080  1
  Nd  Nd8  1  0.684559  0.686600  0.310859  1
  Nd  Nd9  1  0.684149  0.312849  0.313041  1
  Nd  Nd10  1  0.311025  0.882733  0.902793  1
  Nd  Nd11  1  0.882978  0.311244  0.902243  1
  Nd  Nd12  1  0.307093  0.685515  0.690920  1
  Nd  Nd13  1  0.899409  0.898397  0.298321  1
  Nd  Nd14  1  0.057234  0.450601  0.057603  1
  Nd  Nd15  1  0.308199  0.309641  0.692671  1
  Cd  Cd16  1  0.669916  0.669877  0.992618  1
  Cd  Cd17  1  0.989743  0.672373  0.670278  1
  Cd  Cd18  1  0.672555  0.987894  0.670276  1
  Cd  Cd19  1  0.669138  0.670238  0.669462  1
  Ru  Ru20  1  0.109776  0.672616  0.114703  1
  Ru  Ru21  1  0.672663  0.109258  0.115263  1
  Au  Au22  1  0.111590  0.110479  0.679506  1
  Au  Au23  1  0.110549  0.111116  0.094916  1
