# generated using pymatgen
data_Lu3ThMgFe
_symmetry_space_group_name_H-M   'P 1'
_cell_length_a   9.47720090
_cell_length_b   9.47720131
_cell_length_c   9.47720300
_cell_angle_alpha   60.00000458
_cell_angle_beta   60.00000315
_cell_angle_gamma   60.00000555
_symmetry_Int_Tables_number   1
_chemical_formula_structural   Lu3ThMgFe
_chemical_formula_sum   'Lu12 Th4 Mg4 Fe4'
_cell_volume   601.90149511
_cell_formula_units_Z   4
loop_
 _symmetry_equiv_pos_site_id
 _symmetry_equiv_pos_as_xyz
  1  'x, y, z'
loop_
 _atom_site_type_symbol
 _atom_site_label
 _atom_site_symmetry_multiplicity
 _atom_site_fract_x
 _atom_site_fract_y
 _atom_site_fract_z
 _atom_site_occupancy
  Lu  Lu0  1  0.813989  0.186011  0.186011  1
  Lu  Lu1  1  0.186011  0.813989  0.813989  1
  Lu  Lu2  1  0.186011  0.813989  0.186011  1
  Lu  Lu3  1  0.813989  0.186011  0.813989  1
  Lu  Lu4  1  0.186011  0.186011  0.813989  1
  Lu  Lu5  1  0.813989  0.813989  0.186011  1
  Lu  Lu6  1  0.936058  0.563942  0.563942  1
  Lu  Lu7  1  0.563942  0.936058  0.936058  1
  Lu  Lu8  1  0.563942  0.936058  0.563942  1
  Lu  Lu9  1  0.936058  0.563942  0.936058  1
  Lu  Lu10  1  0.563942  0.563942  0.936058  1
  Lu  Lu11  1  0.936058  0.936058  0.563942  1
  Th  Th12  1  0.344110  0.344110  0.344110  1
  Th  Th13  1  0.344110  0.344110  0.967672  1
  Th  Th14  1  0.344110  0.967672  0.344110  1
  Th  Th15  1  0.967672  0.344110  0.344110  1
  Mg  Mg16  1  0.580169  0.580169  0.580169  1
  Mg  Mg17  1  0.580169  0.580169  0.259494  1
  Mg  Mg18  1  0.580169  0.259494  0.580169  1
  Mg  Mg19  1  0.259494  0.580169  0.580169  1
  Fe  Fe20  1  0.143330  0.143330  0.143330  1
  Fe  Fe21  1  0.143330  0.143330  0.570008  1
  Fe  Fe22  1  0.143330  0.570008  0.143330  1
  Fe  Fe23  1  0.570008  0.143330  0.143330  1
