# generated using pymatgen
data_La4Dy6IrOs3
_symmetry_space_group_name_H-M   'P 1'
_cell_length_a   6.53227180
_cell_length_b   7.31863937
_cell_length_c   8.79562516
_cell_angle_alpha   96.66658742
_cell_angle_beta   112.06441081
_cell_angle_gamma   89.82314101
_symmetry_Int_Tables_number   1
_chemical_formula_structural   La4Dy6IrOs3
_chemical_formula_sum   'La4 Dy6 Ir1 Os3'
_cell_volume   386.68907577
_cell_formula_units_Z   1
loop_
 _symmetry_equiv_pos_site_id
 _symmetry_equiv_pos_as_xyz
  1  'x, y, z'
loop_
 _atom_site_type_symbol
 _atom_site_label
 _atom_site_symmetry_multiplicity
 _atom_site_fract_x
 _atom_site_fract_y
 _atom_site_fract_z
 _atom_site_occupancy
  La  La0  1  0.784182  0.087581  0.807635  1
  La  La1  1  0.981066  0.413919  0.191743  1
  La  La2  1  0.213902  0.914114  0.194649  1
  La  La3  1  0.017602  0.582844  0.809164  1
  Dy  Dy4  1  0.205279  0.184166  0.565632  1
  Dy  Dy5  1  0.638484  0.315427  0.432908  1
  Dy  Dy6  1  0.790948  0.815492  0.430829  1
  Dy  Dy7  1  0.362609  0.683536  0.566172  1
  Dy  Dy8  1  0.431101  0.250919  0.002515  1
  Dy  Dy9  1  0.571063  0.750613  0.000184  1
  Ir  Ir10  1  0.181741  0.923156  0.772102  1
  Os  Os11  1  0.595201  0.423336  0.777226  1
  Os  Os12  1  0.823220  0.077023  0.226840  1
  Os  Os13  1  0.403602  0.577874  0.222401  1
