# generated using pymatgen
data_Ba6Gd2(OsO6)3
_symmetry_space_group_name_H-M   'P 1'
_cell_length_a   10.39612403
_cell_length_b   10.39612336
_cell_length_c   10.39612458
_cell_angle_alpha   146.52130419
_cell_angle_beta   131.84596740
_cell_angle_gamma   59.91915906
_symmetry_Int_Tables_number   1
_chemical_formula_structural   Ba6Gd2(OsO6)3
_chemical_formula_sum   'Ba6 Gd2 Os3 O18'
_cell_volume   457.53446896
_cell_formula_units_Z   1
loop_
 _symmetry_equiv_pos_site_id
 _symmetry_equiv_pos_as_xyz
  1  'x, y, z'
loop_
 _atom_site_type_symbol
 _atom_site_label
 _atom_site_symmetry_multiplicity
 _atom_site_fract_x
 _atom_site_fract_y
 _atom_site_fract_z
 _atom_site_occupancy
  Ba  Ba0  1  0.774716  0.500000  0.274716  1
  Ba  Ba1  1  0.392021  0.156121  0.235900  1
  Ba  Ba2  1  0.079779  0.843879  0.235900  1
  Ba  Ba3  1  0.225284  0.500000  0.725284  1
  Ba  Ba4  1  0.920221  0.156121  0.764100  1
  Ba  Ba5  1  0.607979  0.843879  0.764100  1
  Gd  Gd6  1  0.666121  0.666121  0.000000  1
  Gd  Gd7  1  0.333879  0.333879  0.000000  1
  Os  Os8  1  0.500000  0.000000  0.500000  1
  Os  Os9  1  0.168231  0.668231  0.500000  1
  Os  Os10  1  0.831769  0.331769  0.500000  1
  O  O11  1  0.721273  0.000000  0.721273  1
  O  O12  1  0.401048  0.667900  0.733149  1
  O  O13  1  0.065250  0.332100  0.733149  1
  O  O14  1  0.577549  0.845765  0.268214  1
  O  O15  1  0.245227  0.513175  0.267949  1
  O  O16  1  0.906181  0.180672  0.274490  1
  O  O17  1  0.422451  0.690666  0.268214  1
  O  O18  1  0.093819  0.368310  0.274490  1
  O  O19  1  0.754773  0.022722  0.267949  1
  O  O20  1  0.278727  0.000000  0.278727  1
  O  O21  1  0.934750  0.667900  0.266851  1
  O  O22  1  0.598952  0.332100  0.266851  1
  O  O23  1  0.422451  0.154235  0.731786  1
  O  O24  1  0.093819  0.819328  0.725510  1
  O  O25  1  0.754773  0.486825  0.732051  1
  O  O26  1  0.577549  0.309334  0.731786  1
  O  O27  1  0.245227  0.977278  0.732051  1
  O  O28  1  0.906181  0.631691  0.725510  1
