# generated using pymatgen
data_Nd4Cd2PdPtAu2
_symmetry_space_group_name_H-M   'P 1'
_cell_length_a   8.00979364
_cell_length_b   8.00979340
_cell_length_c   3.89882300
_cell_angle_alpha   90.00000000
_cell_angle_beta   90.00000000
_cell_angle_gamma   89.37729643
_symmetry_Int_Tables_number   1
_chemical_formula_structural   Nd4Cd2PdPtAu2
_chemical_formula_sum   'Nd4 Cd2 Pd1 Pt1 Au2'
_cell_volume   250.12120450
_cell_formula_units_Z   1
loop_
 _symmetry_equiv_pos_site_id
 _symmetry_equiv_pos_as_xyz
  1  'x, y, z'
loop_
 _atom_site_type_symbol
 _atom_site_label
 _atom_site_symmetry_multiplicity
 _atom_site_fract_x
 _atom_site_fract_y
 _atom_site_fract_z
 _atom_site_occupancy
  Nd  Nd0  1  0.666747  0.163525  0.500000  1
  Nd  Nd1  1  0.336475  0.833253  0.500000  1
  Nd  Nd2  1  0.178610  0.321390  0.500000  1
  Nd  Nd3  1  0.818971  0.681029  0.500000  1
  Cd  Cd4  1  0.000582  0.000086  0.000000  1
  Cd  Cd5  1  0.499914  0.499418  0.000000  1
  Pd  Pd6  1  0.372167  0.127833  0.000000  1
  Pt  Pt7  1  0.625601  0.874399  0.000000  1
  Au  Au8  1  0.128659  0.627726  0.000000  1
  Au  Au9  1  0.872274  0.371341  0.000000  1
