# generated using pymatgen
data_Tb3Yb3Ti2(MnC6)2
_symmetry_space_group_name_H-M   'P 1'
_cell_length_a   8.21791642
_cell_length_b   8.21327380
_cell_length_c   5.08464400
_cell_angle_alpha   90.00000000
_cell_angle_beta   90.00000000
_cell_angle_gamma   120.05523649
_symmetry_Int_Tables_number   1
_chemical_formula_structural   Tb3Yb3Ti2(MnC6)2
_chemical_formula_sum   'Tb3 Yb3 Ti2 Mn2 C12'
_cell_volume   297.04839244
_cell_formula_units_Z   1
loop_
 _symmetry_equiv_pos_site_id
 _symmetry_equiv_pos_as_xyz
  1  'x, y, z'
loop_
 _atom_site_type_symbol
 _atom_site_label
 _atom_site_symmetry_multiplicity
 _atom_site_fract_x
 _atom_site_fract_y
 _atom_site_fract_z
 _atom_site_occupancy
  Tb  Tb0  1  0.319740  0.933967  0.750000  1
  Tb  Tb1  1  0.065252  0.386610  0.750000  1
  Tb  Tb2  1  0.388547  0.322163  0.250000  1
  Yb  Yb3  1  0.612174  0.682238  0.750000  1
  Yb  Yb4  1  0.928671  0.610612  0.250000  1
  Yb  Yb5  1  0.680034  0.070483  0.250000  1
  Ti  Ti6  1  0.999756  0.998592  0.499998  1
  Ti  Ti7  1  0.999756  0.998592  0.000002  1
  Mn  Mn8  1  0.665347  0.331368  0.750000  1
  Mn  Mn9  1  0.330937  0.664929  0.250000  1
  C  C10  1  0.958867  0.759651  0.750000  1
  C  C11  1  0.202111  0.962782  0.250000  1
  C  C12  1  0.759759  0.803223  0.250000  1
  C  C13  1  0.237384  0.198518  0.750000  1
  C  C14  1  0.807699  0.044068  0.750000  1
  C  C15  1  0.041600  0.235363  0.250000  1
  C  C16  1  0.857498  0.569566  0.750000  1
  C  C17  1  0.286866  0.856542  0.250000  1
  C  C18  1  0.571571  0.715291  0.250000  1
  C  C19  1  0.429824  0.287995  0.750000  1
  C  C20  1  0.141982  0.426456  0.250000  1
  C  C21  1  0.714626  0.140991  0.750000  1
