# generated using pymatgen
data_Sr5Sm(Sn4Sb)2
_symmetry_space_group_name_H-M   'P 1'
_cell_length_a   8.94413372
_cell_length_b   8.94413270
_cell_length_c   8.94754098
_cell_angle_alpha   120.15490443
_cell_angle_beta   120.15489893
_cell_angle_gamma   89.73685199
_symmetry_Int_Tables_number   1
_chemical_formula_structural   Sr5Sm(Sn4Sb)2
_chemical_formula_sum   'Sr5 Sm1 Sn8 Sb2'
_cell_volume   504.92096101
_cell_formula_units_Z   1
loop_
 _symmetry_equiv_pos_site_id
 _symmetry_equiv_pos_as_xyz
  1  'x, y, z'
loop_
 _atom_site_type_symbol
 _atom_site_label
 _atom_site_symmetry_multiplicity
 _atom_site_fract_x
 _atom_site_fract_y
 _atom_site_fract_z
 _atom_site_occupancy
  Sr  Sr0  1  0.750007  0.749993  0.000000  1
  Sr  Sr1  1  0.162955  0.662985  0.825940  1
  Sr  Sr2  1  0.837015  0.337045  0.174060  1
  Sr  Sr3  1  0.663014  0.836986  0.500000  1
  Sr  Sr4  1  0.336982  0.163018  0.500000  1
  Sm  Sm5  1  0.249983  0.250017  0.000000  1
  Sn  Sn6  1  0.832913  0.328876  0.787252  1
  Sn  Sn7  1  0.171124  0.667087  0.212748  1
  Sn  Sn8  1  0.541596  0.045609  0.212719  1
  Sn  Sn9  1  0.328997  0.541497  0.495956  1
  Sn  Sn10  1  0.958503  0.171003  0.504044  1
  Sn  Sn11  1  0.454391  0.958404  0.787281  1
  Sn  Sn12  1  0.666990  0.454486  0.495994  1
  Sn  Sn13  1  0.045514  0.833010  0.504006  1
  Sb  Sb14  1  0.006668  0.006654  0.000013  1
  Sb  Sb15  1  0.493346  0.493332  0.999987  1
