# generated using pymatgen
data_Lu5(AlTe)2
_symmetry_space_group_name_H-M   'P 1'
_cell_length_a   8.54587819
_cell_length_b   8.54587854
_cell_length_c   7.80703500
_cell_angle_alpha   90.00000000
_cell_angle_beta   90.00000000
_cell_angle_gamma   125.73629437
_symmetry_Int_Tables_number   1
_chemical_formula_structural   Lu5(AlTe)2
_chemical_formula_sum   'Lu10 Al4 Te4'
_cell_volume   462.80967115
_cell_formula_units_Z   2
loop_
 _symmetry_equiv_pos_site_id
 _symmetry_equiv_pos_as_xyz
  1  'x, y, z'
loop_
 _atom_site_type_symbol
 _atom_site_label
 _atom_site_symmetry_multiplicity
 _atom_site_fract_x
 _atom_site_fract_y
 _atom_site_fract_z
 _atom_site_occupancy
  Lu  Lu0  1  0.000000  0.000000  0.000000  1
  Lu  Lu1  1  0.500000  0.500000  0.500000  1
  Lu  Lu2  1  0.792256  0.539257  0.166348  1
  Lu  Lu3  1  0.460743  0.207744  0.833652  1
  Lu  Lu4  1  0.960743  0.707744  0.666348  1
  Lu  Lu5  1  0.292256  0.039257  0.333652  1
  Lu  Lu6  1  0.207744  0.460743  0.833652  1
  Lu  Lu7  1  0.539257  0.792256  0.166348  1
  Lu  Lu8  1  0.039257  0.292256  0.333652  1
  Lu  Lu9  1  0.707744  0.960743  0.666348  1
  Al  Al10  1  0.871598  0.871598  0.373079  1
  Al  Al11  1  0.128402  0.128402  0.626921  1
  Al  Al12  1  0.628402  0.628402  0.873079  1
  Al  Al13  1  0.371598  0.371598  0.126921  1
  Te  Te14  1  0.206426  0.793574  0.000000  1
  Te  Te15  1  0.706426  0.293574  0.500000  1
  Te  Te16  1  0.793574  0.206426  0.000000  1
  Te  Te17  1  0.293574  0.706426  0.500000  1
