# generated using pymatgen
data_Dy6NiCl10
_symmetry_space_group_name_H-M   'P 1'
_cell_length_a   7.05721103
_cell_length_b   8.82092409
_cell_length_c   8.79478545
_cell_angle_alpha   109.82917482
_cell_angle_beta   106.73378059
_cell_angle_gamma   97.10523725
_symmetry_Int_Tables_number   1
_chemical_formula_structural   Dy6NiCl10
_chemical_formula_sum   'Dy6 Ni1 Cl10'
_cell_volume   478.09270438
_cell_formula_units_Z   1
loop_
 _symmetry_equiv_pos_site_id
 _symmetry_equiv_pos_as_xyz
  1  'x, y, z'
loop_
 _atom_site_type_symbol
 _atom_site_label
 _atom_site_symmetry_multiplicity
 _atom_site_fract_x
 _atom_site_fract_y
 _atom_site_fract_z
 _atom_site_occupancy
  Dy  Dy0  1  0.866541  0.244616  0.949362  1
  Dy  Dy1  1  0.133459  0.755384  0.050638  1
  Dy  Dy2  1  0.022449  0.894395  0.692251  1
  Dy  Dy3  1  0.977551  0.105605  0.307749  1
  Dy  Dy4  1  0.367085  0.192912  0.144682  1
  Dy  Dy5  1  0.632915  0.807088  0.855318  1
  Ni  Ni6  1  0.000000  0.000000  0.000000  1
  Cl  Cl7  1  0.907987  0.161140  0.628821  1
  Cl  Cl8  1  0.092013  0.838860  0.371179  1
  Cl  Cl9  1  0.448423  0.074981  0.827540  1
  Cl  Cl10  1  0.551577  0.925019  0.172460  1
  Cl  Cl11  1  0.203549  0.646743  0.741010  1
  Cl  Cl12  1  0.796451  0.353257  0.258990  1
  Cl  Cl13  1  0.246914  0.457582  0.080656  1
  Cl  Cl14  1  0.753086  0.542418  0.919344  1
  Cl  Cl15  1  0.635580  0.717695  0.535478  1
  Cl  Cl16  1  0.364420  0.282305  0.464522  1
