# generated using pymatgen
data_Dy2Tm2LuPb4
_symmetry_space_group_name_H-M   'P 1'
_cell_length_a   8.13136800
_cell_length_b   8.20590800
_cell_length_c   15.49153800
_cell_angle_alpha   90.00000000
_cell_angle_beta   90.00000000
_cell_angle_gamma   90.00000000
_symmetry_Int_Tables_number   1
_chemical_formula_structural   Dy2Tm2LuPb4
_chemical_formula_sum   'Dy8 Tm8 Lu4 Pb16'
_cell_volume   1033.67686556
_cell_formula_units_Z   4
loop_
 _symmetry_equiv_pos_site_id
 _symmetry_equiv_pos_as_xyz
  1  'x, y, z'
loop_
 _atom_site_type_symbol
 _atom_site_label
 _atom_site_symmetry_multiplicity
 _atom_site_fract_x
 _atom_site_fract_y
 _atom_site_fract_z
 _atom_site_occupancy
  Dy  Dy0  1  0.536405  0.323412  0.900206  1
  Dy  Dy1  1  0.036405  0.176588  0.599794  1
  Dy  Dy2  1  0.463595  0.676588  0.400206  1
  Dy  Dy3  1  0.963595  0.823412  0.099794  1
  Dy  Dy4  1  0.463595  0.676588  0.099794  1
  Dy  Dy5  1  0.963595  0.823412  0.400206  1
  Dy  Dy6  1  0.536405  0.323412  0.599794  1
  Dy  Dy7  1  0.036405  0.176588  0.900206  1
  Tm  Tm8  1  0.376560  0.841488  0.878902  1
  Tm  Tm9  1  0.876560  0.658512  0.621098  1
  Tm  Tm10  1  0.623440  0.158512  0.378902  1
  Tm  Tm11  1  0.123440  0.341488  0.121098  1
  Tm  Tm12  1  0.623440  0.158512  0.121098  1
  Tm  Tm13  1  0.123440  0.341488  0.378902  1
  Tm  Tm14  1  0.376560  0.841488  0.621098  1
  Tm  Tm15  1  0.876560  0.658512  0.878902  1
  Lu  Lu16  1  0.208177  0.504917  0.750000  1
  Lu  Lu17  1  0.708177  0.995083  0.750000  1
  Lu  Lu18  1  0.791823  0.495083  0.250000  1
  Lu  Lu19  1  0.291823  0.004917  0.250000  1
  Pb  Pb20  1  0.282025  0.033568  0.043420  1
  Pb  Pb21  1  0.782025  0.466432  0.456580  1
  Pb  Pb22  1  0.717975  0.966432  0.543420  1
  Pb  Pb23  1  0.217975  0.533568  0.956580  1
  Pb  Pb24  1  0.717975  0.966432  0.956580  1
  Pb  Pb25  1  0.217975  0.533568  0.543420  1
  Pb  Pb26  1  0.282025  0.033568  0.456580  1
  Pb  Pb27  1  0.782025  0.466432  0.043420  1
  Pb  Pb28  1  0.570862  0.627582  0.750000  1
  Pb  Pb29  1  0.070862  0.872418  0.750000  1
  Pb  Pb30  1  0.429138  0.372418  0.250000  1
  Pb  Pb31  1  0.929138  0.127582  0.250000  1
  Pb  Pb32  1  0.348390  0.154476  0.750000  1
  Pb  Pb33  1  0.848390  0.345524  0.750000  1
  Pb  Pb34  1  0.651610  0.845524  0.250000  1
  Pb  Pb35  1  0.151610  0.654476  0.250000  1
