# generated using pymatgen
data_Dy6Co16NiP12Os
_symmetry_space_group_name_H-M   'P 1'
_cell_length_a   3.71270000
_cell_length_b   10.49292300
_cell_length_c   12.23048700
_cell_angle_alpha   90.00000000
_cell_angle_beta   90.00000000
_cell_angle_gamma   90.00000000
_symmetry_Int_Tables_number   1
_chemical_formula_structural   Dy6Co16NiP12Os
_chemical_formula_sum   'Dy6 Co16 Ni1 P12 Os1'
_cell_volume   476.46400206
_cell_formula_units_Z   1
loop_
 _symmetry_equiv_pos_site_id
 _symmetry_equiv_pos_as_xyz
  1  'x, y, z'
loop_
 _atom_site_type_symbol
 _atom_site_label
 _atom_site_symmetry_multiplicity
 _atom_site_fract_x
 _atom_site_fract_y
 _atom_site_fract_z
 _atom_site_occupancy
  Dy  Dy0  1  0.000000  0.500000  0.523652  1
  Dy  Dy1  1  0.500000  0.000000  0.478611  1
  Dy  Dy2  1  0.500000  0.817255  0.207282  1
  Dy  Dy3  1  0.500000  0.182745  0.207282  1
  Dy  Dy4  1  0.000000  0.684874  0.794452  1
  Dy  Dy5  1  0.000000  0.315126  0.794452  1
  Co  Co6  1  0.000000  0.000000  0.839713  1
  Co  Co7  1  0.000000  0.000000  0.295482  1
  Co  Co8  1  0.000000  0.500000  0.988204  1
  Co  Co9  1  0.500000  0.000000  0.015177  1
  Co  Co10  1  0.500000  0.332563  0.990998  1
  Co  Co11  1  0.500000  0.667437  0.990998  1
  Co  Co12  1  0.000000  0.166500  0.005829  1
  Co  Co13  1  0.000000  0.833500  0.005829  1
  Co  Co14  1  0.500000  0.298221  0.429960  1
  Co  Co15  1  0.500000  0.701779  0.429960  1
  Co  Co16  1  0.000000  0.201932  0.568526  1
  Co  Co17  1  0.000000  0.798068  0.568526  1
  Co  Co18  1  0.500000  0.879158  0.709742  1
  Co  Co19  1  0.500000  0.120842  0.709742  1
  Co  Co20  1  0.000000  0.620228  0.290624  1
  Co  Co21  1  0.000000  0.379772  0.290624  1
  Ni  Ni22  1  0.500000  0.500000  0.703362  1
  P  P23  1  0.500000  0.500000  0.882050  1
  P  P24  1  0.000000  0.000000  0.117442  1
  P  P25  1  0.500000  0.500000  0.350190  1
  P  P26  1  0.000000  0.000000  0.655752  1
  P  P27  1  0.500000  0.309843  0.615546  1
  P  P28  1  0.500000  0.690157  0.615546  1
  P  P29  1  0.000000  0.188173  0.384237  1
  P  P30  1  0.000000  0.811827  0.384237  1
  P  P31  1  0.500000  0.849923  0.892513  1
  P  P32  1  0.500000  0.150077  0.892513  1
  P  P33  1  0.000000  0.655691  0.105980  1
  P  P34  1  0.000000  0.344309  0.105980  1
  Os  Os35  1  0.500000  0.500000  0.158987  1
