# generated using pymatgen
data_Tm3PaAl17GaIr6
_symmetry_space_group_name_H-M   'P 1'
_cell_length_a   7.55315847
_cell_length_b   7.54732505
_cell_length_c   9.40943400
_cell_angle_alpha   90.00000000
_cell_angle_beta   90.00000000
_cell_angle_gamma   119.46974966
_symmetry_Int_Tables_number   1
_chemical_formula_structural   Tm3PaAl17GaIr6
_chemical_formula_sum   'Tm3 Pa1 Al17 Ga1 Ir6'
_cell_volume   466.99429522
_cell_formula_units_Z   1
loop_
 _symmetry_equiv_pos_site_id
 _symmetry_equiv_pos_as_xyz
  1  'x, y, z'
loop_
 _atom_site_type_symbol
 _atom_site_label
 _atom_site_symmetry_multiplicity
 _atom_site_fract_x
 _atom_site_fract_y
 _atom_site_fract_z
 _atom_site_occupancy
  Tm  Tm0  1  0.004419  0.327705  0.750000  1
  Tm  Tm1  1  0.676803  0.993796  0.250000  1
  Tm  Tm2  1  0.327947  0.004053  0.750000  1
  Pa  Pa3  1  0.994477  0.675105  0.250000  1
  Al  Al4  1  0.871492  0.873209  0.750000  1
  Al  Al5  1  0.000867  0.333113  0.074486  1
  Al  Al6  1  0.999001  0.663773  0.919767  1
  Al  Al7  1  0.999001  0.663773  0.580233  1
  Al  Al8  1  0.340118  0.003954  0.425590  1
  Al  Al9  1  0.000867  0.333113  0.425514  1
  Al  Al10  1  0.664453  0.000149  0.576618  1
  Al  Al11  1  0.664453  0.000149  0.923382  1
  Al  Al12  1  0.340118  0.003954  0.074410  1
  Al  Al13  1  0.331537  0.331696  0.559646  1
  Al  Al14  1  0.661883  0.665061  0.449902  1
  Al  Al15  1  0.661883  0.665061  0.050098  1
  Al  Al16  1  0.331537  0.331696  0.940354  1
  Al  Al17  1  0.339309  0.549630  0.250000  1
  Al  Al18  1  0.659440  0.448595  0.750000  1
  Al  Al19  1  0.548358  0.339997  0.250000  1
  Al  Al20  1  0.449644  0.661349  0.750000  1
  Ga  Ga21  1  0.138682  0.138283  0.250000  1
  Ir  Ir22  1  0.673070  0.328953  0.001466  1
  Ir  Ir23  1  0.325331  0.671481  0.001339  1
  Ir  Ir24  1  0.325331  0.671481  0.498661  1
  Ir  Ir25  1  0.673070  0.328953  0.498534  1
  Ir  Ir26  1  0.998455  0.995962  0.001000  1
  Ir  Ir27  1  0.998455  0.995962  0.499000  1
