# generated using pymatgen
data_Pr3Eu3Ta2(Co4P3)4
_symmetry_space_group_name_H-M   'P 1'
_cell_length_a   3.77608000
_cell_length_b   10.80931230
_cell_length_c   12.53691825
_cell_angle_alpha   90.02501541
_cell_angle_beta   90.00000000
_cell_angle_gamma   90.00000000
_symmetry_Int_Tables_number   1
_chemical_formula_structural   Pr3Eu3Ta2(Co4P3)4
_chemical_formula_sum   'Pr3 Eu3 Ta2 Co16 P12'
_cell_volume   511.71718712
_cell_formula_units_Z   1
loop_
 _symmetry_equiv_pos_site_id
 _symmetry_equiv_pos_as_xyz
  1  'x, y, z'
loop_
 _atom_site_type_symbol
 _atom_site_label
 _atom_site_symmetry_multiplicity
 _atom_site_fract_x
 _atom_site_fract_y
 _atom_site_fract_z
 _atom_site_occupancy
  Pr  Pr0  1  0.000000  0.500262  0.526461  1
  Pr  Pr1  1  0.500000  0.000436  0.472566  1
  Pr  Pr2  1  0.000000  0.321353  0.794697  1
  Eu  Eu3  1  0.500000  0.822535  0.205974  1
  Eu  Eu4  1  0.500000  0.177577  0.205163  1
  Eu  Eu5  1  0.000000  0.678294  0.794487  1
  Ta  Ta6  1  0.500000  0.499875  0.153428  1
  Ta  Ta7  1  0.000000  0.998929  0.846246  1
  Co  Co8  1  0.500000  0.501312  0.704179  1
  Co  Co9  1  0.000000  0.999597  0.296076  1
  Co  Co10  1  0.000000  0.500197  0.990363  1
  Co  Co11  1  0.500000  0.998696  0.010680  1
  Co  Co12  1  0.500000  0.332677  0.994177  1
  Co  Co13  1  0.500000  0.668081  0.995777  1
  Co  Co14  1  0.000000  0.166898  0.005806  1
  Co  Co15  1  0.000000  0.832215  0.005365  1
  Co  Co16  1  0.500000  0.295990  0.431156  1
  Co  Co17  1  0.500000  0.704283  0.432179  1
  Co  Co18  1  0.000000  0.204210  0.566986  1
  Co  Co19  1  0.000000  0.796040  0.567779  1
  Co  Co20  1  0.500000  0.881044  0.705434  1
  Co  Co21  1  0.500000  0.119567  0.706088  1
  Co  Co22  1  0.000000  0.619387  0.294173  1
  Co  Co23  1  0.000000  0.380736  0.293764  1
  P  P24  1  0.500000  0.502449  0.888290  1
  P  P25  1  0.000000  0.999422  0.113200  1
  P  P26  1  0.500000  0.500308  0.350504  1
  P  P27  1  0.000000  0.999954  0.648908  1
  P  P28  1  0.500000  0.304589  0.613026  1
  P  P29  1  0.500000  0.695945  0.615155  1
  P  P30  1  0.000000  0.195380  0.383834  1
  P  P31  1  0.000000  0.804483  0.384712  1
  P  P32  1  0.500000  0.841127  0.894454  1
  P  P33  1  0.500000  0.156026  0.896597  1
  P  P34  1  0.000000  0.658734  0.106418  1
  P  P35  1  0.000000  0.341392  0.105898  1
