# generated using pymatgen
data_LaEu2HfSb5
_symmetry_space_group_name_H-M   'P 1'
_cell_length_a   9.58276179
_cell_length_b   9.68110760
_cell_length_c   6.44561900
_cell_angle_alpha   90.00000000
_cell_angle_beta   90.00000000
_cell_angle_gamma   120.34007361
_symmetry_Int_Tables_number   1
_chemical_formula_structural   LaEu2HfSb5
_chemical_formula_sum   'La2 Eu4 Hf2 Sb10'
_cell_volume   516.07466041
_cell_formula_units_Z   2
loop_
 _symmetry_equiv_pos_site_id
 _symmetry_equiv_pos_as_xyz
  1  'x, y, z'
loop_
 _atom_site_type_symbol
 _atom_site_label
 _atom_site_symmetry_multiplicity
 _atom_site_fract_x
 _atom_site_fract_y
 _atom_site_fract_z
 _atom_site_occupancy
  La  La0  1  0.000000  0.618847  0.250000  1
  La  La1  1  0.000000  0.381153  0.750000  1
  Eu  Eu2  1  0.611328  0.997302  0.250000  1
  Eu  Eu3  1  0.611328  0.614026  0.750000  1
  Eu  Eu4  1  0.388672  0.002698  0.750000  1
  Eu  Eu5  1  0.388672  0.385974  0.250000  1
  Hf  Hf6  1  0.000000  0.000000  0.000000  1
  Hf  Hf7  1  0.000000  0.000000  0.500000  1
  Sb  Sb8  1  0.329718  0.664859  0.500000  1
  Sb  Sb9  1  0.670282  0.335141  0.000000  1
  Sb  Sb10  1  0.670282  0.335141  0.500000  1
  Sb  Sb11  1  0.329718  0.664859  0.000000  1
  Sb  Sb12  1  0.742523  0.997316  0.750000  1
  Sb  Sb13  1  0.742523  0.745207  0.250000  1
  Sb  Sb14  1  0.000000  0.258257  0.250000  1
  Sb  Sb15  1  0.000000  0.741743  0.750000  1
  Sb  Sb16  1  0.257477  0.002684  0.250000  1
  Sb  Sb17  1  0.257477  0.254793  0.750000  1
