# generated using pymatgen
data_NbTc(Se4I)2
_symmetry_space_group_name_H-M   'P 1'
_cell_length_a   6.46167612
_cell_length_b   7.70744905
_cell_length_c   8.24831400
_cell_angle_alpha   115.06862563
_cell_angle_beta   102.35528043
_cell_angle_gamma   101.18727579
_symmetry_Int_Tables_number   1
_chemical_formula_structural   NbTc(Se4I)2
_chemical_formula_sum   'Nb1 Tc1 Se8 I2'
_cell_volume   344.15103065
_cell_formula_units_Z   1
loop_
 _symmetry_equiv_pos_site_id
 _symmetry_equiv_pos_as_xyz
  1  'x, y, z'
loop_
 _atom_site_type_symbol
 _atom_site_label
 _atom_site_symmetry_multiplicity
 _atom_site_fract_x
 _atom_site_fract_y
 _atom_site_fract_z
 _atom_site_occupancy
  Nb  Nb0  1  0.225833  0.000382  0.998867  1
  Tc  Tc1  1  0.773242  0.999849  0.000029  1
  Se  Se2  1  0.111526  0.320119  0.167296  1
  Se  Se3  1  0.016868  0.878392  0.186793  1
  Se  Se4  1  0.401761  0.872113  0.715028  1
  Se  Se5  1  0.614610  0.127782  0.283599  1
  Se  Se6  1  0.872939  0.680372  0.831292  1
  Se  Se7  1  0.544240  0.222618  0.938001  1
  Se  Se8  1  0.473140  0.776604  0.058628  1
  Se  Se9  1  0.970215  0.126270  0.814512  1
  I  I10  1  0.242686  0.384280  0.575021  1
  I  I11  1  0.752939  0.611217  0.430933  1
