# generated using pymatgen
data_Eu5TlPd2
_symmetry_space_group_name_H-M   'P 1'
_cell_length_a   9.26750484
_cell_length_b   9.26750464
_cell_length_c   9.26750600
_cell_angle_alpha   128.36381554
_cell_angle_beta   128.36381455
_cell_angle_gamma   76.03639645
_symmetry_Int_Tables_number   1
_chemical_formula_structural   Eu5TlPd2
_chemical_formula_sum   'Eu10 Tl2 Pd4'
_cell_volume   475.75112125
_cell_formula_units_Z   2
loop_
 _symmetry_equiv_pos_site_id
 _symmetry_equiv_pos_as_xyz
  1  'x, y, z'
loop_
 _atom_site_type_symbol
 _atom_site_label
 _atom_site_symmetry_multiplicity
 _atom_site_fract_x
 _atom_site_fract_y
 _atom_site_fract_z
 _atom_site_occupancy
  Eu  Eu0  1  0.500000  0.500000  0.000000  1
  Eu  Eu1  1  0.000000  0.000000  0.000000  1
  Eu  Eu2  1  0.527792  0.027792  0.830918  1
  Eu  Eu3  1  0.196872  0.696872  0.169089  1
  Eu  Eu4  1  0.027789  0.196876  0.499999  1
  Eu  Eu5  1  0.696876  0.527789  0.499999  1
  Eu  Eu6  1  0.472208  0.972208  0.169082  1
  Eu  Eu7  1  0.803128  0.303128  0.830911  1
  Eu  Eu8  1  0.972211  0.803124  0.500001  1
  Eu  Eu9  1  0.303124  0.472211  0.500001  1
  Tl  Tl10  1  0.250000  0.250000  0.000000  1
  Tl  Tl11  1  0.750000  0.750000  0.000000  1
  Pd  Pd12  1  0.128584  0.628584  0.757170  1
  Pd  Pd13  1  0.871416  0.371416  0.242830  1
  Pd  Pd14  1  0.628581  0.871419  0.500000  1
  Pd  Pd15  1  0.371419  0.128581  0.500000  1
