# generated using pymatgen
data_Tb5MnCrO12
_symmetry_space_group_name_H-M   'P 1'
_cell_length_a   6.79538052
_cell_length_b   6.79538161
_cell_length_c   7.28989902
_cell_angle_alpha   74.45047560
_cell_angle_beta   74.45047229
_cell_angle_gamma   50.86303768
_symmetry_Int_Tables_number   1
_chemical_formula_structural   Tb5MnCrO12
_chemical_formula_sum   'Tb5 Mn1 Cr1 O12'
_cell_volume   249.33314624
_cell_formula_units_Z   1
loop_
 _symmetry_equiv_pos_site_id
 _symmetry_equiv_pos_as_xyz
  1  'x, y, z'
loop_
 _atom_site_type_symbol
 _atom_site_label
 _atom_site_symmetry_multiplicity
 _atom_site_fract_x
 _atom_site_fract_y
 _atom_site_fract_z
 _atom_site_occupancy
  Tb  Tb0  1  0.693380  0.690024  0.667458  1
  Tb  Tb1  1  0.700738  0.688444  0.142061  1
  Tb  Tb2  1  0.000801  0.999199  0.000000  1
  Tb  Tb3  1  0.311556  0.299262  0.857939  1
  Tb  Tb4  1  0.309976  0.306620  0.332542  1
  Mn  Mn5  1  0.746384  0.253616  0.500000  1
  Cr  Cr6  1  0.230318  0.769682  0.500000  1
  O  O7  1  0.401831  0.900580  0.925784  1
  O  O8  1  0.575331  0.098011  0.579822  1
  O  O9  1  0.901989  0.424669  0.420178  1
  O  O10  1  0.099420  0.598169  0.074216  1
  O  O11  1  0.000544  0.000522  0.324823  1
  O  O12  1  0.501165  0.499260  0.679884  1
  O  O13  1  0.906849  0.403410  0.921141  1
  O  O14  1  0.107037  0.584127  0.577738  1
  O  O15  1  0.415873  0.892963  0.422262  1
  O  O16  1  0.596590  0.093151  0.078859  1
  O  O17  1  0.500740  0.498835  0.320116  1
  O  O18  1  0.999478  0.999456  0.675177  1
