# generated using pymatgen
data_Ho4Tm4Ti11Si16Hg
_symmetry_space_group_name_H-M   'P 1'
_cell_length_a   7.05419169
_cell_length_b   7.05525246
_cell_length_c   12.87341503
_cell_angle_alpha   90.12345445
_cell_angle_beta   89.86794841
_cell_angle_gamma   89.58170767
_symmetry_Int_Tables_number   1
_chemical_formula_structural   Ho4Tm4Ti11Si16Hg
_chemical_formula_sum   'Ho4 Tm4 Ti11 Si16 Hg1'
_cell_volume   640.67803570
_cell_formula_units_Z   1
loop_
 _symmetry_equiv_pos_site_id
 _symmetry_equiv_pos_as_xyz
  1  'x, y, z'
loop_
 _atom_site_type_symbol
 _atom_site_label
 _atom_site_symmetry_multiplicity
 _atom_site_fract_x
 _atom_site_fract_y
 _atom_site_fract_z
 _atom_site_occupancy
  Ho  Ho0  1  0.157071  0.501284  0.784832  1
  Ho  Ho1  1  0.656942  0.000732  0.968640  1
  Ho  Ho2  1  0.001944  0.340732  0.532829  1
  Ho  Ho3  1  0.000577  0.656816  0.031859  1
  Tm  Tm4  1  0.341266  0.001132  0.466818  1
  Tm  Tm5  1  0.498329  0.840423  0.715862  1
  Tm  Tm6  1  0.501043  0.156658  0.215698  1
  Tm  Tm7  1  0.840217  0.498299  0.284055  1
  Ti  Ti8  1  0.174125  0.826574  0.250747  1
  Ti  Ti9  1  0.826436  0.173587  0.749178  1
  Ti  Ti10  1  0.672429  0.672923  0.499814  1
  Ti  Ti11  1  0.147137  0.008618  0.876660  1
  Ti  Ti12  1  0.496326  0.649795  0.123608  1
  Ti  Ti13  1  0.506082  0.351768  0.623618  1
  Ti  Ti14  1  0.649859  0.496209  0.876652  1
  Ti  Ti15  1  0.352394  0.506807  0.375909  1
  Ti  Ti16  1  0.849882  0.991877  0.374391  1
  Ti  Ti17  1  0.008464  0.146978  0.123624  1
  Ti  Ti18  1  0.991254  0.849940  0.625158  1
  Si  Si19  1  0.202537  0.131516  0.683411  1
  Si  Si20  1  0.373896  0.725882  0.926252  1
  Si  Si21  1  0.631988  0.293195  0.431449  1
  Si  Si22  1  0.724936  0.373154  0.074377  1
  Si  Si23  1  0.294195  0.633276  0.567784  1
  Si  Si24  1  0.797861  0.866753  0.183205  1
  Si  Si25  1  0.133084  0.201598  0.316556  1
  Si  Si26  1  0.866091  0.798611  0.816749  1
  Si  Si27  1  0.286748  0.933583  0.067698  1
  Si  Si28  1  0.546422  0.791668  0.314693  1
  Si  Si29  1  0.458820  0.205059  0.804942  1
  Si  Si30  1  0.790281  0.546770  0.685345  1
  Si  Si31  1  0.205563  0.458113  0.195014  1
  Si  Si32  1  0.707586  0.047061  0.563710  1
  Si  Si33  1  0.932811  0.286301  0.932743  1
  Si  Si34  1  0.047635  0.708962  0.435819  1
  Hg  Hg35  1  0.327766  0.327344  0.000302  1
