# generated using pymatgen
data_HfMg2NbPt12
_symmetry_space_group_name_H-M   'P 1'
_cell_length_a   5.62075400
_cell_length_b   5.62075463
_cell_length_c   7.92388900
_cell_angle_alpha   90.00000000
_cell_angle_beta   90.00000000
_cell_angle_gamma   90.08800147
_symmetry_Int_Tables_number   1
_chemical_formula_structural   HfMg2NbPt12
_chemical_formula_sum   'Hf1 Mg2 Nb1 Pt12'
_cell_volume   250.33817165
_cell_formula_units_Z   1
loop_
 _symmetry_equiv_pos_site_id
 _symmetry_equiv_pos_as_xyz
  1  'x, y, z'
loop_
 _atom_site_type_symbol
 _atom_site_label
 _atom_site_symmetry_multiplicity
 _atom_site_fract_x
 _atom_site_fract_y
 _atom_site_fract_z
 _atom_site_occupancy
  Hf  Hf0  1  0.000000  0.500000  0.250080  1
  Mg  Mg1  1  0.500000  0.000000  0.248963  1
  Mg  Mg2  1  0.500000  0.000000  0.751395  1
  Nb  Nb3  1  0.000000  0.500000  0.749582  1
  Pt  Pt4  1  0.248304  0.251696  0.997696  1
  Pt  Pt5  1  0.751971  0.251971  0.502289  1
  Pt  Pt6  1  0.752456  0.252456  0.997661  1
  Pt  Pt7  1  0.751696  0.748304  0.997696  1
  Pt  Pt8  1  0.500000  0.500000  0.749964  1
  Pt  Pt9  1  0.248476  0.251524  0.502384  1
  Pt  Pt10  1  0.751524  0.748476  0.502384  1
  Pt  Pt11  1  0.248029  0.748029  0.502289  1
  Pt  Pt12  1  0.500000  0.500000  0.249999  1
  Pt  Pt13  1  0.000000  0.000000  0.749964  1
  Pt  Pt14  1  0.000000  0.000000  0.249999  1
  Pt  Pt15  1  0.247544  0.747544  0.997661  1
