# generated using pymatgen
data_SmEu3H10
_symmetry_space_group_name_H-M   'P 1'
_cell_length_a   6.63280637
_cell_length_b   6.63280672
_cell_length_c   6.63280504
_cell_angle_alpha   131.03282670
_cell_angle_beta   131.20116336
_cell_angle_gamma   71.62735247
_symmetry_Int_Tables_number   1
_chemical_formula_structural   SmEu3H10
_chemical_formula_sum   'Sm1 Eu3 H10'
_cell_volume   162.04518140
_cell_formula_units_Z   1
loop_
 _symmetry_equiv_pos_site_id
 _symmetry_equiv_pos_as_xyz
  1  'x, y, z'
loop_
 _atom_site_type_symbol
 _atom_site_label
 _atom_site_symmetry_multiplicity
 _atom_site_fract_x
 _atom_site_fract_y
 _atom_site_fract_z
 _atom_site_occupancy
  Sm  Sm0  1  0.516290  0.016290  0.500000  1
  Eu  Eu1  1  0.764824  0.764824  0.000000  1
  Eu  Eu2  1  0.985889  0.485889  0.500000  1
  Eu  Eu3  1  0.236858  0.236858  0.000000  1
  H  H4  1  0.378049  0.398980  0.531684  1
  H  H5  1  0.867296  0.846365  0.468316  1
  H  H6  1  0.593975  0.122553  0.961999  1
  H  H7  1  0.160554  0.631977  0.038001  1
  H  H8  1  0.378049  0.846365  0.979069  1
  H  H9  1  0.867296  0.398980  0.020931  1
  H  H10  1  0.593975  0.631977  0.471423  1
  H  H11  1  0.160554  0.122553  0.528577  1
  H  H12  1  0.745346  0.245346  0.500000  1
  H  H13  1  0.001043  0.001043  0.000000  1
