# generated using pymatgen
data_Ac2Pr2Al5Ir9
_symmetry_space_group_name_H-M   'P 1'
_cell_length_a   12.35311904
_cell_length_b   12.35311952
_cell_length_c   12.35312000
_cell_angle_alpha   26.77750701
_cell_angle_beta   26.77751290
_cell_angle_gamma   26.77750593
_symmetry_Int_Tables_number   1
_chemical_formula_structural   Ac2Pr2Al5Ir9
_chemical_formula_sum   'Ac2 Pr2 Al5 Ir9'
_cell_volume   337.38766644
_cell_formula_units_Z   1
loop_
 _symmetry_equiv_pos_site_id
 _symmetry_equiv_pos_as_xyz
  1  'x, y, z'
loop_
 _atom_site_type_symbol
 _atom_site_label
 _atom_site_symmetry_multiplicity
 _atom_site_fract_x
 _atom_site_fract_y
 _atom_site_fract_z
 _atom_site_occupancy
  Ac  Ac0  1  0.948903  0.948903  0.948903  1
  Ac  Ac1  1  0.051097  0.051097  0.051097  1
  Pr  Pr2  1  0.852202  0.852202  0.852202  1
  Pr  Pr3  1  0.147798  0.147798  0.147798  1
  Al  Al4  1  0.500000  0.500000  0.500000  1
  Al  Al5  1  0.721531  0.721531  0.721531  1
  Al  Al6  1  0.278469  0.278469  0.278469  1
  Al  Al7  1  0.610936  0.610936  0.610936  1
  Al  Al8  1  0.389064  0.389064  0.389064  1
  Ir  Ir9  1  0.500000  0.500000  0.000000  1
  Ir  Ir10  1  0.000000  0.500000  0.500000  1
  Ir  Ir11  1  0.500000  0.000000  0.500000  1
  Ir  Ir12  1  0.387798  0.894972  0.387798  1
  Ir  Ir13  1  0.387798  0.387798  0.894972  1
  Ir  Ir14  1  0.894972  0.387798  0.387798  1
  Ir  Ir15  1  0.612202  0.105028  0.612202  1
  Ir  Ir16  1  0.612202  0.612202  0.105028  1
  Ir  Ir17  1  0.105028  0.612202  0.612202  1
