# generated using pymatgen
data_Y3LuCu3Sb8
_symmetry_space_group_name_H-M   'P 1'
_cell_length_a   10.58870804
_cell_length_b   10.58870823
_cell_length_c   10.59262121
_cell_angle_alpha   146.47907897
_cell_angle_beta   146.47908131
_cell_angle_gamma   48.13817351
_symmetry_Int_Tables_number   1
_chemical_formula_structural   Y3LuCu3Sb8
_chemical_formula_sum   'Y3 Lu1 Cu3 Sb8'
_cell_volume   360.70272192
_cell_formula_units_Z   1
loop_
 _symmetry_equiv_pos_site_id
 _symmetry_equiv_pos_as_xyz
  1  'x, y, z'
loop_
 _atom_site_type_symbol
 _atom_site_label
 _atom_site_symmetry_multiplicity
 _atom_site_fract_x
 _atom_site_fract_y
 _atom_site_fract_z
 _atom_site_occupancy
  Y  Y0  1  0.124207  0.124207  0.491474  1
  Y  Y1  1  0.367572  0.875578  0.000030  1
  Y  Y2  1  0.875578  0.367572  0.000030  1
  Lu  Lu3  1  0.634480  0.634480  0.510146  1
  Cu  Cu4  1  0.997575  0.997575  0.996904  1
  Cu  Cu5  1  0.998842  0.500599  0.500814  1
  Cu  Cu6  1  0.500599  0.998842  0.500814  1
  Sb  Sb7  1  0.332506  0.332506  0.514209  1
  Sb  Sb8  1  0.818029  0.818029  0.484267  1
  Sb  Sb9  1  0.665458  0.181860  0.000922  1
  Sb  Sb10  1  0.181860  0.665458  0.000922  1
  Sb  Sb11  1  0.251920  0.251920  0.001535  1
  Sb  Sb12  1  0.749584  0.749584  0.998138  1
  Sb  Sb13  1  0.749951  0.251841  0.499897  1
  Sb  Sb14  1  0.251841  0.749951  0.499897  1
