# generated using pymatgen
data_LaHo2BiO7
_symmetry_space_group_name_H-M   'P 1'
_cell_length_a   6.63455652
_cell_length_b   6.63455844
_cell_length_c   7.80243500
_cell_angle_alpha   90.00000000
_cell_angle_beta   90.00000000
_cell_angle_gamma   109.02379061
_symmetry_Int_Tables_number   1
_chemical_formula_structural   LaHo2BiO7
_chemical_formula_sum   'La2 Ho4 Bi2 O14'
_cell_volume   324.68484078
_cell_formula_units_Z   2
loop_
 _symmetry_equiv_pos_site_id
 _symmetry_equiv_pos_as_xyz
  1  'x, y, z'
loop_
 _atom_site_type_symbol
 _atom_site_label
 _atom_site_symmetry_multiplicity
 _atom_site_fract_x
 _atom_site_fract_y
 _atom_site_fract_z
 _atom_site_occupancy
  La  La0  1  0.500000  0.500000  0.500000  1
  La  La1  1  0.500000  0.500000  0.000000  1
  Ho  Ho2  1  0.530990  0.002815  0.750000  1
  Ho  Ho3  1  0.002815  0.530990  0.250000  1
  Ho  Ho4  1  0.469010  0.997185  0.250000  1
  Ho  Ho5  1  0.997185  0.469010  0.750000  1
  Bi  Bi6  1  0.000000  0.000000  0.500000  1
  Bi  Bi7  1  0.000000  0.000000  0.000000  1
  O  O8  1  0.665694  0.926640  0.469886  1
  O  O9  1  0.926640  0.665694  0.530114  1
  O  O10  1  0.665694  0.926640  0.030114  1
  O  O11  1  0.926640  0.665694  0.969886  1
  O  O12  1  0.334306  0.073360  0.530114  1
  O  O13  1  0.073360  0.334306  0.469886  1
  O  O14  1  0.334306  0.073360  0.969886  1
  O  O15  1  0.073360  0.334306  0.030114  1
  O  O16  1  0.916088  0.083912  0.750000  1
  O  O17  1  0.083912  0.916088  0.250000  1
  O  O18  1  0.361321  0.638679  0.750000  1
  O  O19  1  0.638679  0.361321  0.250000  1
  O  O20  1  0.644166  0.355834  0.750000  1
  O  O21  1  0.355834  0.644166  0.250000  1
