# generated using pymatgen
data_HfSc3Si6Ir6Pt
_symmetry_space_group_name_H-M   'P 1'
_cell_length_a   7.00120041
_cell_length_b   6.98740276
_cell_length_c   7.00398131
_cell_angle_alpha   109.46824507
_cell_angle_beta   109.54793296
_cell_angle_gamma   109.34138341
_symmetry_Int_Tables_number   1
_chemical_formula_structural   HfSc3Si6Ir6Pt
_chemical_formula_sum   'Hf1 Sc3 Si6 Ir6 Pt1'
_cell_volume   263.94328642
_cell_formula_units_Z   1
loop_
 _symmetry_equiv_pos_site_id
 _symmetry_equiv_pos_as_xyz
  1  'x, y, z'
loop_
 _atom_site_type_symbol
 _atom_site_label
 _atom_site_symmetry_multiplicity
 _atom_site_fract_x
 _atom_site_fract_y
 _atom_site_fract_z
 _atom_site_occupancy
  Hf  Hf0  1  0.002343  0.502343  0.004685  1
  Sc  Sc1  1  0.001826  0.998423  0.500170  1
  Sc  Sc2  1  0.498370  0.998370  0.996740  1
  Sc  Sc3  1  0.498344  0.501748  0.500170  1
  Si  Si4  1  0.680127  0.683382  0.999791  1
  Si  Si5  1  0.315766  0.000510  0.318538  1
  Si  Si6  1  0.002772  0.318027  0.318538  1
  Si  Si7  1  0.319664  0.316408  0.999791  1
  Si  Si8  1  0.678844  0.994279  0.681499  1
  Si  Si9  1  0.002655  0.687220  0.681499  1
  Ir  Ir10  1  0.751275  0.500348  0.249682  1
  Ir  Ir11  1  0.501608  0.250281  0.750249  1
  Ir  Ir12  1  0.248642  0.499968  0.750249  1
  Ir  Ir13  1  0.249191  0.749191  0.498381  1
  Ir  Ir14  1  0.498405  0.749334  0.249682  1
  Ir  Ir15  1  0.000052  0.000052  0.000103  1
  Pt  Pt16  1  0.750116  0.250116  0.500233  1
