# generated using pymatgen
data_La5Nd9Ho2Cd4OsPt3
_symmetry_space_group_name_H-M   'P 1'
_cell_length_a   10.05069194
_cell_length_b   10.02555094
_cell_length_c   10.06226128
_cell_angle_alpha   59.23618180
_cell_angle_beta   59.90321171
_cell_angle_gamma   59.88433162
_symmetry_Int_Tables_number   1
_chemical_formula_structural   La5Nd9Ho2Cd4OsPt3
_chemical_formula_sum   'La5 Nd9 Ho2 Cd4 Os1 Pt3'
_cell_volume   711.57994225
_cell_formula_units_Z   1
loop_
 _symmetry_equiv_pos_site_id
 _symmetry_equiv_pos_as_xyz
  1  'x, y, z'
loop_
 _atom_site_type_symbol
 _atom_site_label
 _atom_site_symmetry_multiplicity
 _atom_site_fract_x
 _atom_site_fract_y
 _atom_site_fract_z
 _atom_site_occupancy
  La  La0  1  0.348018  0.356071  0.351548  1
  La  La1  1  0.346249  0.348938  0.952095  1
  La  La2  1  0.345539  0.951580  0.346653  1
  La  La3  1  0.950371  0.350680  0.349563  1
  La  La4  1  0.821693  0.184097  0.187503  1
  Nd  Nd5  1  0.810483  0.184613  0.807678  1
  Nd  Nd6  1  0.191462  0.181122  0.817489  1
  Nd  Nd7  1  0.811231  0.808996  0.186260  1
  Nd  Nd8  1  0.938319  0.566835  0.564896  1
  Nd  Nd9  1  0.556398  0.935183  0.938278  1
  Nd  Nd10  1  0.560762  0.936439  0.565327  1
  Nd  Nd11  1  0.939782  0.560014  0.934517  1
  Nd  Nd12  1  0.559768  0.568217  0.937059  1
  Nd  Nd13  1  0.942406  0.932957  0.557019  1
  Ho  Ho14  1  0.187566  0.810944  0.811334  1
  Ho  Ho15  1  0.190612  0.815108  0.184907  1
  Cd  Cd16  1  0.579543  0.580591  0.581927  1
  Cd  Cd17  1  0.578693  0.582589  0.256262  1
  Cd  Cd18  1  0.580436  0.255450  0.582892  1
  Cd  Cd19  1  0.257000  0.580612  0.580803  1
  Os  Os20  1  0.137951  0.140974  0.146698  1
  Pt  Pt21  1  0.145558  0.138088  0.576589  1
  Pt  Pt22  1  0.147208  0.581974  0.138045  1
  Pt  Pt23  1  0.572954  0.147933  0.144661  1
