# generated using pymatgen
data_Lu16Sc4Bi11Au
_symmetry_space_group_name_H-M   'P 1'
_cell_length_a   8.02046993
_cell_length_b   9.31713600
_cell_length_c   11.78303500
_cell_angle_alpha   90.00000000
_cell_angle_beta   89.56427335
_cell_angle_gamma   90.00000000
_symmetry_Int_Tables_number   1
_chemical_formula_structural   Lu16Sc4Bi11Au
_chemical_formula_sum   'Lu16 Sc4 Bi11 Au1'
_cell_volume   880.49492812
_cell_formula_units_Z   1
loop_
 _symmetry_equiv_pos_site_id
 _symmetry_equiv_pos_as_xyz
  1  'x, y, z'
loop_
 _atom_site_type_symbol
 _atom_site_label
 _atom_site_symmetry_multiplicity
 _atom_site_fract_x
 _atom_site_fract_y
 _atom_site_fract_z
 _atom_site_occupancy
  Lu  Lu0  1  0.356044  0.250000  0.296228  1
  Lu  Lu1  1  0.650279  0.750000  0.716636  1
  Lu  Lu2  1  0.149397  0.750000  0.781575  1
  Lu  Lu3  1  0.851326  0.250000  0.215970  1
  Lu  Lu4  1  0.195804  0.250000  0.776242  1
  Lu  Lu5  1  0.810117  0.750000  0.217547  1
  Lu  Lu6  1  0.313665  0.750000  0.280863  1
  Lu  Lu7  1  0.669790  0.250000  0.709402  1
  Lu  Lu8  1  0.195823  0.067282  0.061342  1
  Lu  Lu9  1  0.803556  0.933028  0.941224  1
  Lu  Lu10  1  0.306503  0.953203  0.558741  1
  Lu  Lu11  1  0.803556  0.566972  0.941224  1
  Lu  Lu12  1  0.687991  0.072715  0.446200  1
  Lu  Lu13  1  0.195823  0.432718  0.061342  1
  Lu  Lu14  1  0.687991  0.427285  0.446200  1
  Lu  Lu15  1  0.306503  0.546797  0.558741  1
  Sc  Sc16  1  0.038240  0.250000  0.508130  1
  Sc  Sc17  1  0.981301  0.750000  0.490021  1
  Sc  Sc18  1  0.476326  0.750000  0.011396  1
  Sc  Sc19  1  0.525155  0.250000  0.989178  1
  Bi  Bi20  1  0.598179  0.750000  0.457099  1
  Bi  Bi21  1  0.099927  0.750000  0.042232  1
  Bi  Bi22  1  0.902580  0.250000  0.953420  1
  Bi  Bi23  1  0.059884  0.001749  0.326998  1
  Bi  Bi24  1  0.935462  0.998232  0.672270  1
  Bi  Bi25  1  0.436402  0.995777  0.829942  1
  Bi  Bi26  1  0.935462  0.501768  0.672270  1
  Bi  Bi27  1  0.563399  0.004316  0.171518  1
  Bi  Bi28  1  0.059884  0.498251  0.326998  1
  Bi  Bi29  1  0.563399  0.495684  0.171518  1
  Bi  Bi30  1  0.436402  0.504223  0.829942  1
  Au  Au31  1  0.403823  0.250000  0.537585  1
