# generated using pymatgen
data_Ho6Er7Th3(MgNi)4
_symmetry_space_group_name_H-M   'P 1'
_cell_length_a   9.59360288
_cell_length_b   9.61461112
_cell_length_c   9.61482834
_cell_angle_alpha   59.85094709
_cell_angle_beta   59.85695763
_cell_angle_gamma   59.85746621
_symmetry_Int_Tables_number   1
_chemical_formula_structural   Ho6Er7Th3(MgNi)4
_chemical_formula_sum   'Ho6 Er7 Th3 Mg4 Ni4'
_cell_volume   625.04288497
_cell_formula_units_Z   1
loop_
 _symmetry_equiv_pos_site_id
 _symmetry_equiv_pos_as_xyz
  1  'x, y, z'
loop_
 _atom_site_type_symbol
 _atom_site_label
 _atom_site_symmetry_multiplicity
 _atom_site_fract_x
 _atom_site_fract_y
 _atom_site_fract_z
 _atom_site_occupancy
  Ho  Ho0  1  0.935822  0.566507  0.566528  1
  Ho  Ho1  1  0.565448  0.933965  0.933959  1
  Ho  Ho2  1  0.566271  0.934212  0.566462  1
  Ho  Ho3  1  0.935115  0.566081  0.932431  1
  Ho  Ho4  1  0.566274  0.566458  0.934202  1
  Ho  Ho5  1  0.935136  0.932431  0.566077  1
  Er  Er6  1  0.957017  0.347699  0.347665  1
  Er  Er7  1  0.813306  0.187432  0.187470  1
  Er  Er8  1  0.186421  0.814267  0.814280  1
  Er  Er9  1  0.187272  0.813692  0.186058  1
  Er  Er10  1  0.813497  0.186863  0.812371  1
  Er  Er11  1  0.187236  0.186073  0.813689  1
  Er  Er12  1  0.813482  0.812394  0.186858  1
  Th  Th13  1  0.342288  0.347686  0.347701  1
  Th  Th14  1  0.342266  0.347794  0.961064  1
  Th  Th15  1  0.342238  0.961081  0.347778  1
  Mg  Mg16  1  0.581568  0.579458  0.579467  1
  Mg  Mg17  1  0.581837  0.579307  0.259171  1
  Mg  Mg18  1  0.581838  0.259179  0.579302  1
  Mg  Mg19  1  0.259137  0.579995  0.580010  1
  Ni  Ni20  1  0.146048  0.140868  0.140896  1
  Ni  Ni21  1  0.145036  0.141166  0.572212  1
  Ni  Ni22  1  0.145035  0.572211  0.141187  1
  Ni  Ni23  1  0.570411  0.143183  0.143157  1
