# generated using pymatgen
data_Sc7TiAl14GeIr3Rh4
_symmetry_space_group_name_H-M   'P 1'
_cell_length_a   8.86276603
_cell_length_b   8.86907320
_cell_length_c   8.86276600
_cell_angle_alpha   120.05386079
_cell_angle_beta   119.81065440
_cell_angle_gamma   90.09701098
_symmetry_Int_Tables_number   1
_chemical_formula_structural   Sc7TiAl14GeIr3Rh4
_chemical_formula_sum   'Sc7 Ti1 Al14 Ge1 Ir3 Rh4'
_cell_volume   493.19718426
_cell_formula_units_Z   1
loop_
 _symmetry_equiv_pos_site_id
 _symmetry_equiv_pos_as_xyz
  1  'x, y, z'
loop_
 _atom_site_type_symbol
 _atom_site_label
 _atom_site_symmetry_multiplicity
 _atom_site_fract_x
 _atom_site_fract_y
 _atom_site_fract_z
 _atom_site_occupancy
  Sc  Sc0  1  0.793497  0.289764  0.076405  1
  Sc  Sc1  1  0.213358  0.289764  0.496267  1
  Sc  Sc2  1  0.207747  0.708198  0.500449  1
  Sc  Sc3  1  0.217255  0.720033  0.927146  1
  Sc  Sc4  1  0.792886  0.720033  0.502778  1
  Sc  Sc5  1  0.781347  0.278275  0.496929  1
  Sc  Sc6  1  0.379691  0.120912  0.741221  1
  Ti  Ti7  1  0.380315  0.635323  0.255008  1
  Al  Al8  1  0.163768  0.336485  0.172718  1
  Al  Al9  1  0.161291  0.988926  0.827636  1
  Al  Al10  1  0.157187  0.340421  0.821089  1
  Al  Al11  1  0.519331  0.340421  0.183234  1
  Al  Al12  1  0.837243  0.660968  0.823726  1
  Al  Al13  1  0.837379  0.011875  0.174497  1
  Al  Al14  1  0.834987  0.662796  0.170336  1
  Al  Al15  1  0.492459  0.662796  0.827810  1
  Al  Al16  1  0.380238  0.121741  0.260248  1
  Al  Al17  1  0.861494  0.121741  0.741503  1
  Al  Al18  1  0.620578  0.875717  0.255139  1
  Al  Al19  1  0.620966  0.364013  0.743048  1
  Al  Al20  1  0.620260  0.876837  0.740956  1
  Al  Al21  1  0.135881  0.876837  0.256577  1
  Ge  Ge22  1  0.994346  0.494965  0.500619  1
  Ir  Ir23  1  0.995316  0.000259  0.500424  1
  Ir  Ir24  1  0.499835  0.000259  0.004944  1
  Ir  Ir25  1  0.498745  0.504762  0.006016  1
  Rh  Rh26  1  0.499181  0.500404  0.499007  1
  Rh  Rh27  1  0.001397  0.500404  0.001223  1
  Rh  Rh28  1  0.000841  0.001481  0.000639  1
  Rh  Rh29  1  0.501178  0.993588  0.492410  1
