# generated using pymatgen
data_Tb7Dy8Tm(InRh)4
_symmetry_space_group_name_H-M   'P 1'
_cell_length_a   9.67058858
_cell_length_b   9.67251100
_cell_length_c   9.66454021
_cell_angle_alpha   60.00863944
_cell_angle_beta   60.02840098
_cell_angle_gamma   59.96915260
_symmetry_Int_Tables_number   1
_chemical_formula_structural   Tb7Dy8Tm(InRh)4
_chemical_formula_sum   'Tb7 Dy8 Tm1 In4 Rh4'
_cell_volume   639.26131531
_cell_formula_units_Z   1
loop_
 _symmetry_equiv_pos_site_id
 _symmetry_equiv_pos_as_xyz
  1  'x, y, z'
loop_
 _atom_site_type_symbol
 _atom_site_label
 _atom_site_symmetry_multiplicity
 _atom_site_fract_x
 _atom_site_fract_y
 _atom_site_fract_z
 _atom_site_occupancy
  Tb  Tb0  1  0.048990  0.650624  0.650293  1
  Tb  Tb1  1  0.438910  0.061615  0.062166  1
  Tb  Tb2  1  0.438835  0.061310  0.437633  1
  Tb  Tb3  1  0.061467  0.438689  0.062418  1
  Tb  Tb4  1  0.650491  0.650350  0.049413  1
  Tb  Tb5  1  0.188463  0.810813  0.189006  1
  Tb  Tb6  1  0.061213  0.438574  0.437693  1
  Dy  Dy7  1  0.810578  0.188718  0.811526  1
  Dy  Dy8  1  0.189409  0.189363  0.810508  1
  Dy  Dy9  1  0.650739  0.048703  0.650281  1
  Dy  Dy10  1  0.061643  0.062041  0.438342  1
  Dy  Dy11  1  0.438616  0.438263  0.061386  1
  Dy  Dy12  1  0.650448  0.650559  0.649869  1
  Dy  Dy13  1  0.810448  0.188675  0.189255  1
  Dy  Dy14  1  0.188718  0.810718  0.811419  1
  Tm  Tm15  1  0.810639  0.810932  0.189274  1
  In  In16  1  0.417537  0.417025  0.416626  1
  In  In17  1  0.417499  0.417108  0.748787  1
  In  In18  1  0.417916  0.748034  0.417067  1
  In  In19  1  0.748069  0.417618  0.417250  1
  Rh  Rh20  1  0.857904  0.426704  0.857579  1
  Rh  Rh21  1  0.857416  0.857796  0.859274  1
  Rh  Rh22  1  0.856828  0.857613  0.426037  1
  Rh  Rh23  1  0.427221  0.858153  0.856898  1
