# generated using pymatgen
data_Ta6Ti2Al6Tc2B
_symmetry_space_group_name_H-M   'P 1'
_cell_length_a   7.74730700
_cell_length_b   7.74730617
_cell_length_c   5.12888900
_cell_angle_alpha   90.00000000
_cell_angle_beta   90.00000000
_cell_angle_gamma   119.99999929
_symmetry_Int_Tables_number   1
_chemical_formula_structural   Ta6Ti2Al6Tc2B
_chemical_formula_sum   'Ta6 Ti2 Al6 Tc2 B1'
_cell_volume   266.59709954
_cell_formula_units_Z   1
loop_
 _symmetry_equiv_pos_site_id
 _symmetry_equiv_pos_as_xyz
  1  'x, y, z'
loop_
 _atom_site_type_symbol
 _atom_site_label
 _atom_site_symmetry_multiplicity
 _atom_site_fract_x
 _atom_site_fract_y
 _atom_site_fract_z
 _atom_site_occupancy
  Ta  Ta0  1  0.000000  0.766003  0.233517  1
  Ta  Ta1  1  0.233997  0.233997  0.233517  1
  Ta  Ta2  1  0.766003  0.000000  0.233517  1
  Ta  Ta3  1  0.000000  0.233997  0.766483  1
  Ta  Ta4  1  0.766003  0.766003  0.766483  1
  Ta  Ta5  1  0.233997  0.000000  0.766483  1
  Ti  Ti6  1  0.666667  0.333333  0.000000  1
  Ti  Ti7  1  0.333333  0.666667  0.000000  1
  Al  Al8  1  0.000000  0.407213  0.268070  1
  Al  Al9  1  0.592787  0.592787  0.268070  1
  Al  Al10  1  0.407213  0.000000  0.268070  1
  Al  Al11  1  0.000000  0.592787  0.731930  1
  Al  Al12  1  0.407213  0.407213  0.731930  1
  Al  Al13  1  0.592787  0.000000  0.731930  1
  Tc  Tc14  1  0.333333  0.666667  0.500000  1
  Tc  Tc15  1  0.666667  0.333333  0.500000  1
  B  B16  1  0.000000  0.000000  0.500000  1
