# generated using pymatgen
data_Pr3Sn3HgIrRu
_symmetry_space_group_name_H-M   'P 1'
_cell_length_a   7.73704700
_cell_length_b   7.73704740
_cell_length_c   4.21880300
_cell_angle_alpha   90.00000000
_cell_angle_beta   90.00000000
_cell_angle_gamma   119.99999402
_symmetry_Int_Tables_number   1
_chemical_formula_structural   Pr3Sn3HgIrRu
_chemical_formula_sum   'Pr3 Sn3 Hg1 Ir1 Ru1'
_cell_volume   218.71088425
_cell_formula_units_Z   1
loop_
 _symmetry_equiv_pos_site_id
 _symmetry_equiv_pos_as_xyz
  1  'x, y, z'
loop_
 _atom_site_type_symbol
 _atom_site_label
 _atom_site_symmetry_multiplicity
 _atom_site_fract_x
 _atom_site_fract_y
 _atom_site_fract_z
 _atom_site_occupancy
  Pr  Pr0  1  0.602179  0.019569  0.000000  1
  Pr  Pr1  1  0.980431  0.582610  0.000000  1
  Pr  Pr2  1  0.417390  0.397821  0.000000  1
  Sn  Sn3  1  0.247642  0.010793  0.500000  1
  Sn  Sn4  1  0.989207  0.236850  0.500000  1
  Sn  Sn5  1  0.763150  0.752358  0.500000  1
  Hg  Hg6  1  0.333333  0.666667  0.500000  1
  Ir  Ir7  1  0.666667  0.333333  0.500000  1
  Ru  Ru8  1  0.000000  0.000000  0.000000  1
