# generated using pymatgen
data_TbNi5Sn
_symmetry_space_group_name_H-M   'P 1'
_cell_length_a   8.06820100
_cell_length_b   4.87930500
_cell_length_c   10.25372500
_cell_angle_alpha   90.00000000
_cell_angle_beta   90.00000000
_cell_angle_gamma   90.00000000
_symmetry_Int_Tables_number   1
_chemical_formula_structural   TbNi5Sn
_chemical_formula_sum   'Tb4 Ni20 Sn4'
_cell_volume   403.66058104
_cell_formula_units_Z   4
loop_
 _symmetry_equiv_pos_site_id
 _symmetry_equiv_pos_as_xyz
  1  'x, y, z'
loop_
 _atom_site_type_symbol
 _atom_site_label
 _atom_site_symmetry_multiplicity
 _atom_site_fract_x
 _atom_site_fract_y
 _atom_site_fract_z
 _atom_site_occupancy
  Tb  Tb0  1  0.752025  0.750001  0.060026  1
  Tb  Tb1  1  0.252024  0.750001  0.439973  1
  Tb  Tb2  1  0.747976  0.249999  0.560027  1
  Tb  Tb3  1  0.247976  0.249999  0.939973  1
  Ni  Ni4  1  0.913886  0.249999  0.017378  1
  Ni  Ni5  1  0.548358  0.249999  0.099768  1
  Ni  Ni6  1  0.066022  0.500823  0.190629  1
  Ni  Ni7  1  0.066022  0.999176  0.190629  1
  Ni  Ni8  1  0.812036  0.249999  0.243570  1
  Ni  Ni9  1  0.312036  0.249999  0.256430  1
  Ni  Ni10  1  0.566022  0.500823  0.309371  1
  Ni  Ni11  1  0.566022  0.999176  0.309371  1
  Ni  Ni12  1  0.048358  0.249999  0.400233  1
  Ni  Ni13  1  0.413886  0.249999  0.482622  1
  Ni  Ni14  1  0.586114  0.750001  0.517379  1
  Ni  Ni15  1  0.951642  0.750001  0.599767  1
  Ni  Ni16  1  0.433978  0.000824  0.690628  1
  Ni  Ni17  1  0.433978  0.499177  0.690628  1
  Ni  Ni18  1  0.687964  0.750001  0.743570  1
  Ni  Ni19  1  0.187964  0.750001  0.756430  1
  Ni  Ni20  1  0.933978  0.000824  0.809372  1
  Ni  Ni21  1  0.933978  0.499177  0.809372  1
  Ni  Ni22  1  0.451642  0.750001  0.900232  1
  Ni  Ni23  1  0.086114  0.750001  0.982621  1
  Sn  Sn24  1  0.359432  0.750001  0.139695  1
  Sn  Sn25  1  0.859432  0.750001  0.360305  1
  Sn  Sn26  1  0.140568  0.249999  0.639695  1
  Sn  Sn27  1  0.640568  0.249999  0.860305  1
