# generated using pymatgen
data_TbFeGeH
_symmetry_space_group_name_H-M   'P 1'
_cell_length_a   3.87846200
_cell_length_b   3.87846200
_cell_length_c   7.68681100
_cell_angle_alpha   90.00000000
_cell_angle_beta   90.00000000
_cell_angle_gamma   90.00000000
_symmetry_Int_Tables_number   1
_chemical_formula_structural   TbFeGeH
_chemical_formula_sum   'Tb2 Fe2 Ge2 H2'
_cell_volume   115.62860453
_cell_formula_units_Z   2
loop_
 _symmetry_equiv_pos_site_id
 _symmetry_equiv_pos_as_xyz
  1  'x, y, z'
loop_
 _atom_site_type_symbol
 _atom_site_label
 _atom_site_symmetry_multiplicity
 _atom_site_fract_x
 _atom_site_fract_y
 _atom_site_fract_z
 _atom_site_occupancy
  Tb  Tb0  1  0.500000  0.000000  0.341391  1
  Tb  Tb1  1  0.000000  0.500000  0.658609  1
  Fe  Fe2  1  0.500000  0.500000  0.000000  1
  Fe  Fe3  1  0.000000  0.000000  0.000000  1
  Ge  Ge4  1  0.500000  0.000000  0.813873  1
  Ge  Ge5  1  0.000000  0.500000  0.186127  1
  H  H6  1  0.000000  0.000000  0.500000  1
  H  H7  1  0.500000  0.500000  0.500000  1
