# generated using pymatgen
data_Sc3BCl3
_symmetry_space_group_name_H-M   'P 1'
_cell_length_a   8.88966649
_cell_length_b   8.88966621
_cell_length_c   8.88966600
_cell_angle_alpha   109.47122016
_cell_angle_beta   109.47121952
_cell_angle_gamma   109.47122239
_symmetry_Int_Tables_number   1
_chemical_formula_structural   Sc3BCl3
_chemical_formula_sum   'Sc12 B4 Cl12'
_cell_volume   540.79725022
_cell_formula_units_Z   4
loop_
 _symmetry_equiv_pos_site_id
 _symmetry_equiv_pos_as_xyz
  1  'x, y, z'
loop_
 _atom_site_type_symbol
 _atom_site_label
 _atom_site_symmetry_multiplicity
 _atom_site_fract_x
 _atom_site_fract_y
 _atom_site_fract_z
 _atom_site_occupancy
  Sc  Sc0  1  0.462557  0.481279  0.231279  1
  Sc  Sc1  1  0.750000  0.231279  0.268721  1
  Sc  Sc2  1  0.750000  0.018721  0.481279  1
  Sc  Sc3  1  0.231279  0.462557  0.481279  1
  Sc  Sc4  1  0.268721  0.750000  0.231279  1
  Sc  Sc5  1  0.037443  0.268721  0.018721  1
  Sc  Sc6  1  0.018721  0.037443  0.268721  1
  Sc  Sc7  1  0.481279  0.750000  0.018721  1
  Sc  Sc8  1  0.481279  0.231279  0.462557  1
  Sc  Sc9  1  0.018721  0.481279  0.750000  1
  Sc  Sc10  1  0.268721  0.018721  0.037443  1
  Sc  Sc11  1  0.231279  0.268721  0.750000  1
  B  B12  1  0.250000  0.250000  0.250000  1
  B  B13  1  0.500000  0.000000  0.250000  1
  B  B14  1  0.000000  0.250000  0.500000  1
  B  B15  1  0.250000  0.500000  0.000000  1
  Cl  Cl16  1  0.250000  0.754295  0.745705  1
  Cl  Cl17  1  0.508591  0.504295  0.754295  1
  Cl  Cl18  1  0.991409  0.745705  0.995705  1
  Cl  Cl19  1  0.745705  0.250000  0.754295  1
  Cl  Cl20  1  0.995705  0.991409  0.745705  1
  Cl  Cl21  1  0.250000  0.995705  0.504295  1
  Cl  Cl22  1  0.754295  0.508591  0.504295  1
  Cl  Cl23  1  0.504295  0.250000  0.995705  1
  Cl  Cl24  1  0.754295  0.745705  0.250000  1
  Cl  Cl25  1  0.745705  0.995705  0.991409  1
  Cl  Cl26  1  0.995705  0.504295  0.250000  1
  Cl  Cl27  1  0.504295  0.754295  0.508591  1
