# generated using pymatgen
data_Tb3Dy3Al24CuOs7
_symmetry_space_group_name_H-M   'P 1'
_cell_length_a   8.83293552
_cell_length_b   8.82842847
_cell_length_c   9.54978515
_cell_angle_alpha   89.74011498
_cell_angle_beta   90.24253921
_cell_angle_gamma   119.87811467
_symmetry_Int_Tables_number   1
_chemical_formula_structural   Tb3Dy3Al24CuOs7
_chemical_formula_sum   'Tb3 Dy3 Al24 Cu1 Os7'
_cell_volume   645.71249894
_cell_formula_units_Z   1
loop_
 _symmetry_equiv_pos_site_id
 _symmetry_equiv_pos_as_xyz
  1  'x, y, z'
loop_
 _atom_site_type_symbol
 _atom_site_label
 _atom_site_symmetry_multiplicity
 _atom_site_fract_x
 _atom_site_fract_y
 _atom_site_fract_z
 _atom_site_occupancy
  Tb  Tb0  1  0.189918  0.385256  0.249598  1
  Tb  Tb1  1  0.809964  0.614646  0.750389  1
  Tb  Tb2  1  0.614742  0.810137  0.249630  1
  Dy  Dy3  1  0.386061  0.190126  0.750152  1
  Dy  Dy4  1  0.194282  0.805635  0.251440  1
  Dy  Dy5  1  0.805480  0.194312  0.748543  1
  Al  Al6  1  0.332283  0.667684  0.018955  1
  Al  Al7  1  0.667380  0.332189  0.980778  1
  Al  Al8  1  0.666122  0.333423  0.516015  1
  Al  Al9  1  0.333535  0.666379  0.484214  1
  Al  Al10  1  0.163534  0.325706  0.575910  1
  Al  Al11  1  0.836663  0.674182  0.424223  1
  Al  Al12  1  0.674260  0.836679  0.575867  1
  Al  Al13  1  0.842855  0.675700  0.078641  1
  Al  Al14  1  0.325795  0.163321  0.424465  1
  Al  Al15  1  0.157277  0.324193  0.921229  1
  Al  Al16  1  0.163340  0.837052  0.574894  1
  Al  Al17  1  0.324247  0.157092  0.078437  1
  Al  Al18  1  0.836797  0.163189  0.425232  1
  Al  Al19  1  0.675768  0.842872  0.921283  1
  Al  Al20  1  0.836160  0.163809  0.074679  1
  Al  Al21  1  0.164001  0.836462  0.925183  1
  Al  Al22  1  0.560816  0.122670  0.248973  1
  Al  Al23  1  0.439069  0.877789  0.750992  1
  Al  Al24  1  0.877350  0.439180  0.249012  1
  Al  Al25  1  0.122700  0.560853  0.750992  1
  Al  Al26  1  0.561245  0.438705  0.249805  1
  Al  Al27  1  0.438675  0.560765  0.750254  1
  Al  Al28  1  0.999543  0.000460  0.250395  1
  Al  Al29  1  0.000871  0.999750  0.749624  1
  Cu  Cu30  1  0.499949  0.499931  0.999944  1
  Os  Os31  1  0.499839  0.000273  0.999652  1
  Os  Os32  1  0.999877  0.499896  0.999931  1
  Os  Os33  1  0.499867  0.000165  0.500265  1
  Os  Os34  1  0.999819  0.499895  0.500078  1
  Os  Os35  1  0.499857  0.499597  0.500285  1
  Os  Os36  1  0.999997  0.000000  0.999927  1
  Os  Os37  1  0.000062  0.000025  0.500112  1
