# generated using pymatgen
data_Er2Si(Ni2As)6
_symmetry_space_group_name_H-M   'P 1'
_cell_length_a   9.31870700
_cell_length_b   9.31870676
_cell_length_c   3.80426900
_cell_angle_alpha   90.00000000
_cell_angle_beta   90.00000000
_cell_angle_gamma   119.99999731
_symmetry_Int_Tables_number   1
_chemical_formula_structural   Er2Si(Ni2As)6
_chemical_formula_sum   'Er2 Si1 Ni12 As6'
_cell_volume   286.09690791
_cell_formula_units_Z   1
loop_
 _symmetry_equiv_pos_site_id
 _symmetry_equiv_pos_as_xyz
  1  'x, y, z'
loop_
 _atom_site_type_symbol
 _atom_site_label
 _atom_site_symmetry_multiplicity
 _atom_site_fract_x
 _atom_site_fract_y
 _atom_site_fract_z
 _atom_site_occupancy
  Er  Er0  1  0.666667  0.333333  0.500000  1
  Er  Er1  1  0.333333  0.666667  0.000000  1
  Si  Si2  1  0.000000  0.000000  0.000000  1
  Ni  Ni3  1  0.439452  0.056356  0.000000  1
  Ni  Ni4  1  0.616904  0.560548  0.000000  1
  Ni  Ni5  1  0.943644  0.383096  0.000000  1
  Ni  Ni6  1  0.149129  0.276198  0.000000  1
  Ni  Ni7  1  0.127068  0.850871  0.000000  1
  Ni  Ni8  1  0.723802  0.872932  0.000000  1
  Ni  Ni9  1  0.375769  0.424023  0.500000  1
  Ni  Ni10  1  0.048254  0.624231  0.500000  1
  Ni  Ni11  1  0.575977  0.951746  0.500000  1
  Ni  Ni12  1  0.193441  0.087112  0.500000  1
  Ni  Ni13  1  0.893671  0.806559  0.500000  1
  Ni  Ni14  1  0.912888  0.106329  0.500000  1
  As  As15  1  0.401842  0.283590  0.000000  1
  As  As16  1  0.881748  0.598158  0.000000  1
  As  As17  1  0.716410  0.118252  0.000000  1
  As  As18  1  0.108508  0.405693  0.500000  1
  As  As19  1  0.297185  0.891492  0.500000  1
  As  As20  1  0.594307  0.702815  0.500000  1
