# generated using pymatgen
data_ZrMn5(InRh2)6
_symmetry_space_group_name_H-M   'P 1'
_cell_length_a   4.50635401
_cell_length_b   6.30964000
_cell_length_c   13.46776702
_cell_angle_alpha   90.00000000
_cell_angle_beta   89.99418266
_cell_angle_gamma   90.00000000
_symmetry_Int_Tables_number   1
_chemical_formula_structural   ZrMn5(InRh2)6
_chemical_formula_sum   'Zr1 Mn5 In6 Rh12'
_cell_volume   382.93536754
_cell_formula_units_Z   1
loop_
 _symmetry_equiv_pos_site_id
 _symmetry_equiv_pos_as_xyz
  1  'x, y, z'
loop_
 _atom_site_type_symbol
 _atom_site_label
 _atom_site_symmetry_multiplicity
 _atom_site_fract_x
 _atom_site_fract_y
 _atom_site_fract_z
 _atom_site_occupancy
  Zr  Zr0  1  0.000000  0.500001  0.999999  1
  Mn  Mn1  1  0.499837  0.000000  0.170177  1
  Mn  Mn2  1  0.999836  0.500001  0.335051  1
  Mn  Mn3  1  0.500002  0.000000  0.500000  1
  Mn  Mn4  1  0.000166  0.500001  0.664947  1
  Mn  Mn5  1  0.500164  0.000000  0.829822  1
  In  In6  1  0.000000  0.000000  0.000000  1
  In  In7  1  0.499984  0.500001  0.170739  1
  In  In8  1  0.999898  0.000000  0.336829  1
  In  In9  1  0.500001  0.500001  0.500001  1
  In  In10  1  0.000103  0.000000  0.663172  1
  In  In11  1  0.500012  0.500001  0.829259  1
  Rh  Rh12  1  0.499999  0.244792  0.999999  1
  Rh  Rh13  1  0.499999  0.755207  0.999999  1
  Rh  Rh14  1  0.999953  0.246043  0.168528  1
  Rh  Rh15  1  0.999953  0.753957  0.168528  1
  Rh  Rh16  1  0.499895  0.248128  0.334453  1
  Rh  Rh17  1  0.499895  0.751872  0.334453  1
  Rh  Rh18  1  0.000001  0.252023  0.500001  1
  Rh  Rh19  1  0.000001  0.747977  0.500001  1
  Rh  Rh20  1  0.500106  0.248126  0.665548  1
  Rh  Rh21  1  0.500106  0.751874  0.665548  1
  Rh  Rh22  1  0.000048  0.246042  0.831472  1
  Rh  Rh23  1  0.000048  0.753958  0.831472  1
