# generated using pymatgen
data_YLu9(In2Ir)4
_symmetry_space_group_name_H-M   'P 1'
_cell_length_a   3.53032700
_cell_length_b   7.98224025
_cell_length_c   18.12978056
_cell_angle_alpha   90.02843366
_cell_angle_beta   90.00000000
_cell_angle_gamma   90.00000000
_symmetry_Int_Tables_number   1
_chemical_formula_structural   YLu9(In2Ir)4
_chemical_formula_sum   'Y1 Lu9 In8 Ir4'
_cell_volume   510.89567129
_cell_formula_units_Z   1
loop_
 _symmetry_equiv_pos_site_id
 _symmetry_equiv_pos_as_xyz
  1  'x, y, z'
loop_
 _atom_site_type_symbol
 _atom_site_label
 _atom_site_symmetry_multiplicity
 _atom_site_fract_x
 _atom_site_fract_y
 _atom_site_fract_z
 _atom_site_occupancy
  Y  Y0  1  0.000000  0.500000  0.000000  1
  Lu  Lu1  1  0.000000  0.883393  0.087330  1
  Lu  Lu2  1  0.000000  0.755520  0.278977  1
  Lu  Lu3  1  0.000000  0.744466  0.778980  1
  Lu  Lu4  1  0.000000  0.383084  0.412811  1
  Lu  Lu5  1  0.000000  0.116607  0.912670  1
  Lu  Lu6  1  0.000000  0.244480  0.721023  1
  Lu  Lu7  1  0.000000  0.255534  0.221020  1
  Lu  Lu8  1  0.000000  0.616916  0.587189  1
  Lu  Lu9  1  0.000000  0.000000  0.500000  1
  In  In10  1  0.500000  0.206344  0.066682  1
  In  In11  1  0.500000  0.426016  0.850475  1
  In  In12  1  0.500000  0.573984  0.149525  1
  In  In13  1  0.500000  0.073795  0.350878  1
  In  In14  1  0.500000  0.926205  0.649122  1
  In  In15  1  0.500000  0.793656  0.933318  1
  In  In16  1  0.500000  0.707370  0.433621  1
  In  In17  1  0.500000  0.292630  0.566379  1
  Ir  Ir18  1  0.500000  0.975707  0.196314  1
  Ir  Ir19  1  0.500000  0.024293  0.803686  1
  Ir  Ir20  1  0.500000  0.524294  0.696318  1
  Ir  Ir21  1  0.500000  0.475706  0.303682  1
