# generated using pymatgen
data_Ti5ZnBi2Pb
_symmetry_space_group_name_H-M   'P 1'
_cell_length_a   8.40433000
_cell_length_b   8.42871666
_cell_length_c   5.64566200
_cell_angle_alpha   90.00000000
_cell_angle_beta   90.00000000
_cell_angle_gamma   119.90433706
_symmetry_Int_Tables_number   1
_chemical_formula_structural   Ti5ZnBi2Pb
_chemical_formula_sum   'Ti10 Zn2 Bi4 Pb2'
_cell_volume   346.67928664
_cell_formula_units_Z   2
loop_
 _symmetry_equiv_pos_site_id
 _symmetry_equiv_pos_as_xyz
  1  'x, y, z'
loop_
 _atom_site_type_symbol
 _atom_site_label
 _atom_site_symmetry_multiplicity
 _atom_site_fract_x
 _atom_site_fract_y
 _atom_site_fract_z
 _atom_site_occupancy
  Ti  Ti0  1  0.267553  0.000000  0.750000  1
  Ti  Ti1  1  0.732447  0.000000  0.250000  1
  Ti  Ti2  1  0.998297  0.267003  0.750000  1
  Ti  Ti3  1  0.001703  0.732997  0.250000  1
  Ti  Ti4  1  0.731293  0.732997  0.750000  1
  Ti  Ti5  1  0.268707  0.267003  0.250000  1
  Ti  Ti6  1  0.333269  0.666538  0.500000  1
  Ti  Ti7  1  0.666731  0.333462  0.500000  1
  Ti  Ti8  1  0.666731  0.333462  0.000000  1
  Ti  Ti9  1  0.333269  0.666538  0.000000  1
  Zn  Zn10  1  0.000000  0.000000  0.500000  1
  Zn  Zn11  1  0.000000  0.000000  0.000000  1
  Bi  Bi12  1  0.000293  0.617132  0.750000  1
  Bi  Bi13  1  0.999707  0.382868  0.250000  1
  Bi  Bi14  1  0.383162  0.382868  0.750000  1
  Bi  Bi15  1  0.616838  0.617132  0.250000  1
  Pb  Pb16  1  0.614819  0.000000  0.750000  1
  Pb  Pb17  1  0.385181  0.000000  0.250000  1
