# generated using pymatgen
data_Ho16MgCd(Co2Ag)2
_symmetry_space_group_name_H-M   'P 1'
_cell_length_a   9.41067316
_cell_length_b   9.43303413
_cell_length_c   9.41016341
_cell_angle_alpha   59.87138775
_cell_angle_beta   59.89389734
_cell_angle_gamma   59.87126067
_symmetry_Int_Tables_number   1
_chemical_formula_structural   Ho16MgCd(Co2Ag)2
_chemical_formula_sum   'Ho16 Mg1 Cd1 Co4 Ag2'
_cell_volume   589.05893223
_cell_formula_units_Z   1
loop_
 _symmetry_equiv_pos_site_id
 _symmetry_equiv_pos_as_xyz
  1  'x, y, z'
loop_
 _atom_site_type_symbol
 _atom_site_label
 _atom_site_symmetry_multiplicity
 _atom_site_fract_x
 _atom_site_fract_y
 _atom_site_fract_z
 _atom_site_occupancy
  Ho  Ho0  1  0.939242  0.935054  0.564043  1
  Ho  Ho1  1  0.811565  0.187445  0.188949  1
  Ho  Ho2  1  0.939878  0.563031  0.563610  1
  Ho  Ho3  1  0.938725  0.561761  0.938719  1
  Ho  Ho4  1  0.812947  0.813158  0.186002  1
  Ho  Ho5  1  0.347393  0.346027  0.347426  1
  Ho  Ho6  1  0.564037  0.935063  0.939278  1
  Ho  Ho7  1  0.564435  0.936066  0.564433  1
  Ho  Ho8  1  0.185994  0.813187  0.812923  1
  Ho  Ho9  1  0.188953  0.187445  0.811553  1
  Ho  Ho10  1  0.346693  0.344469  0.964284  1
  Ho  Ho11  1  0.345478  0.964494  0.345561  1
  Ho  Ho12  1  0.812651  0.187305  0.812629  1
  Ho  Ho13  1  0.563631  0.563049  0.939859  1
  Ho  Ho14  1  0.188722  0.811067  0.188719  1
  Ho  Ho15  1  0.964305  0.344435  0.346718  1
  Mg  Mg16  1  0.570665  0.576324  0.570660  1
  Cd  Cd17  1  0.578756  0.259219  0.578743  1
  Co  Co18  1  0.577935  0.141800  0.142010  1
  Co  Co19  1  0.140672  0.140975  0.140661  1
  Co  Co20  1  0.141874  0.577664  0.141872  1
  Co  Co21  1  0.141999  0.141849  0.577951  1
  Ag  Ag22  1  0.583022  0.584543  0.250416  1
  Ag  Ag23  1  0.250431  0.584574  0.582984  1
