# generated using pymatgen
data_Ho13Er6TmBi12
_symmetry_space_group_name_H-M   'P 1'
_cell_length_a   8.21778029
_cell_length_b   9.47644400
_cell_length_c   11.99299524
_cell_angle_alpha   90.00061831
_cell_angle_beta   90.02652946
_cell_angle_gamma   90.00488340
_symmetry_Int_Tables_number   1
_chemical_formula_structural   Ho13Er6TmBi12
_chemical_formula_sum   'Ho13 Er6 Tm1 Bi12'
_cell_volume   933.95841620
_cell_formula_units_Z   1
loop_
 _symmetry_equiv_pos_site_id
 _symmetry_equiv_pos_as_xyz
  1  'x, y, z'
loop_
 _atom_site_type_symbol
 _atom_site_label
 _atom_site_symmetry_multiplicity
 _atom_site_fract_x
 _atom_site_fract_y
 _atom_site_fract_z
 _atom_site_occupancy
  Ho  Ho0  1  0.353654  0.750027  0.216347  1
  Ho  Ho1  1  0.853291  0.749973  0.283435  1
  Ho  Ho2  1  0.646504  0.249990  0.783527  1
  Ho  Ho3  1  0.146585  0.250028  0.716427  1
  Ho  Ho4  1  0.191855  0.564296  0.441022  1
  Ho  Ho5  1  0.476599  0.249959  0.488845  1
  Ho  Ho6  1  0.976489  0.250067  0.011136  1
  Ho  Ho7  1  0.523618  0.750075  0.511169  1
  Ho  Ho8  1  0.023272  0.749917  0.988878  1
  Ho  Ho9  1  0.314168  0.250004  0.218056  1
  Ho  Ho10  1  0.814278  0.250003  0.281956  1
  Ho  Ho11  1  0.685775  0.749956  0.782012  1
  Ho  Ho12  1  0.185799  0.750062  0.718108  1
  Er  Er13  1  0.191969  0.935463  0.441006  1
  Er  Er14  1  0.307970  0.064654  0.940984  1
  Er  Er15  1  0.808060  0.435324  0.558993  1
  Er  Er16  1  0.307987  0.435370  0.940979  1
  Er  Er17  1  0.807982  0.064694  0.559030  1
  Er  Er18  1  0.692102  0.935191  0.058994  1
  Tm  Tm19  1  0.691983  0.564914  0.058981  1
  Bi  Bi20  1  0.405685  0.749862  0.957521  1
  Bi  Bi21  1  0.905406  0.750154  0.542574  1
  Bi  Bi22  1  0.594562  0.250416  0.042558  1
  Bi  Bi23  1  0.094327  0.249566  0.457525  1
  Bi  Bi24  1  0.566273  0.996103  0.325682  1
  Bi  Bi25  1  0.066144  0.503903  0.174189  1
  Bi  Bi26  1  0.433794  0.496113  0.674359  1
  Bi  Bi27  1  0.933725  0.003905  0.825742  1
  Bi  Bi28  1  0.433795  0.003919  0.674303  1
  Bi  Bi29  1  0.933733  0.496083  0.825789  1
  Bi  Bi30  1  0.566386  0.503903  0.325632  1
  Bi  Bi31  1  0.066226  0.996105  0.174240  1
