# generated using pymatgen
data_Hf3Nb7(ZnSn3)2
_symmetry_space_group_name_H-M   'P 1'
_cell_length_a   8.42244200
_cell_length_b   8.42244260
_cell_length_c   5.69878800
_cell_angle_alpha   90.00000000
_cell_angle_beta   90.00000000
_cell_angle_gamma   119.99998980
_symmetry_Int_Tables_number   1
_chemical_formula_structural   Hf3Nb7(ZnSn3)2
_chemical_formula_sum   'Hf3 Nb7 Zn2 Sn6'
_cell_volume   350.09770684
_cell_formula_units_Z   1
loop_
 _symmetry_equiv_pos_site_id
 _symmetry_equiv_pos_as_xyz
  1  'x, y, z'
loop_
 _atom_site_type_symbol
 _atom_site_label
 _atom_site_symmetry_multiplicity
 _atom_site_fract_x
 _atom_site_fract_y
 _atom_site_fract_z
 _atom_site_occupancy
  Hf  Hf0  1  0.260809  0.260809  0.250000  1
  Hf  Hf1  1  0.739191  0.000000  0.250000  1
  Hf  Hf2  1  0.000000  0.739191  0.250000  1
  Nb  Nb3  1  0.666667  0.333333  0.997935  1
  Nb  Nb4  1  0.333333  0.666667  0.997935  1
  Nb  Nb5  1  0.333333  0.666667  0.502065  1
  Nb  Nb6  1  0.666667  0.333333  0.502065  1
  Nb  Nb7  1  0.720421  0.720421  0.750000  1
  Nb  Nb8  1  0.279579  0.000000  0.750000  1
  Nb  Nb9  1  0.000000  0.279579  0.750000  1
  Zn  Zn10  1  0.000000  0.000000  0.976831  1
  Zn  Zn11  1  0.000000  0.000000  0.523169  1
  Sn  Sn12  1  0.381990  0.381990  0.750000  1
  Sn  Sn13  1  0.618010  0.000000  0.750000  1
  Sn  Sn14  1  0.000000  0.618010  0.750000  1
  Sn  Sn15  1  0.608156  0.608156  0.250000  1
  Sn  Sn16  1  0.391844  0.000000  0.250000  1
  Sn  Sn17  1  0.000000  0.391844  0.250000  1
