# generated using pymatgen
data_Pr16Nd(TmGa4)3
_symmetry_space_group_name_H-M   'P 1'
_cell_length_a   7.83095100
_cell_length_b   7.83095100
_cell_length_c   14.85864600
_cell_angle_alpha   90.00000000
_cell_angle_beta   90.00000000
_cell_angle_gamma   90.00000000
_symmetry_Int_Tables_number   1
_chemical_formula_structural   Pr16Nd(TmGa4)3
_chemical_formula_sum   'Pr16 Nd1 Tm3 Ga12'
_cell_volume   911.18853995
_cell_formula_units_Z   1
loop_
 _symmetry_equiv_pos_site_id
 _symmetry_equiv_pos_as_xyz
  1  'x, y, z'
loop_
 _atom_site_type_symbol
 _atom_site_label
 _atom_site_symmetry_multiplicity
 _atom_site_fract_x
 _atom_site_fract_y
 _atom_site_fract_z
 _atom_site_occupancy
  Pr  Pr0  1  0.813660  0.841713  0.603954  1
  Pr  Pr1  1  0.184436  0.839203  0.104443  1
  Pr  Pr2  1  0.160743  0.816149  0.395789  1
  Pr  Pr3  1  0.839257  0.183851  0.395789  1
  Pr  Pr4  1  0.683851  0.660743  0.395789  1
  Pr  Pr5  1  0.658287  0.313660  0.603954  1
  Pr  Pr6  1  0.341713  0.686340  0.603954  1
  Pr  Pr7  1  0.660797  0.684436  0.104443  1
  Pr  Pr8  1  0.685877  0.339209  0.896362  1
  Pr  Pr9  1  0.839209  0.814123  0.896362  1
  Pr  Pr10  1  0.316149  0.339257  0.395789  1
  Pr  Pr11  1  0.186340  0.158287  0.603954  1
  Pr  Pr12  1  0.815564  0.160797  0.104443  1
  Pr  Pr13  1  0.314123  0.660791  0.896362  1
  Pr  Pr14  1  0.339203  0.315564  0.104443  1
  Pr  Pr15  1  0.160791  0.185877  0.896362  1
  Nd  Nd16  1  0.000000  0.500000  0.716348  1
  Tm  Tm17  1  0.000000  0.500000  0.224840  1
  Tm  Tm18  1  0.500000  0.000000  0.275568  1
  Tm  Tm19  1  0.500000  0.000000  0.776930  1
  Ga  Ga20  1  0.622064  0.378071  0.250162  1
  Ga  Ga21  1  0.124543  0.883362  0.751541  1
  Ga  Ga22  1  0.383362  0.375457  0.751541  1
  Ga  Ga23  1  0.377936  0.621929  0.250162  1
  Ga  Ga24  1  0.878071  0.877936  0.250162  1
  Ga  Ga25  1  0.616638  0.624543  0.751541  1
  Ga  Ga26  1  0.000000  0.500000  0.507489  1
  Ga  Ga27  1  0.875457  0.116638  0.751541  1
  Ga  Ga28  1  0.500000  0.000000  0.485931  1
  Ga  Ga29  1  0.500000  0.000000  0.986969  1
  Ga  Ga30  1  0.121929  0.122064  0.250162  1
  Ga  Ga31  1  0.000000  0.500000  0.016923  1
