# generated using pymatgen
data_Li2Er3Tm3(Co4P3)4
_symmetry_space_group_name_H-M   'P 1'
_cell_length_a   3.68064900
_cell_length_b   10.50027900
_cell_length_c   12.07601900
_cell_angle_alpha   89.99684855
_cell_angle_beta   90.00000000
_cell_angle_gamma   90.00000000
_symmetry_Int_Tables_number   1
_chemical_formula_structural   Li2Er3Tm3(Co4P3)4
_chemical_formula_sum   'Li2 Er3 Tm3 Co16 P12'
_cell_volume   466.71206672
_cell_formula_units_Z   1
loop_
 _symmetry_equiv_pos_site_id
 _symmetry_equiv_pos_as_xyz
  1  'x, y, z'
loop_
 _atom_site_type_symbol
 _atom_site_label
 _atom_site_symmetry_multiplicity
 _atom_site_fract_x
 _atom_site_fract_y
 _atom_site_fract_z
 _atom_site_occupancy
  Li  Li0  1  0.250000  0.249992  0.846503  1
  Li  Li1  1  0.750000  0.750059  0.153519  1
  Er  Er2  1  0.750000  0.249956  0.476834  1
  Er  Er3  1  0.250000  0.750080  0.523148  1
  Er  Er4  1  0.750000  0.429963  0.206058  1
  Tm  Tm5  1  0.250000  0.929852  0.793911  1
  Tm  Tm6  1  0.250000  0.570144  0.794002  1
  Tm  Tm7  1  0.750000  0.069959  0.206072  1
  Co  Co8  1  0.250000  0.249633  0.295749  1
  Co  Co9  1  0.750000  0.750038  0.704369  1
  Co  Co10  1  0.750000  0.249846  0.012714  1
  Co  Co11  1  0.250000  0.750152  0.987005  1
  Co  Co12  1  0.250000  0.417179  0.002890  1
  Co  Co13  1  0.250000  0.082653  0.002990  1
  Co  Co14  1  0.750000  0.582984  0.996728  1
  Co  Co15  1  0.750000  0.917183  0.996932  1
  Co  Co16  1  0.250000  0.453359  0.569009  1
  Co  Co17  1  0.250000  0.046558  0.568801  1
  Co  Co18  1  0.750000  0.546747  0.431401  1
  Co  Co19  1  0.750000  0.953324  0.431197  1
  Co  Co20  1  0.250000  0.872211  0.293147  1
  Co  Co21  1  0.250000  0.628187  0.293386  1
  Co  Co22  1  0.750000  0.127825  0.706815  1
  Co  Co23  1  0.750000  0.372146  0.706869  1
  P  P24  1  0.250000  0.249693  0.115501  1
  P  P25  1  0.750000  0.750061  0.884244  1
  P  P26  1  0.250000  0.250003  0.653135  1
  P  P27  1  0.750000  0.750014  0.346905  1
  P  P28  1  0.250000  0.439298  0.383785  1
  P  P29  1  0.250000  0.060638  0.383438  1
  P  P30  1  0.750000  0.560828  0.616723  1
  P  P31  1  0.750000  0.939232  0.616576  1
  P  P32  1  0.250000  0.907351  0.107796  1
  P  P33  1  0.250000  0.592937  0.107496  1
  P  P34  1  0.750000  0.092525  0.892142  1
  P  P35  1  0.750000  0.407393  0.892209  1
