# generated using pymatgen
data_Eu4Co3GeBr2
_symmetry_space_group_name_H-M   'P 1'
_cell_length_a   4.09831700
_cell_length_b   4.09831533
_cell_length_c   17.06134400
_cell_angle_alpha   90.00000000
_cell_angle_beta   90.00000000
_cell_angle_gamma   120.00000537
_symmetry_Int_Tables_number   1
_chemical_formula_structural   Eu4Co3GeBr2
_chemical_formula_sum   'Eu4 Co3 Ge1 Br2'
_cell_volume   248.17313465
_cell_formula_units_Z   1
loop_
 _symmetry_equiv_pos_site_id
 _symmetry_equiv_pos_as_xyz
  1  'x, y, z'
loop_
 _atom_site_type_symbol
 _atom_site_label
 _atom_site_symmetry_multiplicity
 _atom_site_fract_x
 _atom_site_fract_y
 _atom_site_fract_z
 _atom_site_occupancy
  Eu  Eu0  1  0.000000  0.000000  0.112783  1
  Eu  Eu1  1  0.000000  0.000000  0.887044  1
  Eu  Eu2  1  0.000000  0.000000  0.617429  1
  Eu  Eu3  1  0.000000  0.000000  0.382978  1
  Co  Co4  1  0.666667  0.333333  0.499206  1
  Co  Co5  1  0.666667  0.333333  0.002025  1
  Co  Co6  1  0.333333  0.666667  0.997632  1
  Ge  Ge7  1  0.333333  0.666667  0.500981  1
  Br  Br8  1  0.333333  0.666667  0.250629  1
  Br  Br9  1  0.666667  0.333333  0.749293  1
