# generated using pymatgen
data_Pr6Ho10Cd4RuPt3
_symmetry_space_group_name_H-M   'P 1'
_cell_length_a   9.79165558
_cell_length_b   9.79185858
_cell_length_c   9.79138529
_cell_angle_alpha   59.89689061
_cell_angle_beta   59.89910305
_cell_angle_gamma   59.90018548
_symmetry_Int_Tables_number   1
_chemical_formula_structural   Pr6Ho10Cd4RuPt3
_chemical_formula_sum   'Pr6 Ho10 Cd4 Ru1 Pt3'
_cell_volume   662.29492381
_cell_formula_units_Z   1
loop_
 _symmetry_equiv_pos_site_id
 _symmetry_equiv_pos_as_xyz
  1  'x, y, z'
loop_
 _atom_site_type_symbol
 _atom_site_label
 _atom_site_symmetry_multiplicity
 _atom_site_fract_x
 _atom_site_fract_y
 _atom_site_fract_z
 _atom_site_occupancy
  Pr  Pr0  1  0.938482  0.561403  0.561424  1
  Pr  Pr1  1  0.557574  0.939385  0.939395  1
  Pr  Pr2  1  0.561383  0.938507  0.561395  1
  Pr  Pr3  1  0.939392  0.557507  0.939508  1
  Pr  Pr4  1  0.561406  0.561404  0.938460  1
  Pr  Pr5  1  0.939416  0.939490  0.557460  1
  Ho  Ho6  1  0.350817  0.350828  0.350773  1
  Ho  Ho7  1  0.346718  0.346687  0.955997  1
  Ho  Ho8  1  0.346677  0.956010  0.346741  1
  Ho  Ho9  1  0.956003  0.346706  0.346786  1
  Ho  Ho10  1  0.817981  0.185947  0.185965  1
  Ho  Ho11  1  0.185789  0.812049  0.812061  1
  Ho  Ho12  1  0.186000  0.817939  0.185971  1
  Ho  Ho13  1  0.812037  0.185784  0.812042  1
  Ho  Ho14  1  0.186060  0.185959  0.817957  1
  Ho  Ho15  1  0.812032  0.812040  0.185785  1
  Cd  Cd16  1  0.579006  0.579017  0.578973  1
  Cd  Cd17  1  0.579312  0.579306  0.261776  1
  Cd  Cd18  1  0.579309  0.261791  0.579281  1
  Cd  Cd19  1  0.261762  0.579319  0.579286  1
  Ru  Ru20  1  0.142184  0.142225  0.142263  1
  Pt  Pt21  1  0.143479  0.143511  0.573761  1
  Pt  Pt22  1  0.143474  0.573702  0.143470  1
  Pt  Pt23  1  0.573706  0.143485  0.143468  1
