# generated using pymatgen
data_Tb2YTm(Mo2O7)2
_symmetry_space_group_name_H-M   'P 1'
_cell_length_a   7.37585379
_cell_length_b   7.37585492
_cell_length_c   7.33641551
_cell_angle_alpha   60.29157682
_cell_angle_beta   60.29157081
_cell_angle_gamma   59.78869912
_symmetry_Int_Tables_number   1
_chemical_formula_structural   Tb2YTm(Mo2O7)2
_chemical_formula_sum   'Tb2 Y1 Tm1 Mo4 O14'
_cell_volume   283.00182977
_cell_formula_units_Z   1
loop_
 _symmetry_equiv_pos_site_id
 _symmetry_equiv_pos_as_xyz
  1  'x, y, z'
loop_
 _atom_site_type_symbol
 _atom_site_label
 _atom_site_symmetry_multiplicity
 _atom_site_fract_x
 _atom_site_fract_y
 _atom_site_fract_z
 _atom_site_occupancy
  Tb  Tb0  1  0.625000  0.125000  0.125000  1
  Tb  Tb1  1  0.125000  0.625000  0.125000  1
  Y  Y2  1  0.125000  0.125000  0.625000  1
  Tm  Tm3  1  0.125000  0.125000  0.125000  1
  Mo  Mo4  1  0.625000  0.625000  0.625000  1
  Mo  Mo5  1  0.125000  0.625000  0.625000  1
  Mo  Mo6  1  0.625000  0.625000  0.125000  1
  Mo  Mo7  1  0.625000  0.125000  0.625000  1
  O  O8  1  0.002410  0.002410  0.000537  1
  O  O9  1  0.247590  0.247590  0.249463  1
  O  O10  1  0.279488  0.279488  0.724814  1
  O  O11  1  0.529355  0.529355  0.970279  1
  O  O12  1  0.710880  0.288656  0.711543  1
  O  O13  1  0.713461  0.288314  0.288171  1
  O  O14  1  0.288656  0.710880  0.711543  1
  O  O15  1  0.288314  0.713461  0.288171  1
  O  O16  1  0.720645  0.720645  0.279721  1
  O  O17  1  0.961344  0.539120  0.538457  1
  O  O18  1  0.536539  0.961686  0.961829  1
  O  O19  1  0.970512  0.970512  0.525186  1
  O  O20  1  0.961686  0.536539  0.961829  1
  O  O21  1  0.539120  0.961344  0.538457  1
