# generated using pymatgen
data_TmLu3Ga5Tc3
_symmetry_space_group_name_H-M   'P 1'
_cell_length_a   5.42781941
_cell_length_b   5.46500398
_cell_length_c   8.64565806
_cell_angle_alpha   90.00000020
_cell_angle_beta   90.01156116
_cell_angle_gamma   120.22686505
_symmetry_Int_Tables_number   1
_chemical_formula_structural   TmLu3Ga5Tc3
_chemical_formula_sum   'Tm1 Lu3 Ga5 Tc3'
_cell_volume   221.58848336
_cell_formula_units_Z   1
loop_
 _symmetry_equiv_pos_site_id
 _symmetry_equiv_pos_as_xyz
  1  'x, y, z'
loop_
 _atom_site_type_symbol
 _atom_site_label
 _atom_site_symmetry_multiplicity
 _atom_site_fract_x
 _atom_site_fract_y
 _atom_site_fract_z
 _atom_site_occupancy
  Tm  Tm0  1  0.335153  0.667577  0.056589  1
  Lu  Lu1  1  0.335416  0.667708  0.443716  1
  Lu  Lu2  1  0.662004  0.331002  0.552422  1
  Lu  Lu3  1  0.661919  0.330959  0.947498  1
  Ga  Ga4  1  0.836043  0.166092  0.250098  1
  Ga  Ga5  1  0.836043  0.669951  0.250098  1
  Ga  Ga6  1  0.328668  0.164333  0.250019  1
  Ga  Ga7  1  0.188010  0.839631  0.749868  1
  Ga  Ga8  1  0.188010  0.348380  0.749868  1
  Tc  Tc9  1  0.975757  0.987878  0.509754  1
  Tc  Tc10  1  0.975882  0.987940  0.990063  1
  Tc  Tc11  1  0.677097  0.838549  0.750008  1
