# generated using pymatgen
data_RbUCl4O
_symmetry_space_group_name_H-M   'P 1'
_cell_length_a   7.35167090
_cell_length_b   7.35166994
_cell_length_c   8.04599721
_cell_angle_alpha   108.76476091
_cell_angle_beta   108.76475815
_cell_angle_gamma   32.86684411
_symmetry_Int_Tables_number   1
_chemical_formula_structural   RbUCl4O
_chemical_formula_sum   'Rb1 U1 Cl4 O1'
_cell_volume   222.32638400
_cell_formula_units_Z   1
loop_
 _symmetry_equiv_pos_site_id
 _symmetry_equiv_pos_as_xyz
  1  'x, y, z'
loop_
 _atom_site_type_symbol
 _atom_site_label
 _atom_site_symmetry_multiplicity
 _atom_site_fract_x
 _atom_site_fract_y
 _atom_site_fract_z
 _atom_site_occupancy
  Rb  Rb0  1  0.996523  0.003478  0.500000  1
  U  U1  1  0.501571  0.498430  0.000000  1
  Cl  Cl2  1  0.368481  0.368846  0.159631  1
  Cl  Cl3  1  0.634259  0.634038  0.312574  1
  Cl  Cl4  1  0.365962  0.365741  0.687426  1
  Cl  Cl5  1  0.631155  0.631519  0.840369  1
  O  O6  1  0.001342  0.998658  0.000000  1
