# generated using pymatgen
data_CeNd4Zn2Ru3
_symmetry_space_group_name_H-M   'P 1'
_cell_length_a   8.66756475
_cell_length_b   8.55063689
_cell_length_c   8.52809200
_cell_angle_alpha   110.10848228
_cell_angle_beta   109.12144024
_cell_angle_gamma   110.42288436
_symmetry_Int_Tables_number   1
_chemical_formula_structural   CeNd4Zn2Ru3
_chemical_formula_sum   'Ce2 Nd8 Zn4 Ru6'
_cell_volume   478.91270408
_cell_formula_units_Z   2
loop_
 _symmetry_equiv_pos_site_id
 _symmetry_equiv_pos_as_xyz
  1  'x, y, z'
loop_
 _atom_site_type_symbol
 _atom_site_label
 _atom_site_symmetry_multiplicity
 _atom_site_fract_x
 _atom_site_fract_y
 _atom_site_fract_z
 _atom_site_occupancy
  Ce  Ce0  1  0.945056  0.249814  0.196877  1
  Ce  Ce1  1  0.197643  0.944857  0.250013  1
  Nd  Nd2  1  0.778265  0.782750  0.776735  1
  Nd  Nd3  1  0.313307  0.560563  0.752796  1
  Nd  Nd4  1  0.751117  0.312191  0.563671  1
  Nd  Nd5  1  0.565143  0.750127  0.310562  1
  Nd  Nd6  1  0.729141  0.503517  0.998920  1
  Nd  Nd7  1  0.999298  0.725225  0.503938  1
  Nd  Nd8  1  0.500843  0.991773  0.721430  1
  Nd  Nd9  1  0.253411  0.191854  0.937556  1
  Zn  Zn10  1  0.417473  0.411578  0.411436  1
  Zn  Zn11  1  0.087778  0.490728  0.000724  1
  Zn  Zn12  1  0.999721  0.087035  0.498520  1
  Zn  Zn13  1  0.503304  0.014201  0.093132  1
  Ru  Ru14  1  0.863813  0.111844  0.735203  1
  Ru  Ru15  1  0.761528  0.915434  0.121806  1
  Ru  Ru16  1  0.129579  0.771485  0.922849  1
  Ru  Ru17  1  0.214065  0.578417  0.364809  1
  Ru  Ru18  1  0.359296  0.212254  0.587751  1
  Ru  Ru19  1  0.630217  0.394351  0.251270  1
