# generated using pymatgen
data_Sc22FeIr6Os
_symmetry_space_group_name_H-M   'P 1'
_cell_length_a   9.44664068
_cell_length_b   9.44664140
_cell_length_c   9.44664100
_cell_angle_alpha   60.00000490
_cell_angle_beta   60.00000236
_cell_angle_gamma   60.00000613
_symmetry_Int_Tables_number   1
_chemical_formula_structural   Sc22FeIr6Os
_chemical_formula_sum   'Sc22 Fe1 Ir6 Os1'
_cell_volume   596.09747626
_cell_formula_units_Z   1
loop_
 _symmetry_equiv_pos_site_id
 _symmetry_equiv_pos_as_xyz
  1  'x, y, z'
loop_
 _atom_site_type_symbol
 _atom_site_label
 _atom_site_symmetry_multiplicity
 _atom_site_fract_x
 _atom_site_fract_y
 _atom_site_fract_z
 _atom_site_occupancy
  Sc  Sc0  1  0.802858  0.802858  0.197142  1
  Sc  Sc1  1  0.197142  0.802858  0.197142  1
  Sc  Sc2  1  0.802858  0.197142  0.197142  1
  Sc  Sc3  1  0.197142  0.197142  0.802858  1
  Sc  Sc4  1  0.802858  0.197142  0.802858  1
  Sc  Sc5  1  0.197142  0.802858  0.802858  1
  Sc  Sc6  1  0.614746  0.614746  0.155763  1
  Sc  Sc7  1  0.614746  0.155763  0.614746  1
  Sc  Sc8  1  0.155763  0.614746  0.614746  1
  Sc  Sc9  1  0.614746  0.614746  0.614746  1
  Sc  Sc10  1  0.385254  0.385254  0.844237  1
  Sc  Sc11  1  0.385254  0.844237  0.385254  1
  Sc  Sc12  1  0.844237  0.385254  0.385254  1
  Sc  Sc13  1  0.385254  0.385254  0.385254  1
  Sc  Sc14  1  0.842783  0.842783  0.471651  1
  Sc  Sc15  1  0.842783  0.471651  0.842783  1
  Sc  Sc16  1  0.471651  0.842783  0.842783  1
  Sc  Sc17  1  0.842783  0.842783  0.842783  1
  Sc  Sc18  1  0.157217  0.157217  0.528349  1
  Sc  Sc19  1  0.157217  0.528349  0.157217  1
  Sc  Sc20  1  0.528349  0.157217  0.157217  1
  Sc  Sc21  1  0.157217  0.157217  0.157217  1
  Fe  Fe22  1  0.500000  0.500000  0.500000  1
  Ir  Ir23  1  0.000000  0.000000  0.500000  1
  Ir  Ir24  1  0.500000  0.000000  0.500000  1
  Ir  Ir25  1  0.000000  0.500000  0.500000  1
  Ir  Ir26  1  0.500000  0.500000  0.000000  1
  Ir  Ir27  1  0.000000  0.500000  0.000000  1
  Ir  Ir28  1  0.500000  0.000000  0.000000  1
  Os  Os29  1  0.000000  0.000000  0.000000  1
