# generated using pymatgen
data_Cs3Li3(NbSe4)2
_symmetry_space_group_name_H-M   'P 1'
_cell_length_a   13.55007720
_cell_length_b   13.55007594
_cell_length_c   15.70187600
_cell_angle_alpha   62.73440447
_cell_angle_beta   62.73440721
_cell_angle_gamma   26.53365636
_symmetry_Int_Tables_number   1
_chemical_formula_structural   Cs3Li3(NbSe4)2
_chemical_formula_sum   'Cs6 Li6 Nb4 Se16'
_cell_volume   1136.29924596
_cell_formula_units_Z   2
loop_
 _symmetry_equiv_pos_site_id
 _symmetry_equiv_pos_as_xyz
  1  'x, y, z'
loop_
 _atom_site_type_symbol
 _atom_site_label
 _atom_site_symmetry_multiplicity
 _atom_site_fract_x
 _atom_site_fract_y
 _atom_site_fract_z
 _atom_site_occupancy
  Cs  Cs0  1  0.632307  0.755527  0.401750  1
  Cs  Cs1  1  0.000000  0.000000  0.000000  1
  Cs  Cs2  1  0.755527  0.632307  0.901750  1
  Cs  Cs3  1  0.000000  0.000000  0.500000  1
  Cs  Cs4  1  0.244473  0.367693  0.098250  1
  Cs  Cs5  1  0.367693  0.244473  0.598250  1
  Li  Li6  1  0.300446  0.699554  0.750000  1
  Li  Li7  1  0.329680  0.913833  0.215199  1
  Li  Li8  1  0.913833  0.329680  0.715199  1
  Li  Li9  1  0.086167  0.670320  0.284801  1
  Li  Li10  1  0.699554  0.300446  0.250000  1
  Li  Li11  1  0.670320  0.086167  0.784801  1
  Nb  Nb12  1  0.581331  0.167184  0.277724  1
  Nb  Nb13  1  0.167184  0.581331  0.777724  1
  Nb  Nb14  1  0.832816  0.418669  0.222276  1
  Nb  Nb15  1  0.418669  0.832816  0.722276  1
  Se  Se16  1  0.469255  0.436161  0.665562  1
  Se  Se17  1  0.201823  0.108732  0.809146  1
  Se  Se18  1  0.436161  0.469255  0.165562  1
  Se  Se19  1  0.798177  0.891268  0.190854  1
  Se  Se20  1  0.563839  0.530745  0.834438  1
  Se  Se21  1  0.320677  0.270829  0.877817  1
  Se  Se22  1  0.729171  0.679323  0.622183  1
  Se  Se23  1  0.270829  0.320677  0.377817  1
  Se  Se24  1  0.891268  0.798177  0.690854  1
  Se  Se25  1  0.175212  0.006982  0.629563  1
  Se  Se26  1  0.679323  0.729171  0.122183  1
  Se  Se27  1  0.530745  0.563839  0.334438  1
  Se  Se28  1  0.993018  0.824788  0.870437  1
  Se  Se29  1  0.108732  0.201823  0.309146  1
  Se  Se30  1  0.824788  0.993018  0.370437  1
  Se  Se31  1  0.006982  0.175212  0.129563  1
