# generated using pymatgen
data_TbMgB6Os
_symmetry_space_group_name_H-M   'P 1'
_cell_length_a   3.58257500
_cell_length_b   8.90839800
_cell_length_c   11.28970900
_cell_angle_alpha   90.00000000
_cell_angle_beta   90.00000000
_cell_angle_gamma   90.00000000
_symmetry_Int_Tables_number   1
_chemical_formula_structural   TbMgB6Os
_chemical_formula_sum   'Tb4 Mg4 B24 Os4'
_cell_volume   360.31110750
_cell_formula_units_Z   4
loop_
 _symmetry_equiv_pos_site_id
 _symmetry_equiv_pos_as_xyz
  1  'x, y, z'
loop_
 _atom_site_type_symbol
 _atom_site_label
 _atom_site_symmetry_multiplicity
 _atom_site_fract_x
 _atom_site_fract_y
 _atom_site_fract_z
 _atom_site_occupancy
  Tb  Tb0  1  0.000000  0.323305  0.413672  1
  Tb  Tb1  1  0.000000  0.676695  0.586328  1
  Tb  Tb2  1  0.000000  0.823305  0.086328  1
  Tb  Tb3  1  0.000000  0.176695  0.913672  1
  Mg  Mg4  1  0.000000  0.943943  0.371624  1
  Mg  Mg5  1  0.000000  0.056057  0.628376  1
  Mg  Mg6  1  0.000000  0.443943  0.128376  1
  Mg  Mg7  1  0.000000  0.556057  0.871624  1
  B  B8  1  0.500000  0.555946  0.431929  1
  B  B9  1  0.500000  0.444054  0.568071  1
  B  B10  1  0.500000  0.055946  0.068071  1
  B  B11  1  0.500000  0.944054  0.931929  1
  B  B12  1  0.500000  0.755288  0.417788  1
  B  B13  1  0.500000  0.244712  0.582212  1
  B  B14  1  0.500000  0.255288  0.082212  1
  B  B15  1  0.500000  0.744712  0.917788  1
  B  B16  1  0.500000  0.793592  0.263410  1
  B  B17  1  0.500000  0.206408  0.736589  1
  B  B18  1  0.500000  0.293592  0.236590  1
  B  B19  1  0.500000  0.706408  0.763411  1
  B  B20  1  0.500000  0.627546  0.182475  1
  B  B21  1  0.500000  0.372454  0.817525  1
  B  B22  1  0.500000  0.127546  0.317525  1
  B  B23  1  0.500000  0.872454  0.682475  1
  B  B24  1  0.500000  0.981103  0.213458  1
  B  B25  1  0.500000  0.018897  0.786542  1
  B  B26  1  0.500000  0.481103  0.286542  1
  B  B27  1  0.500000  0.518897  0.713458  1
  B  B28  1  0.500000  0.592234  0.025295  1
  B  B29  1  0.500000  0.407766  0.974705  1
  B  B30  1  0.500000  0.092234  0.474705  1
  B  B31  1  0.500000  0.907766  0.525295  1
  Os  Os32  1  0.000000  0.640925  0.317940  1
  Os  Os33  1  0.000000  0.359075  0.682060  1
  Os  Os34  1  0.000000  0.140925  0.182060  1
  Os  Os35  1  0.000000  0.859075  0.817940  1
