# generated using pymatgen
data_TeI5
_symmetry_space_group_name_H-M   'P 1'
_cell_length_a   10.58752757
_cell_length_b   10.74287905
_cell_length_c   16.80650086
_cell_angle_alpha   96.14417831
_cell_angle_beta   95.79990784
_cell_angle_gamma   107.64448254
_symmetry_Int_Tables_number   1
_chemical_formula_structural   TeI5
_chemical_formula_sum   'Te4 I20'
_cell_volume   1793.11932484
_cell_formula_units_Z   4
loop_
 _symmetry_equiv_pos_site_id
 _symmetry_equiv_pos_as_xyz
  1  'x, y, z'
loop_
 _atom_site_type_symbol
 _atom_site_label
 _atom_site_symmetry_multiplicity
 _atom_site_fract_x
 _atom_site_fract_y
 _atom_site_fract_z
 _atom_site_occupancy
  Te  Te0  1  0.911225  0.945263  0.840309  1
  Te  Te1  1  0.298960  0.293839  0.834199  1
  Te  Te2  1  0.801331  0.808187  0.331966  1
  Te  Te3  1  0.420595  0.454399  0.341499  1
  I  I4  1  0.454763  0.477835  0.509983  1
  I  I5  1  0.394767  0.173359  0.321450  1
  I  I6  1  0.570129  0.311152  0.850435  1
  I  I7  1  0.734608  0.513314  0.335814  1
  I  I8  1  0.878421  0.663666  0.815401  1
  I  I9  1  0.147776  0.430312  0.325012  1
  I  I10  1  0.639412  0.924421  0.815185  1
  I  I11  1  0.984672  0.240915  0.837776  1
  I  I12  1  0.354085  0.447070  0.024487  1
  I  I13  1  0.371223  0.300181  0.152337  1
  I  I14  1  0.074301  0.833685  0.353524  1
  I  I15  1  0.842451  0.950458  0.523291  1
  I  I16  1  0.921324  0.952859  0.009509  1
  I  I17  1  0.266499  0.272623  0.665872  1
  I  I18  1  0.226452  0.999811  0.844021  1
  I  I19  1  0.334062  0.576329  0.855656  1
  I  I20  1  0.827754  0.088734  0.356966  1
  I  I21  1  0.786142  0.800480  0.162624  1
  I  I22  1  0.865744  0.802766  0.649144  1
  I  I23  1  0.484506  0.746943  0.329838  1
