# generated using pymatgen
data_HoErSc3(In2Pt)2
_symmetry_space_group_name_H-M   'P 1'
_cell_length_a   3.55252300
_cell_length_b   7.86649831
_cell_length_c   17.71224395
_cell_angle_alpha   90.06614313
_cell_angle_beta   90.00000000
_cell_angle_gamma   90.00000000
_symmetry_Int_Tables_number   1
_chemical_formula_structural   HoErSc3(In2Pt)2
_chemical_formula_sum   'Ho2 Er2 Sc6 In8 Pt4'
_cell_volume   494.98455493
_cell_formula_units_Z   2
loop_
 _symmetry_equiv_pos_site_id
 _symmetry_equiv_pos_as_xyz
  1  'x, y, z'
loop_
 _atom_site_type_symbol
 _atom_site_label
 _atom_site_symmetry_multiplicity
 _atom_site_fract_x
 _atom_site_fract_y
 _atom_site_fract_z
 _atom_site_occupancy
  Ho  Ho0  1  0.000000  0.243252  0.219615  1
  Ho  Ho1  1  0.000000  0.756748  0.780385  1
  Er  Er2  1  0.000000  0.256726  0.719626  1
  Er  Er3  1  0.000000  0.743274  0.280374  1
  Sc  Sc4  1  0.000000  0.116522  0.416022  1
  Sc  Sc5  1  0.000000  0.883478  0.583978  1
  Sc  Sc6  1  0.000000  0.383407  0.916016  1
  Sc  Sc7  1  0.000000  0.616593  0.083984  1
  Sc  Sc8  1  0.000000  0.000000  0.000000  1
  Sc  Sc9  1  0.000000  0.500000  0.500000  1
  In  In10  1  0.500000  0.419312  0.355576  1
  In  In11  1  0.500000  0.580688  0.644424  1
  In  In12  1  0.500000  0.080979  0.855534  1
  In  In13  1  0.500000  0.919021  0.144466  1
  In  In14  1  0.500000  0.294352  0.061092  1
  In  In15  1  0.500000  0.705648  0.938908  1
  In  In16  1  0.500000  0.205758  0.561176  1
  In  In17  1  0.500000  0.794242  0.438824  1
  Pt  Pt18  1  0.500000  0.029482  0.308218  1
  Pt  Pt19  1  0.500000  0.970518  0.691782  1
  Pt  Pt20  1  0.500000  0.469605  0.808094  1
  Pt  Pt21  1  0.500000  0.530395  0.191906  1
