# generated using pymatgen
data_Dy3SnPt(RhPb)2
_symmetry_space_group_name_H-M   'P 1'
_cell_length_a   7.70452160
_cell_length_b   7.67616189
_cell_length_c   3.89030500
_cell_angle_alpha   90.00000000
_cell_angle_beta   90.00000000
_cell_angle_gamma   119.76052690
_symmetry_Int_Tables_number   1
_chemical_formula_structural   Dy3SnPt(RhPb)2
_chemical_formula_sum   'Dy3 Sn1 Pt1 Rh2 Pb2'
_cell_volume   199.73171326
_cell_formula_units_Z   1
loop_
 _symmetry_equiv_pos_site_id
 _symmetry_equiv_pos_as_xyz
  1  'x, y, z'
loop_
 _atom_site_type_symbol
 _atom_site_label
 _atom_site_symmetry_multiplicity
 _atom_site_fract_x
 _atom_site_fract_y
 _atom_site_fract_z
 _atom_site_occupancy
  Dy  Dy0  1  0.399681  0.407881  0.500000  1
  Dy  Dy1  1  0.596413  0.000347  0.500000  1
  Dy  Dy2  1  0.004193  0.592945  0.500000  1
  Sn  Sn3  1  0.004597  0.263000  0.000000  1
  Pt  Pt4  1  0.673824  0.330786  0.000000  1
  Rh  Rh5  1  0.325911  0.656657  0.000000  1
  Rh  Rh6  1  0.999703  0.011497  0.500000  1
  Pb  Pb7  1  0.735989  0.740538  0.000000  1
  Pb  Pb8  1  0.259689  0.996349  0.000000  1
