# generated using pymatgen
data_Gd3Y(MoN3)4
_symmetry_space_group_name_H-M   'P 1'
_cell_length_a   7.34431056
_cell_length_b   7.34431037
_cell_length_c   6.29716900
_cell_angle_alpha   73.81006754
_cell_angle_beta   73.81006798
_cell_angle_gamma   82.08396808
_symmetry_Int_Tables_number   1
_chemical_formula_structural   Gd3Y(MoN3)4
_chemical_formula_sum   'Gd3 Y1 Mo4 N12'
_cell_volume   312.59316068
_cell_formula_units_Z   1
loop_
 _symmetry_equiv_pos_site_id
 _symmetry_equiv_pos_as_xyz
  1  'x, y, z'
loop_
 _atom_site_type_symbol
 _atom_site_label
 _atom_site_symmetry_multiplicity
 _atom_site_fract_x
 _atom_site_fract_y
 _atom_site_fract_z
 _atom_site_occupancy
  Gd  Gd0  1  0.703453  0.296547  0.250000  1
  Gd  Gd1  1  0.088121  0.911879  0.250000  1
  Gd  Gd2  1  0.296624  0.703376  0.750000  1
  Y  Y3  1  0.911494  0.088506  0.750000  1
  Mo  Mo4  1  0.800345  0.619829  0.768502  1
  Mo  Mo5  1  0.199890  0.379758  0.232444  1
  Mo  Mo6  1  0.620242  0.800110  0.267556  1
  Mo  Mo7  1  0.380171  0.199655  0.731498  1
  N  N8  1  0.218675  0.000523  0.845344  1
  N  N9  1  0.360668  0.351926  0.441563  1
  N  N10  1  0.641111  0.649394  0.557503  1
  N  N11  1  0.622503  0.112112  0.659899  1
  N  N12  1  0.999477  0.781325  0.654656  1
  N  N13  1  0.780325  0.000380  0.151331  1
  N  N14  1  0.112594  0.621882  0.158137  1
  N  N15  1  0.887888  0.377497  0.840101  1
  N  N16  1  0.999620  0.219675  0.348669  1
  N  N17  1  0.350606  0.358889  0.942497  1
  N  N18  1  0.648074  0.639332  0.058437  1
  N  N19  1  0.378118  0.887406  0.341863  1
