# generated using pymatgen
data_Ho6Er10MgCd3Pd4
_symmetry_space_group_name_H-M   'P 1'
_cell_length_a   9.63688844
_cell_length_b   9.63706930
_cell_length_c   9.63686704
_cell_angle_alpha   59.94446689
_cell_angle_beta   59.95309721
_cell_angle_gamma   59.93713803
_symmetry_Int_Tables_number   1
_chemical_formula_structural   Ho6Er10MgCd3Pd4
_chemical_formula_sum   'Ho6 Er10 Mg1 Cd3 Pd4'
_cell_volume   632.06188396
_cell_formula_units_Z   1
loop_
 _symmetry_equiv_pos_site_id
 _symmetry_equiv_pos_as_xyz
  1  'x, y, z'
loop_
 _atom_site_type_symbol
 _atom_site_label
 _atom_site_symmetry_multiplicity
 _atom_site_fract_x
 _atom_site_fract_y
 _atom_site_fract_z
 _atom_site_occupancy
  Ho  Ho0  1  0.933684  0.567051  0.567165  1
  Ho  Ho1  1  0.564729  0.935416  0.935356  1
  Ho  Ho2  1  0.567067  0.933696  0.567107  1
  Ho  Ho3  1  0.935442  0.564639  0.935427  1
  Ho  Ho4  1  0.567133  0.567098  0.933673  1
  Ho  Ho5  1  0.935355  0.935408  0.564754  1
  Er  Er6  1  0.351101  0.350955  0.351095  1
  Er  Er7  1  0.354934  0.354836  0.939029  1
  Er  Er8  1  0.354978  0.938993  0.354908  1
  Er  Er9  1  0.938989  0.354911  0.354883  1
  Er  Er10  1  0.810305  0.190810  0.190765  1
  Er  Er11  1  0.188401  0.812427  0.812329  1
  Er  Er12  1  0.190797  0.810397  0.190735  1
  Er  Er13  1  0.812298  0.188459  0.812422  1
  Er  Er14  1  0.190784  0.190793  0.810352  1
  Er  Er15  1  0.812298  0.812455  0.188386  1
  Mg  Mg16  1  0.577195  0.577082  0.577071  1
  Cd  Cd17  1  0.581340  0.581344  0.252832  1
  Cd  Cd18  1  0.581346  0.252801  0.581366  1
  Cd  Cd19  1  0.252820  0.581332  0.581351  1
  Pd  Pd20  1  0.145373  0.145411  0.145329  1
  Pd  Pd21  1  0.142708  0.142734  0.568239  1
  Pd  Pd22  1  0.142721  0.568219  0.142709  1
  Pd  Pd23  1  0.568202  0.142733  0.142718  1
