# generated using pymatgen
data_Y15Tm5Ir7Rh5
_symmetry_space_group_name_H-M   'P 1'
_cell_length_a   10.89604910
_cell_length_b   10.89582588
_cell_length_c   6.37977721
_cell_angle_alpha   90.02651744
_cell_angle_beta   89.99171900
_cell_angle_gamma   89.91790536
_symmetry_Int_Tables_number   1
_chemical_formula_structural   Y15Tm5Ir7Rh5
_chemical_formula_sum   'Y15 Tm5 Ir7 Rh5'
_cell_volume   757.41555801
_cell_formula_units_Z   1
loop_
 _symmetry_equiv_pos_site_id
 _symmetry_equiv_pos_as_xyz
  1  'x, y, z'
loop_
 _atom_site_type_symbol
 _atom_site_label
 _atom_site_symmetry_multiplicity
 _atom_site_fract_x
 _atom_site_fract_y
 _atom_site_fract_z
 _atom_site_occupancy
  Y  Y0  1  0.288479  0.088987  0.379253  1
  Y  Y1  1  0.289686  0.911505  0.878572  1
  Y  Y2  1  0.709693  0.088109  0.878363  1
  Y  Y3  1  0.709759  0.909753  0.379431  1
  Y  Y4  1  0.588320  0.789404  0.879288  1
  Y  Y5  1  0.586779  0.210657  0.378756  1
  Y  Y6  1  0.411075  0.789579  0.379133  1
  Y  Y7  1  0.411274  0.210331  0.879017  1
  Y  Y8  1  0.210398  0.411232  0.620711  1
  Y  Y9  1  0.210385  0.588181  0.120781  1
  Y  Y10  1  0.789848  0.412945  0.121023  1
  Y  Y11  1  0.789886  0.588458  0.620949  1
  Y  Y12  1  0.911854  0.710747  0.120430  1
  Y  Y13  1  0.912439  0.290156  0.621777  1
  Y  Y14  1  0.088264  0.710152  0.621114  1
  Tm  Tm15  1  0.090231  0.291666  0.118762  1
  Tm  Tm16  1  0.999999  0.999838  0.500375  1
  Tm  Tm17  1  0.000580  0.000856  0.000657  1
  Tm  Tm18  1  0.499901  0.499527  0.999999  1
  Tm  Tm19  1  0.500137  0.499907  0.500049  1
  Ir  Ir20  1  0.848177  0.849191  0.750159  1
  Ir  Ir21  1  0.150439  0.152958  0.752770  1
  Ir  Ir22  1  0.151770  0.848323  0.250138  1
  Ir  Ir23  1  0.652599  0.347389  0.749922  1
  Ir  Ir24  1  0.651976  0.651422  0.249775  1
  Ir  Ir25  1  0.346718  0.347771  0.249256  1
  Ir  Ir26  1  0.348178  0.651737  0.750024  1
  Rh  Rh27  1  0.849368  0.152711  0.249375  1
  Rh  Rh28  1  0.500417  0.000278  0.125250  1
  Rh  Rh29  1  0.500390  0.000260  0.624342  1
  Rh  Rh30  1  0.000499  0.498025  0.877137  1
  Rh  Rh31  1  0.000484  0.497944  0.373413  1
