# generated using pymatgen
data_NpRuI18
_symmetry_space_group_name_H-M   'P 1'
_cell_length_a   10.21137332
_cell_length_b   10.29965963
_cell_length_c   10.21679042
_cell_angle_alpha   93.21809385
_cell_angle_beta   93.19227656
_cell_angle_gamma   92.97406940
_symmetry_Int_Tables_number   1
_chemical_formula_structural   NpRuI18
_chemical_formula_sum   'Np1 Ru1 I18'
_cell_volume   1069.54595870
_cell_formula_units_Z   1
loop_
 _symmetry_equiv_pos_site_id
 _symmetry_equiv_pos_as_xyz
  1  'x, y, z'
loop_
 _atom_site_type_symbol
 _atom_site_label
 _atom_site_symmetry_multiplicity
 _atom_site_fract_x
 _atom_site_fract_y
 _atom_site_fract_z
 _atom_site_occupancy
  Np  Np0  1  0.500000  0.500000  0.500000  1
  Ru  Ru1  1  0.000000  0.000000  0.000000  1
  I  I2  1  0.794758  0.483658  0.522873  1
  I  I3  1  0.521210  0.792220  0.483850  1
  I  I4  1  0.484406  0.522937  0.794840  1
  I  I5  1  0.205242  0.516342  0.477127  1
  I  I6  1  0.478790  0.207780  0.516150  1
  I  I7  1  0.515594  0.477063  0.205160  1
  I  I8  1  0.905868  0.360621  0.769643  1
  I  I9  1  0.768675  0.903429  0.361650  1
  I  I10  1  0.361978  0.769344  0.905177  1
  I  I11  1  0.094132  0.639379  0.230357  1
  I  I12  1  0.231325  0.096571  0.638350  1
  I  I13  1  0.638022  0.230656  0.094823  1
  I  I14  1  0.002119  0.970948  0.736460  1
  I  I15  1  0.736611  0.002699  0.970361  1
  I  I16  1  0.969443  0.738706  0.001252  1
  I  I17  1  0.997881  0.029052  0.263540  1
  I  I18  1  0.263389  0.997301  0.029639  1
  I  I19  1  0.030557  0.261294  0.998748  1
