# generated using pymatgen
data_DyTmCo4(PIr)6
_symmetry_space_group_name_H-M   'P 1'
_cell_length_a   3.85920500
_cell_length_b   10.58830400
_cell_length_c   12.18507400
_cell_angle_alpha   90.00000000
_cell_angle_beta   90.00000000
_cell_angle_gamma   90.00000000
_symmetry_Int_Tables_number   1
_chemical_formula_structural   DyTmCo4(PIr)6
_chemical_formula_sum   'Dy2 Tm2 Co8 P12 Ir12'
_cell_volume   497.91180329
_cell_formula_units_Z   2
loop_
 _symmetry_equiv_pos_site_id
 _symmetry_equiv_pos_as_xyz
  1  'x, y, z'
loop_
 _atom_site_type_symbol
 _atom_site_label
 _atom_site_symmetry_multiplicity
 _atom_site_fract_x
 _atom_site_fract_y
 _atom_site_fract_z
 _atom_site_occupancy
  Dy  Dy0  1  0.250000  0.584648  0.710635  1
  Dy  Dy1  1  0.250000  0.915352  0.210635  1
  Tm  Tm2  1  0.750000  0.415244  0.289504  1
  Tm  Tm3  1  0.750000  0.084756  0.789504  1
  Co  Co4  1  0.250000  0.884460  0.697261  1
  Co  Co5  1  0.250000  0.615540  0.197261  1
  Co  Co6  1  0.750000  0.116365  0.303028  1
  Co  Co7  1  0.750000  0.383635  0.803028  1
  Co  Co8  1  0.250000  0.463830  0.933798  1
  Co  Co9  1  0.250000  0.036170  0.433798  1
  Co  Co10  1  0.750000  0.535652  0.066799  1
  Co  Co11  1  0.750000  0.964348  0.566799  1
  P  P12  1  0.250000  0.432278  0.111612  1
  P  P13  1  0.250000  0.067722  0.611612  1
  P  P14  1  0.750000  0.567699  0.889184  1
  P  P15  1  0.750000  0.932301  0.389184  1
  P  P16  1  0.250000  0.274389  0.870270  1
  P  P17  1  0.250000  0.225611  0.370270  1
  P  P18  1  0.750000  0.725251  0.129448  1
  P  P19  1  0.750000  0.774749  0.629448  1
  P  P20  1  0.250000  0.597366  0.376490  1
  P  P21  1  0.250000  0.902634  0.876490  1
  P  P22  1  0.750000  0.402127  0.623107  1
  P  P23  1  0.750000  0.097873  0.123107  1
  Ir  Ir24  1  0.250000  0.723638  0.990745  1
  Ir  Ir25  1  0.250000  0.776362  0.490745  1
  Ir  Ir26  1  0.750000  0.276317  0.009098  1
  Ir  Ir27  1  0.750000  0.223683  0.509098  1
  Ir  Ir28  1  0.250000  0.410456  0.475303  1
  Ir  Ir29  1  0.250000  0.089544  0.975303  1
  Ir  Ir30  1  0.750000  0.589370  0.523311  1
  Ir  Ir31  1  0.750000  0.910630  0.023311  1
  Ir  Ir32  1  0.250000  0.228349  0.178931  1
  Ir  Ir33  1  0.250000  0.271651  0.678931  1
  Ir  Ir34  1  0.750000  0.772707  0.821476  1
  Ir  Ir35  1  0.750000  0.727293  0.321476  1
