# generated using pymatgen
data_TcNiP
_symmetry_space_group_name_H-M   'P 1'
_cell_length_a   5.61610100
_cell_length_b   3.73661100
_cell_length_c   6.91240600
_cell_angle_alpha   90.00000000
_cell_angle_beta   90.00000000
_cell_angle_gamma   90.00000000
_symmetry_Int_Tables_number   1
_chemical_formula_structural   TcNiP
_chemical_formula_sum   'Tc4 Ni4 P4'
_cell_volume   145.05811714
_cell_formula_units_Z   4
loop_
 _symmetry_equiv_pos_site_id
 _symmetry_equiv_pos_as_xyz
  1  'x, y, z'
loop_
 _atom_site_type_symbol
 _atom_site_label
 _atom_site_symmetry_multiplicity
 _atom_site_fract_x
 _atom_site_fract_y
 _atom_site_fract_z
 _atom_site_occupancy
  Tc  Tc0  1  0.479304  0.249999  0.170712  1
  Tc  Tc1  1  0.979303  0.249999  0.329288  1
  Tc  Tc2  1  0.020696  0.750000  0.670711  1
  Tc  Tc3  1  0.520695  0.750000  0.829288  1
  Ni  Ni4  1  0.137609  0.750000  0.067603  1
  Ni  Ni5  1  0.637608  0.750000  0.432397  1
  Ni  Ni6  1  0.362392  0.249999  0.567603  1
  Ni  Ni7  1  0.862391  0.249999  0.932396  1
  P  P8  1  0.748431  0.750000  0.119915  1
  P  P9  1  0.248431  0.750000  0.380085  1
  P  P10  1  0.751569  0.249999  0.619914  1
  P  P11  1  0.251568  0.249999  0.880085  1
