# generated using pymatgen
data_Ca12Sn3HgN4
_symmetry_space_group_name_H-M   'P 1'
_cell_length_a   6.94438879
_cell_length_b   6.94467509
_cell_length_c   9.87408900
_cell_angle_alpha   90.00000000
_cell_angle_beta   90.00000000
_cell_angle_gamma   90.01503383
_symmetry_Int_Tables_number   1
_chemical_formula_structural   Ca12Sn3HgN4
_chemical_formula_sum   'Ca12 Sn3 Hg1 N4'
_cell_volume   476.19297219
_cell_formula_units_Z   1
loop_
 _symmetry_equiv_pos_site_id
 _symmetry_equiv_pos_as_xyz
  1  'x, y, z'
loop_
 _atom_site_type_symbol
 _atom_site_label
 _atom_site_symmetry_multiplicity
 _atom_site_fract_x
 _atom_site_fract_y
 _atom_site_fract_z
 _atom_site_occupancy
  Ca  Ca0  1  0.003485  0.499292  0.250000  1
  Ca  Ca1  1  0.496176  0.000641  0.250000  1
  Ca  Ca2  1  0.503142  0.999391  0.750000  1
  Ca  Ca3  1  0.996953  0.500558  0.750000  1
  Ca  Ca4  1  0.743775  0.256185  0.993186  1
  Ca  Ca5  1  0.747344  0.747357  0.506133  1
  Ca  Ca6  1  0.252628  0.252627  0.989958  1
  Ca  Ca7  1  0.256166  0.743796  0.509478  1
  Ca  Ca8  1  0.256166  0.743796  0.990522  1
  Ca  Ca9  1  0.252628  0.252627  0.510042  1
  Ca  Ca10  1  0.747344  0.747357  0.993867  1
  Ca  Ca11  1  0.743775  0.256185  0.506814  1
  Sn  Sn12  1  0.999973  0.999930  0.750000  1
  Sn  Sn13  1  0.500346  0.499965  0.750000  1
  Sn  Sn14  1  0.500061  0.500067  0.250000  1
  Hg  Hg15  1  0.999937  0.000262  0.250000  1
  N  N16  1  0.499933  0.000009  0.494930  1
  N  N17  1  0.000119  0.499972  0.005073  1
  N  N18  1  0.000119  0.499972  0.494927  1
  N  N19  1  0.499933  0.000009  0.005070  1
