# generated using pymatgen
data_KTl7Cr8P8(O4F)8
_symmetry_space_group_name_H-M   'P 1'
_cell_length_a   6.43128300
_cell_length_b   10.71823100
_cell_length_c   12.95030400
_cell_angle_alpha   90.00000000
_cell_angle_beta   90.00000000
_cell_angle_gamma   90.00000000
_symmetry_Int_Tables_number   1
_chemical_formula_structural   KTl7Cr8P8(O4F)8
_chemical_formula_sum   'K1 Tl7 Cr8 P8 O32 F8'
_cell_volume   892.69005514
_cell_formula_units_Z   1
loop_
 _symmetry_equiv_pos_site_id
 _symmetry_equiv_pos_as_xyz
  1  'x, y, z'
loop_
 _atom_site_type_symbol
 _atom_site_label
 _atom_site_symmetry_multiplicity
 _atom_site_fract_x
 _atom_site_fract_y
 _atom_site_fract_z
 _atom_site_occupancy
  K  K0  1  0.279104  0.444606  0.117817  1
  Tl  Tl1  1  0.193992  0.690091  0.399205  1
  Tl  Tl2  1  0.805290  0.190239  0.600547  1
  Tl  Tl3  1  0.303767  0.690556  0.899063  1
  Tl  Tl4  1  0.698609  0.189608  0.101093  1
  Tl  Tl5  1  0.781023  0.936181  0.387917  1
  Tl  Tl6  1  0.218911  0.435784  0.611875  1
  Tl  Tl7  1  0.718824  0.936107  0.888161  1
  Cr  Cr8  1  0.997891  0.747568  0.115150  1
  Cr  Cr9  1  0.003489  0.249143  0.886406  1
  Cr  Cr10  1  0.502141  0.748500  0.614888  1
  Cr  Cr11  1  0.496749  0.249058  0.383872  1
  Cr  Cr12  1  0.751273  0.499223  0.252312  1
  Cr  Cr13  1  0.247053  0.001266  0.746423  1
  Cr  Cr14  1  0.747811  0.500579  0.753761  1
  Cr  Cr15  1  0.252715  0.000384  0.246175  1
  P  P16  1  0.671468  0.499235  0.499381  1
  P  P17  1  0.328653  0.999720  0.499803  1
  P  P18  1  0.829030  0.497089  0.001068  1
  P  P19  1  0.171884  0.998763  0.000149  1
  P  P20  1  0.502550  0.747496  0.182098  1
  P  P21  1  0.497679  0.248791  0.818368  1
  P  P22  1  0.997027  0.748488  0.682325  1
  P  P23  1  0.002964  0.249192  0.316554  1
  O  O24  1  0.036984  0.878540  0.011497  1
  O  O25  1  0.310869  0.275219  0.889981  1
  O  O26  1  0.809299  0.774631  0.611277  1
  O  O27  1  0.189959  0.274963  0.388299  1
  O  O28  1  0.309222  0.716913  0.114346  1
  O  O29  1  0.692017  0.219310  0.885796  1
  O  O30  1  0.190845  0.718723  0.614574  1
  O  O31  1  0.808164  0.220353  0.383791  1
  O  O32  1  0.517786  0.610898  0.512250  1
  O  O33  1  0.482511  0.111237  0.486636  1
  O  O34  1  0.982805  0.608429  0.014943  1
  O  O35  1  0.017694  0.110114  0.987738  1
  O  O36  1  0.535589  0.379449  0.487787  1
  O  O37  1  0.463752  0.879626  0.511344  1
  O  O38  1  0.968312  0.378455  0.991954  1
  O  O39  1  0.690723  0.773852  0.111415  1
  O  O40  1  0.812201  0.517777  0.404502  1
  O  O41  1  0.187354  0.019008  0.594389  1
  O  O42  1  0.690414  0.516520  0.905451  1
  O  O43  1  0.455409  0.860665  0.253910  1
  O  O44  1  0.801761  0.484063  0.599077  1
  O  O45  1  0.197863  0.984279  0.400311  1
  O  O46  1  0.690818  0.481788  0.098476  1
  O  O47  1  0.301990  0.983996  0.900403  1
  O  O48  1  0.044509  0.136715  0.243050  1
  O  O49  1  0.956152  0.636786  0.756576  1
  O  O50  1  0.456049  0.136950  0.744257  1
  O  O51  1  0.542922  0.635277  0.255955  1
  O  O52  1  0.958931  0.362130  0.244152  1
  O  O53  1  0.043722  0.861856  0.754043  1
  O  O54  1  0.543817  0.361767  0.746074  1
  O  O55  1  0.313650  0.017985  0.094513  1
  F  F56  1  0.029188  0.876745  0.223052  1
  F  F57  1  0.971834  0.377532  0.777851  1
  F  F58  1  0.470357  0.877334  0.722980  1
  F  F59  1  0.523642  0.376783  0.273505  1
  F  F60  1  0.475674  0.120193  0.274400  1
  F  F61  1  0.524234  0.620374  0.725213  1
  F  F62  1  0.024417  0.121145  0.775488  1
  F  F63  1  0.976666  0.617958  0.224333  1
