# generated using pymatgen
data_Pr6HoMoO12
_symmetry_space_group_name_H-M   'P 1'
_cell_length_a   6.96035777
_cell_length_b   6.96035748
_cell_length_c   6.96035800
_cell_angle_alpha   92.73832286
_cell_angle_beta   92.73833099
_cell_angle_gamma   92.73832515
_symmetry_Int_Tables_number   1
_chemical_formula_structural   Pr6HoMoO12
_chemical_formula_sum   'Pr6 Ho1 Mo1 O12'
_cell_volume   336.01218386
_cell_formula_units_Z   1
loop_
 _symmetry_equiv_pos_site_id
 _symmetry_equiv_pos_as_xyz
  1  'x, y, z'
loop_
 _atom_site_type_symbol
 _atom_site_label
 _atom_site_symmetry_multiplicity
 _atom_site_fract_x
 _atom_site_fract_y
 _atom_site_fract_z
 _atom_site_occupancy
  Pr  Pr0  1  0.742852  0.929587  0.438482  1
  Pr  Pr1  1  0.438482  0.742852  0.929587  1
  Pr  Pr2  1  0.070413  0.561518  0.257148  1
  Pr  Pr3  1  0.929587  0.438482  0.742852  1
  Pr  Pr4  1  0.561518  0.257148  0.070413  1
  Pr  Pr5  1  0.257148  0.070413  0.561518  1
  Ho  Ho6  1  0.000000  0.000000  0.000000  1
  Mo  Mo7  1  0.500000  0.500000  0.500000  1
  O  O8  1  0.065067  0.912113  0.308722  1
  O  O9  1  0.691278  0.934933  0.087887  1
  O  O10  1  0.463089  0.801183  0.591000  1
  O  O11  1  0.087887  0.691278  0.934933  1
  O  O12  1  0.801183  0.591000  0.463089  1
  O  O13  1  0.409000  0.536911  0.198817  1
  O  O14  1  0.591000  0.463089  0.801183  1
  O  O15  1  0.198817  0.409000  0.536911  1
  O  O16  1  0.912113  0.308722  0.065067  1
  O  O17  1  0.536911  0.198817  0.409000  1
  O  O18  1  0.308722  0.065067  0.912113  1
  O  O19  1  0.934933  0.087887  0.691278  1
