# generated using pymatgen
data_Dy3Er5Ti3Si16W9
_symmetry_space_group_name_H-M   'P 1'
_cell_length_a   6.88488770
_cell_length_b   6.88362140
_cell_length_c   12.77211243
_cell_angle_alpha   90.01962390
_cell_angle_beta   90.01880915
_cell_angle_gamma   89.84844845
_symmetry_Int_Tables_number   1
_chemical_formula_structural   Dy3Er5Ti3Si16W9
_chemical_formula_sum   'Dy3 Er5 Ti3 Si16 W9'
_cell_volume   605.30603150
_cell_formula_units_Z   1
loop_
 _symmetry_equiv_pos_site_id
 _symmetry_equiv_pos_as_xyz
  1  'x, y, z'
loop_
 _atom_site_type_symbol
 _atom_site_label
 _atom_site_symmetry_multiplicity
 _atom_site_fract_x
 _atom_site_fract_y
 _atom_site_fract_z
 _atom_site_occupancy
  Dy  Dy0  1  0.338467  0.001352  0.468738  1
  Dy  Dy1  1  0.497590  0.837250  0.719291  1
  Dy  Dy2  1  0.498969  0.162833  0.217477  1
  Er  Er3  1  0.837317  0.497870  0.280450  1
  Er  Er4  1  0.162522  0.498494  0.782625  1
  Er  Er5  1  0.660724  0.000214  0.969109  1
  Er  Er6  1  0.001076  0.338725  0.531164  1
  Er  Er7  1  0.000316  0.660792  0.030828  1
  Ti  Ti8  1  0.169341  0.832151  0.248362  1
  Ti  Ti9  1  0.832354  0.169864  0.751665  1
  Ti  Ti10  1  0.668362  0.668122  0.500048  1
  Si  Si11  1  0.200435  0.129399  0.683196  1
  Si  Si12  1  0.373488  0.698995  0.932995  1
  Si  Si13  1  0.629257  0.298972  0.433195  1
  Si  Si14  1  0.699540  0.373987  0.066765  1
  Si  Si15  1  0.297360  0.627037  0.566880  1
  Si  Si16  1  0.796415  0.871581  0.183245  1
  Si  Si17  1  0.127395  0.201451  0.317078  1
  Si  Si18  1  0.872952  0.796393  0.816952  1
  Si  Si19  1  0.289743  0.963940  0.061950  1
  Si  Si20  1  0.538768  0.791585  0.313520  1
  Si  Si21  1  0.460615  0.209472  0.814519  1
  Si  Si22  1  0.793200  0.538129  0.686174  1
  Si  Si23  1  0.207732  0.460640  0.185619  1
  Si  Si24  1  0.709739  0.040428  0.564017  1
  Si  Si25  1  0.964209  0.290306  0.937913  1
  Si  Si26  1  0.039412  0.707849  0.436048  1
  W  W27  1  0.332326  0.332566  0.999869  1
  W  W28  1  0.158518  0.002890  0.873426  1
  W  W29  1  0.494752  0.665483  0.124567  1
  W  W30  1  0.505933  0.339893  0.624979  1
  W  W31  1  0.666585  0.495141  0.875313  1
  W  W32  1  0.339180  0.505151  0.375202  1
  W  W33  1  0.839300  0.993678  0.374190  1
  W  W34  1  0.001875  0.158424  0.126591  1
  W  W35  1  0.994236  0.838947  0.626041  1
