# generated using pymatgen
data_Er4Ga3Sb3Rh7
_symmetry_space_group_name_H-M   'P 1'
_cell_length_a   7.41739706
_cell_length_b   7.41739712
_cell_length_c   7.44134800
_cell_angle_alpha   109.53664983
_cell_angle_beta   109.53665001
_cell_angle_gamma   109.40571577
_symmetry_Int_Tables_number   1
_chemical_formula_structural   Er4Ga3Sb3Rh7
_chemical_formula_sum   'Er4 Ga3 Sb3 Rh7'
_cell_volume   314.90636635
_cell_formula_units_Z   1
loop_
 _symmetry_equiv_pos_site_id
 _symmetry_equiv_pos_as_xyz
  1  'x, y, z'
loop_
 _atom_site_type_symbol
 _atom_site_label
 _atom_site_symmetry_multiplicity
 _atom_site_fract_x
 _atom_site_fract_y
 _atom_site_fract_z
 _atom_site_occupancy
  Er  Er0  1  0.000000  0.000000  0.544409  1
  Er  Er1  1  0.000000  0.478368  0.983572  1
  Er  Er2  1  0.478368  0.000000  0.983572  1
  Er  Er3  1  0.521632  0.521632  0.505204  1
  Ga  Ga4  1  0.329168  0.329168  0.007435  1
  Ga  Ga5  1  0.670832  0.000000  0.678268  1
  Ga  Ga6  1  0.000000  0.670832  0.678268  1
  Sb  Sb7  1  0.691480  0.691480  0.005151  1
  Sb  Sb8  1  0.308520  0.000000  0.313671  1
  Sb  Sb9  1  0.000000  0.308520  0.313671  1
  Rh  Rh10  1  0.750012  0.249267  0.502096  1
  Rh  Rh11  1  0.750733  0.500745  0.252829  1
  Rh  Rh12  1  0.499255  0.249988  0.752084  1
  Rh  Rh13  1  0.249988  0.499255  0.752084  1
  Rh  Rh14  1  0.249267  0.750012  0.502096  1
  Rh  Rh15  1  0.500745  0.750733  0.252829  1
  Rh  Rh16  1  0.000000  0.000000  0.972762  1
