# generated using pymatgen
data_DyTmNi7P4
_symmetry_space_group_name_H-M   'P 1'
_cell_length_a   3.68714000
_cell_length_b   9.13874000
_cell_length_c   10.23225200
_cell_angle_alpha   90.00000000
_cell_angle_beta   90.00000000
_cell_angle_gamma   90.00000000
_symmetry_Int_Tables_number   1
_chemical_formula_structural   DyTmNi7P4
_chemical_formula_sum   'Dy2 Tm2 Ni14 P8'
_cell_volume   344.78405818
_cell_formula_units_Z   2
loop_
 _symmetry_equiv_pos_site_id
 _symmetry_equiv_pos_as_xyz
  1  'x, y, z'
loop_
 _atom_site_type_symbol
 _atom_site_label
 _atom_site_symmetry_multiplicity
 _atom_site_fract_x
 _atom_site_fract_y
 _atom_site_fract_z
 _atom_site_occupancy
  Dy  Dy0  1  0.000000  0.436046  0.178439  1
  Dy  Dy1  1  0.500000  0.563954  0.678439  1
  Tm  Tm2  1  0.000000  0.057853  0.395507  1
  Tm  Tm3  1  0.500000  0.942147  0.895507  1
  Ni  Ni4  1  0.000000  0.055443  0.699866  1
  Ni  Ni5  1  0.500000  0.944557  0.199866  1
  Ni  Ni6  1  0.000000  0.726175  0.510602  1
  Ni  Ni7  1  0.500000  0.273825  0.010602  1
  Ni  Ni8  1  0.000000  0.096296  0.093280  1
  Ni  Ni9  1  0.500000  0.903704  0.593280  1
  Ni  Ni10  1  0.000000  0.747098  0.273237  1
  Ni  Ni11  1  0.500000  0.252902  0.773237  1
  Ni  Ni12  1  0.000000  0.305489  0.602727  1
  Ni  Ni13  1  0.500000  0.694511  0.102727  1
  Ni  Ni14  1  0.000000  0.687104  0.911815  1
  Ni  Ni15  1  0.500000  0.312896  0.411815  1
  Ni  Ni16  1  0.000000  0.417371  0.869308  1
  Ni  Ni17  1  0.500000  0.582629  0.369308  1
  P  P18  1  0.000000  0.179089  0.889463  1
  P  P19  1  0.500000  0.820911  0.389463  1
  P  P20  1  0.000000  0.846377  0.082717  1
  P  P21  1  0.500000  0.153623  0.582717  1
  P  P22  1  0.000000  0.809611  0.715693  1
  P  P23  1  0.500000  0.190389  0.215693  1
  P  P24  1  0.000000  0.480421  0.461442  1
  P  P25  1  0.500000  0.519579  0.961442  1
