# generated using pymatgen
data_Hf2TiAl2Sn
_symmetry_space_group_name_H-M   'P 1'
_cell_length_a   5.58469900
_cell_length_b   8.68349800
_cell_length_c   9.24154200
_cell_angle_alpha   90.00000000
_cell_angle_beta   90.00000000
_cell_angle_gamma   90.00000000
_symmetry_Int_Tables_number   1
_chemical_formula_structural   Hf2TiAl2Sn
_chemical_formula_sum   'Hf8 Ti4 Al8 Sn4'
_cell_volume   448.16601566
_cell_formula_units_Z   4
loop_
 _symmetry_equiv_pos_site_id
 _symmetry_equiv_pos_as_xyz
  1  'x, y, z'
loop_
 _atom_site_type_symbol
 _atom_site_label
 _atom_site_symmetry_multiplicity
 _atom_site_fract_x
 _atom_site_fract_y
 _atom_site_fract_z
 _atom_site_occupancy
  Hf  Hf0  1  0.750000  0.473479  0.614335  1
  Hf  Hf1  1  0.250000  0.526521  0.385665  1
  Hf  Hf2  1  0.750000  0.973479  0.385665  1
  Hf  Hf3  1  0.250000  0.026521  0.614335  1
  Hf  Hf4  1  0.750000  0.366295  0.192191  1
  Hf  Hf5  1  0.250000  0.633705  0.807809  1
  Hf  Hf6  1  0.750000  0.866295  0.807809  1
  Hf  Hf7  1  0.250000  0.133705  0.192191  1
  Ti  Ti8  1  0.000000  0.750000  0.114469  1
  Ti  Ti9  1  0.500000  0.250000  0.885531  1
  Ti  Ti10  1  0.000000  0.250000  0.885531  1
  Ti  Ti11  1  0.500000  0.750000  0.114469  1
  Al  Al12  1  0.000000  0.750000  0.566183  1
  Al  Al13  1  0.500000  0.250000  0.433817  1
  Al  Al14  1  0.000000  0.250000  0.433817  1
  Al  Al15  1  0.500000  0.750000  0.566183  1
  Al  Al16  1  0.750000  0.140740  0.655956  1
  Al  Al17  1  0.250000  0.859260  0.344044  1
  Al  Al18  1  0.750000  0.640740  0.344044  1
  Al  Al19  1  0.250000  0.359260  0.655956  1
  Sn  Sn20  1  0.750000  0.046978  0.081097  1
  Sn  Sn21  1  0.250000  0.953022  0.918903  1
  Sn  Sn22  1  0.750000  0.546978  0.918903  1
  Sn  Sn23  1  0.250000  0.453022  0.081097  1
