# generated using pymatgen
data_YbHo3Er2(Si3Ru)8
_symmetry_space_group_name_H-M   'P 1'
_cell_length_a   10.12592569
_cell_length_b   10.12592526
_cell_length_c   8.12746200
_cell_angle_alpha   89.93298680
_cell_angle_beta   90.06701260
_cell_angle_gamma   132.66437447
_symmetry_Int_Tables_number   1
_chemical_formula_structural   YbHo3Er2(Si3Ru)8
_chemical_formula_sum   'Yb1 Ho3 Er2 Si24 Ru8'
_cell_volume   612.78756913
_cell_formula_units_Z   1
loop_
 _symmetry_equiv_pos_site_id
 _symmetry_equiv_pos_as_xyz
  1  'x, y, z'
loop_
 _atom_site_type_symbol
 _atom_site_label
 _atom_site_symmetry_multiplicity
 _atom_site_fract_x
 _atom_site_fract_y
 _atom_site_fract_z
 _atom_site_occupancy
  Yb  Yb0  1  0.497995  0.997995  0.250000  1
  Ho  Ho1  1  0.001437  0.501437  0.750000  1
  Ho  Ho2  1  0.502551  0.002551  0.750000  1
  Ho  Ho3  1  0.997434  0.497434  0.250000  1
  Er  Er4  1  0.499764  0.499671  0.499599  1
  Er  Er5  1  0.999671  0.999764  0.000401  1
  Si  Si6  1  0.388471  0.155091  0.003223  1
  Si  Si7  1  0.655091  0.888471  0.496777  1
  Si  Si8  1  0.111736  0.344792  0.505355  1
  Si  Si9  1  0.844792  0.611736  0.994645  1
  Si  Si10  1  0.611741  0.845680  0.994085  1
  Si  Si11  1  0.345680  0.111741  0.505915  1
  Si  Si12  1  0.888109  0.655330  0.494721  1
  Si  Si13  1  0.155330  0.388109  0.005279  1
  Si  Si14  1  0.613660  0.379259  0.228365  1
  Si  Si15  1  0.879259  0.113660  0.271635  1
  Si  Si16  1  0.888449  0.121903  0.727858  1
  Si  Si17  1  0.621903  0.388449  0.772142  1
  Si  Si18  1  0.388298  0.621759  0.771501  1
  Si  Si19  1  0.121759  0.888298  0.728499  1
  Si  Si20  1  0.704728  0.294114  0.000922  1
  Si  Si21  1  0.794114  0.204728  0.499078  1
  Si  Si22  1  0.295315  0.705781  0.999994  1
  Si  Si23  1  0.205781  0.795315  0.500006  1
  Si  Si24  1  0.166255  0.167519  0.333000  1
  Si  Si25  1  0.667519  0.666255  0.167000  1
  Si  Si26  1  0.332792  0.331694  0.833137  1
  Si  Si27  1  0.831694  0.832792  0.666863  1
  Si  Si28  1  0.376767  0.611013  0.228311  1
  Si  Si29  1  0.111013  0.876767  0.271689  1
  Ru  Ru30  1  0.626038  0.626801  0.872946  1
  Ru  Ru31  1  0.126801  0.126038  0.627054  1
  Ru  Ru32  1  0.873227  0.873217  0.372648  1
  Ru  Ru33  1  0.373217  0.373227  0.127352  1
  Ru  Ru34  1  0.329582  0.668970  0.500703  1
  Ru  Ru35  1  0.168970  0.829582  0.999297  1
  Ru  Ru36  1  0.670984  0.332073  0.501582  1
  Ru  Ru37  1  0.832073  0.170984  0.998418  1
