# generated using pymatgen
data_Hf3Zr3Bi2Pt
_symmetry_space_group_name_H-M   'P 1'
_cell_length_a   7.94930300
_cell_length_b   7.94930382
_cell_length_c   3.72744000
_cell_angle_alpha   90.00000000
_cell_angle_beta   90.00000000
_cell_angle_gamma   120.00000074
_symmetry_Int_Tables_number   1
_chemical_formula_structural   Hf3Zr3Bi2Pt
_chemical_formula_sum   'Hf3 Zr3 Bi2 Pt1'
_cell_volume   203.98556556
_cell_formula_units_Z   1
loop_
 _symmetry_equiv_pos_site_id
 _symmetry_equiv_pos_as_xyz
  1  'x, y, z'
loop_
 _atom_site_type_symbol
 _atom_site_label
 _atom_site_symmetry_multiplicity
 _atom_site_fract_x
 _atom_site_fract_y
 _atom_site_fract_z
 _atom_site_occupancy
  Hf  Hf0  1  0.754384  0.754384  0.000000  1
  Hf  Hf1  1  0.245616  0.000000  0.000000  1
  Hf  Hf2  1  0.000000  0.245616  0.000000  1
  Zr  Zr3  1  0.397703  0.397703  0.500000  1
  Zr  Zr4  1  0.602297  0.000000  0.500000  1
  Zr  Zr5  1  0.000000  0.602297  0.500000  1
  Bi  Bi6  1  0.666667  0.333333  0.000000  1
  Bi  Bi7  1  0.333333  0.666667  0.000000  1
  Pt  Pt8  1  0.000000  0.000000  0.500000  1
