# generated using pymatgen
data_Nd7DySc12Si15As
_symmetry_space_group_name_H-M   'P 1'
_cell_length_a   7.24501925
_cell_length_b   7.48385809
_cell_length_c   14.13914334
_cell_angle_alpha   90.07349146
_cell_angle_beta   89.07649424
_cell_angle_gamma   90.32688406
_symmetry_Int_Tables_number   1
_chemical_formula_structural   Nd7DySc12Si15As
_chemical_formula_sum   'Nd7 Dy1 Sc12 Si15 As1'
_cell_volume   766.52159045
_cell_formula_units_Z   1
loop_
 _symmetry_equiv_pos_site_id
 _symmetry_equiv_pos_as_xyz
  1  'x, y, z'
loop_
 _atom_site_type_symbol
 _atom_site_label
 _atom_site_symmetry_multiplicity
 _atom_site_fract_x
 _atom_site_fract_y
 _atom_site_fract_z
 _atom_site_occupancy
  Nd  Nd0  1  0.011701  0.172932  0.097570  1
  Nd  Nd1  1  0.989104  0.827505  0.900860  1
  Nd  Nd2  1  0.488511  0.672275  0.902562  1
  Nd  Nd3  1  0.992741  0.822320  0.596330  1
  Nd  Nd4  1  0.511887  0.328069  0.097661  1
  Nd  Nd5  1  0.007573  0.176785  0.404381  1
  Nd  Nd6  1  0.503602  0.324337  0.402520  1
  Dy  Dy7  1  0.500289  0.675867  0.599125  1
  Sc  Sc8  1  0.164253  0.499752  0.749367  1
  Sc  Sc9  1  0.836289  0.501703  0.253197  1
  Sc  Sc10  1  0.336254  0.997320  0.251480  1
  Sc  Sc11  1  0.663852  0.001879  0.748331  1
  Sc  Sc12  1  0.339508  0.171430  0.627248  1
  Sc  Sc13  1  0.661254  0.827017  0.373582  1
  Sc  Sc14  1  0.158889  0.671389  0.377809  1
  Sc  Sc15  1  0.668208  0.824836  0.125892  1
  Sc  Sc16  1  0.837724  0.330069  0.621967  1
  Sc  Sc17  1  0.331430  0.174554  0.872606  1
  Sc  Sc18  1  0.831520  0.323857  0.873465  1
  Sc  Sc19  1  0.167879  0.676647  0.125329  1
  Si  Si20  1  0.035913  0.124386  0.747939  1
  Si  Si21  1  0.963324  0.876424  0.250919  1
  Si  Si22  1  0.458577  0.624078  0.249368  1
  Si  Si23  1  0.539563  0.378691  0.749503  1
  Si  Si24  1  0.293030  0.876307  0.748358  1
  Si  Si25  1  0.710293  0.119235  0.249738  1
  Si  Si26  1  0.208570  0.382897  0.250154  1
  Si  Si27  1  0.789211  0.619187  0.748253  1
  Si  Si28  1  0.814565  0.543738  0.456789  1
  Si  Si29  1  0.342434  0.957489  0.462461  1
  Si  Si30  1  0.848351  0.537223  0.039377  1
  Si  Si31  1  0.657149  0.034382  0.541208  1
  Si  Si32  1  0.150956  0.463475  0.959543  1
  Si  Si33  1  0.651848  0.036598  0.959456  1
  Si  Si34  1  0.348348  0.964243  0.039839  1
  As  As35  1  0.185395  0.461107  0.545811  1
