# generated using pymatgen
data_Tb3Nd6Y7(CdPt)4
_symmetry_space_group_name_H-M   'P 1'
_cell_length_a   9.81898582
_cell_length_b   9.82301001
_cell_length_c   9.82301000
_cell_angle_alpha   60.00000004
_cell_angle_beta   59.98644178
_cell_angle_gamma   59.98644045
_symmetry_Int_Tables_number   1
_chemical_formula_structural   Tb3Nd6Y7(CdPt)4
_chemical_formula_sum   'Tb3 Nd6 Y7 Cd4 Pt4'
_cell_volume   669.81022368
_cell_formula_units_Z   1
loop_
 _symmetry_equiv_pos_site_id
 _symmetry_equiv_pos_as_xyz
  1  'x, y, z'
loop_
 _atom_site_type_symbol
 _atom_site_label
 _atom_site_symmetry_multiplicity
 _atom_site_fract_x
 _atom_site_fract_y
 _atom_site_fract_z
 _atom_site_occupancy
  Tb  Tb0  1  0.350448  0.350501  0.350501  1
  Tb  Tb1  1  0.350448  0.350501  0.948550  1
  Tb  Tb2  1  0.350448  0.948550  0.350501  1
  Nd  Nd3  1  0.937332  0.562988  0.562988  1
  Nd  Nd4  1  0.562482  0.937377  0.937377  1
  Nd  Nd5  1  0.562482  0.937377  0.562765  1
  Nd  Nd6  1  0.937332  0.562988  0.936693  1
  Nd  Nd7  1  0.562482  0.562765  0.937377  1
  Nd  Nd8  1  0.937332  0.936693  0.562988  1
  Y  Y9  1  0.946960  0.351013  0.351013  1
  Y  Y10  1  0.812074  0.188107  0.188107  1
  Y  Y11  1  0.188143  0.811959  0.811959  1
  Y  Y12  1  0.188143  0.811959  0.187940  1
  Y  Y13  1  0.812074  0.188107  0.811711  1
  Y  Y14  1  0.188143  0.187940  0.811959  1
  Y  Y15  1  0.812074  0.811711  0.188107  1
  Cd  Cd16  1  0.580290  0.580040  0.580040  1
  Cd  Cd17  1  0.580290  0.580040  0.259629  1
  Cd  Cd18  1  0.580290  0.259629  0.580040  1
  Cd  Cd19  1  0.259703  0.580099  0.580099  1
  Pt  Pt20  1  0.143349  0.142661  0.142661  1
  Pt  Pt21  1  0.143349  0.142661  0.571330  1
  Pt  Pt22  1  0.143349  0.571330  0.142661  1
  Pt  Pt23  1  0.570988  0.143004  0.143004  1
