# generated using pymatgen
data_LaEu2Th(Sn2O7)2
_symmetry_space_group_name_H-M   'P 1'
_cell_length_a   7.59451657
_cell_length_b   7.61684454
_cell_length_c   7.58317500
_cell_angle_alpha   60.14612274
_cell_angle_beta   60.04939299
_cell_angle_gamma   60.30349563
_symmetry_Int_Tables_number   1
_chemical_formula_structural   LaEu2Th(Sn2O7)2
_chemical_formula_sum   'La1 Eu2 Th1 Sn4 O14'
_cell_volume   311.34365429
_cell_formula_units_Z   1
loop_
 _symmetry_equiv_pos_site_id
 _symmetry_equiv_pos_as_xyz
  1  'x, y, z'
loop_
 _atom_site_type_symbol
 _atom_site_label
 _atom_site_symmetry_multiplicity
 _atom_site_fract_x
 _atom_site_fract_y
 _atom_site_fract_z
 _atom_site_occupancy
  La  La0  1  0.625000  0.125000  0.125000  1
  Eu  Eu1  1  0.125000  0.125000  0.125000  1
  Eu  Eu2  1  0.125000  0.125000  0.625000  1
  Th  Th3  1  0.125000  0.625000  0.125000  1
  Sn  Sn4  1  0.625000  0.625000  0.625000  1
  Sn  Sn5  1  0.125000  0.625000  0.625000  1
  Sn  Sn6  1  0.625000  0.125000  0.625000  1
  Sn  Sn7  1  0.625000  0.625000  0.125000  1
  O  O8  1  0.958691  0.547226  0.959737  1
  O  O9  1  0.706635  0.294362  0.290723  1
  O  O10  1  0.291309  0.702774  0.715656  1
  O  O11  1  0.706635  0.294362  0.708281  1
  O  O12  1  0.292043  0.294540  0.706709  1
  O  O13  1  0.715372  0.704223  0.290203  1
  O  O14  1  0.957957  0.955460  0.543291  1
  O  O15  1  0.543365  0.955638  0.959277  1
  O  O16  1  0.958691  0.547226  0.534344  1
  O  O17  1  0.534628  0.545777  0.959797  1
  O  O18  1  0.291309  0.702774  0.290263  1
  O  O19  1  0.543365  0.955638  0.541719  1
  O  O20  1  0.004836  0.984528  0.005317  1
  O  O21  1  0.245164  0.265472  0.244683  1
