# generated using pymatgen
data_Zn22Co2Cu
_symmetry_space_group_name_H-M   'P 1'
_cell_length_a   7.68708753
_cell_length_b   7.68708773
_cell_length_c   7.69323646
_cell_angle_alpha   71.77600377
_cell_angle_beta   71.77601345
_cell_angle_gamma   58.45434121
_symmetry_Int_Tables_number   1
_chemical_formula_structural   Zn22Co2Cu
_chemical_formula_sum   'Zn22 Co2 Cu1'
_cell_volume   361.69323546
_cell_formula_units_Z   1
loop_
 _symmetry_equiv_pos_site_id
 _symmetry_equiv_pos_as_xyz
  1  'x, y, z'
loop_
 _atom_site_type_symbol
 _atom_site_label
 _atom_site_symmetry_multiplicity
 _atom_site_fract_x
 _atom_site_fract_y
 _atom_site_fract_z
 _atom_site_occupancy
  Zn  Zn0  1  0.345380  0.741447  0.310072  1
  Zn  Zn1  1  0.660537  0.257377  0.685458  1
  Zn  Zn2  1  0.257377  0.660537  0.685458  1
  Zn  Zn3  1  0.741447  0.345380  0.310072  1
  Zn  Zn4  1  0.678947  0.323182  0.001279  1
  Zn  Zn5  1  0.323182  0.678947  0.001279  1
  Zn  Zn6  1  0.830144  0.830144  0.782936  1
  Zn  Zn7  1  0.167009  0.167009  0.220258  1
  Zn  Zn8  1  0.977579  0.977579  0.177259  1
  Zn  Zn9  1  0.021936  0.021936  0.823997  1
  Zn  Zn10  1  0.351876  0.351876  0.274516  1
  Zn  Zn11  1  0.648318  0.648318  0.727583  1
  Zn  Zn12  1  0.685189  0.685189  0.376328  1
  Zn  Zn13  1  0.313283  0.313283  0.623199  1
  Zn  Zn14  1  0.662466  0.024343  0.464294  1
  Zn  Zn15  1  0.336218  0.977246  0.536324  1
  Zn  Zn16  1  0.977246  0.336218  0.536324  1
  Zn  Zn17  1  0.024343  0.662466  0.464294  1
  Zn  Zn18  1  0.619801  0.995859  0.099464  1
  Zn  Zn19  1  0.383769  0.997839  0.901093  1
  Zn  Zn20  1  0.997839  0.383769  0.901093  1
  Zn  Zn21  1  0.995859  0.619801  0.099464  1
  Co  Co22  1  0.658199  0.658199  0.054101  1
  Co  Co23  1  0.999265  0.999265  0.499772  1
  Cu  Cu24  1  0.342793  0.342793  0.944081  1
