# generated using pymatgen
data_La5Nd11Tl3InIr4
_symmetry_space_group_name_H-M   'P 1'
_cell_length_a   9.97466473
_cell_length_b   10.06427414
_cell_length_c   10.06427413
_cell_angle_alpha   60.19937757
_cell_angle_beta   60.31402340
_cell_angle_gamma   60.31403134
_symmetry_Int_Tables_number   1
_chemical_formula_structural   La5Nd11Tl3InIr4
_chemical_formula_sum   'La5 Nd11 Tl3 In1 Ir4'
_cell_volume   718.86885744
_cell_formula_units_Z   1
loop_
 _symmetry_equiv_pos_site_id
 _symmetry_equiv_pos_as_xyz
  1  'x, y, z'
loop_
 _atom_site_type_symbol
 _atom_site_label
 _atom_site_symmetry_multiplicity
 _atom_site_fract_x
 _atom_site_fract_y
 _atom_site_fract_z
 _atom_site_occupancy
  La  La0  1  0.346725  0.349059  0.349059  1
  La  La1  1  0.347149  0.348879  0.958774  1
  La  La2  1  0.347149  0.958774  0.348879  1
  La  La3  1  0.957205  0.348560  0.348560  1
  La  La4  1  0.813706  0.186785  0.186785  1
  Nd  Nd5  1  0.191394  0.809384  0.809384  1
  Nd  Nd6  1  0.191685  0.809810  0.188142  1
  Nd  Nd7  1  0.809508  0.189715  0.807957  1
  Nd  Nd8  1  0.191685  0.188142  0.809810  1
  Nd  Nd9  1  0.809508  0.807957  0.189715  1
  Nd  Nd10  1  0.936822  0.562336  0.562336  1
  Nd  Nd11  1  0.560111  0.938677  0.938677  1
  Nd  Nd12  1  0.561698  0.937313  0.560026  1
  Nd  Nd13  1  0.941262  0.558407  0.938749  1
  Nd  Nd14  1  0.561698  0.560026  0.937313  1
  Nd  Nd15  1  0.941262  0.938749  0.558407  1
  Tl  Tl16  1  0.583982  0.586708  0.247263  1
  Tl  Tl17  1  0.583982  0.247263  0.586708  1
  Tl  Tl18  1  0.246929  0.585130  0.585130  1
  In  In19  1  0.582976  0.583337  0.583337  1
  Ir  Ir20  1  0.135851  0.144360  0.144360  1
  Ir  Ir21  1  0.140167  0.142094  0.575252  1
  Ir  Ir22  1  0.140167  0.575252  0.142094  1
  Ir  Ir23  1  0.577373  0.143284  0.143284  1
