# generated using pymatgen
data_YEr5U4O20
_symmetry_space_group_name_H-M   'P 1'
_cell_length_a   6.63918112
_cell_length_b   7.47994029
_cell_length_c   8.39421500
_cell_angle_alpha   100.77968642
_cell_angle_beta   97.68620119
_cell_angle_gamma   107.28199342
_symmetry_Int_Tables_number   1
_chemical_formula_structural   YEr5U4O20
_chemical_formula_sum   'Y1 Er5 U4 O20'
_cell_volume   382.97248181
_cell_formula_units_Z   1
loop_
 _symmetry_equiv_pos_site_id
 _symmetry_equiv_pos_as_xyz
  1  'x, y, z'
loop_
 _atom_site_type_symbol
 _atom_site_label
 _atom_site_symmetry_multiplicity
 _atom_site_fract_x
 _atom_site_fract_y
 _atom_site_fract_z
 _atom_site_occupancy
  Y  Y0  1  0.000000  0.500000  0.500000  1
  Er  Er1  1  0.615382  0.704110  0.699294  1
  Er  Er2  1  0.384618  0.295890  0.300706  1
  Er  Er3  1  0.197035  0.896583  0.891340  1
  Er  Er4  1  0.802965  0.103417  0.108660  1
  Er  Er5  1  0.000000  0.000000  0.500000  1
  U  U6  1  0.402035  0.804947  0.301871  1
  U  U7  1  0.199124  0.399333  0.899148  1
  U  U8  1  0.800876  0.600667  0.100852  1
  U  U9  1  0.597965  0.195053  0.698129  1
  O  O10  1  0.440120  0.531644  0.138367  1
  O  O11  1  0.554873  0.985646  0.842069  1
  O  O12  1  0.266513  0.141638  0.744439  1
  O  O13  1  0.362018  0.593680  0.443220  1
  O  O14  1  0.053517  0.730117  0.334065  1
  O  O15  1  0.445127  0.014354  0.157931  1
  O  O16  1  0.150497  0.182149  0.032964  1
  O  O17  1  0.559880  0.468356  0.861633  1
  O  O18  1  0.854263  0.335144  0.950748  1
  O  O19  1  0.258950  0.608766  0.759841  1
  O  O20  1  0.952935  0.773616  0.653526  1
  O  O21  1  0.352398  0.063222  0.452759  1
  O  O22  1  0.647602  0.936778  0.547241  1
  O  O23  1  0.047065  0.226384  0.346474  1
  O  O24  1  0.741050  0.391234  0.240159  1
  O  O25  1  0.145737  0.664856  0.049252  1
  O  O26  1  0.849503  0.817851  0.967036  1
  O  O27  1  0.946483  0.269883  0.665935  1
  O  O28  1  0.637982  0.406320  0.556780  1
  O  O29  1  0.733487  0.858362  0.255561  1
