# generated using pymatgen
data_CaTm(Si7Rh3)2
_symmetry_space_group_name_H-M   'P 1'
_cell_length_a   7.98034275
_cell_length_b   7.98034263
_cell_length_c   7.98034430
_cell_angle_alpha   57.07147842
_cell_angle_beta   57.07147456
_cell_angle_gamma   57.07147556
_symmetry_Int_Tables_number   1
_chemical_formula_structural   CaTm(Si7Rh3)2
_chemical_formula_sum   'Ca1 Tm1 Si14 Rh6'
_cell_volume   335.11822675
_cell_formula_units_Z   1
loop_
 _symmetry_equiv_pos_site_id
 _symmetry_equiv_pos_as_xyz
  1  'x, y, z'
loop_
 _atom_site_type_symbol
 _atom_site_label
 _atom_site_symmetry_multiplicity
 _atom_site_fract_x
 _atom_site_fract_y
 _atom_site_fract_z
 _atom_site_occupancy
  Ca  Ca0  1  0.000000  0.000000  0.000000  1
  Tm  Tm1  1  0.500000  0.500000  0.500000  1
  Si  Si2  1  0.749789  0.749789  0.749789  1
  Si  Si3  1  0.250211  0.250211  0.250211  1
  Si  Si4  1  0.851530  0.065627  0.672668  1
  Si  Si5  1  0.672668  0.851530  0.065627  1
  Si  Si6  1  0.065627  0.672668  0.851530  1
  Si  Si7  1  0.649053  0.827831  0.434016  1
  Si  Si8  1  0.434016  0.649053  0.827831  1
  Si  Si9  1  0.827831  0.434016  0.649053  1
  Si  Si10  1  0.172169  0.565984  0.350947  1
  Si  Si11  1  0.565984  0.350947  0.172169  1
  Si  Si12  1  0.350947  0.172169  0.565984  1
  Si  Si13  1  0.934373  0.327332  0.148470  1
  Si  Si14  1  0.327332  0.148470  0.934373  1
  Si  Si15  1  0.148470  0.934373  0.327332  1
  Rh  Rh16  1  0.072638  0.431355  0.747956  1
  Rh  Rh17  1  0.252044  0.927362  0.568645  1
  Rh  Rh18  1  0.568645  0.252044  0.927362  1
  Rh  Rh19  1  0.927362  0.568645  0.252044  1
  Rh  Rh20  1  0.431355  0.747956  0.072638  1
  Rh  Rh21  1  0.747956  0.072638  0.431355  1
