# generated using pymatgen
data_Er4Co8SiP11Ru12
_symmetry_space_group_name_H-M   'P 1'
_cell_length_a   3.79222200
_cell_length_b   10.61311615
_cell_length_c   12.11216948
_cell_angle_alpha   90.08758710
_cell_angle_beta   90.00000000
_cell_angle_gamma   90.00000000
_symmetry_Int_Tables_number   1
_chemical_formula_structural   Er4Co8SiP11Ru12
_chemical_formula_sum   'Er4 Co8 Si1 P11 Ru12'
_cell_volume   487.48145899
_cell_formula_units_Z   1
loop_
 _symmetry_equiv_pos_site_id
 _symmetry_equiv_pos_as_xyz
  1  'x, y, z'
loop_
 _atom_site_type_symbol
 _atom_site_label
 _atom_site_symmetry_multiplicity
 _atom_site_fract_x
 _atom_site_fract_y
 _atom_site_fract_z
 _atom_site_occupancy
  Er  Er0  1  0.250000  0.584684  0.706101  1
  Er  Er1  1  0.250000  0.915778  0.206813  1
  Er  Er2  1  0.750000  0.415065  0.293996  1
  Er  Er3  1  0.750000  0.084648  0.793723  1
  Co  Co4  1  0.250000  0.887828  0.696247  1
  Co  Co5  1  0.250000  0.616050  0.196161  1
  Co  Co6  1  0.750000  0.110722  0.306111  1
  Co  Co7  1  0.750000  0.387145  0.802954  1
  Co  Co8  1  0.250000  0.465278  0.929545  1
  Co  Co9  1  0.250000  0.036487  0.435996  1
  Co  Co10  1  0.750000  0.539303  0.062866  1
  Co  Co11  1  0.750000  0.962863  0.566042  1
  Si  Si12  1  0.250000  0.423036  0.111055  1
  P  P13  1  0.250000  0.074054  0.613904  1
  P  P14  1  0.750000  0.574043  0.885600  1
  P  P15  1  0.750000  0.925347  0.387831  1
  P  P16  1  0.250000  0.271781  0.871362  1
  P  P17  1  0.250000  0.228098  0.372365  1
  P  P18  1  0.750000  0.728581  0.128956  1
  P  P19  1  0.750000  0.771058  0.628626  1
  P  P20  1  0.250000  0.601306  0.386080  1
  P  P21  1  0.250000  0.899024  0.886826  1
  P  P22  1  0.750000  0.398869  0.613298  1
  P  P23  1  0.750000  0.101962  0.113727  1
  Ru  Ru24  1  0.250000  0.706198  0.986245  1
  Ru  Ru25  1  0.250000  0.793862  0.487098  1
  Ru  Ru26  1  0.750000  0.296425  0.014347  1
  Ru  Ru27  1  0.750000  0.205895  0.514077  1
  Ru  Ru28  1  0.250000  0.405707  0.485222  1
  Ru  Ru29  1  0.250000  0.094256  0.984760  1
  Ru  Ru30  1  0.750000  0.594301  0.514676  1
  Ru  Ru31  1  0.750000  0.906058  0.015201  1
  Ru  Ru32  1  0.250000  0.217981  0.182316  1
  Ru  Ru33  1  0.250000  0.275558  0.680600  1
  Ru  Ru34  1  0.750000  0.776262  0.819476  1
  Ru  Ru35  1  0.750000  0.724489  0.319797  1
