# generated using pymatgen
data_Eu2Ga10Pd
_symmetry_space_group_name_H-M   'P 1'
_cell_length_a   4.43677081
_cell_length_b   4.43676874
_cell_length_c   13.73468571
_cell_angle_alpha   99.22578523
_cell_angle_beta   99.22582682
_cell_angle_gamma   90.13250404
_symmetry_Int_Tables_number   1
_chemical_formula_structural   Eu2Ga10Pd
_chemical_formula_sum   'Eu2 Ga10 Pd1'
_cell_volume   263.30774792
_cell_formula_units_Z   1
loop_
 _symmetry_equiv_pos_site_id
 _symmetry_equiv_pos_as_xyz
  1  'x, y, z'
loop_
 _atom_site_type_symbol
 _atom_site_label
 _atom_site_symmetry_multiplicity
 _atom_site_fract_x
 _atom_site_fract_y
 _atom_site_fract_z
 _atom_site_occupancy
  Eu  Eu0  1  0.646641  0.646641  0.292239  1
  Eu  Eu1  1  0.353607  0.353607  0.707948  1
  Ga  Ga2  1  0.552537  0.049990  0.102879  1
  Ga  Ga3  1  0.049989  0.552537  0.102879  1
  Ga  Ga4  1  0.103259  0.103259  0.209096  1
  Ga  Ga5  1  0.196613  0.196613  0.394531  1
  Ga  Ga6  1  0.749461  0.250498  0.499997  1
  Ga  Ga7  1  0.250498  0.749460  0.499996  1
  Ga  Ga8  1  0.803308  0.803308  0.605409  1
  Ga  Ga9  1  0.896670  0.896670  0.790868  1
  Ga  Ga10  1  0.949992  0.447452  0.897091  1
  Ga  Ga11  1  0.447452  0.949992  0.897091  1
  Pd  Pd12  1  0.499968  0.499968  0.999975  1
