# generated using pymatgen
data_Mn4Cl7F
_symmetry_space_group_name_H-M   'P 1'
_cell_length_a   7.63925530
_cell_length_b   3.70420881
_cell_length_c   10.47091512
_cell_angle_alpha   89.77388482
_cell_angle_beta   91.95642196
_cell_angle_gamma   92.75888248
_symmetry_Int_Tables_number   1
_chemical_formula_structural   Mn4Cl7F
_chemical_formula_sum   'Mn4 Cl7 F1'
_cell_volume   295.78290381
_cell_formula_units_Z   1
loop_
 _symmetry_equiv_pos_site_id
 _symmetry_equiv_pos_as_xyz
  1  'x, y, z'
loop_
 _atom_site_type_symbol
 _atom_site_label
 _atom_site_symmetry_multiplicity
 _atom_site_fract_x
 _atom_site_fract_y
 _atom_site_fract_z
 _atom_site_occupancy
  Mn  Mn0  1  0.729842  0.402929  0.892965  1
  Mn  Mn1  1  0.428333  0.876030  0.633976  1
  Mn  Mn2  1  0.713649  0.426533  0.383107  1
  Mn  Mn3  1  0.029521  0.929540  0.152574  1
  Cl  Cl4  1  0.943426  0.946427  0.389155  1
  Cl  Cl5  1  0.961119  0.933745  0.906724  1
  Cl  Cl6  1  0.689874  0.404213  0.637279  1
  Cl  Cl7  1  0.740106  0.449669  0.139624  1
  Cl  Cl8  1  0.223464  0.356836  0.637054  1
  Cl  Cl9  1  0.501155  0.879007  0.880804  1
  Cl  Cl10  1  0.483863  0.902538  0.387565  1
  F  F11  1  0.145117  0.440563  0.158506  1
