# generated using pymatgen
data_Er10In7Ir4Pb
_symmetry_space_group_name_H-M   'P 1'
_cell_length_a   3.58855500
_cell_length_b   8.06622830
_cell_length_c   18.22048267
_cell_angle_alpha   89.96873714
_cell_angle_beta   90.00000000
_cell_angle_gamma   90.00000000
_symmetry_Int_Tables_number   1
_chemical_formula_structural   Er10In7Ir4Pb
_chemical_formula_sum   'Er10 In7 Ir4 Pb1'
_cell_volume   527.41190616
_cell_formula_units_Z   1
loop_
 _symmetry_equiv_pos_site_id
 _symmetry_equiv_pos_as_xyz
  1  'x, y, z'
loop_
 _atom_site_type_symbol
 _atom_site_label
 _atom_site_symmetry_multiplicity
 _atom_site_fract_x
 _atom_site_fract_y
 _atom_site_fract_z
 _atom_site_occupancy
  Er  Er0  1  0.000000  0.499937  0.500057  1
  Er  Er1  1  0.000000  0.002406  0.000738  1
  Er  Er2  1  0.000000  0.753297  0.278772  1
  Er  Er3  1  0.000000  0.247831  0.720627  1
  Er  Er4  1  0.000000  0.748100  0.777743  1
  Er  Er5  1  0.000000  0.252354  0.221535  1
  Er  Er6  1  0.000000  0.621303  0.089355  1
  Er  Er7  1  0.000000  0.376304  0.911995  1
  Er  Er8  1  0.000000  0.879139  0.587732  1
  Er  Er9  1  0.000000  0.121412  0.411940  1
  In  In10  1  0.500000  0.296241  0.066936  1
  In  In11  1  0.500000  0.797423  0.433622  1
  In  In12  1  0.500000  0.202395  0.566452  1
  In  In13  1  0.500000  0.566047  0.649406  1
  In  In14  1  0.500000  0.434071  0.350534  1
  In  In15  1  0.500000  0.934297  0.149469  1
  In  In16  1  0.500000  0.070837  0.849436  1
  Ir  Ir17  1  0.500000  0.530530  0.196445  1
  Ir  Ir18  1  0.500000  0.464099  0.802179  1
  Ir  Ir19  1  0.500000  0.968447  0.696893  1
  Ir  Ir20  1  0.500000  0.030425  0.303434  1
  Pb  Pb21  1  0.500000  0.703107  0.934701  1
