# generated using pymatgen
data_Ho2Tm18(Bi3Te)3
_symmetry_space_group_name_H-M   'P 1'
_cell_length_a   8.11241761
_cell_length_b   9.39877200
_cell_length_c   11.84919200
_cell_angle_alpha   90.00000000
_cell_angle_beta   90.02226877
_cell_angle_gamma   90.00000000
_symmetry_Int_Tables_number   1
_chemical_formula_structural   Ho2Tm18(Bi3Te)3
_chemical_formula_sum   'Ho2 Tm18 Bi9 Te3'
_cell_volume   903.46247198
_cell_formula_units_Z   1
loop_
 _symmetry_equiv_pos_site_id
 _symmetry_equiv_pos_as_xyz
  1  'x, y, z'
loop_
 _atom_site_type_symbol
 _atom_site_label
 _atom_site_symmetry_multiplicity
 _atom_site_fract_x
 _atom_site_fract_y
 _atom_site_fract_z
 _atom_site_occupancy
  Ho  Ho0  1  0.679531  0.750000  0.784493  1
  Ho  Ho1  1  0.180591  0.750000  0.716269  1
  Tm  Tm2  1  0.355340  0.750000  0.214543  1
  Tm  Tm3  1  0.854657  0.750000  0.283515  1
  Tm  Tm4  1  0.643911  0.250000  0.785692  1
  Tm  Tm5  1  0.147498  0.250000  0.717590  1
  Tm  Tm6  1  0.688814  0.565150  0.058104  1
  Tm  Tm7  1  0.190177  0.932186  0.441472  1
  Tm  Tm8  1  0.311489  0.064825  0.942529  1
  Tm  Tm9  1  0.809792  0.436437  0.558691  1
  Tm  Tm10  1  0.311489  0.435175  0.942529  1
  Tm  Tm11  1  0.809792  0.063563  0.558691  1
  Tm  Tm12  1  0.688814  0.934850  0.058104  1
  Tm  Tm13  1  0.190177  0.567814  0.441472  1
  Tm  Tm14  1  0.478190  0.250000  0.490088  1
  Tm  Tm15  1  0.979200  0.250000  0.010653  1
  Tm  Tm16  1  0.523486  0.750000  0.510763  1
  Tm  Tm17  1  0.022379  0.750000  0.989858  1
  Tm  Tm18  1  0.319627  0.250000  0.214095  1
  Tm  Tm19  1  0.814602  0.250000  0.281620  1
  Bi  Bi20  1  0.096590  0.250000  0.456262  1
  Bi  Bi21  1  0.567974  0.996092  0.325396  1
  Bi  Bi22  1  0.068331  0.503764  0.174375  1
  Bi  Bi23  1  0.431912  0.496318  0.674964  1
  Bi  Bi24  1  0.931341  0.004136  0.825796  1
  Bi  Bi25  1  0.431912  0.003682  0.674964  1
  Bi  Bi26  1  0.931341  0.495864  0.825796  1
  Bi  Bi27  1  0.567974  0.503908  0.325396  1
  Bi  Bi28  1  0.068331  0.996236  0.174375  1
  Te  Te29  1  0.402437  0.750000  0.958520  1
  Te  Te30  1  0.903760  0.750000  0.541017  1
  Te  Te31  1  0.598545  0.250000  0.042363  1
