# generated using pymatgen
data_EuFeF6
_symmetry_space_group_name_H-M   'P 1'
_cell_length_a   5.95668998
_cell_length_b   5.95668958
_cell_length_c   5.96118500
_cell_angle_alpha   59.97502653
_cell_angle_beta   59.97502879
_cell_angle_gamma   60.04993353
_symmetry_Int_Tables_number   1
_chemical_formula_structural   EuFeF6
_chemical_formula_sum   'Eu1 Fe1 F6'
_cell_volume   149.56398789
_cell_formula_units_Z   1
loop_
 _symmetry_equiv_pos_site_id
 _symmetry_equiv_pos_as_xyz
  1  'x, y, z'
loop_
 _atom_site_type_symbol
 _atom_site_label
 _atom_site_symmetry_multiplicity
 _atom_site_fract_x
 _atom_site_fract_y
 _atom_site_fract_z
 _atom_site_occupancy
  Eu  Eu0  1  0.000000  0.000000  0.000000  1
  Fe  Fe1  1  0.499999  0.499999  0.499999  1
  F  F2  1  0.731773  0.268226  0.268226  1
  F  F3  1  0.268226  0.731773  0.268226  1
  F  F4  1  0.731578  0.731578  0.268421  1
  F  F5  1  0.268422  0.268422  0.731577  1
  F  F6  1  0.731774  0.268225  0.731774  1
  F  F7  1  0.268225  0.731774  0.731774  1
