# generated using pymatgen
data_Dy7ErAu4
_symmetry_space_group_name_H-M   'P 1'
_cell_length_a   4.94277300
_cell_length_b   7.13536540
_cell_length_c   8.96092633
_cell_angle_alpha   90.10172036
_cell_angle_beta   90.00000000
_cell_angle_gamma   90.00000000
_symmetry_Int_Tables_number   1
_chemical_formula_structural   Dy7ErAu4
_chemical_formula_sum   'Dy7 Er1 Au4'
_cell_volume   316.03785557
_cell_formula_units_Z   1
loop_
 _symmetry_equiv_pos_site_id
 _symmetry_equiv_pos_as_xyz
  1  'x, y, z'
loop_
 _atom_site_type_symbol
 _atom_site_label
 _atom_site_symmetry_multiplicity
 _atom_site_fract_x
 _atom_site_fract_y
 _atom_site_fract_z
 _atom_site_occupancy
  Dy  Dy0  1  0.250000  0.487344  0.176263  1
  Dy  Dy1  1  0.750000  0.513957  0.823461  1
  Dy  Dy2  1  0.250000  0.986813  0.323215  1
  Dy  Dy3  1  0.750000  0.012792  0.676672  1
  Dy  Dy4  1  0.750000  0.648661  0.419225  1
  Dy  Dy5  1  0.250000  0.351475  0.581027  1
  Dy  Dy6  1  0.750000  0.148682  0.080172  1
  Er  Er7  1  0.250000  0.851497  0.919591  1
  Au  Au8  1  0.250000  0.255500  0.900906  1
  Au  Au9  1  0.750000  0.743179  0.097895  1
  Au  Au10  1  0.250000  0.757622  0.600660  1
  Au  Au11  1  0.750000  0.242479  0.400911  1
