# generated using pymatgen
data_La3Pr5(CuSn4)4
_symmetry_space_group_name_H-M   'P 1'
_cell_length_a   4.51745000
_cell_length_b   9.08668898
_cell_length_c   17.82659700
_cell_angle_alpha   89.97335942
_cell_angle_beta   90.00000000
_cell_angle_gamma   90.00000000
_symmetry_Int_Tables_number   1
_chemical_formula_structural   La3Pr5(CuSn4)4
_chemical_formula_sum   'La3 Pr5 Cu4 Sn16'
_cell_volume   731.75789614
_cell_formula_units_Z   1
loop_
 _symmetry_equiv_pos_site_id
 _symmetry_equiv_pos_as_xyz
  1  'x, y, z'
loop_
 _atom_site_type_symbol
 _atom_site_label
 _atom_site_symmetry_multiplicity
 _atom_site_fract_x
 _atom_site_fract_y
 _atom_site_fract_z
 _atom_site_occupancy
  La  La0  1  0.250000  0.610951  0.646411  1
  La  La1  1  0.250000  0.366643  0.146718  1
  La  La2  1  0.250000  0.889054  0.146412  1
  Pr  Pr3  1  0.750000  0.110210  0.852898  1
  Pr  Pr4  1  0.750000  0.633522  0.852244  1
  Pr  Pr5  1  0.250000  0.133738  0.646476  1
  Pr  Pr6  1  0.750000  0.866383  0.353744  1
  Pr  Pr7  1  0.750000  0.389614  0.353619  1
  Cu  Cu8  1  0.750000  0.356734  0.569352  1
  Cu  Cu9  1  0.250000  0.642088  0.431428  1
  Cu  Cu10  1  0.750000  0.142094  0.069063  1
  Cu  Cu11  1  0.250000  0.858173  0.930288  1
  Sn  Sn12  1  0.250000  0.608965  0.005826  1
  Sn  Sn13  1  0.750000  0.867973  0.007934  1
  Sn  Sn14  1  0.750000  0.627039  0.180341  1
  Sn  Sn15  1  0.250000  0.127029  0.322751  1
  Sn  Sn16  1  0.750000  0.390820  0.991474  1
  Sn  Sn17  1  0.750000  0.370311  0.714286  1
  Sn  Sn18  1  0.750000  0.631481  0.508776  1
  Sn  Sn19  1  0.250000  0.874171  0.786280  1
  Sn  Sn20  1  0.750000  0.108844  0.492429  1
  Sn  Sn21  1  0.250000  0.371882  0.822268  1
  Sn  Sn22  1  0.750000  0.128144  0.214789  1
  Sn  Sn23  1  0.250000  0.367331  0.490810  1
  Sn  Sn24  1  0.250000  0.627468  0.287343  1
  Sn  Sn25  1  0.750000  0.875226  0.679056  1
  Sn  Sn26  1  0.250000  0.892236  0.506857  1
  Sn  Sn27  1  0.250000  0.131878  0.990129  1
