# generated using pymatgen
data_Ba2Al4CuAu5
_symmetry_space_group_name_H-M   'P 1'
_cell_length_a   6.96765580
_cell_length_b   6.96765670
_cell_length_c   5.55815100
_cell_angle_alpha   90.00000000
_cell_angle_beta   90.00000000
_cell_angle_gamma   104.82162131
_symmetry_Int_Tables_number   1
_chemical_formula_structural   Ba2Al4CuAu5
_chemical_formula_sum   'Ba2 Al4 Cu1 Au5'
_cell_volume   260.86005927
_cell_formula_units_Z   1
loop_
 _symmetry_equiv_pos_site_id
 _symmetry_equiv_pos_as_xyz
  1  'x, y, z'
loop_
 _atom_site_type_symbol
 _atom_site_label
 _atom_site_symmetry_multiplicity
 _atom_site_fract_x
 _atom_site_fract_y
 _atom_site_fract_z
 _atom_site_occupancy
  Ba  Ba0  1  0.835132  0.835132  0.000000  1
  Ba  Ba1  1  0.173478  0.173478  0.500000  1
  Al  Al2  1  0.305020  0.693550  0.254653  1
  Al  Al3  1  0.305020  0.693550  0.745347  1
  Al  Al4  1  0.693550  0.305020  0.254653  1
  Al  Al5  1  0.693550  0.305020  0.745347  1
  Cu  Cu6  1  0.576774  0.576774  0.500000  1
  Au  Au7  1  0.401916  0.013612  0.000000  1
  Au  Au8  1  0.973270  0.594543  0.500000  1
  Au  Au9  1  0.594543  0.973270  0.500000  1
  Au  Au10  1  0.013612  0.401916  0.000000  1
  Au  Au11  1  0.434133  0.434133  0.000000  1
