# generated using pymatgen
data_EuP6WO18
_symmetry_space_group_name_H-M   'P 1'
_cell_length_a   6.97384200
_cell_length_b   6.97384084
_cell_length_c   10.65234900
_cell_angle_alpha   90.00000000
_cell_angle_beta   90.00000000
_cell_angle_gamma   120.00000548
_symmetry_Int_Tables_number   1
_chemical_formula_structural   EuP6WO18
_chemical_formula_sum   'Eu1 P6 W1 O18'
_cell_volume   448.66286980
_cell_formula_units_Z   1
loop_
 _symmetry_equiv_pos_site_id
 _symmetry_equiv_pos_as_xyz
  1  'x, y, z'
loop_
 _atom_site_type_symbol
 _atom_site_label
 _atom_site_symmetry_multiplicity
 _atom_site_fract_x
 _atom_site_fract_y
 _atom_site_fract_z
 _atom_site_occupancy
  Eu  Eu0  1  0.000000  0.000000  0.500000  1
  P  P1  1  0.734149  0.129124  0.773317  1
  P  P2  1  0.870876  0.265851  0.226683  1
  P  P3  1  0.734149  0.605024  0.226683  1
  P  P4  1  0.870876  0.605024  0.773317  1
  P  P5  1  0.394976  0.265851  0.773317  1
  P  P6  1  0.394976  0.129124  0.226683  1
  W  W7  1  0.000000  0.000000  0.000000  1
  O  O8  1  0.898349  0.506609  0.204610  1
  O  O9  1  0.898349  0.391740  0.795390  1
  O  O10  1  0.493391  0.101651  0.795390  1
  O  O11  1  0.608260  0.101651  0.204610  1
  O  O12  1  0.761722  0.062992  0.644826  1
  O  O13  1  0.763197  0.007361  0.882754  1
  O  O14  1  0.493391  0.391740  0.204610  1
  O  O15  1  0.761722  0.698730  0.355174  1
  O  O16  1  0.763197  0.755836  0.117246  1
  O  O17  1  0.608260  0.506609  0.795390  1
  O  O18  1  0.937008  0.238278  0.355174  1
  O  O19  1  0.992639  0.236803  0.117246  1
  O  O20  1  0.244164  0.236803  0.882754  1
  O  O21  1  0.301270  0.238278  0.644826  1
  O  O22  1  0.992639  0.755836  0.882754  1
  O  O23  1  0.937008  0.698730  0.644826  1
  O  O24  1  0.244164  0.007361  0.117246  1
  O  O25  1  0.301270  0.062992  0.355174  1
