# generated using pymatgen
data_NdCu3AgPt
_symmetry_space_group_name_H-M   'P 1'
_cell_length_a   5.17461968
_cell_length_b   5.17462034
_cell_length_c   5.22456178
_cell_angle_alpha   60.31570922
_cell_angle_beta   60.31570422
_cell_angle_gamma   60.00000287
_symmetry_Int_Tables_number   1
_chemical_formula_structural   NdCu3AgPt
_chemical_formula_sum   'Nd1 Cu3 Ag1 Pt1'
_cell_volume   99.39117408
_cell_formula_units_Z   1
loop_
 _symmetry_equiv_pos_site_id
 _symmetry_equiv_pos_as_xyz
  1  'x, y, z'
loop_
 _atom_site_type_symbol
 _atom_site_label
 _atom_site_symmetry_multiplicity
 _atom_site_fract_x
 _atom_site_fract_y
 _atom_site_fract_z
 _atom_site_occupancy
  Nd  Nd0  1  0.998973  0.998973  0.003082  1
  Cu  Cu1  1  0.624720  0.129524  0.621035  1
  Cu  Cu2  1  0.129524  0.624720  0.621035  1
  Cu  Cu3  1  0.624720  0.624720  0.621035  1
  Ag  Ag4  1  0.246610  0.246610  0.260171  1
  Pt  Pt5  1  0.625453  0.625453  0.123640  1
