# generated using pymatgen
data_Pa2AlB2Ru5
_symmetry_space_group_name_H-M   'P 1'
_cell_length_a   9.52596200
_cell_length_b   9.52596200
_cell_length_c   3.07885300
_cell_angle_alpha   90.00000000
_cell_angle_beta   90.00000000
_cell_angle_gamma   90.00000000
_symmetry_Int_Tables_number   1
_chemical_formula_structural   Pa2AlB2Ru5
_chemical_formula_sum   'Pa4 Al2 B4 Ru10'
_cell_volume   279.38728893
_cell_formula_units_Z   2
loop_
 _symmetry_equiv_pos_site_id
 _symmetry_equiv_pos_as_xyz
  1  'x, y, z'
loop_
 _atom_site_type_symbol
 _atom_site_label
 _atom_site_symmetry_multiplicity
 _atom_site_fract_x
 _atom_site_fract_y
 _atom_site_fract_z
 _atom_site_occupancy
  Pa  Pa0  1  0.823076  0.676924  0.000000  1
  Pa  Pa1  1  0.176924  0.323076  0.000000  1
  Pa  Pa2  1  0.323076  0.823076  0.000000  1
  Pa  Pa3  1  0.676924  0.176924  0.000000  1
  Al  Al4  1  0.500000  0.500000  0.000000  1
  Al  Al5  1  0.000000  0.000000  0.000000  1
  B  B6  1  0.623254  0.876746  0.000000  1
  B  B7  1  0.376746  0.123254  0.000000  1
  B  B8  1  0.123254  0.623254  0.000000  1
  B  B9  1  0.876746  0.376746  0.000000  1
  Ru  Ru10  1  0.570340  0.717452  0.500000  1
  Ru  Ru11  1  0.429660  0.282548  0.500000  1
  Ru  Ru12  1  0.070340  0.782548  0.500000  1
  Ru  Ru13  1  0.929660  0.217452  0.500000  1
  Ru  Ru14  1  0.282548  0.570340  0.500000  1
  Ru  Ru15  1  0.717452  0.429660  0.500000  1
  Ru  Ru16  1  0.217452  0.070340  0.500000  1
  Ru  Ru17  1  0.782548  0.929660  0.500000  1
  Ru  Ru18  1  0.500000  0.000000  0.500000  1
  Ru  Ru19  1  0.000000  0.500000  0.500000  1
