# generated using pymatgen
data_CaAc3(CdIn)4
_symmetry_space_group_name_H-M   'P 1'
_cell_length_a   5.11154800
_cell_length_b   8.19492949
_cell_length_c   8.54628955
_cell_angle_alpha   90.29039501
_cell_angle_beta   90.00000000
_cell_angle_gamma   90.00000000
_symmetry_Int_Tables_number   1
_chemical_formula_structural   CaAc3(CdIn)4
_chemical_formula_sum   'Ca1 Ac3 Cd4 In4'
_cell_volume   357.98900603
_cell_formula_units_Z   1
loop_
 _symmetry_equiv_pos_site_id
 _symmetry_equiv_pos_as_xyz
  1  'x, y, z'
loop_
 _atom_site_type_symbol
 _atom_site_label
 _atom_site_symmetry_multiplicity
 _atom_site_fract_x
 _atom_site_fract_y
 _atom_site_fract_z
 _atom_site_occupancy
  Ca  Ca0  1  0.250000  0.498281  0.226255  1
  Ac  Ac1  1  0.250000  0.998423  0.283718  1
  Ac  Ac2  1  0.750000  0.500146  0.793963  1
  Ac  Ac3  1  0.750000  0.001270  0.711596  1
  Cd  Cd4  1  0.750000  0.807187  0.082049  1
  Cd  Cd5  1  0.250000  0.206750  0.918404  1
  Cd  Cd6  1  0.250000  0.687830  0.580022  1
  Cd  Cd7  1  0.750000  0.314479  0.411715  1
  In  In8  1  0.250000  0.297568  0.585851  1
  In  In9  1  0.250000  0.790267  0.911451  1
  In  In10  1  0.750000  0.700638  0.406895  1
  In  In11  1  0.750000  0.197160  0.088081  1
