# generated using pymatgen
data_Hf6TaTiAl14GeRh7
_symmetry_space_group_name_H-M   'P 1'
_cell_length_a   8.78202916
_cell_length_b   8.78218475
_cell_length_c   8.78209800
_cell_angle_alpha   120.18715227
_cell_angle_beta   119.76782778
_cell_angle_gamma   90.03816522
_symmetry_Int_Tables_number   1
_chemical_formula_structural   Hf6TaTiAl14GeRh7
_chemical_formula_sum   'Hf6 Ta1 Ti1 Al14 Ge1 Rh7'
_cell_volume   479.09946077
_cell_formula_units_Z   1
loop_
 _symmetry_equiv_pos_site_id
 _symmetry_equiv_pos_as_xyz
  1  'x, y, z'
loop_
 _atom_site_type_symbol
 _atom_site_label
 _atom_site_symmetry_multiplicity
 _atom_site_fract_x
 _atom_site_fract_y
 _atom_site_fract_z
 _atom_site_occupancy
  Hf  Hf0  1  0.797501  0.293683  0.083227  1
  Hf  Hf1  1  0.210459  0.293672  0.496175  1
  Hf  Hf2  1  0.204527  0.704000  0.499467  1
  Hf  Hf3  1  0.211158  0.713953  0.917081  1
  Hf  Hf4  1  0.796871  0.713946  0.502787  1
  Hf  Hf5  1  0.788071  0.287444  0.499370  1
  Ta  Ta6  1  0.379677  0.123113  0.743437  1
  Ti  Ti7  1  0.380738  0.638270  0.257528  1
  Al  Al8  1  0.164303  0.336778  0.172486  1
  Al  Al9  1  0.162307  0.990605  0.828290  1
  Al  Al10  1  0.158133  0.339820  0.822375  1
  Al  Al11  1  0.517439  0.339829  0.181698  1
  Al  Al12  1  0.836237  0.662316  0.826089  1
  Al  Al13  1  0.836055  0.009622  0.173563  1
  Al  Al14  1  0.835588  0.663532  0.172360  1
  Al  Al15  1  0.491164  0.663531  0.827945  1
  Al  Al16  1  0.380573  0.120233  0.260010  1
  Al  Al17  1  0.860221  0.120233  0.739663  1
  Al  Al18  1  0.619641  0.877106  0.257465  1
  Al  Al19  1  0.620213  0.361249  0.741043  1
  Al  Al20  1  0.619961  0.877272  0.739630  1
  Al  Al21  1  0.137640  0.877269  0.257308  1
  Ge  Ge22  1  0.995692  0.495963  0.500284  1
  Rh  Rh23  1  0.001348  0.000394  0.501457  1
  Rh  Rh24  1  0.498935  0.000402  0.999049  1
  Rh  Rh25  1  0.497998  0.498905  0.000906  1
  Rh  Rh26  1  0.498498  0.499868  0.499053  1
  Rh  Rh27  1  0.000792  0.499819  0.001328  1
  Rh  Rh28  1  0.000713  0.001394  0.000685  1
  Rh  Rh29  1  0.497536  0.995778  0.498242  1
