# generated using pymatgen
data_Y7CoBr12
_symmetry_space_group_name_H-M   'P 1'
_cell_length_a   9.22025569
_cell_length_b   9.22025664
_cell_length_c   9.22025716
_cell_angle_alpha   106.73459067
_cell_angle_beta   106.73459409
_cell_angle_gamma   106.73459735
_symmetry_Int_Tables_number   1
_chemical_formula_structural   Y7CoBr12
_chemical_formula_sum   'Y7 Co1 Br12'
_cell_volume   657.46078400
_cell_formula_units_Z   1
loop_
 _symmetry_equiv_pos_site_id
 _symmetry_equiv_pos_as_xyz
  1  'x, y, z'
loop_
 _atom_site_type_symbol
 _atom_site_label
 _atom_site_symmetry_multiplicity
 _atom_site_fract_x
 _atom_site_fract_y
 _atom_site_fract_z
 _atom_site_occupancy
  Y  Y0  1  0.302100  0.097090  0.022166  1
  Y  Y1  1  0.097090  0.022166  0.302100  1
  Y  Y2  1  0.022166  0.302100  0.097090  1
  Y  Y3  1  0.697900  0.902910  0.977834  1
  Y  Y4  1  0.902910  0.977834  0.697900  1
  Y  Y5  1  0.977834  0.697900  0.902910  1
  Y  Y6  1  0.500000  0.500000  0.500000  1
  Co  Co7  1  0.000000  0.000000  0.000000  1
  Br  Br8  1  0.221361  0.070161  0.677412  1
  Br  Br9  1  0.070161  0.677412  0.221361  1
  Br  Br10  1  0.677412  0.221361  0.070161  1
  Br  Br11  1  0.778639  0.929839  0.322588  1
  Br  Br12  1  0.929839  0.322588  0.778639  1
  Br  Br13  1  0.322588  0.778639  0.929839  1
  Br  Br14  1  0.387057  0.461386  0.166759  1
  Br  Br15  1  0.461386  0.166759  0.387057  1
  Br  Br16  1  0.166759  0.387057  0.461386  1
  Br  Br17  1  0.612943  0.538614  0.833241  1
  Br  Br18  1  0.538614  0.833241  0.612943  1
  Br  Br19  1  0.833241  0.612943  0.538614  1
