# generated using pymatgen
data_Yb3LuSc4(B6Os)4
_symmetry_space_group_name_H-M   'P 1'
_cell_length_a   3.53845200
_cell_length_b   8.96705507
_cell_length_c   11.33504701
_cell_angle_alpha   90.00931404
_cell_angle_beta   90.00000000
_cell_angle_gamma   90.00000000
_symmetry_Int_Tables_number   1
_chemical_formula_structural   Yb3LuSc4(B6Os)4
_chemical_formula_sum   'Yb3 Lu1 Sc4 B24 Os4'
_cell_volume   359.65530077
_cell_formula_units_Z   1
loop_
 _symmetry_equiv_pos_site_id
 _symmetry_equiv_pos_as_xyz
  1  'x, y, z'
loop_
 _atom_site_type_symbol
 _atom_site_label
 _atom_site_symmetry_multiplicity
 _atom_site_fract_x
 _atom_site_fract_y
 _atom_site_fract_z
 _atom_site_occupancy
  Yb  Yb0  1  0.000000  0.677733  0.585398  1
  Yb  Yb1  1  0.000000  0.823434  0.084962  1
  Yb  Yb2  1  0.000000  0.176590  0.914870  1
  Lu  Lu3  1  0.000000  0.323061  0.415215  1
  Sc  Sc4  1  0.000000  0.944185  0.370105  1
  Sc  Sc5  1  0.000000  0.054815  0.630449  1
  Sc  Sc6  1  0.000000  0.444300  0.130305  1
  Sc  Sc7  1  0.000000  0.556483  0.868592  1
  B  B8  1  0.500000  0.554811  0.433284  1
  B  B9  1  0.500000  0.444616  0.566241  1
  B  B10  1  0.500000  0.055560  0.067892  1
  B  B11  1  0.500000  0.945123  0.932841  1
  B  B12  1  0.500000  0.753472  0.417803  1
  B  B13  1  0.500000  0.246041  0.581328  1
  B  B14  1  0.500000  0.253806  0.082654  1
  B  B15  1  0.500000  0.746270  0.917495  1
  B  B16  1  0.500000  0.794627  0.264096  1
  B  B17  1  0.500000  0.204567  0.735466  1
  B  B18  1  0.500000  0.295664  0.237139  1
  B  B19  1  0.500000  0.704707  0.763511  1
  B  B20  1  0.500000  0.630180  0.182695  1
  B  B21  1  0.500000  0.369229  0.816408  1
  B  B22  1  0.500000  0.130957  0.318225  1
  B  B23  1  0.500000  0.869522  0.682861  1
  B  B24  1  0.500000  0.983297  0.213542  1
  B  B25  1  0.500000  0.017033  0.787084  1
  B  B26  1  0.500000  0.482393  0.287280  1
  B  B27  1  0.500000  0.517186  0.712268  1
  B  B28  1  0.500000  0.594752  0.025309  1
  B  B29  1  0.500000  0.405101  0.974303  1
  B  B30  1  0.500000  0.096785  0.473972  1
  B  B31  1  0.500000  0.904249  0.525712  1
  Os  Os32  1  0.000000  0.639219  0.318602  1
  Os  Os33  1  0.000000  0.358896  0.680616  1
  Os  Os34  1  0.000000  0.142744  0.183558  1
  Os  Os35  1  0.000000  0.858593  0.817920  1
