# generated using pymatgen
data_Ac7La12ErPb16
_symmetry_space_group_name_H-M   'P 1'
_cell_length_a   8.62310844
_cell_length_b   16.56003610
_cell_length_c   8.69854100
_cell_angle_alpha   90.08878754
_cell_angle_beta   89.77339057
_cell_angle_gamma   90.14144421
_symmetry_Int_Tables_number   1
_chemical_formula_structural   Ac7La12ErPb16
_chemical_formula_sum   'Ac7 La12 Er1 Pb16'
_cell_volume   1242.12787105
_cell_formula_units_Z   1
loop_
 _symmetry_equiv_pos_site_id
 _symmetry_equiv_pos_as_xyz
  1  'x, y, z'
loop_
 _atom_site_type_symbol
 _atom_site_label
 _atom_site_symmetry_multiplicity
 _atom_site_fract_x
 _atom_site_fract_y
 _atom_site_fract_z
 _atom_site_occupancy
  Ac  Ac0  1  0.972749  0.900969  0.820758  1
  Ac  Ac1  1  0.528076  0.098742  0.320593  1
  Ac  Ac2  1  0.028559  0.401732  0.178017  1
  Ac  Ac3  1  0.528747  0.401555  0.322537  1
  Ac  Ac4  1  0.026605  0.098680  0.177452  1
  Ac  Ac5  1  0.473262  0.901532  0.677898  1
  Ac  Ac6  1  0.972245  0.597655  0.819810  1
  La  La7  1  0.626399  0.618004  0.156553  1
  La  La8  1  0.128128  0.880613  0.344047  1
  La  La9  1  0.372985  0.119933  0.844557  1
  La  La10  1  0.872975  0.381356  0.655775  1
  La  La11  1  0.375775  0.381061  0.844263  1
  La  La12  1  0.871638  0.119771  0.655921  1
  La  La13  1  0.627666  0.880047  0.155861  1
  La  La14  1  0.127020  0.617838  0.343543  1
  La  La15  1  0.468671  0.601203  0.676257  1
  La  La16  1  0.790602  0.749149  0.497721  1
  La  La17  1  0.289795  0.749201  0.002449  1
  La  La18  1  0.209648  0.250866  0.502619  1
  Er  Er19  1  0.710964  0.250330  0.996023  1
  Pb  Pb20  1  0.710696  0.452219  0.963067  1
  Pb  Pb21  1  0.209288  0.045311  0.540615  1
  Pb  Pb22  1  0.291398  0.954644  0.039287  1
  Pb  Pb23  1  0.783050  0.546449  0.466790  1
  Pb  Pb24  1  0.292177  0.546025  0.033758  1
  Pb  Pb25  1  0.790842  0.955163  0.459294  1
  Pb  Pb26  1  0.709603  0.047374  0.961490  1
  Pb  Pb27  1  0.214293  0.457924  0.543753  1
  Pb  Pb28  1  0.427790  0.748472  0.372100  1
  Pb  Pb29  1  0.928114  0.749227  0.129972  1
  Pb  Pb30  1  0.572691  0.250010  0.635181  1
  Pb  Pb31  1  0.067093  0.250683  0.871077  1
  Pb  Pb32  1  0.658861  0.746862  0.855064  1
  Pb  Pb33  1  0.167837  0.748545  0.642017  1
  Pb  Pb34  1  0.338622  0.250293  0.141279  1
  Pb  Pb35  1  0.835133  0.250563  0.352603  1
