# generated using pymatgen
data_Dy4Er8GaNi4Hg
_symmetry_space_group_name_H-M   'P 1'
_cell_length_a   8.28091869
_cell_length_b   8.28245295
_cell_length_c   8.28091897
_cell_angle_alpha   112.83053012
_cell_angle_beta   109.42228759
_cell_angle_gamma   106.22090612
_symmetry_Int_Tables_number   1
_chemical_formula_structural   Dy4Er8GaNi4Hg
_chemical_formula_sum   'Dy4 Er8 Ga1 Ni4 Hg1'
_cell_volume   435.79839502
_cell_formula_units_Z   1
loop_
 _symmetry_equiv_pos_site_id
 _symmetry_equiv_pos_as_xyz
  1  'x, y, z'
loop_
 _atom_site_type_symbol
 _atom_site_label
 _atom_site_symmetry_multiplicity
 _atom_site_fract_x
 _atom_site_fract_y
 _atom_site_fract_z
 _atom_site_occupancy
  Dy  Dy0  1  0.179878  0.213655  0.393524  1
  Dy  Dy1  1  0.820131  0.213655  0.033776  1
  Dy  Dy2  1  0.179869  0.786345  0.966224  1
  Dy  Dy3  1  0.820122  0.786345  0.606476  1
  Er  Er4  1  0.039457  0.734859  0.304668  1
  Er  Er5  1  0.960543  0.265141  0.695332  1
  Er  Er6  1  0.569809  0.265141  0.304598  1
  Er  Er7  1  0.430191  0.734859  0.695402  1
  Er  Er8  1  0.673460  0.865236  0.191775  1
  Er  Er9  1  0.326168  0.517698  0.191530  1
  Er  Er10  1  0.326541  0.134764  0.808225  1
  Er  Er11  1  0.673833  0.482302  0.808470  1
  Ga  Ga12  1  0.000000  0.500000  0.500000  1
  Ni  Ni13  1  0.650371  0.500000  0.150371  1
  Ni  Ni14  1  0.349629  0.500000  0.849629  1
  Ni  Ni15  1  0.875687  0.875900  0.000212  1
  Ni  Ni16  1  0.124313  0.124100  0.999788  1
  Hg  Hg17  1  0.500000  0.000000  0.500000  1
