# generated using pymatgen
data_Li3CePr3Si8Rh
_symmetry_space_group_name_H-M   'P 1'
_cell_length_a   3.91157100
_cell_length_b   7.55584169
_cell_length_c   10.46895304
_cell_angle_alpha   89.86274603
_cell_angle_beta   90.00000000
_cell_angle_gamma   90.00000000
_symmetry_Int_Tables_number   1
_chemical_formula_structural   Li3CePr3Si8Rh
_chemical_formula_sum   'Li3 Ce1 Pr3 Si8 Rh1'
_cell_volume   309.41123085
_cell_formula_units_Z   1
loop_
 _symmetry_equiv_pos_site_id
 _symmetry_equiv_pos_as_xyz
  1  'x, y, z'
loop_
 _atom_site_type_symbol
 _atom_site_label
 _atom_site_symmetry_multiplicity
 _atom_site_fract_x
 _atom_site_fract_y
 _atom_site_fract_z
 _atom_site_occupancy
  Li  Li0  1  0.250000  0.493519  0.111808  1
  Li  Li1  1  0.750000  0.005137  0.603594  1
  Li  Li2  1  0.750000  0.500076  0.889979  1
  Ce  Ce3  1  0.750000  0.370244  0.365552  1
  Pr  Pr4  1  0.250000  0.141044  0.867827  1
  Pr  Pr5  1  0.250000  0.642253  0.627151  1
  Pr  Pr6  1  0.750000  0.859657  0.134570  1
  Si  Si7  1  0.250000  0.218585  0.559871  1
  Si  Si8  1  0.250000  0.724281  0.925110  1
  Si  Si9  1  0.750000  0.792170  0.426580  1
  Si  Si10  1  0.750000  0.267371  0.082178  1
  Si  Si11  1  0.250000  0.667305  0.325461  1
  Si  Si12  1  0.250000  0.162543  0.196680  1
  Si  Si13  1  0.750000  0.329219  0.671358  1
  Si  Si14  1  0.750000  0.837109  0.819384  1
  Rh  Rh15  1  0.250000  0.989485  0.392895  1
