# generated using pymatgen
data_Lu3Be2Co7
_symmetry_space_group_name_H-M   'P 1'
_cell_length_a   4.91485956
_cell_length_b   4.91485931
_cell_length_c   8.11549046
_cell_angle_alpha   107.62628604
_cell_angle_beta   72.37370424
_cell_angle_gamma   120.00000080
_symmetry_Int_Tables_number   1
_chemical_formula_structural   Lu3Be2Co7
_chemical_formula_sum   'Lu3 Be2 Co7'
_cell_volume   159.05651547
_cell_formula_units_Z   1
loop_
 _symmetry_equiv_pos_site_id
 _symmetry_equiv_pos_as_xyz
  1  'x, y, z'
loop_
 _atom_site_type_symbol
 _atom_site_label
 _atom_site_symmetry_multiplicity
 _atom_site_fract_x
 _atom_site_fract_y
 _atom_site_fract_z
 _atom_site_occupancy
  Lu  Lu0  1  0.000000  0.000000  0.000000  1
  Lu  Lu1  1  0.859952  0.140048  0.420141  1
  Lu  Lu2  1  0.140047  0.859952  0.579859  1
  Be  Be3  1  0.334311  0.665688  0.997066  1
  Be  Be4  1  0.665688  0.334311  0.002934  1
  Co  Co5  1  0.421170  0.075895  0.233553  1
  Co  Co6  1  0.421170  0.578829  0.233553  1
  Co  Co7  1  0.924105  0.578829  0.233553  1
  Co  Co8  1  0.500000  0.500000  0.500000  1
  Co  Co9  1  0.075894  0.421170  0.766447  1
  Co  Co10  1  0.578829  0.421171  0.766447  1
  Co  Co11  1  0.578829  0.924105  0.766447  1
