# generated using pymatgen
data_Sm2Ti3Co9As7
_symmetry_space_group_name_H-M   'P 1'
_cell_length_a   3.79013400
_cell_length_b   9.53856596
_cell_length_c   9.53856600
_cell_angle_alpha   119.99999321
_cell_angle_beta   90.00000000
_cell_angle_gamma   90.00000000
_symmetry_Int_Tables_number   1
_chemical_formula_structural   Sm2Ti3Co9As7
_chemical_formula_sum   'Sm2 Ti3 Co9 As7'
_cell_volume   298.64235544
_cell_formula_units_Z   1
loop_
 _symmetry_equiv_pos_site_id
 _symmetry_equiv_pos_as_xyz
  1  'x, y, z'
loop_
 _atom_site_type_symbol
 _atom_site_label
 _atom_site_symmetry_multiplicity
 _atom_site_fract_x
 _atom_site_fract_y
 _atom_site_fract_z
 _atom_site_occupancy
  Sm  Sm0  1  0.000000  0.666667  0.333333  1
  Sm  Sm1  1  0.500000  0.333333  0.666667  1
  Ti  Ti2  1  0.500000  0.778226  0.890216  1
  Ti  Ti3  1  0.500000  0.111989  0.221774  1
  Ti  Ti4  1  0.500000  0.109784  0.888011  1
  Co  Co5  1  0.000000  0.574316  0.940634  1
  Co  Co6  1  0.000000  0.366318  0.425684  1
  Co  Co7  1  0.000000  0.059366  0.633682  1
  Co  Co8  1  0.000000  0.879996  0.159399  1
  Co  Co9  1  0.000000  0.279404  0.120004  1
  Co  Co10  1  0.000000  0.840601  0.720596  1
  Co  Co11  1  0.500000  0.950005  0.385594  1
  Co  Co12  1  0.500000  0.435588  0.049995  1
  Co  Co13  1  0.500000  0.614406  0.564412  1
  As  As14  1  0.000000  0.000000  0.000000  1
  As  As15  1  0.500000  0.710217  0.120820  1
  As  As16  1  0.500000  0.410602  0.289783  1
  As  As17  1  0.500000  0.879180  0.589398  1
  As  As18  1  0.000000  0.582517  0.693426  1
  As  As19  1  0.000000  0.110909  0.417483  1
  As  As20  1  0.000000  0.306574  0.889091  1
