# generated using pymatgen
data_Ho3MgIn2Ga2Pd
_symmetry_space_group_name_H-M   'P 1'
_cell_length_a   7.19948823
_cell_length_b   7.19948824
_cell_length_c   4.45437500
_cell_angle_alpha   90.00000000
_cell_angle_beta   90.00000000
_cell_angle_gamma   120.12427770
_symmetry_Int_Tables_number   1
_chemical_formula_structural   Ho3MgIn2Ga2Pd
_chemical_formula_sum   'Ho3 Mg1 In2 Ga2 Pd1'
_cell_volume   199.69878768
_cell_formula_units_Z   1
loop_
 _symmetry_equiv_pos_site_id
 _symmetry_equiv_pos_as_xyz
  1  'x, y, z'
loop_
 _atom_site_type_symbol
 _atom_site_label
 _atom_site_symmetry_multiplicity
 _atom_site_fract_x
 _atom_site_fract_y
 _atom_site_fract_z
 _atom_site_occupancy
  Ho  Ho0  1  0.999381  0.584878  0.000000  1
  Ho  Ho1  1  0.413621  0.413621  0.000000  1
  Ho  Ho2  1  0.584878  0.999381  0.000000  1
  Mg  Mg3  1  0.763273  0.763273  0.500000  1
  In  In4  1  0.995392  0.244287  0.500000  1
  In  In5  1  0.244287  0.995392  0.500000  1
  Ga  Ga6  1  0.338625  0.663874  0.500000  1
  Ga  Ga7  1  0.663874  0.338625  0.500000  1
  Pd  Pd8  1  0.996670  0.996670  0.000000  1
