# generated using pymatgen
data_Tb4TmCo19SiP11
_symmetry_space_group_name_H-M   'P 1'
_cell_length_a   12.01141100
_cell_length_b   12.00229484
_cell_length_c   3.67951400
_cell_angle_alpha   90.00000000
_cell_angle_beta   90.00000000
_cell_angle_gamma   120.02513116
_symmetry_Int_Tables_number   1
_chemical_formula_structural   Tb4TmCo19SiP11
_chemical_formula_sum   'Tb4 Tm1 Co19 Si1 P11'
_cell_volume   459.27137119
_cell_formula_units_Z   1
loop_
 _symmetry_equiv_pos_site_id
 _symmetry_equiv_pos_as_xyz
  1  'x, y, z'
loop_
 _atom_site_type_symbol
 _atom_site_label
 _atom_site_symmetry_multiplicity
 _atom_site_fract_x
 _atom_site_fract_y
 _atom_site_fract_z
 _atom_site_occupancy
  Tb  Tb0  1  0.333748  0.667824  0.000000  1
  Tb  Tb1  1  0.665926  0.332176  0.000000  1
  Tb  Tb2  1  0.000646  0.187961  0.500000  1
  Tb  Tb3  1  0.812685  0.812039  0.500000  1
  Tm  Tm4  1  0.185336  0.000000  0.500000  1
  Co  Co5  1  0.199693  0.378017  0.000000  1
  Co  Co6  1  0.623107  0.821742  0.000000  1
  Co  Co7  1  0.174751  0.797661  0.000000  1
  Co  Co8  1  0.821677  0.621983  0.000000  1
  Co  Co9  1  0.801365  0.178258  0.000000  1
  Co  Co10  1  0.377090  0.202339  0.000000  1
  Co  Co11  1  0.557450  0.000000  0.000000  1
  Co  Co12  1  0.997715  0.551954  0.000000  1
  Co  Co13  1  0.445763  0.448046  0.000000  1
  Co  Co14  1  0.124334  0.483763  0.500000  1
  Co  Co15  1  0.516243  0.641465  0.500000  1
  Co  Co16  1  0.358557  0.873504  0.500000  1
  Co  Co17  1  0.640571  0.516237  0.500000  1
  Co  Co18  1  0.874779  0.358535  0.500000  1
  Co  Co19  1  0.485053  0.126496  0.500000  1
  Co  Co20  1  0.716728  0.000000  0.500000  1
  Co  Co21  1  0.999308  0.714737  0.500000  1
  Co  Co22  1  0.284571  0.285263  0.500000  1
  Co  Co23  1  0.001448  0.000000  0.000000  1
  Si  Si24  1  0.368264  0.000000  0.000000  1
  P  P25  1  0.000023  0.369127  0.000000  1
  P  P26  1  0.630896  0.630873  0.000000  1
  P  P27  1  0.313351  0.479746  0.500000  1
  P  P28  1  0.521447  0.835411  0.500000  1
  P  P29  1  0.165977  0.686936  0.500000  1
  P  P30  1  0.833604  0.520254  0.500000  1
  P  P31  1  0.686036  0.164589  0.500000  1
  P  P32  1  0.479041  0.313064  0.500000  1
  P  P33  1  0.820177  0.000000  0.000000  1
  P  P34  1  0.001049  0.819459  0.000000  1
  P  P35  1  0.181590  0.180541  0.000000  1
