# generated using pymatgen
data_La17Nd3Ir11Ru
_symmetry_space_group_name_H-M   'P 1'
_cell_length_a   11.44034601
_cell_length_b   11.44627401
_cell_length_c   6.63945700
_cell_angle_alpha   90.00000000
_cell_angle_beta   90.00000000
_cell_angle_gamma   90.00487674
_symmetry_Int_Tables_number   1
_chemical_formula_structural   La17Nd3Ir11Ru
_chemical_formula_sum   'La17 Nd3 Ir11 Ru1'
_cell_volume   869.43247714
_cell_formula_units_Z   1
loop_
 _symmetry_equiv_pos_site_id
 _symmetry_equiv_pos_as_xyz
  1  'x, y, z'
loop_
 _atom_site_type_symbol
 _atom_site_label
 _atom_site_symmetry_multiplicity
 _atom_site_fract_x
 _atom_site_fract_y
 _atom_site_fract_z
 _atom_site_occupancy
  La  La0  1  0.089960  0.292652  0.113470  1
  La  La1  1  0.791789  0.410192  0.112194  1
  La  La2  1  0.208211  0.589808  0.112194  1
  La  La3  1  0.910040  0.707348  0.113470  1
  La  La4  1  0.408795  0.790631  0.387894  1
  La  La5  1  0.591205  0.209369  0.387894  1
  La  La6  1  0.291152  0.091308  0.388484  1
  La  La7  1  0.708848  0.908692  0.388484  1
  La  La8  1  0.408935  0.209543  0.887910  1
  La  La9  1  0.708586  0.091190  0.886731  1
  La  La10  1  0.291414  0.908810  0.886731  1
  La  La11  1  0.591065  0.790457  0.887910  1
  La  La12  1  0.090583  0.707453  0.609133  1
  La  La13  1  0.909417  0.292547  0.609133  1
  La  La14  1  0.207877  0.409520  0.609918  1
  La  La15  1  0.792123  0.590480  0.609918  1
  La  La16  1  0.000000  0.000000  0.000807  1
  Nd  Nd17  1  0.500000  0.500000  0.001009  1
  Nd  Nd18  1  0.500000  0.500000  0.501365  1
  Nd  Nd19  1  0.000000  0.000000  0.501330  1
  Ir  Ir20  1  0.153901  0.846829  0.249898  1
  Ir  Ir21  1  0.347102  0.346073  0.250286  1
  Ir  Ir22  1  0.652898  0.653927  0.250286  1
  Ir  Ir23  1  0.846099  0.153171  0.249898  1
  Ir  Ir24  1  0.346929  0.653637  0.750302  1
  Ir  Ir25  1  0.153950  0.153103  0.750741  1
  Ir  Ir26  1  0.846050  0.846897  0.750741  1
  Ir  Ir27  1  0.653071  0.346363  0.750302  1
  Ir  Ir28  1  0.500000  0.000000  0.120443  1
  Ir  Ir29  1  0.500000  0.000000  0.620714  1
  Ir  Ir30  1  0.000000  0.500000  0.879050  1
  Ru  Ru31  1  0.000000  0.500000  0.381355  1
