# generated using pymatgen
data_Pr2CuPPt7
_symmetry_space_group_name_H-M   'P 1'
_cell_length_a   9.20720885
_cell_length_b   9.20720839
_cell_length_c   4.24675400
_cell_angle_alpha   90.00000000
_cell_angle_beta   90.00000000
_cell_angle_gamma   145.71986185
_symmetry_Int_Tables_number   1
_chemical_formula_structural   Pr2CuPPt7
_chemical_formula_sum   'Pr2 Cu1 P1 Pt7'
_cell_volume   202.77120762
_cell_formula_units_Z   1
loop_
 _symmetry_equiv_pos_site_id
 _symmetry_equiv_pos_as_xyz
  1  'x, y, z'
loop_
 _atom_site_type_symbol
 _atom_site_label
 _atom_site_symmetry_multiplicity
 _atom_site_fract_x
 _atom_site_fract_y
 _atom_site_fract_z
 _atom_site_occupancy
  Pr  Pr0  1  0.618774  0.374008  0.500000  1
  Pr  Pr1  1  0.372792  0.617342  0.500000  1
  Cu  Cu2  1  0.195148  0.791834  0.500000  1
  P  P3  1  0.224672  0.221972  0.000000  1
  Pt  Pt4  1  0.111671  0.885369  0.000000  1
  Pt  Pt5  1  0.890967  0.112285  0.000000  1
  Pt  Pt6  1  0.484011  0.983758  0.000000  1
  Pt  Pt7  1  0.985504  0.494652  0.000000  1
  Pt  Pt8  1  0.789854  0.195006  0.500000  1
  Pt  Pt9  1  0.003340  0.001980  0.500000  1
  Pt  Pt10  1  0.636864  0.635391  0.000000  1
