# generated using pymatgen
data_Sc14(InCo)3
_symmetry_space_group_name_H-M   'P 1'
_cell_length_a   8.87334600
_cell_length_b   8.87334600
_cell_length_c   21.62858500
_cell_angle_alpha   90.00000000
_cell_angle_beta   90.00000000
_cell_angle_gamma   90.00000000
_symmetry_Int_Tables_number   1
_chemical_formula_structural   Sc14(InCo)3
_chemical_formula_sum   'Sc56 In12 Co12'
_cell_volume   1702.95409175
_cell_formula_units_Z   4
loop_
 _symmetry_equiv_pos_site_id
 _symmetry_equiv_pos_as_xyz
  1  'x, y, z'
loop_
 _atom_site_type_symbol
 _atom_site_label
 _atom_site_symmetry_multiplicity
 _atom_site_fract_x
 _atom_site_fract_y
 _atom_site_fract_z
 _atom_site_occupancy
  Sc  Sc0  1  0.315883  0.814901  0.354743  1
  Sc  Sc1  1  0.314901  0.815883  0.854743  1
  Sc  Sc2  1  0.309283  0.690717  0.500000  1
  Sc  Sc3  1  0.184117  0.685099  0.145257  1
  Sc  Sc4  1  0.185099  0.684117  0.645257  1
  Sc  Sc5  1  0.314901  0.184117  0.854743  1
  Sc  Sc6  1  0.500000  0.500000  0.604427  1
  Sc  Sc7  1  0.500000  0.308294  0.733874  1
  Sc  Sc8  1  0.809283  0.809283  0.000000  1
  Sc  Sc9  1  0.809283  0.190717  0.000000  1
  Sc  Sc10  1  0.685099  0.815883  0.854743  1
  Sc  Sc11  1  0.814901  0.684117  0.645257  1
  Sc  Sc12  1  0.191706  0.000000  0.233874  1
  Sc  Sc13  1  0.000000  0.311300  0.279932  1
  Sc  Sc14  1  0.000000  0.500000  0.536547  1
  Sc  Sc15  1  0.190717  0.190717  0.000000  1
  Sc  Sc16  1  0.000000  0.500000  0.036547  1
  Sc  Sc17  1  0.190717  0.809283  0.000000  1
  Sc  Sc18  1  0.000000  0.808294  0.766126  1
  Sc  Sc19  1  0.000000  0.000000  0.104427  1
  Sc  Sc20  1  0.184117  0.314901  0.145257  1
  Sc  Sc21  1  0.000000  0.191706  0.766126  1
  Sc  Sc22  1  0.684117  0.814901  0.354743  1
  Sc  Sc23  1  0.701045  0.500000  0.947295  1
  Sc  Sc24  1  0.815883  0.314901  0.145257  1
  Sc  Sc25  1  0.185099  0.315883  0.645257  1
  Sc  Sc26  1  0.685099  0.184117  0.854743  1
  Sc  Sc27  1  0.315883  0.185099  0.354743  1
  Sc  Sc28  1  0.309283  0.309283  0.500000  1
  Sc  Sc29  1  0.688700  0.000000  0.720068  1
  Sc  Sc30  1  0.814901  0.315883  0.645257  1
  Sc  Sc31  1  0.691706  0.500000  0.266126  1
  Sc  Sc32  1  0.500000  0.188700  0.220068  1
  Sc  Sc33  1  0.298955  0.500000  0.947295  1
  Sc  Sc34  1  0.188700  0.500000  0.779932  1
  Sc  Sc35  1  0.000000  0.688700  0.279932  1
  Sc  Sc36  1  0.500000  0.000000  0.463453  1
  Sc  Sc37  1  0.690717  0.309283  0.500000  1
  Sc  Sc38  1  0.000000  0.798955  0.447295  1
  Sc  Sc39  1  0.201045  0.000000  0.552705  1
  Sc  Sc40  1  0.500000  0.701045  0.052705  1
  Sc  Sc41  1  0.500000  0.811300  0.220068  1
  Sc  Sc42  1  0.000000  0.201045  0.447295  1
  Sc  Sc43  1  0.000000  0.000000  0.895573  1
  Sc  Sc44  1  0.500000  0.691706  0.733874  1
  Sc  Sc45  1  0.798955  0.000000  0.552705  1
  Sc  Sc46  1  0.500000  0.500000  0.395573  1
  Sc  Sc47  1  0.811300  0.500000  0.779932  1
  Sc  Sc48  1  0.500000  0.298955  0.052705  1
  Sc  Sc49  1  0.684117  0.185099  0.354743  1
  Sc  Sc50  1  0.308294  0.500000  0.266126  1
  Sc  Sc51  1  0.808294  0.000000  0.233874  1
  Sc  Sc52  1  0.690717  0.690717  0.500000  1
  Sc  Sc53  1  0.500000  0.000000  0.963453  1
  Sc  Sc54  1  0.311300  0.000000  0.720068  1
  Sc  Sc55  1  0.815883  0.685099  0.145257  1
  In  In56  1  0.000000  0.000000  0.657334  1
  In  In57  1  0.500000  0.500000  0.842666  1
  In  In58  1  0.500000  0.500000  0.157334  1
  In  In59  1  0.500000  0.836421  0.605114  1
  In  In60  1  0.163579  0.500000  0.394886  1
  In  In61  1  0.663579  0.000000  0.105114  1
  In  In62  1  0.000000  0.000000  0.342666  1
  In  In63  1  0.336421  0.000000  0.105114  1
  In  In64  1  0.500000  0.163579  0.605114  1
  In  In65  1  0.000000  0.336421  0.894886  1
  In  In66  1  0.836421  0.500000  0.394886  1
  In  In67  1  0.000000  0.663579  0.894886  1
  Co  Co68  1  0.000000  0.220312  0.561377  1
  Co  Co69  1  0.500000  0.000000  0.801504  1
  Co  Co70  1  0.279688  0.500000  0.061377  1
  Co  Co71  1  0.500000  0.279688  0.938623  1
  Co  Co72  1  0.000000  0.779688  0.561377  1
  Co  Co73  1  0.720312  0.500000  0.061377  1
  Co  Co74  1  0.500000  0.000000  0.301504  1
  Co  Co75  1  0.500000  0.720312  0.938623  1
  Co  Co76  1  0.779688  0.000000  0.438623  1
  Co  Co77  1  0.000000  0.500000  0.198496  1
  Co  Co78  1  0.220312  0.000000  0.438623  1
  Co  Co79  1  0.000000  0.500000  0.698496  1
