# generated using pymatgen
data_Y6FeCo(P3Ir4)4
_symmetry_space_group_name_H-M   'P 1'
_cell_length_a   3.94598700
_cell_length_b   11.15121100
_cell_length_c   12.72281800
_cell_angle_alpha   90.00000000
_cell_angle_beta   90.00000000
_cell_angle_gamma   90.00000000
_symmetry_Int_Tables_number   1
_chemical_formula_structural   Y6FeCo(P3Ir4)4
_chemical_formula_sum   'Y6 Fe1 Co1 P12 Ir16'
_cell_volume   559.83622704
_cell_formula_units_Z   1
loop_
 _symmetry_equiv_pos_site_id
 _symmetry_equiv_pos_as_xyz
  1  'x, y, z'
loop_
 _atom_site_type_symbol
 _atom_site_label
 _atom_site_symmetry_multiplicity
 _atom_site_fract_x
 _atom_site_fract_y
 _atom_site_fract_z
 _atom_site_occupancy
  Y  Y0  1  0.000000  0.500000  0.522107  1
  Y  Y1  1  0.500000  0.000000  0.477834  1
  Y  Y2  1  0.500000  0.817654  0.200980  1
  Y  Y3  1  0.500000  0.182346  0.200980  1
  Y  Y4  1  0.000000  0.682190  0.800028  1
  Y  Y5  1  0.000000  0.317810  0.800028  1
  Fe  Fe6  1  0.000000  0.500000  0.993133  1
  Co  Co7  1  0.500000  0.000000  0.021799  1
  P  P8  1  0.500000  0.500000  0.882732  1
  P  P9  1  0.000000  0.000000  0.120338  1
  P  P10  1  0.500000  0.500000  0.354847  1
  P  P11  1  0.000000  0.000000  0.641501  1
  P  P12  1  0.500000  0.315920  0.619683  1
  P  P13  1  0.500000  0.684080  0.619683  1
  P  P14  1  0.000000  0.184956  0.380605  1
  P  P15  1  0.000000  0.815044  0.380605  1
  P  P16  1  0.500000  0.852786  0.896282  1
  P  P17  1  0.500000  0.147214  0.896282  1
  P  P18  1  0.000000  0.654172  0.102275  1
  P  P19  1  0.000000  0.345828  0.102275  1
  Ir  Ir20  1  0.500000  0.500000  0.172077  1
  Ir  Ir21  1  0.000000  0.000000  0.821806  1
  Ir  Ir22  1  0.500000  0.500000  0.702381  1
  Ir  Ir23  1  0.000000  0.000000  0.298651  1
  Ir  Ir24  1  0.500000  0.336023  0.994972  1
  Ir  Ir25  1  0.500000  0.663977  0.994972  1
  Ir  Ir26  1  0.000000  0.159355  0.003348  1
  Ir  Ir27  1  0.000000  0.840645  0.003348  1
  Ir  Ir28  1  0.500000  0.294006  0.428345  1
  Ir  Ir29  1  0.500000  0.705994  0.428345  1
  Ir  Ir30  1  0.000000  0.207535  0.570424  1
  Ir  Ir31  1  0.000000  0.792465  0.570424  1
  Ir  Ir32  1  0.500000  0.869975  0.714376  1
  Ir  Ir33  1  0.500000  0.130025  0.714376  1
  Ir  Ir34  1  0.000000  0.629177  0.284079  1
  Ir  Ir35  1  0.000000  0.370823  0.284079  1
