# generated using pymatgen
data_BaZn3Pd2
_symmetry_space_group_name_H-M   'P 1'
_cell_length_a   6.69908821
_cell_length_b   6.69908827
_cell_length_c   5.70466500
_cell_angle_alpha   90.00000000
_cell_angle_beta   90.00000000
_cell_angle_gamma   103.33272108
_symmetry_Int_Tables_number   1
_chemical_formula_structural   BaZn3Pd2
_chemical_formula_sum   'Ba2 Zn6 Pd4'
_cell_volume   249.11249402
_cell_formula_units_Z   2
loop_
 _symmetry_equiv_pos_site_id
 _symmetry_equiv_pos_as_xyz
  1  'x, y, z'
loop_
 _atom_site_type_symbol
 _atom_site_label
 _atom_site_symmetry_multiplicity
 _atom_site_fract_x
 _atom_site_fract_y
 _atom_site_fract_z
 _atom_site_occupancy
  Ba  Ba0  1  0.669572  0.669572  0.250000  1
  Ba  Ba1  1  0.330428  0.330428  0.750000  1
  Zn  Zn2  1  0.924264  0.924264  0.750000  1
  Zn  Zn3  1  0.075736  0.075736  0.250000  1
  Zn  Zn4  1  0.534747  0.920191  0.750000  1
  Zn  Zn5  1  0.465253  0.079809  0.250000  1
  Zn  Zn6  1  0.920191  0.534747  0.750000  1
  Zn  Zn7  1  0.079809  0.465253  0.250000  1
  Pd  Pd8  1  0.796295  0.203705  0.500000  1
  Pd  Pd9  1  0.203705  0.796295  0.000000  1
  Pd  Pd10  1  0.796295  0.203705  0.000000  1
  Pd  Pd11  1  0.203705  0.796295  0.500000  1
