# generated using pymatgen
data_La9Pr7(CdPd)4
_symmetry_space_group_name_H-M   'P 1'
_cell_length_a   10.16264175
_cell_length_b   10.16264217
_cell_length_c   10.15395300
_cell_angle_alpha   60.02827626
_cell_angle_beta   60.02827490
_cell_angle_gamma   60.23010620
_symmetry_Int_Tables_number   1
_chemical_formula_structural   La9Pr7(CdPd)4
_chemical_formula_sum   'La9 Pr7 Cd4 Pd4'
_cell_volume   743.13735235
_cell_formula_units_Z   1
loop_
 _symmetry_equiv_pos_site_id
 _symmetry_equiv_pos_as_xyz
  1  'x, y, z'
loop_
 _atom_site_type_symbol
 _atom_site_label
 _atom_site_symmetry_multiplicity
 _atom_site_fract_x
 _atom_site_fract_y
 _atom_site_fract_z
 _atom_site_occupancy
  La  La0  1  0.350597  0.350597  0.350579  1
  La  La1  1  0.350597  0.350597  0.948229  1
  La  La2  1  0.351228  0.947016  0.350878  1
  La  La3  1  0.947016  0.351228  0.350878  1
  La  La4  1  0.806379  0.193336  0.193928  1
  La  La5  1  0.193336  0.806379  0.806356  1
  La  La6  1  0.193336  0.806379  0.193928  1
  La  La7  1  0.806379  0.193336  0.806356  1
  La  La8  1  0.193663  0.193663  0.806337  1
  Pr  Pr9  1  0.806029  0.806029  0.193971  1
  Pr  Pr10  1  0.935149  0.565182  0.565549  1
  Pr  Pr11  1  0.565182  0.935149  0.934120  1
  Pr  Pr12  1  0.565182  0.935149  0.565549  1
  Pr  Pr13  1  0.935149  0.565182  0.934120  1
  Pr  Pr14  1  0.565276  0.565276  0.934724  1
  Pr  Pr15  1  0.934611  0.934611  0.565389  1
  Cd  Cd16  1  0.580021  0.580021  0.579502  1
  Cd  Cd17  1  0.580021  0.580021  0.260455  1
  Cd  Cd18  1  0.579842  0.260442  0.579858  1
  Cd  Cd19  1  0.260442  0.579842  0.579858  1
  Pd  Pd20  1  0.143134  0.143134  0.142967  1
  Pd  Pd21  1  0.143134  0.143134  0.570766  1
  Pd  Pd22  1  0.143665  0.570632  0.142852  1
  Pd  Pd23  1  0.570632  0.143665  0.142852  1
