# generated using pymatgen
data_Y6Ho10Cd3AgIr3Pd
_symmetry_space_group_name_H-M   'P 1'
_cell_length_a   9.63441267
_cell_length_b   9.63441283
_cell_length_c   9.63441100
_cell_angle_alpha   60.15644722
_cell_angle_beta   60.15645352
_cell_angle_gamma   60.15644910
_symmetry_Int_Tables_number   1
_chemical_formula_structural   Y6Ho10Cd3AgIr3Pd
_chemical_formula_sum   'Y6 Ho10 Cd3 Ag1 Ir3 Pd1'
_cell_volume   634.59538815
_cell_formula_units_Z   1
loop_
 _symmetry_equiv_pos_site_id
 _symmetry_equiv_pos_as_xyz
  1  'x, y, z'
loop_
 _atom_site_type_symbol
 _atom_site_label
 _atom_site_symmetry_multiplicity
 _atom_site_fract_x
 _atom_site_fract_y
 _atom_site_fract_z
 _atom_site_occupancy
  Y  Y0  1  0.937033  0.562482  0.562482  1
  Y  Y1  1  0.564860  0.937094  0.937094  1
  Y  Y2  1  0.562482  0.937033  0.562482  1
  Y  Y3  1  0.937094  0.564860  0.937094  1
  Y  Y4  1  0.562482  0.562482  0.937033  1
  Y  Y5  1  0.937094  0.937094  0.564860  1
  Ho  Ho6  1  0.347251  0.347251  0.347251  1
  Ho  Ho7  1  0.353621  0.353621  0.947944  1
  Ho  Ho8  1  0.353621  0.947944  0.353621  1
  Ho  Ho9  1  0.947944  0.353621  0.353621  1
  Ho  Ho10  1  0.805151  0.189846  0.189846  1
  Ho  Ho11  1  0.187992  0.810892  0.810892  1
  Ho  Ho12  1  0.189846  0.805151  0.189846  1
  Ho  Ho13  1  0.810892  0.187992  0.810892  1
  Ho  Ho14  1  0.189846  0.189846  0.805151  1
  Ho  Ho15  1  0.810892  0.810892  0.187992  1
  Cd  Cd16  1  0.580620  0.580620  0.258529  1
  Cd  Cd17  1  0.580620  0.258529  0.580620  1
  Cd  Cd18  1  0.258529  0.580620  0.580620  1
  Ag  Ag19  1  0.581905  0.581905  0.581905  1
  Ir  Ir20  1  0.141529  0.141529  0.574052  1
  Ir  Ir21  1  0.141529  0.574052  0.141529  1
  Ir  Ir22  1  0.574052  0.141529  0.141529  1
  Pd  Pd23  1  0.143115  0.143115  0.143115  1
