# generated using pymatgen
data_Pr2Er2TmSi4
_symmetry_space_group_name_H-M   'P 1'
_cell_length_a   7.47420000
_cell_length_b   7.77626400
_cell_length_c   14.76744000
_cell_angle_alpha   90.00000000
_cell_angle_beta   90.00000000
_cell_angle_gamma   90.00000000
_symmetry_Int_Tables_number   1
_chemical_formula_structural   Pr2Er2TmSi4
_chemical_formula_sum   'Pr8 Er8 Tm4 Si16'
_cell_volume   858.30358412
_cell_formula_units_Z   4
loop_
 _symmetry_equiv_pos_site_id
 _symmetry_equiv_pos_as_xyz
  1  'x, y, z'
loop_
 _atom_site_type_symbol
 _atom_site_label
 _atom_site_symmetry_multiplicity
 _atom_site_fract_x
 _atom_site_fract_y
 _atom_site_fract_z
 _atom_site_occupancy
  Pr  Pr0  1  0.018500  0.177259  0.402398  1
  Pr  Pr1  1  0.518500  0.322741  0.402398  1
  Pr  Pr2  1  0.481500  0.677259  0.902398  1
  Pr  Pr3  1  0.481500  0.677259  0.597602  1
  Pr  Pr4  1  0.981500  0.822741  0.597602  1
  Pr  Pr5  1  0.981500  0.822741  0.902398  1
  Pr  Pr6  1  0.518500  0.322741  0.097602  1
  Pr  Pr7  1  0.018500  0.177259  0.097602  1
  Er  Er8  1  0.323825  0.177177  0.623793  1
  Er  Er9  1  0.676175  0.822823  0.376207  1
  Er  Er10  1  0.176175  0.677177  0.376207  1
  Er  Er11  1  0.823825  0.322823  0.876207  1
  Er  Er12  1  0.823825  0.322823  0.623793  1
  Er  Er13  1  0.323825  0.177177  0.876207  1
  Er  Er14  1  0.176175  0.677177  0.123793  1
  Er  Er15  1  0.676175  0.822823  0.123793  1
  Tm  Tm16  1  0.656483  0.990748  0.750000  1
  Tm  Tm17  1  0.843517  0.490748  0.250000  1
  Tm  Tm18  1  0.343517  0.009252  0.250000  1
  Tm  Tm19  1  0.156483  0.509252  0.750000  1
  Si  Si20  1  0.277476  0.877843  0.750000  1
  Si  Si21  1  0.470677  0.614139  0.250000  1
  Si  Si22  1  0.029323  0.114139  0.750000  1
  Si  Si23  1  0.529323  0.385861  0.750000  1
  Si  Si24  1  0.147894  0.467392  0.539372  1
  Si  Si25  1  0.970677  0.885861  0.250000  1
  Si  Si26  1  0.722524  0.122157  0.250000  1
  Si  Si27  1  0.852106  0.532608  0.039372  1
  Si  Si28  1  0.352106  0.967392  0.039372  1
  Si  Si29  1  0.147894  0.467392  0.960628  1
  Si  Si30  1  0.647894  0.032608  0.539372  1
  Si  Si31  1  0.352106  0.967392  0.460628  1
  Si  Si32  1  0.852106  0.532608  0.460628  1
  Si  Si33  1  0.777476  0.622157  0.750000  1
  Si  Si34  1  0.222524  0.377843  0.250000  1
  Si  Si35  1  0.647894  0.032608  0.960628  1
