# generated using pymatgen
data_Dy2Y9Ho2Er3(InRh)4
_symmetry_space_group_name_H-M   'P 1'
_cell_length_a   9.67089579
_cell_length_b   9.67100658
_cell_length_c   9.67280281
_cell_angle_alpha   59.99163706
_cell_angle_beta   60.00296608
_cell_angle_gamma   60.14598820
_symmetry_Int_Tables_number   1
_chemical_formula_structural   Dy2Y9Ho2Er3(InRh)4
_chemical_formula_sum   'Dy2 Y9 Ho2 Er3 In4 Rh4'
_cell_volume   640.37567383
_cell_formula_units_Z   1
loop_
 _symmetry_equiv_pos_site_id
 _symmetry_equiv_pos_as_xyz
  1  'x, y, z'
loop_
 _atom_site_type_symbol
 _atom_site_label
 _atom_site_symmetry_multiplicity
 _atom_site_fract_x
 _atom_site_fract_y
 _atom_site_fract_z
 _atom_site_occupancy
  Dy  Dy0  1  0.688546  0.311786  0.689012  1
  Dy  Dy1  1  0.551049  0.147176  0.149352  1
  Y  Y2  1  0.937050  0.936738  0.562165  1
  Y  Y3  1  0.148257  0.148031  0.550567  1
  Y  Y4  1  0.561279  0.937268  0.560098  1
  Y  Y5  1  0.151558  0.151486  0.152909  1
  Y  Y6  1  0.310787  0.311292  0.689438  1
  Y  Y7  1  0.937578  0.561443  0.559805  1
  Y  Y8  1  0.558851  0.559102  0.940474  1
  Y  Y9  1  0.561809  0.936260  0.939154  1
  Y  Y10  1  0.936341  0.561847  0.939285  1
  Ho  Ho11  1  0.147282  0.550962  0.149209  1
  Ho  Ho12  1  0.311474  0.688708  0.689188  1
  Er  Er13  1  0.689208  0.311508  0.310659  1
  Er  Er14  1  0.689110  0.689055  0.310903  1
  Er  Er15  1  0.311420  0.689206  0.310773  1
  In  In16  1  0.917925  0.917744  0.248521  1
  In  In17  1  0.249129  0.917825  0.917712  1
  In  In18  1  0.918221  0.248938  0.917686  1
  In  In19  1  0.916815  0.916744  0.917008  1
  Rh  Rh20  1  0.360108  0.360812  0.351508  1
  Rh  Rh21  1  0.922201  0.363393  0.357621  1
  Rh  Rh22  1  0.360678  0.361252  0.928535  1
  Rh  Rh23  1  0.363321  0.921421  0.358414  1
