# generated using pymatgen
data_LiPr6IrBr12
_symmetry_space_group_name_H-M   'P 1'
_cell_length_a   9.65864687
_cell_length_b   9.67103262
_cell_length_c   9.66518950
_cell_angle_alpha   108.17809511
_cell_angle_beta   108.07234079
_cell_angle_gamma   108.07105743
_symmetry_Int_Tables_number   1
_chemical_formula_structural   LiPr6IrBr12
_chemical_formula_sum   'Li1 Pr6 Ir1 Br12'
_cell_volume   727.97250437
_cell_formula_units_Z   1
loop_
 _symmetry_equiv_pos_site_id
 _symmetry_equiv_pos_as_xyz
  1  'x, y, z'
loop_
 _atom_site_type_symbol
 _atom_site_label
 _atom_site_symmetry_multiplicity
 _atom_site_fract_x
 _atom_site_fract_y
 _atom_site_fract_z
 _atom_site_occupancy
  Li  Li0  1  0.500000  0.500000  0.500000  1
  Pr  Pr1  1  0.119008  0.325890  0.036938  1
  Pr  Pr2  1  0.324919  0.037133  0.118620  1
  Pr  Pr3  1  0.037228  0.118602  0.325665  1
  Pr  Pr4  1  0.962773  0.881398  0.674336  1
  Pr  Pr5  1  0.675081  0.962868  0.881380  1
  Pr  Pr6  1  0.880992  0.674110  0.963062  1
  Ir  Ir7  1  0.000000  0.000000  0.000000  1
  Br  Br8  1  0.214801  0.686615  0.071039  1
  Br  Br9  1  0.465481  0.386456  0.179858  1
  Br  Br10  1  0.686692  0.071004  0.214965  1
  Br  Br11  1  0.928969  0.785165  0.313517  1
  Br  Br12  1  0.179812  0.465337  0.386491  1
  Br  Br13  1  0.386649  0.179929  0.465554  1
  Br  Br14  1  0.613351  0.820071  0.534447  1
  Br  Br15  1  0.820189  0.534663  0.613509  1
  Br  Br16  1  0.071032  0.214835  0.686484  1
  Br  Br17  1  0.313309  0.928997  0.785035  1
  Br  Br18  1  0.534519  0.613544  0.820143  1
  Br  Br19  1  0.785199  0.313385  0.928961  1
