# generated using pymatgen
data_Ca6YbThBi6
_symmetry_space_group_name_H-M   'P 1'
_cell_length_a   8.32523642
_cell_length_b   8.42754944
_cell_length_c   8.42739543
_cell_angle_alpha   109.71782693
_cell_angle_beta   109.22169957
_cell_angle_gamma   109.23463571
_symmetry_Int_Tables_number   1
_chemical_formula_structural   Ca6YbThBi6
_chemical_formula_sum   'Ca6 Yb1 Th1 Bi6'
_cell_volume   456.49756937
_cell_formula_units_Z   1
loop_
 _symmetry_equiv_pos_site_id
 _symmetry_equiv_pos_as_xyz
  1  'x, y, z'
loop_
 _atom_site_type_symbol
 _atom_site_label
 _atom_site_symmetry_multiplicity
 _atom_site_fract_x
 _atom_site_fract_y
 _atom_site_fract_z
 _atom_site_occupancy
  Ca  Ca0  1  0.645805  0.499987  0.999946  1
  Ca  Ca1  1  0.500309  0.000221  0.648882  1
  Ca  Ca2  1  0.358479  0.354413  0.360403  1
  Ca  Ca3  1  0.504306  0.005924  0.145685  1
  Ca  Ca4  1  0.000071  0.648662  0.499826  1
  Ca  Ca5  1  0.851374  0.851161  0.851357  1
  Yb  Yb6  1  0.998325  0.139810  0.494343  1
  Th  Th7  1  0.144981  0.499736  0.999600  1
  Bi  Bi8  1  0.370880  0.623688  0.754221  1
  Bi  Bi9  1  0.879613  0.251616  0.125762  1
  Bi  Bi10  1  0.616997  0.745958  0.369690  1
  Bi  Bi11  1  0.127800  0.874069  0.248484  1
  Bi  Bi12  1  0.247049  0.130394  0.875811  1
  Bi  Bi13  1  0.754012  0.374357  0.625993  1
