# generated using pymatgen
data_Hf4Ta6Si6C
_symmetry_space_group_name_H-M   'P 1'
_cell_length_a   7.69693446
_cell_length_b   7.68422008
_cell_length_c   5.34068103
_cell_angle_alpha   89.59626853
_cell_angle_beta   90.20153204
_cell_angle_gamma   119.94535701
_symmetry_Int_Tables_number   1
_chemical_formula_structural   Hf4Ta6Si6C
_chemical_formula_sum   'Hf4 Ta6 Si6 C1'
_cell_volume   273.69883069
_cell_formula_units_Z   1
loop_
 _symmetry_equiv_pos_site_id
 _symmetry_equiv_pos_as_xyz
  1  'x, y, z'
loop_
 _atom_site_type_symbol
 _atom_site_label
 _atom_site_symmetry_multiplicity
 _atom_site_fract_x
 _atom_site_fract_y
 _atom_site_fract_z
 _atom_site_occupancy
  Hf  Hf0  1  0.000000  0.760523  0.248851  1
  Hf  Hf1  1  0.241481  0.240648  0.257685  1
  Hf  Hf2  1  0.758519  0.999167  0.257685  1
  Hf  Hf3  1  0.000000  0.241922  0.749827  1
  Ta  Ta4  1  0.757230  0.756763  0.741979  1
  Ta  Ta5  1  0.242770  0.999533  0.741979  1
  Ta  Ta6  1  0.333094  0.666585  0.000125  1
  Ta  Ta7  1  0.666906  0.333490  0.000125  1
  Ta  Ta8  1  0.666149  0.333835  0.498579  1
  Ta  Ta9  1  0.333851  0.667688  0.498579  1
  Si  Si10  1  0.000000  0.401878  0.244615  1
  Si  Si11  1  0.597364  0.597691  0.240958  1
  Si  Si12  1  0.402636  0.000327  0.240958  1
  Si  Si13  1  0.000000  0.602393  0.754403  1
  Si  Si14  1  0.403002  0.402362  0.757599  1
  Si  Si15  1  0.596998  0.999359  0.757599  1
  C  C16  1  0.000000  0.995836  0.508452  1
