# generated using pymatgen
data_Tb16CdHg3(OsPd)2
_symmetry_space_group_name_H-M   'P 1'
_cell_length_a   9.67689611
_cell_length_b   9.66741522
_cell_length_c   9.75067000
_cell_angle_alpha   59.71470950
_cell_angle_beta   59.74748750
_cell_angle_gamma   59.57920920
_symmetry_Int_Tables_number   1
_chemical_formula_structural   Tb16CdHg3(OsPd)2
_chemical_formula_sum   'Tb16 Cd1 Hg3 Os2 Pd2'
_cell_volume   640.32395452
_cell_formula_units_Z   1
loop_
 _symmetry_equiv_pos_site_id
 _symmetry_equiv_pos_as_xyz
  1  'x, y, z'
loop_
 _atom_site_type_symbol
 _atom_site_label
 _atom_site_symmetry_multiplicity
 _atom_site_fract_x
 _atom_site_fract_y
 _atom_site_fract_z
 _atom_site_occupancy
  Tb  Tb0  1  0.351776  0.350624  0.355490  1
  Tb  Tb1  1  0.351776  0.350624  0.942110  1
  Tb  Tb2  1  0.346032  0.951912  0.351028  1
  Tb  Tb3  1  0.948963  0.346865  0.352086  1
  Tb  Tb4  1  0.814900  0.187944  0.192037  1
  Tb  Tb5  1  0.186601  0.815930  0.805771  1
  Tb  Tb6  1  0.186601  0.815930  0.191699  1
  Tb  Tb7  1  0.814900  0.187944  0.805120  1
  Tb  Tb8  1  0.187953  0.188883  0.811582  1
  Tb  Tb9  1  0.807212  0.807223  0.192783  1
  Tb  Tb10  1  0.937062  0.555935  0.567269  1
  Tb  Tb11  1  0.555382  0.937879  0.939299  1
  Tb  Tb12  1  0.555382  0.937879  0.567441  1
  Tb  Tb13  1  0.937062  0.555935  0.939735  1
  Tb  Tb14  1  0.562983  0.564027  0.936495  1
  Tb  Tb15  1  0.938014  0.939715  0.561135  1
  Cd  Cd16  1  0.257248  0.581575  0.580588  1
  Hg  Hg17  1  0.583366  0.585626  0.585351  1
  Hg  Hg18  1  0.583366  0.585626  0.245654  1
  Hg  Hg19  1  0.584457  0.242593  0.586474  1
  Os  Os20  1  0.145141  0.145619  0.136139  1
  Os  Os21  1  0.145141  0.145619  0.573101  1
  Pd  Pd22  1  0.146947  0.571335  0.140860  1
  Pd  Pd23  1  0.571733  0.146760  0.140754  1
