# generated using pymatgen
data_HoTmFeIr3
_symmetry_space_group_name_H-M   'P 1'
_cell_length_a   5.14390844
_cell_length_b   5.14391060
_cell_length_c   5.14391009
_cell_angle_alpha   63.81520238
_cell_angle_beta   63.81519041
_cell_angle_gamma   63.81520102
_symmetry_Int_Tables_number   1
_chemical_formula_structural   HoTmFeIr3
_chemical_formula_sum   'Ho1 Tm1 Fe1 Ir3'
_cell_volume   104.34107100
_cell_formula_units_Z   1
loop_
 _symmetry_equiv_pos_site_id
 _symmetry_equiv_pos_as_xyz
  1  'x, y, z'
loop_
 _atom_site_type_symbol
 _atom_site_label
 _atom_site_symmetry_multiplicity
 _atom_site_fract_x
 _atom_site_fract_y
 _atom_site_fract_z
 _atom_site_occupancy
  Ho  Ho0  1  0.998759  0.998759  0.998759  1
  Tm  Tm1  1  0.251537  0.251537  0.251537  1
  Fe  Fe2  1  0.624964  0.624964  0.624964  1
  Ir  Ir3  1  0.624776  0.624776  0.125183  1
  Ir  Ir4  1  0.624776  0.125183  0.624776  1
  Ir  Ir5  1  0.125183  0.624776  0.624776  1
