# generated using pymatgen
data_V4Cl7F
_symmetry_space_group_name_H-M   'P 1'
_cell_length_a   7.43568352
_cell_length_b   7.43568266
_cell_length_c   7.43568313
_cell_angle_alpha   58.21053249
_cell_angle_beta   58.21053400
_cell_angle_gamma   58.21052859
_symmetry_Int_Tables_number   1
_chemical_formula_structural   V4Cl7F
_chemical_formula_sum   'V4 Cl7 F1'
_cell_volume   278.78255176
_cell_formula_units_Z   1
loop_
 _symmetry_equiv_pos_site_id
 _symmetry_equiv_pos_as_xyz
  1  'x, y, z'
loop_
 _atom_site_type_symbol
 _atom_site_label
 _atom_site_symmetry_multiplicity
 _atom_site_fract_x
 _atom_site_fract_y
 _atom_site_fract_z
 _atom_site_occupancy
  V  V0  1  0.617491  0.132887  0.132887  1
  V  V1  1  0.126728  0.126728  0.126728  1
  V  V2  1  0.132887  0.132887  0.617491  1
  V  V3  1  0.132887  0.617491  0.132887  1
  Cl  Cl4  1  0.371366  0.371366  0.891765  1
  Cl  Cl5  1  0.889510  0.889510  0.889510  1
  Cl  Cl6  1  0.882616  0.882616  0.361257  1
  Cl  Cl7  1  0.361257  0.882616  0.882616  1
  Cl  Cl8  1  0.371366  0.891765  0.371366  1
  Cl  Cl9  1  0.882616  0.361257  0.882616  1
  Cl  Cl10  1  0.891765  0.371366  0.371366  1
  F  F11  1  0.339511  0.339511  0.339511  1
