# generated using pymatgen
data_La12IrPt2AuBr12
_symmetry_space_group_name_H-M   'P 1'
_cell_length_a   10.73805747
_cell_length_b   10.73805675
_cell_length_c   10.59613009
_cell_angle_alpha   109.01149222
_cell_angle_beta   109.01149134
_cell_angle_gamma   109.58634279
_symmetry_Int_Tables_number   1
_chemical_formula_structural   La12IrPt2AuBr12
_chemical_formula_sum   'La12 Ir1 Pt2 Au1 Br12'
_cell_volume   949.73657883
_cell_formula_units_Z   1
loop_
 _symmetry_equiv_pos_site_id
 _symmetry_equiv_pos_as_xyz
  1  'x, y, z'
loop_
 _atom_site_type_symbol
 _atom_site_label
 _atom_site_symmetry_multiplicity
 _atom_site_fract_x
 _atom_site_fract_y
 _atom_site_fract_z
 _atom_site_occupancy
  La  La0  1  0.259546  0.741899  0.234817  1
  La  La1  1  0.482997  0.741908  0.007470  1
  La  La2  1  0.237683  0.471656  0.482902  1
  La  La3  1  0.018234  0.029836  0.262319  1
  La  La4  1  0.236108  0.263892  0.750000  1
  La  La5  1  0.013742  0.486258  0.750000  1
  La  La6  1  0.478520  0.241620  0.472550  1
  La  La7  1  0.258380  0.021480  0.027450  1
  La  La8  1  0.758101  0.240454  0.265183  1
  La  La9  1  0.758092  0.017003  0.492530  1
  La  La10  1  0.470164  0.481766  0.237681  1
  La  La11  1  0.028344  0.262317  0.017098  1
  Ir  Ir12  1  0.249138  0.250862  0.250000  1
  Pt  Pt13  1  0.249322  0.498926  0.999636  1
  Pt  Pt14  1  0.001074  0.250678  0.500364  1
  Au  Au15  1  0.500167  0.999833  0.250000  1
  Br  Br16  1  0.249892  0.994477  0.503796  1
  Br  Br17  1  0.512223  0.506352  0.756542  1
  Br  Br18  1  0.250335  0.754972  0.746927  1
  Br  Br19  1  0.992595  0.745416  0.995959  1
  Br  Br20  1  0.993654  0.506346  0.250000  1
  Br  Br21  1  0.743977  0.994300  0.990949  1
  Br  Br22  1  0.753228  0.746772  0.250000  1
  Br  Br23  1  0.505700  0.756023  0.509051  1
  Br  Br24  1  0.505523  0.250108  0.996204  1
  Br  Br25  1  0.754584  0.507405  0.504041  1
  Br  Br26  1  0.745028  0.249665  0.753073  1
  Br  Br27  1  0.993648  0.987777  0.743458  1
