# generated using pymatgen
data_Dy2AlIrRh
_symmetry_space_group_name_H-M   'P 1'
_cell_length_a   5.55137821
_cell_length_b   5.55137797
_cell_length_c   5.55137775
_cell_angle_alpha   136.82241071
_cell_angle_beta   116.41100139
_cell_angle_gamma   79.97700792
_symmetry_Int_Tables_number   1
_chemical_formula_structural   Dy2AlIrRh
_chemical_formula_sum   'Dy2 Al1 Ir1 Rh1'
_cell_volume   101.64279252
_cell_formula_units_Z   1
loop_
 _symmetry_equiv_pos_site_id
 _symmetry_equiv_pos_as_xyz
  1  'x, y, z'
loop_
 _atom_site_type_symbol
 _atom_site_label
 _atom_site_symmetry_multiplicity
 _atom_site_fract_x
 _atom_site_fract_y
 _atom_site_fract_z
 _atom_site_occupancy
  Dy  Dy0  1  0.699733  0.198812  0.500921  1
  Dy  Dy1  1  0.302108  0.801189  0.500921  1
  Al  Al2  1  0.998717  0.000000  0.998717  1
  Ir  Ir3  1  0.741253  0.500000  0.241253  1
  Rh  Rh4  1  0.258190  0.500001  0.758191  1
