# generated using pymatgen
data_UZn2(PO5)2
_symmetry_space_group_name_H-M   'P 1'
_cell_length_a   5.22317600
_cell_length_b   5.79084763
_cell_length_c   7.69161120
_cell_angle_alpha   112.11329124
_cell_angle_beta   109.55911400
_cell_angle_gamma   90.00000173
_symmetry_Int_Tables_number   1
_chemical_formula_structural   UZn2(PO5)2
_chemical_formula_sum   'U1 Zn2 P2 O10'
_cell_volume   200.96781668
_cell_formula_units_Z   1
loop_
 _symmetry_equiv_pos_site_id
 _symmetry_equiv_pos_as_xyz
  1  'x, y, z'
loop_
 _atom_site_type_symbol
 _atom_site_label
 _atom_site_symmetry_multiplicity
 _atom_site_fract_x
 _atom_site_fract_y
 _atom_site_fract_z
 _atom_site_occupancy
  U  U0  1  0.000000  0.000000  0.000000  1
  Zn  Zn1  1  0.499999  0.000000  0.500000  1
  Zn  Zn2  1  0.499999  0.500000  0.500000  1
  P  P3  1  0.895061  0.636811  0.273625  1
  P  P4  1  0.104937  0.363189  0.726375  1
  O  O5  1  0.842172  0.351346  0.140839  1
  O  O6  1  0.842172  0.789494  0.140839  1
  O  O7  1  0.324364  0.115958  0.231917  1
  O  O8  1  0.696128  0.695139  0.390278  1
  O  O9  1  0.199850  0.711026  0.422052  1
  O  O10  1  0.800151  0.288973  0.577947  1
  O  O11  1  0.303871  0.304860  0.609722  1
  O  O12  1  0.675635  0.884041  0.768083  1
  O  O13  1  0.157827  0.210507  0.859162  1
  O  O14  1  0.157827  0.648653  0.859162  1
