# generated using pymatgen
data_La5NdAl24Ru3Rh5
_symmetry_space_group_name_H-M   'P 1'
_cell_length_a   8.94847425
_cell_length_b   8.95755789
_cell_length_c   9.69322195
_cell_angle_alpha   90.13804602
_cell_angle_beta   89.95179516
_cell_angle_gamma   119.65313766
_symmetry_Int_Tables_number   1
_chemical_formula_structural   La5NdAl24Ru3Rh5
_chemical_formula_sum   'La5 Nd1 Al24 Ru3 Rh5'
_cell_volume   675.21716690
_cell_formula_units_Z   1
loop_
 _symmetry_equiv_pos_site_id
 _symmetry_equiv_pos_as_xyz
  1  'x, y, z'
loop_
 _atom_site_type_symbol
 _atom_site_label
 _atom_site_symmetry_multiplicity
 _atom_site_fract_x
 _atom_site_fract_y
 _atom_site_fract_z
 _atom_site_occupancy
  La  La0  1  0.190272  0.380707  0.250238  1
  La  La1  1  0.809787  0.619470  0.749752  1
  La  La2  1  0.618030  0.810600  0.250801  1
  La  La3  1  0.381594  0.189499  0.749475  1
  La  La4  1  0.191405  0.810646  0.250320  1
  Nd  Nd5  1  0.809005  0.188995  0.749709  1
  Al  Al6  1  0.332862  0.667109  0.010146  1
  Al  Al7  1  0.668113  0.332073  0.984360  1
  Al  Al8  1  0.667219  0.330402  0.515214  1
  Al  Al9  1  0.333706  0.668633  0.489785  1
  Al  Al10  1  0.162147  0.325066  0.576409  1
  Al  Al11  1  0.836221  0.673932  0.424521  1
  Al  Al12  1  0.674475  0.839441  0.576539  1
  Al  Al13  1  0.836343  0.674681  0.076202  1
  Al  Al14  1  0.326667  0.162075  0.424445  1
  Al  Al15  1  0.161886  0.324327  0.922994  1
  Al  Al16  1  0.164538  0.838582  0.578372  1
  Al  Al17  1  0.326090  0.164101  0.076168  1
  Al  Al18  1  0.835356  0.161766  0.423537  1
  Al  Al19  1  0.674915  0.837595  0.923011  1
  Al  Al20  1  0.837012  0.163307  0.076899  1
  Al  Al21  1  0.162552  0.836921  0.921268  1
  Al  Al22  1  0.563677  0.127950  0.250844  1
  Al  Al23  1  0.438484  0.874480  0.749229  1
  Al  Al24  1  0.872765  0.436738  0.249828  1
  Al  Al25  1  0.124856  0.561191  0.750203  1
  Al  Al26  1  0.563682  0.436958  0.249702  1
  Al  Al27  1  0.436564  0.562938  0.750303  1
  Al  Al28  1  0.999259  0.001287  0.250066  1
  Al  Al29  1  0.000002  0.999159  0.749811  1
  Ru  Ru30  1  0.500267  0.999781  0.499944  1
  Ru  Ru31  1  0.999650  0.000261  0.999919  1
  Ru  Ru32  1  0.999787  0.000346  0.499976  1
  Rh  Rh33  1  0.500176  0.999897  0.999821  1
  Rh  Rh34  1  0.000162  0.499741  0.999949  1
  Rh  Rh35  1  0.500260  0.499761  0.999401  1
  Rh  Rh36  1  0.000034  0.499816  0.500189  1
  Rh  Rh37  1  0.500181  0.499764  0.500652  1
