# generated using pymatgen
data_Tb4YbTh3(Pt2Pb)4
_symmetry_space_group_name_H-M   'P 1'
_cell_length_a   8.07017028
_cell_length_b   8.07285965
_cell_length_c   7.29251200
_cell_angle_alpha   90.00000000
_cell_angle_beta   90.00000000
_cell_angle_gamma   90.19166753
_symmetry_Int_Tables_number   1
_chemical_formula_structural   Tb4YbTh3(Pt2Pb)4
_chemical_formula_sum   'Tb4 Yb1 Th3 Pt8 Pb4'
_cell_volume   475.09977336
_cell_formula_units_Z   1
loop_
 _symmetry_equiv_pos_site_id
 _symmetry_equiv_pos_as_xyz
  1  'x, y, z'
loop_
 _atom_site_type_symbol
 _atom_site_label
 _atom_site_symmetry_multiplicity
 _atom_site_fract_x
 _atom_site_fract_y
 _atom_site_fract_z
 _atom_site_occupancy
  Tb  Tb0  1  0.339410  0.342992  0.500000  1
  Tb  Tb1  1  0.173048  0.826405  0.500000  1
  Tb  Tb2  1  0.840353  0.159079  0.000000  1
  Tb  Tb3  1  0.160457  0.838918  0.000000  1
  Yb  Yb4  1  0.658820  0.661670  0.500000  1
  Th  Th5  1  0.675233  0.674435  0.000000  1
  Th  Th6  1  0.826684  0.172476  0.500000  1
  Th  Th7  1  0.326306  0.325607  0.000000  1
  Pt  Pt8  1  0.871540  0.873507  0.737627  1
  Pt  Pt9  1  0.129176  0.130166  0.736345  1
  Pt  Pt10  1  0.630010  0.369249  0.764056  1
  Pt  Pt11  1  0.630010  0.369249  0.235944  1
  Pt  Pt12  1  0.372596  0.626037  0.233010  1
  Pt  Pt13  1  0.129176  0.130166  0.263655  1
  Pt  Pt14  1  0.871540  0.873507  0.262373  1
  Pt  Pt15  1  0.372596  0.626037  0.766990  1
  Pb  Pb16  1  0.495615  0.995072  0.745334  1
  Pb  Pb17  1  0.495615  0.995072  0.254666  1
  Pb  Pb18  1  0.000908  0.505177  0.745197  1
  Pb  Pb19  1  0.000908  0.505177  0.254803  1
