# generated using pymatgen
data_Cs4NaFeSe4
_symmetry_space_group_name_H-M   'P 1'
_cell_length_a   8.91634647
_cell_length_b   8.91634652
_cell_length_c   8.91634661
_cell_angle_alpha   132.65138875
_cell_angle_beta   129.19609704
_cell_angle_gamma   71.97014530
_symmetry_Int_Tables_number   1
_chemical_formula_structural   Cs4NaFeSe4
_chemical_formula_sum   'Cs4 Na1 Fe1 Se4'
_cell_volume   395.19286200
_cell_formula_units_Z   1
loop_
 _symmetry_equiv_pos_site_id
 _symmetry_equiv_pos_as_xyz
  1  'x, y, z'
loop_
 _atom_site_type_symbol
 _atom_site_label
 _atom_site_symmetry_multiplicity
 _atom_site_fract_x
 _atom_site_fract_y
 _atom_site_fract_z
 _atom_site_occupancy
  Cs  Cs0  1  0.523250  0.862467  0.677230  1
  Cs  Cs1  1  0.476750  0.153979  0.339217  1
  Cs  Cs2  1  0.814762  0.637533  0.160783  1
  Cs  Cs3  1  0.185238  0.346021  0.822770  1
  Na  Na4  1  0.000000  0.250000  0.250000  1
  Fe  Fe5  1  0.000000  0.750000  0.750000  1
  Se  Se6  1  0.080534  0.856385  0.133260  1
  Se  Se7  1  0.723125  0.447274  0.366740  1
  Se  Se8  1  0.919466  0.052726  0.775851  1
  Se  Se9  1  0.276876  0.643615  0.724149  1
