# generated using pymatgen
data_NdCo(As4Os)3
_symmetry_space_group_name_H-M   'P 1'
_cell_length_a   7.45679008
_cell_length_b   7.41191917
_cell_length_c   7.41191999
_cell_angle_alpha   109.34826485
_cell_angle_beta   109.59390184
_cell_angle_gamma   109.59390396
_symmetry_Int_Tables_number   1
_chemical_formula_structural   NdCo(As4Os)3
_chemical_formula_sum   'Nd1 Co1 As12 Os3'
_cell_volume   314.87023508
_cell_formula_units_Z   1
loop_
 _symmetry_equiv_pos_site_id
 _symmetry_equiv_pos_as_xyz
  1  'x, y, z'
loop_
 _atom_site_type_symbol
 _atom_site_label
 _atom_site_symmetry_multiplicity
 _atom_site_fract_x
 _atom_site_fract_y
 _atom_site_fract_z
 _atom_site_occupancy
  Nd  Nd0  1  0.000000  0.000000  0.000000  1
  Co  Co1  1  0.500000  0.000000  0.000000  1
  As  As2  1  0.495937  0.339211  0.146315  1
  As  As3  1  0.198494  0.348135  0.851645  1
  As  As4  1  0.504064  0.660791  0.853687  1
  As  As5  1  0.801507  0.651866  0.148357  1
  As  As6  1  0.149641  0.496491  0.348135  1
  As  As7  1  0.346851  0.148357  0.496491  1
  As  As8  1  0.156727  0.807104  0.660790  1
  As  As9  1  0.349624  0.853687  0.192897  1
  As  As10  1  0.843275  0.192897  0.339211  1
  As  As11  1  0.653151  0.851645  0.503510  1
  As  As12  1  0.850361  0.503510  0.651867  1
  As  As13  1  0.650377  0.146315  0.807104  1
  Os  Os14  1  0.500000  0.500000  0.500000  1
  Os  Os15  1  0.000000  0.000000  0.500000  1
  Os  Os16  1  0.000000  0.500000  0.000000  1
