# generated using pymatgen
data_Nd10SmIn9Pd4
_symmetry_space_group_name_H-M   'P 1'
_cell_length_a   13.49877680
_cell_length_b   13.49875503
_cell_length_c   3.80247300
_cell_angle_alpha   90.00000000
_cell_angle_beta   90.00000000
_cell_angle_gamma   111.14691397
_symmetry_Int_Tables_number   1
_chemical_formula_structural   Nd10SmIn9Pd4
_chemical_formula_sum   'Nd10 Sm1 In9 Pd4'
_cell_volume   646.21480472
_cell_formula_units_Z   1
loop_
 _symmetry_equiv_pos_site_id
 _symmetry_equiv_pos_as_xyz
  1  'x, y, z'
loop_
 _atom_site_type_symbol
 _atom_site_label
 _atom_site_symmetry_multiplicity
 _atom_site_fract_x
 _atom_site_fract_y
 _atom_site_fract_z
 _atom_site_occupancy
  Nd  Nd0  1  0.417803  0.069563  0.000000  1
  Nd  Nd1  1  0.582758  0.929367  0.000000  1
  Nd  Nd2  1  0.069562  0.417801  0.000000  1
  Nd  Nd3  1  0.929365  0.582757  0.000000  1
  Nd  Nd4  1  0.158570  0.840905  0.000000  1
  Nd  Nd5  1  0.840904  0.158569  0.000000  1
  Nd  Nd6  1  0.370486  0.630118  0.000000  1
  Nd  Nd7  1  0.630119  0.370487  0.000000  1
  Nd  Nd8  1  0.308152  0.308152  0.000000  1
  Nd  Nd9  1  0.999923  0.999924  0.000000  1
  Sm  Sm10  1  0.691348  0.691349  0.000000  1
  In  In11  1  0.367245  0.839803  0.500000  1
  In  In12  1  0.633100  0.160187  0.500000  1
  In  In13  1  0.839802  0.367245  0.500000  1
  In  In14  1  0.160188  0.633100  0.500000  1
  In  In15  1  0.219406  0.076103  0.500000  1
  In  In16  1  0.780073  0.921721  0.500000  1
  In  In17  1  0.076103  0.219405  0.500000  1
  In  In18  1  0.921721  0.780073  0.500000  1
  In  In19  1  0.501294  0.501294  0.500000  1
  Pd  Pd20  1  0.450734  0.248495  0.500000  1
  Pd  Pd21  1  0.552312  0.750537  0.500000  1
  Pd  Pd22  1  0.248495  0.450734  0.500000  1
  Pd  Pd23  1  0.750535  0.552312  0.500000  1
