# generated using pymatgen
data_Ba8CeHfSe12
_symmetry_space_group_name_H-M   'P 1'
_cell_length_a   9.02206900
_cell_length_b   9.02206872
_cell_length_c   9.02206921
_cell_angle_alpha   89.57495218
_cell_angle_beta   89.57495937
_cell_angle_gamma   89.57495612
_symmetry_Int_Tables_number   1
_chemical_formula_structural   Ba8CeHfSe12
_chemical_formula_sum   'Ba8 Ce1 Hf1 Se12'
_cell_volume   734.31559847
_cell_formula_units_Z   1
loop_
 _symmetry_equiv_pos_site_id
 _symmetry_equiv_pos_as_xyz
  1  'x, y, z'
loop_
 _atom_site_type_symbol
 _atom_site_label
 _atom_site_symmetry_multiplicity
 _atom_site_fract_x
 _atom_site_fract_y
 _atom_site_fract_z
 _atom_site_occupancy
  Ba  Ba0  1  0.876385  0.626720  0.247106  1
  Ba  Ba1  1  0.247106  0.876385  0.626720  1
  Ba  Ba2  1  0.626720  0.247106  0.876385  1
  Ba  Ba3  1  0.752894  0.123615  0.373280  1
  Ba  Ba4  1  0.373280  0.752894  0.123615  1
  Ba  Ba5  1  0.123615  0.373280  0.752894  1
  Ba  Ba6  1  0.247923  0.247923  0.247923  1
  Ba  Ba7  1  0.752077  0.752077  0.752077  1
  Ce  Ce8  1  0.500000  0.500000  0.500000  1
  Hf  Hf9  1  0.000000  0.000000  0.000000  1
  Se  Se10  1  0.199606  0.563625  0.420411  1
  Se  Se11  1  0.420411  0.199606  0.563625  1
  Se  Se12  1  0.563625  0.420411  0.199606  1
  Se  Se13  1  0.930290  0.059352  0.712369  1
  Se  Se14  1  0.712369  0.930290  0.059352  1
  Se  Se15  1  0.059352  0.712369  0.930290  1
  Se  Se16  1  0.800394  0.436375  0.579589  1
  Se  Se17  1  0.579589  0.800394  0.436375  1
  Se  Se18  1  0.436375  0.579589  0.800394  1
  Se  Se19  1  0.069710  0.940648  0.287631  1
  Se  Se20  1  0.287631  0.069710  0.940648  1
  Se  Se21  1  0.940648  0.287631  0.069710  1
