# generated using pymatgen
data_TbHo3(Er2Co)4
_symmetry_space_group_name_H-M   'P 1'
_cell_length_a   6.18818204
_cell_length_b   6.92831658
_cell_length_c   9.36850000
_cell_angle_alpha   90.00000000
_cell_angle_beta   90.00000000
_cell_angle_gamma   89.96783314
_symmetry_Int_Tables_number   1
_chemical_formula_structural   TbHo3(Er2Co)4
_chemical_formula_sum   'Tb1 Ho3 Er8 Co4'
_cell_volume   401.66204740
_cell_formula_units_Z   1
loop_
 _symmetry_equiv_pos_site_id
 _symmetry_equiv_pos_as_xyz
  1  'x, y, z'
loop_
 _atom_site_type_symbol
 _atom_site_label
 _atom_site_symmetry_multiplicity
 _atom_site_fract_x
 _atom_site_fract_y
 _atom_site_fract_z
 _atom_site_occupancy
  Tb  Tb0  1  0.360605  0.958197  0.750000  1
  Ho  Ho1  1  0.859421  0.542160  0.250000  1
  Ho  Ho2  1  0.640451  0.041995  0.250000  1
  Ho  Ho3  1  0.139800  0.458021  0.750000  1
  Er  Er4  1  0.323441  0.674874  0.068231  1
  Er  Er5  1  0.176024  0.175365  0.431584  1
  Er  Er6  1  0.676246  0.325179  0.567873  1
  Er  Er7  1  0.824463  0.824595  0.932569  1
  Er  Er8  1  0.676246  0.325179  0.932127  1
  Er  Er9  1  0.824463  0.824595  0.567431  1
  Er  Er10  1  0.323441  0.674874  0.431769  1
  Er  Er11  1  0.176024  0.175365  0.068416  1
  Co  Co12  1  0.048658  0.886433  0.250000  1
  Co  Co13  1  0.451315  0.386276  0.250000  1
  Co  Co14  1  0.949793  0.113835  0.750000  1
  Co  Co15  1  0.549605  0.613058  0.750000  1
