# generated using pymatgen
data_MnCrCoNiP4
_symmetry_space_group_name_H-M   'P 1'
_cell_length_a   3.09117200
_cell_length_b   5.20423494
_cell_length_c   5.85170287
_cell_angle_alpha   90.47905386
_cell_angle_beta   90.00000000
_cell_angle_gamma   90.00000000
_symmetry_Int_Tables_number   1
_chemical_formula_structural   MnCrCoNiP4
_chemical_formula_sum   'Mn1 Cr1 Co1 Ni1 P4'
_cell_volume   94.13413810
_cell_formula_units_Z   1
loop_
 _symmetry_equiv_pos_site_id
 _symmetry_equiv_pos_as_xyz
  1  'x, y, z'
loop_
 _atom_site_type_symbol
 _atom_site_label
 _atom_site_symmetry_multiplicity
 _atom_site_fract_x
 _atom_site_fract_y
 _atom_site_fract_z
 _atom_site_occupancy
  Mn  Mn0  1  0.000000  0.996419  0.795357  1
  Cr  Cr1  1  0.500000  0.504051  0.302235  1
  Co  Co2  1  0.000000  0.498289  0.702754  1
  Ni  Ni3  1  0.500000  0.001073  0.195848  1
  P  P4  1  0.500000  0.685204  0.929197  1
  P  P5  1  0.500000  0.200580  0.575284  1
  P  P6  1  0.000000  0.310987  0.062319  1
  P  P7  1  0.000000  0.803400  0.437004  1
