# generated using pymatgen
data_EuTm3(InCu2)2
_symmetry_space_group_name_H-M   'P 1'
_cell_length_a   7.65418002
_cell_length_b   7.65418002
_cell_length_c   3.57456700
_cell_angle_alpha   90.00000000
_cell_angle_beta   90.00000000
_cell_angle_gamma   90.08332920
_symmetry_Int_Tables_number   1
_chemical_formula_structural   EuTm3(InCu2)2
_chemical_formula_sum   'Eu1 Tm3 In2 Cu4'
_cell_volume   209.42104739
_cell_formula_units_Z   1
loop_
 _symmetry_equiv_pos_site_id
 _symmetry_equiv_pos_as_xyz
  1  'x, y, z'
loop_
 _atom_site_type_symbol
 _atom_site_label
 _atom_site_symmetry_multiplicity
 _atom_site_fract_x
 _atom_site_fract_y
 _atom_site_fract_z
 _atom_site_occupancy
  Eu  Eu0  1  0.674599  0.174599  0.500000  1
  Tm  Tm1  1  0.325797  0.825797  0.500000  1
  Tm  Tm2  1  0.173001  0.329189  0.500000  1
  Tm  Tm3  1  0.829189  0.673001  0.500000  1
  In  In4  1  0.496544  0.504055  0.000000  1
  In  In5  1  0.004055  0.996544  0.000000  1
  Cu  Cu6  1  0.121105  0.621105  0.000000  1
  Cu  Cu7  1  0.888081  0.388081  0.000000  1
  Cu  Cu8  1  0.617188  0.870443  0.000000  1
  Cu  Cu9  1  0.370443  0.117188  0.000000  1
