# generated using pymatgen
data_Y20Zn3In3Co2
_symmetry_space_group_name_H-M   'P 1'
_cell_length_a   9.68394201
_cell_length_b   9.68313352
_cell_length_c   9.57495300
_cell_angle_alpha   90.00000000
_cell_angle_beta   90.00000000
_cell_angle_gamma   119.99900747
_symmetry_Int_Tables_number   1
_chemical_formula_structural   Y20Zn3In3Co2
_chemical_formula_sum   'Y20 Zn3 In3 Co2'
_cell_volume   777.57041162
_cell_formula_units_Z   1
loop_
 _symmetry_equiv_pos_site_id
 _symmetry_equiv_pos_as_xyz
  1  'x, y, z'
loop_
 _atom_site_type_symbol
 _atom_site_label
 _atom_site_symmetry_multiplicity
 _atom_site_fract_x
 _atom_site_fract_y
 _atom_site_fract_z
 _atom_site_occupancy
  Y  Y0  1  0.999992  0.000010  0.535515  1
  Y  Y1  1  0.999992  0.000010  0.964485  1
  Y  Y2  1  0.541517  0.458446  0.250000  1
  Y  Y3  1  0.541511  0.083125  0.250000  1
  Y  Y4  1  0.916880  0.458428  0.250000  1
  Y  Y5  1  0.456940  0.543041  0.750000  1
  Y  Y6  1  0.456948  0.913872  0.750000  1
  Y  Y7  1  0.086120  0.543078  0.750000  1
  Y  Y8  1  0.210059  0.789926  0.437609  1
  Y  Y9  1  0.210038  0.420110  0.437643  1
  Y  Y10  1  0.579914  0.789950  0.437631  1
  Y  Y11  1  0.790056  0.209950  0.566125  1
  Y  Y12  1  0.790057  0.580100  0.566094  1
  Y  Y13  1  0.419904  0.209946  0.566079  1
  Y  Y14  1  0.790056  0.209950  0.933875  1
  Y  Y15  1  0.790057  0.580100  0.933906  1
  Y  Y16  1  0.419904  0.209946  0.933921  1
  Y  Y17  1  0.210059  0.789926  0.062391  1
  Y  Y18  1  0.210038  0.420110  0.062357  1
  Y  Y19  1  0.579914  0.789950  0.062369  1
  Zn  Zn20  1  0.127185  0.872821  0.750000  1
  Zn  Zn21  1  0.127201  0.254389  0.750000  1
  Zn  Zn22  1  0.745622  0.872814  0.750000  1
  In  In23  1  0.889862  0.110134  0.250000  1
  In  In24  1  0.889866  0.779683  0.250000  1
  In  In25  1  0.220303  0.110162  0.250000  1
  Co  Co26  1  0.333328  0.666666  0.250000  1
  Co  Co27  1  0.666677  0.333358  0.750000  1
