# generated using pymatgen
data_TmLu11Mn(InFe)2
_symmetry_space_group_name_H-M   'P 1'
_cell_length_a   8.20029685
_cell_length_b   8.20029785
_cell_length_c   8.20596320
_cell_angle_alpha   108.50729900
_cell_angle_beta   108.50730327
_cell_angle_gamma   111.38501181
_symmetry_Int_Tables_number   1
_chemical_formula_structural   TmLu11Mn(InFe)2
_chemical_formula_sum   'Tm1 Lu11 Mn1 In2 Fe2'
_cell_volume   424.58630482
_cell_formula_units_Z   1
loop_
 _symmetry_equiv_pos_site_id
 _symmetry_equiv_pos_as_xyz
  1  'x, y, z'
loop_
 _atom_site_type_symbol
 _atom_site_label
 _atom_site_symmetry_multiplicity
 _atom_site_fract_x
 _atom_site_fract_y
 _atom_site_fract_z
 _atom_site_occupancy
  Tm  Tm0  1  0.307420  0.307420  0.615627  1
  Lu  Lu1  1  0.691251  0.691251  0.383196  1
  Lu  Lu2  1  0.691529  0.308141  0.000363  1
  Lu  Lu3  1  0.308141  0.691529  0.000363  1
  Lu  Lu4  1  0.190091  0.426282  0.235429  1
  Lu  Lu5  1  0.810319  0.574267  0.764323  1
  Lu  Lu6  1  0.190046  0.953693  0.764027  1
  Lu  Lu7  1  0.953693  0.190046  0.764027  1
  Lu  Lu8  1  0.809116  0.044982  0.235109  1
  Lu  Lu9  1  0.044982  0.809116  0.235109  1
  Lu  Lu10  1  0.426282  0.190091  0.235429  1
  Lu  Lu11  1  0.574267  0.810319  0.764323  1
  Mn  Mn12  1  0.384428  0.384428  0.000748  1
  In  In13  1  0.000593  0.499577  0.500250  1
  In  In14  1  0.499577  0.000593  0.500250  1
  Fe  Fe15  1  0.618048  0.618048  0.000893  1
  Fe  Fe16  1  0.000216  0.000216  0.000540  1
