# generated using pymatgen
data_Tb3ZnCo2Os
_symmetry_space_group_name_H-M   'P 1'
_cell_length_a   5.49388961
_cell_length_b   5.49389023
_cell_length_c   12.93681900
_cell_angle_alpha   90.00000000
_cell_angle_beta   90.00000000
_cell_angle_gamma   135.28066778
_symmetry_Int_Tables_number   1
_chemical_formula_structural   Tb3ZnCo2Os
_chemical_formula_sum   'Tb6 Zn2 Co4 Os2'
_cell_volume   274.74799394
_cell_formula_units_Z   2
loop_
 _symmetry_equiv_pos_site_id
 _symmetry_equiv_pos_as_xyz
  1  'x, y, z'
loop_
 _atom_site_type_symbol
 _atom_site_label
 _atom_site_symmetry_multiplicity
 _atom_site_fract_x
 _atom_site_fract_y
 _atom_site_fract_z
 _atom_site_occupancy
  Tb  Tb0  1  0.798289  0.201711  0.397179  1
  Tb  Tb1  1  0.201711  0.798289  0.602821  1
  Tb  Tb2  1  0.798289  0.201711  0.102821  1
  Tb  Tb3  1  0.201711  0.798289  0.897179  1
  Tb  Tb4  1  0.506938  0.493062  0.250000  1
  Tb  Tb5  1  0.493062  0.506938  0.750000  1
  Zn  Zn6  1  0.500000  0.500000  0.500000  1
  Zn  Zn7  1  0.500000  0.500000  0.000000  1
  Co  Co8  1  0.085084  0.914916  0.406821  1
  Co  Co9  1  0.914916  0.085084  0.593179  1
  Co  Co10  1  0.085084  0.914916  0.093179  1
  Co  Co11  1  0.914916  0.085084  0.906821  1
  Os  Os12  1  0.207996  0.792004  0.250000  1
  Os  Os13  1  0.792004  0.207996  0.750000  1
