# generated using pymatgen
data_Tb3GaGeIrRh
_symmetry_space_group_name_H-M   'P 1'
_cell_length_a   5.57641603
_cell_length_b   7.97121567
_cell_length_c   13.41319749
_cell_angle_alpha   89.98102409
_cell_angle_beta   89.94920920
_cell_angle_gamma   90.10809604
_symmetry_Int_Tables_number   1
_chemical_formula_structural   Tb3GaGeIrRh
_chemical_formula_sum   'Tb12 Ga4 Ge4 Ir4 Rh4'
_cell_volume   596.22622911
_cell_formula_units_Z   4
loop_
 _symmetry_equiv_pos_site_id
 _symmetry_equiv_pos_as_xyz
  1  'x, y, z'
loop_
 _atom_site_type_symbol
 _atom_site_label
 _atom_site_symmetry_multiplicity
 _atom_site_fract_x
 _atom_site_fract_y
 _atom_site_fract_z
 _atom_site_occupancy
  Tb  Tb0  1  0.629808  0.261835  0.250032  1
  Tb  Tb1  1  0.370400  0.740897  0.749705  1
  Tb  Tb2  1  0.370091  0.761588  0.249929  1
  Tb  Tb3  1  0.630068  0.235881  0.750328  1
  Tb  Tb4  1  0.152094  0.398273  0.100559  1
  Tb  Tb5  1  0.847991  0.601041  0.899221  1
  Tb  Tb6  1  0.848395  0.601711  0.600527  1
  Tb  Tb7  1  0.848206  0.898465  0.399952  1
  Tb  Tb8  1  0.149234  0.401268  0.398752  1
  Tb  Tb9  1  0.149525  0.098646  0.600703  1
  Tb  Tb10  1  0.148924  0.099009  0.899467  1
  Tb  Tb11  1  0.851030  0.901436  0.100764  1
  Ga  Ga12  1  0.636834  0.250655  0.999323  1
  Ga  Ga13  1  0.362335  0.749381  0.000724  1
  Ga  Ga14  1  0.363245  0.749964  0.500126  1
  Ga  Ga15  1  0.637191  0.249947  0.499879  1
  Ge  Ge16  1  0.127903  0.116416  0.251116  1
  Ge  Ge17  1  0.872879  0.883599  0.749902  1
  Ge  Ge18  1  0.872123  0.615680  0.248935  1
  Ge  Ge19  1  0.128787  0.384275  0.750046  1
  Ir  Ir20  1  0.357910  0.032941  0.093018  1
  Ir  Ir21  1  0.641700  0.967114  0.907091  1
  Ir  Ir22  1  0.642406  0.969186  0.593194  1
  Ir  Ir23  1  0.642454  0.530557  0.406962  1
  Rh  Rh24  1  0.359482  0.031559  0.406710  1
  Rh  Rh25  1  0.359476  0.468612  0.593150  1
  Rh  Rh26  1  0.358742  0.470689  0.906763  1
  Rh  Rh27  1  0.640766  0.529373  0.093120  1
