# generated using pymatgen
data_DyY4(ZnB4)2
_symmetry_space_group_name_H-M   'P 1'
_cell_length_a   7.20998500
_cell_length_b   7.20998500
_cell_length_c   8.41848700
_cell_angle_alpha   90.00000000
_cell_angle_beta   90.00000000
_cell_angle_gamma   89.99680542
_symmetry_Int_Tables_number   1
_chemical_formula_structural   DyY4(ZnB4)2
_chemical_formula_sum   'Dy2 Y8 Zn4 B16'
_cell_volume   437.62564880
_cell_formula_units_Z   2
loop_
 _symmetry_equiv_pos_site_id
 _symmetry_equiv_pos_as_xyz
  1  'x, y, z'
loop_
 _atom_site_type_symbol
 _atom_site_label
 _atom_site_symmetry_multiplicity
 _atom_site_fract_x
 _atom_site_fract_y
 _atom_site_fract_z
 _atom_site_occupancy
  Dy  Dy0  1  0.182005  0.317995  0.787803  1
  Dy  Dy1  1  0.182005  0.317995  0.212197  1
  Y  Y2  1  0.681925  0.181962  0.212433  1
  Y  Y3  1  0.318038  0.818075  0.787567  1
  Y  Y4  1  0.318038  0.818075  0.212433  1
  Y  Y5  1  0.818069  0.681931  0.212440  1
  Y  Y6  1  0.818069  0.681931  0.787560  1
  Y  Y7  1  0.681925  0.181962  0.787567  1
  Y  Y8  1  0.000066  0.000058  0.500000  1
  Y  Y9  1  0.499942  0.499934  0.500000  1
  Zn  Zn10  1  0.117678  0.617560  0.500000  1
  Zn  Zn11  1  0.882440  0.382322  0.500000  1
  Zn  Zn12  1  0.382285  0.117715  0.500000  1
  Zn  Zn13  1  0.617629  0.882371  0.500000  1
  B  B14  1  0.171792  0.040566  0.000000  1
  B  B15  1  0.828228  0.959671  0.000000  1
  B  B16  1  0.959922  0.171901  0.000000  1
  B  B17  1  0.328099  0.540078  0.000000  1
  B  B18  1  0.040348  0.828202  0.000000  1
  B  B19  1  0.671798  0.459652  0.000000  1
  B  B20  1  0.540329  0.671772  0.000000  1
  B  B21  1  0.459434  0.328208  0.000000  1
  B  B22  1  0.090710  0.590448  0.000000  1
  B  B23  1  0.909552  0.409290  0.000000  1
  B  B24  1  0.409152  0.090848  0.000000  1
  B  B25  1  0.590637  0.909363  0.000000  1
  B  B26  1  0.000061  0.000118  0.157130  1
  B  B27  1  0.000061  0.000118  0.842870  1
  B  B28  1  0.499882  0.499939  0.842870  1
  B  B29  1  0.499882  0.499939  0.157130  1
