# generated using pymatgen
data_La3Be2As2(PPd10)2
_symmetry_space_group_name_H-M   'P 1'
_cell_length_a   8.88535695
_cell_length_b   8.67267678
_cell_length_c   8.80142097
_cell_angle_alpha   61.12099209
_cell_angle_beta   58.72461938
_cell_angle_gamma   60.15439465
_symmetry_Int_Tables_number   1
_chemical_formula_structural   La3Be2As2(PPd10)2
_chemical_formula_sum   'La3 Be2 As2 P2 Pd20'
_cell_volume   479.16242652
_cell_formula_units_Z   1
loop_
 _symmetry_equiv_pos_site_id
 _symmetry_equiv_pos_as_xyz
  1  'x, y, z'
loop_
 _atom_site_type_symbol
 _atom_site_label
 _atom_site_symmetry_multiplicity
 _atom_site_fract_x
 _atom_site_fract_y
 _atom_site_fract_z
 _atom_site_occupancy
  La  La0  1  0.250000  0.250000  0.250000  1
  La  La1  1  0.750000  0.750000  0.750000  1
  La  La2  1  0.000000  0.000000  0.000000  1
  Be  Be3  1  0.730487  0.269513  0.269513  1
  Be  Be4  1  0.269513  0.730487  0.730487  1
  As  As5  1  0.265086  0.734914  0.265086  1
  As  As6  1  0.734914  0.265086  0.734914  1
  P  P7  1  0.267823  0.267823  0.732177  1
  P  P8  1  0.732177  0.732177  0.267823  1
  Pd  Pd9  1  0.392148  0.376940  0.387336  1
  Pd  Pd10  1  0.607852  0.623060  0.612664  1
  Pd  Pd11  1  0.376940  0.392148  0.843575  1
  Pd  Pd12  1  0.387336  0.843575  0.392148  1
  Pd  Pd13  1  0.623060  0.607852  0.156425  1
  Pd  Pd14  1  0.612664  0.156425  0.607852  1
  Pd  Pd15  1  0.843575  0.387336  0.376940  1
  Pd  Pd16  1  0.156425  0.612664  0.623060  1
  Pd  Pd17  1  0.347607  0.010420  0.989580  1
  Pd  Pd18  1  0.652393  0.989580  0.010420  1
  Pd  Pd19  1  0.010420  0.347607  0.652393  1
  Pd  Pd20  1  0.989580  0.652393  0.347607  1
  Pd  Pd21  1  0.997531  0.344323  0.002469  1
  Pd  Pd22  1  0.655677  0.002469  0.344323  1
  Pd  Pd23  1  0.002469  0.655677  0.997531  1
  Pd  Pd24  1  0.344323  0.997531  0.655677  1
  Pd  Pd25  1  0.984832  0.015168  0.346709  1
  Pd  Pd26  1  0.015168  0.984832  0.653291  1
  Pd  Pd27  1  0.653291  0.346709  0.015168  1
  Pd  Pd28  1  0.346709  0.653291  0.984832  1
