# generated using pymatgen
data_LiDy3In3HgIr
_symmetry_space_group_name_H-M   'P 1'
_cell_length_a   8.03616500
_cell_length_b   8.03616522
_cell_length_c   3.67496300
_cell_angle_alpha   90.00000000
_cell_angle_beta   90.00000000
_cell_angle_gamma   119.99999610
_symmetry_Int_Tables_number   1
_chemical_formula_structural   LiDy3In3HgIr
_chemical_formula_sum   'Li1 Dy3 In3 Hg1 Ir1'
_cell_volume   205.53288661
_cell_formula_units_Z   1
loop_
 _symmetry_equiv_pos_site_id
 _symmetry_equiv_pos_as_xyz
  1  'x, y, z'
loop_
 _atom_site_type_symbol
 _atom_site_label
 _atom_site_symmetry_multiplicity
 _atom_site_fract_x
 _atom_site_fract_y
 _atom_site_fract_z
 _atom_site_occupancy
  Li  Li0  1  0.000000  0.000000  0.000000  1
  Dy  Dy1  1  0.577226  0.607629  0.000000  1
  Dy  Dy2  1  0.392371  0.969597  0.000000  1
  Dy  Dy3  1  0.030403  0.422774  0.000000  1
  In  In4  1  0.998596  0.741690  0.500000  1
  In  In5  1  0.258310  0.256906  0.500000  1
  In  In6  1  0.743094  0.001404  0.500000  1
  Hg  Hg7  1  0.666667  0.333333  0.500000  1
  Ir  Ir8  1  0.333333  0.666667  0.500000  1
