# generated using pymatgen
data_Y13Tm7(Bi2Sb)4
_symmetry_space_group_name_H-M   'P 1'
_cell_length_a   8.16438172
_cell_length_b   9.43003508
_cell_length_c   12.01133095
_cell_angle_alpha   89.99890414
_cell_angle_beta   90.04560141
_cell_angle_gamma   89.98489677
_symmetry_Int_Tables_number   1
_chemical_formula_structural   Y13Tm7(Bi2Sb)4
_chemical_formula_sum   'Y13 Tm7 Bi8 Sb4'
_cell_volume   924.75692162
_cell_formula_units_Z   1
loop_
 _symmetry_equiv_pos_site_id
 _symmetry_equiv_pos_as_xyz
  1  'x, y, z'
loop_
 _atom_site_type_symbol
 _atom_site_label
 _atom_site_symmetry_multiplicity
 _atom_site_fract_x
 _atom_site_fract_y
 _atom_site_fract_z
 _atom_site_occupancy
  Y  Y0  1  0.182504  0.750069  0.718407  1
  Y  Y1  1  0.682753  0.750702  0.782346  1
  Y  Y2  1  0.817536  0.249405  0.282010  1
  Y  Y3  1  0.317474  0.250437  0.217741  1
  Y  Y4  1  0.189282  0.561833  0.441548  1
  Y  Y5  1  0.689907  0.561434  0.058075  1
  Y  Y6  1  0.189921  0.938647  0.441551  1
  Y  Y7  1  0.310092  0.061418  0.941838  1
  Y  Y8  1  0.809922  0.438237  0.558436  1
  Y  Y9  1  0.355015  0.751302  0.212816  1
  Y  Y10  1  0.852985  0.750861  0.286288  1
  Y  Y11  1  0.646291  0.250257  0.786689  1
  Y  Y12  1  0.146478  0.250234  0.713413  1
  Tm  Tm13  1  0.027534  0.750412  0.988665  1
  Tm  Tm14  1  0.528555  0.750401  0.511340  1
  Tm  Tm15  1  0.972367  0.250421  0.011146  1
  Tm  Tm16  1  0.472737  0.249618  0.488693  1
  Tm  Tm17  1  0.310769  0.434789  0.941715  1
  Tm  Tm18  1  0.810045  0.065008  0.558679  1
  Tm  Tm19  1  0.689306  0.934978  0.058055  1
  Bi  Bi20  1  0.434820  0.003588  0.672404  1
  Bi  Bi21  1  0.934483  0.496623  0.827844  1
  Bi  Bi22  1  0.565919  0.503710  0.327468  1
  Bi  Bi23  1  0.065254  0.996785  0.172195  1
  Bi  Bi24  1  0.566354  0.996637  0.327704  1
  Bi  Bi25  1  0.065971  0.504106  0.171910  1
  Bi  Bi26  1  0.433788  0.496516  0.672539  1
  Bi  Bi27  1  0.933686  0.004129  0.827897  1
  Sb  Sb28  1  0.406448  0.747505  0.958696  1
  Sb  Sb29  1  0.906475  0.752891  0.541232  1
  Sb  Sb30  1  0.593458  0.247631  0.040961  1
  Sb  Sb31  1  0.091868  0.249416  0.459696  1
