# generated using pymatgen
data_Na4CaZr3(Cu4As3)4
_symmetry_space_group_name_H-M   'P 1'
_cell_length_a   13.21719800
_cell_length_b   13.21719792
_cell_length_c   3.99430400
_cell_angle_alpha   90.00000000
_cell_angle_beta   90.00000000
_cell_angle_gamma   119.99975869
_symmetry_Int_Tables_number   1
_chemical_formula_structural   Na4CaZr3(Cu4As3)4
_chemical_formula_sum   'Na4 Ca1 Zr3 Cu16 As12'
_cell_volume   604.29860592
_cell_formula_units_Z   1
loop_
 _symmetry_equiv_pos_site_id
 _symmetry_equiv_pos_as_xyz
  1  'x, y, z'
loop_
 _atom_site_type_symbol
 _atom_site_label
 _atom_site_symmetry_multiplicity
 _atom_site_fract_x
 _atom_site_fract_y
 _atom_site_fract_z
 _atom_site_occupancy
  Na  Na0  1  0.812004  0.998327  0.500000  1
  Na  Na1  1  0.998327  0.812004  0.500000  1
  Na  Na2  1  0.333602  0.667413  0.000000  1
  Na  Na3  1  0.667413  0.333602  0.000000  1
  Ca  Ca4  1  0.188904  0.188904  0.500000  1
  Zr  Zr5  1  0.571600  0.571600  0.000000  1
  Zr  Zr6  1  0.431239  0.999807  0.000000  1
  Zr  Zr7  1  0.999807  0.431239  0.000000  1
  Cu  Cu8  1  0.722989  0.722989  0.500000  1
  Cu  Cu9  1  0.275645  0.999275  0.500000  1
  Cu  Cu10  1  0.999275  0.275645  0.500000  1
  Cu  Cu11  1  0.181869  0.372472  0.000000  1
  Cu  Cu12  1  0.627830  0.811429  0.000000  1
  Cu  Cu13  1  0.189281  0.818204  0.000000  1
  Cu  Cu14  1  0.811429  0.627830  0.000000  1
  Cu  Cu15  1  0.818204  0.189281  0.000000  1
  Cu  Cu16  1  0.372472  0.181869  0.000000  1
  Cu  Cu17  1  0.358579  0.482641  0.500000  1
  Cu  Cu18  1  0.518321  0.877909  0.500000  1
  Cu  Cu19  1  0.122831  0.641726  0.500000  1
  Cu  Cu20  1  0.877909  0.518321  0.500000  1
  Cu  Cu21  1  0.641726  0.122831  0.500000  1
  Cu  Cu22  1  0.482641  0.358579  0.500000  1
  Cu  Cu23  1  0.997026  0.997026  0.000000  1
  As  As24  1  0.819667  0.819667  0.000000  1
  As  As25  1  0.177051  0.000622  0.000000  1
  As  As26  1  0.000622  0.177051  0.000000  1
  As  As27  1  0.171442  0.486254  0.500000  1
  As  As28  1  0.513885  0.685797  0.500000  1
  As  As29  1  0.314047  0.828776  0.500000  1
  As  As30  1  0.685797  0.513885  0.500000  1
  As  As31  1  0.828776  0.314047  0.500000  1
  As  As32  1  0.486254  0.171442  0.500000  1
  As  As33  1  0.364718  0.364718  0.000000  1
  As  As34  1  0.636325  0.000495  0.000000  1
  As  As35  1  0.000495  0.636325  0.000000  1
