# generated using pymatgen
data_Pr2Ga(PRh2)6
_symmetry_space_group_name_H-M   'P 1'
_cell_length_a   9.73530600
_cell_length_b   9.73530537
_cell_length_c   3.91127000
_cell_angle_alpha   90.00000000
_cell_angle_beta   90.00000000
_cell_angle_gamma   120.00000895
_symmetry_Int_Tables_number   1
_chemical_formula_structural   Pr2Ga(PRh2)6
_chemical_formula_sum   'Pr2 Ga1 P6 Rh12'
_cell_volume   321.03144585
_cell_formula_units_Z   1
loop_
 _symmetry_equiv_pos_site_id
 _symmetry_equiv_pos_as_xyz
  1  'x, y, z'
loop_
 _atom_site_type_symbol
 _atom_site_label
 _atom_site_symmetry_multiplicity
 _atom_site_fract_x
 _atom_site_fract_y
 _atom_site_fract_z
 _atom_site_occupancy
  Pr  Pr0  1  0.333333  0.666667  0.750462  1
  Pr  Pr1  1  0.666667  0.333333  0.249538  1
  Ga  Ga2  1  0.000000  0.000000  0.500000  1
  P  P3  1  0.886356  0.600406  0.749647  1
  P  P4  1  0.399594  0.285951  0.749647  1
  P  P5  1  0.714049  0.113644  0.749647  1
  P  P6  1  0.113644  0.399594  0.250353  1
  P  P7  1  0.600406  0.714049  0.250353  1
  P  P8  1  0.285951  0.886356  0.250353  1
  Rh  Rh9  1  0.615017  0.552041  0.750451  1
  Rh  Rh10  1  0.447959  0.062977  0.750451  1
  Rh  Rh11  1  0.937023  0.384983  0.750451  1
  Rh  Rh12  1  0.384983  0.447959  0.249549  1
  Rh  Rh13  1  0.552041  0.937023  0.249549  1
  Rh  Rh14  1  0.062977  0.615017  0.249549  1
  Rh  Rh15  1  0.122178  0.843921  0.751869  1
  Rh  Rh16  1  0.156079  0.278256  0.751869  1
  Rh  Rh17  1  0.721744  0.877822  0.751869  1
  Rh  Rh18  1  0.877822  0.156079  0.248131  1
  Rh  Rh19  1  0.843921  0.721744  0.248131  1
  Rh  Rh20  1  0.278256  0.122178  0.248131  1
