# generated using pymatgen
data_Zn14B6PdRh17
_symmetry_space_group_name_H-M   'P 1'
_cell_length_a   2.88652600
_cell_length_b   11.37387700
_cell_length_c   14.87861100
_cell_angle_alpha   90.00000000
_cell_angle_beta   90.00000000
_cell_angle_gamma   90.00000000
_symmetry_Int_Tables_number   1
_chemical_formula_structural   Zn14B6PdRh17
_chemical_formula_sum   'Zn14 B6 Pd1 Rh17'
_cell_volume   488.47955397
_cell_formula_units_Z   1
loop_
 _symmetry_equiv_pos_site_id
 _symmetry_equiv_pos_as_xyz
  1  'x, y, z'
loop_
 _atom_site_type_symbol
 _atom_site_label
 _atom_site_symmetry_multiplicity
 _atom_site_fract_x
 _atom_site_fract_y
 _atom_site_fract_z
 _atom_site_occupancy
  Zn  Zn0  1  0.500000  0.500000  0.347607  1
  Zn  Zn1  1  0.500000  0.000000  0.653183  1
  Zn  Zn2  1  0.500000  0.388112  0.999806  1
  Zn  Zn3  1  0.500000  0.113387  0.997991  1
  Zn  Zn4  1  0.500000  0.611888  0.999806  1
  Zn  Zn5  1  0.500000  0.886613  0.997991  1
  Zn  Zn6  1  0.500000  0.370930  0.771042  1
  Zn  Zn7  1  0.500000  0.131927  0.231144  1
  Zn  Zn8  1  0.500000  0.629070  0.771042  1
  Zn  Zn9  1  0.500000  0.868073  0.231144  1
  Zn  Zn10  1  0.500000  0.297480  0.602129  1
  Zn  Zn11  1  0.500000  0.202972  0.398589  1
  Zn  Zn12  1  0.500000  0.702520  0.602129  1
  Zn  Zn13  1  0.500000  0.797028  0.398589  1
  B  B14  1  0.500000  0.500000  0.530643  1
  B  B15  1  0.500000  0.000000  0.469250  1
  B  B16  1  0.500000  0.143007  0.821767  1
  B  B17  1  0.500000  0.357765  0.178049  1
  B  B18  1  0.500000  0.856993  0.821767  1
  B  B19  1  0.500000  0.642235  0.178049  1
  Pd  Pd20  1  0.000000  0.000000  0.122257  1
  Rh  Rh21  1  0.000000  0.246713  0.895004  1
  Rh  Rh22  1  0.000000  0.254271  0.104158  1
  Rh  Rh23  1  0.000000  0.753287  0.895004  1
  Rh  Rh24  1  0.000000  0.745729  0.104158  1
  Rh  Rh25  1  0.000000  0.500000  0.643355  1
  Rh  Rh26  1  0.000000  0.000000  0.356436  1
  Rh  Rh27  1  0.000000  0.174903  0.717509  1
  Rh  Rh28  1  0.000000  0.326003  0.282126  1
  Rh  Rh29  1  0.000000  0.825097  0.717509  1
  Rh  Rh30  1  0.000000  0.673997  0.282126  1
  Rh  Rh31  1  0.000000  0.500000  0.138619  1
  Rh  Rh32  1  0.000000  0.000000  0.860482  1
  Rh  Rh33  1  0.000000  0.120909  0.529774  1
  Rh  Rh34  1  0.000000  0.378692  0.470578  1
  Rh  Rh35  1  0.000000  0.879091  0.529774  1
  Rh  Rh36  1  0.000000  0.621308  0.470578  1
  Rh  Rh37  1  0.000000  0.500000  0.878834  1
