# generated using pymatgen
data_Yb2Lu3Pa3(Pt2Pb)4
_symmetry_space_group_name_H-M   'P 1'
_cell_length_a   7.92276417
_cell_length_b   7.92276347
_cell_length_c   7.13851000
_cell_angle_alpha   90.00000000
_cell_angle_beta   90.00000000
_cell_angle_gamma   91.20118963
_symmetry_Int_Tables_number   1
_chemical_formula_structural   Yb2Lu3Pa3(Pt2Pb)4
_chemical_formula_sum   'Yb2 Lu3 Pa3 Pt8 Pb4'
_cell_volume   447.98713683
_cell_formula_units_Z   1
loop_
 _symmetry_equiv_pos_site_id
 _symmetry_equiv_pos_as_xyz
  1  'x, y, z'
loop_
 _atom_site_type_symbol
 _atom_site_label
 _atom_site_symmetry_multiplicity
 _atom_site_fract_x
 _atom_site_fract_y
 _atom_site_fract_z
 _atom_site_occupancy
  Yb  Yb0  1  0.175966  0.824034  0.500000  1
  Yb  Yb1  1  0.157592  0.842408  0.000000  1
  Lu  Lu2  1  0.342309  0.345346  0.500000  1
  Lu  Lu3  1  0.654654  0.657691  0.500000  1
  Lu  Lu4  1  0.842627  0.157373  0.000000  1
  Pa  Pa5  1  0.678951  0.676498  0.000000  1
  Pa  Pa6  1  0.827085  0.172915  0.500000  1
  Pa  Pa7  1  0.323502  0.321049  0.000000  1
  Pt  Pt8  1  0.861824  0.873441  0.734468  1
  Pt  Pt9  1  0.126559  0.138176  0.734468  1
  Pt  Pt10  1  0.634424  0.365576  0.767579  1
  Pt  Pt11  1  0.634424  0.365576  0.232421  1
  Pt  Pt12  1  0.380587  0.619413  0.221801  1
  Pt  Pt13  1  0.126559  0.138176  0.265532  1
  Pt  Pt14  1  0.861824  0.873441  0.265532  1
  Pt  Pt15  1  0.380587  0.619413  0.778199  1
  Pb  Pb16  1  0.491896  0.996633  0.745734  1
  Pb  Pb17  1  0.491896  0.996633  0.254266  1
  Pb  Pb18  1  0.003367  0.508104  0.745734  1
  Pb  Pb19  1  0.003367  0.508104  0.254266  1
