# generated using pymatgen
data_Sm6Cd22PdS
_symmetry_space_group_name_H-M   'P 1'
_cell_length_a   10.01810936
_cell_length_b   9.98553327
_cell_length_c   9.98553300
_cell_angle_alpha   59.51104859
_cell_angle_beta   59.89202333
_cell_angle_gamma   59.89202500
_symmetry_Int_Tables_number   1
_chemical_formula_structural   Sm6Cd22PdS
_chemical_formula_sum   'Sm6 Cd22 Pd1 S1'
_cell_volume   702.54995007
_cell_formula_units_Z   1
loop_
 _symmetry_equiv_pos_site_id
 _symmetry_equiv_pos_as_xyz
  1  'x, y, z'
loop_
 _atom_site_type_symbol
 _atom_site_label
 _atom_site_symmetry_multiplicity
 _atom_site_fract_x
 _atom_site_fract_y
 _atom_site_fract_z
 _atom_site_occupancy
  Sm  Sm0  1  0.797274  0.798086  0.201914  1
  Sm  Sm1  1  0.202726  0.798086  0.201914  1
  Sm  Sm2  1  0.796398  0.203602  0.203602  1
  Sm  Sm3  1  0.202726  0.201914  0.798086  1
  Sm  Sm4  1  0.797274  0.201914  0.798086  1
  Sm  Sm5  1  0.203602  0.796398  0.796398  1
  Cd  Cd6  1  0.834924  0.835645  0.494508  1
  Cd  Cd7  1  0.834924  0.494508  0.835645  1
  Cd  Cd8  1  0.493634  0.839810  0.839810  1
  Cd  Cd9  1  0.826747  0.839810  0.839810  1
  Cd  Cd10  1  0.165076  0.164355  0.505492  1
  Cd  Cd11  1  0.165076  0.505492  0.164355  1
  Cd  Cd12  1  0.506366  0.160190  0.160190  1
  Cd  Cd13  1  0.173253  0.160190  0.160190  1
  Cd  Cd14  1  0.615721  0.635086  0.133474  1
  Cd  Cd15  1  0.615721  0.133474  0.635086  1
  Cd  Cd16  1  0.136477  0.622205  0.622205  1
  Cd  Cd17  1  0.619115  0.622205  0.622205  1
  Cd  Cd18  1  0.384279  0.364914  0.866526  1
  Cd  Cd19  1  0.384279  0.866526  0.364914  1
  Cd  Cd20  1  0.863523  0.377795  0.377795  1
  Cd  Cd21  1  0.380885  0.377795  0.377795  1
  Cd  Cd22  1  0.000000  0.000000  0.500000  1
  Cd  Cd23  1  0.500000  0.000000  0.500000  1
  Cd  Cd24  1  0.000000  0.500000  0.500000  1
  Cd  Cd25  1  0.500000  0.500000  0.000000  1
  Cd  Cd26  1  0.000000  0.500000  0.000000  1
  Cd  Cd27  1  0.500000  0.500000  0.500000  1
  Pd  Pd28  1  0.500000  0.000000  0.000000  1
  S  S29  1  0.000000  0.000000  0.000000  1
