# generated using pymatgen
data_Sc11Ru3Pt
_symmetry_space_group_name_H-M   'P 1'
_cell_length_a   9.52260275
_cell_length_b   9.52260266
_cell_length_c   9.47685700
_cell_angle_alpha   60.15878152
_cell_angle_beta   60.15878186
_cell_angle_gamma   59.68243367
_symmetry_Int_Tables_number   1
_chemical_formula_structural   Sc11Ru3Pt
_chemical_formula_sum   'Sc22 Ru6 Pt2'
_cell_volume   607.63209006
_cell_formula_units_Z   2
loop_
 _symmetry_equiv_pos_site_id
 _symmetry_equiv_pos_as_xyz
  1  'x, y, z'
loop_
 _atom_site_type_symbol
 _atom_site_label
 _atom_site_symmetry_multiplicity
 _atom_site_fract_x
 _atom_site_fract_y
 _atom_site_fract_z
 _atom_site_occupancy
  Sc  Sc0  1  0.803775  0.803775  0.196225  1
  Sc  Sc1  1  0.196943  0.803057  0.196943  1
  Sc  Sc2  1  0.803057  0.196943  0.196943  1
  Sc  Sc3  1  0.196225  0.196225  0.803775  1
  Sc  Sc4  1  0.803057  0.196943  0.803057  1
  Sc  Sc5  1  0.196943  0.803057  0.803057  1
  Sc  Sc6  1  0.617585  0.617585  0.151226  1
  Sc  Sc7  1  0.613606  0.151226  0.617585  1
  Sc  Sc8  1  0.151226  0.613606  0.617585  1
  Sc  Sc9  1  0.617585  0.617585  0.613606  1
  Sc  Sc10  1  0.382415  0.382415  0.848774  1
  Sc  Sc11  1  0.386394  0.848774  0.382415  1
  Sc  Sc12  1  0.848774  0.386394  0.382415  1
  Sc  Sc13  1  0.382415  0.382415  0.386394  1
  Sc  Sc14  1  0.840758  0.840758  0.470903  1
  Sc  Sc15  1  0.847579  0.470903  0.840758  1
  Sc  Sc16  1  0.470903  0.847579  0.840758  1
  Sc  Sc17  1  0.840758  0.840758  0.847579  1
  Sc  Sc18  1  0.159242  0.159242  0.529097  1
  Sc  Sc19  1  0.152421  0.529097  0.159242  1
  Sc  Sc20  1  0.529097  0.152421  0.159242  1
  Sc  Sc21  1  0.159242  0.159242  0.152421  1
  Ru  Ru22  1  0.000000  0.000000  0.000000  1
  Ru  Ru23  1  0.500000  0.500000  0.500000  1
  Ru  Ru24  1  0.500000  0.000000  0.500000  1
  Ru  Ru25  1  0.000000  0.500000  0.500000  1
  Ru  Ru26  1  0.000000  0.500000  0.000000  1
  Ru  Ru27  1  0.500000  0.000000  0.000000  1
  Pt  Pt28  1  0.000000  0.000000  0.500000  1
  Pt  Pt29  1  0.500000  0.500000  0.000000  1
