# generated using pymatgen
data_PrSmTc2F14
_symmetry_space_group_name_H-M   'P 1'
_cell_length_a   5.71847000
_cell_length_b   9.17539470
_cell_length_c   12.32734001
_cell_angle_alpha   62.17232860
_cell_angle_beta   90.00000000
_cell_angle_gamma   90.00000000
_symmetry_Int_Tables_number   1
_chemical_formula_structural   PrSmTc2F14
_chemical_formula_sum   'Pr2 Sm2 Tc4 F28'
_cell_volume   572.00644370
_cell_formula_units_Z   2
loop_
 _symmetry_equiv_pos_site_id
 _symmetry_equiv_pos_as_xyz
  1  'x, y, z'
loop_
 _atom_site_type_symbol
 _atom_site_label
 _atom_site_symmetry_multiplicity
 _atom_site_fract_x
 _atom_site_fract_y
 _atom_site_fract_z
 _atom_site_occupancy
  Pr  Pr0  1  0.758676  0.809742  0.765002  1
  Pr  Pr1  1  0.258676  0.190258  0.734998  1
  Sm  Sm2  1  0.241077  0.187274  0.235567  1
  Sm  Sm3  1  0.741077  0.812726  0.264433  1
  Tc  Tc4  1  0.755734  0.270976  0.961004  1
  Tc  Tc5  1  0.255734  0.729024  0.538996  1
  Tc  Tc6  1  0.242757  0.724223  0.046386  1
  Tc  Tc7  1  0.742757  0.275777  0.453614  1
  F  F8  1  0.439587  0.706978  0.922612  1
  F  F9  1  0.939587  0.293022  0.577388  1
  F  F10  1  0.556191  0.289555  0.083399  1
  F  F11  1  0.056191  0.710445  0.416601  1
  F  F12  1  0.457419  0.283404  0.540329  1
  F  F13  1  0.957419  0.716596  0.959671  1
  F  F14  1  0.543646  0.721560  0.453017  1
  F  F15  1  0.043646  0.278440  0.046983  1
  F  F16  1  0.769230  0.511938  0.864052  1
  F  F17  1  0.269230  0.488062  0.635948  1
  F  F18  1  0.232287  0.482085  0.141316  1
  F  F19  1  0.732287  0.517915  0.358684  1
  F  F20  1  0.757353  0.029912  0.054383  1
  F  F21  1  0.257353  0.970088  0.445617  1
  F  F22  1  0.241310  0.964849  0.951303  1
  F  F23  1  0.741310  0.035151  0.548697  1
  F  F24  1  0.977464  0.729734  0.631771  1
  F  F25  1  0.477464  0.270266  0.868229  1
  F  F26  1  0.020773  0.269912  0.361608  1
  F  F27  1  0.520773  0.730088  0.138392  1
  F  F28  1  0.047282  0.743532  0.171167  1
  F  F29  1  0.547282  0.256468  0.328833  1
  F  F30  1  0.947565  0.255457  0.834072  1
  F  F31  1  0.447565  0.744543  0.665928  1
  F  F32  1  0.417322  0.970921  0.231875  1
  F  F33  1  0.917322  0.029079  0.268125  1
  F  F34  1  0.594326  0.034113  0.770351  1
  F  F35  1  0.094326  0.965887  0.729649  1
