# generated using pymatgen
data_K4Sr2TiP4
_symmetry_space_group_name_H-M   'P 1'
_cell_length_a   10.03053144
_cell_length_b   10.03053027
_cell_length_c   7.62130294
_cell_angle_alpha   88.14781727
_cell_angle_beta   88.14780945
_cell_angle_gamma   119.31078970
_symmetry_Int_Tables_number   1
_chemical_formula_structural   K4Sr2TiP4
_chemical_formula_sum   'K8 Sr4 Ti2 P8'
_cell_volume   667.25451632
_cell_formula_units_Z   2
loop_
 _symmetry_equiv_pos_site_id
 _symmetry_equiv_pos_as_xyz
  1  'x, y, z'
loop_
 _atom_site_type_symbol
 _atom_site_label
 _atom_site_symmetry_multiplicity
 _atom_site_fract_x
 _atom_site_fract_y
 _atom_site_fract_z
 _atom_site_occupancy
  K  K0  1  0.056588  0.524557  0.614129  1
  K  K1  1  0.524557  0.056588  0.114129  1
  K  K2  1  0.276627  0.132815  0.827231  1
  K  K3  1  0.873621  0.732712  0.763834  1
  K  K4  1  0.860479  0.144746  0.800064  1
  K  K5  1  0.732712  0.873621  0.263834  1
  K  K6  1  0.132815  0.276627  0.327231  1
  K  K7  1  0.144746  0.860479  0.300064  1
  Sr  Sr8  1  0.468502  0.933918  0.607076  1
  Sr  Sr9  1  0.469885  0.524681  0.621170  1
  Sr  Sr10  1  0.933918  0.468502  0.107076  1
  Sr  Sr11  1  0.524681  0.469885  0.121170  1
  Ti  Ti12  1  0.665045  0.335427  0.508107  1
  Ti  Ti13  1  0.335427  0.665045  0.008107  1
  P  P14  1  0.669071  0.355112  0.826684  1
  P  P15  1  0.355112  0.669071  0.326684  1
  P  P16  1  0.592126  0.786977  0.873108  1
  P  P17  1  0.206427  0.401912  0.923956  1
  P  P18  1  0.199334  0.789436  0.903387  1
  P  P19  1  0.401912  0.206427  0.423956  1
  P  P20  1  0.786977  0.592126  0.373108  1
  P  P21  1  0.789436  0.199334  0.403387  1
