# generated using pymatgen
data_Na2Ni9As3P4W3
_symmetry_space_group_name_H-M   'P 1'
_cell_length_a   9.44643500
_cell_length_b   9.44643416
_cell_length_c   3.70195700
_cell_angle_alpha   90.00000000
_cell_angle_beta   90.00000000
_cell_angle_gamma   119.99999945
_symmetry_Int_Tables_number   1
_chemical_formula_structural   Na2Ni9As3P4W3
_chemical_formula_sum   'Na2 Ni9 As3 P4 W3'
_cell_volume   286.08681739
_cell_formula_units_Z   1
loop_
 _symmetry_equiv_pos_site_id
 _symmetry_equiv_pos_as_xyz
  1  'x, y, z'
loop_
 _atom_site_type_symbol
 _atom_site_label
 _atom_site_symmetry_multiplicity
 _atom_site_fract_x
 _atom_site_fract_y
 _atom_site_fract_z
 _atom_site_occupancy
  Na  Na0  1  0.333333  0.666667  0.000000  1
  Na  Na1  1  0.000000  0.000000  0.500000  1
  Ni  Ni2  1  0.279934  0.373892  0.500000  1
  Ni  Ni3  1  0.626108  0.906040  0.500000  1
  Ni  Ni4  1  0.093960  0.720066  0.500000  1
  Ni  Ni5  1  0.511024  0.450961  0.000000  1
  Ni  Ni6  1  0.549039  0.060063  0.000000  1
  Ni  Ni7  1  0.939937  0.488976  0.000000  1
  Ni  Ni8  1  0.737788  0.768910  0.000000  1
  Ni  Ni9  1  0.231090  0.968879  0.000000  1
  Ni  Ni10  1  0.031121  0.262212  0.000000  1
  As  As11  1  0.546456  0.627374  0.500000  1
  As  As12  1  0.372626  0.919082  0.500000  1
  As  As13  1  0.080918  0.453544  0.500000  1
  P  P14  1  0.963757  0.744582  0.000000  1
  P  P15  1  0.255418  0.219175  0.000000  1
  P  P16  1  0.780825  0.036243  0.000000  1
  P  P17  1  0.666667  0.333333  0.000000  1
  W  W18  1  0.767331  0.550460  0.500000  1
  W  W19  1  0.449540  0.216871  0.500000  1
  W  W20  1  0.783129  0.232669  0.500000  1
