# generated using pymatgen
data_Y18Ho2(IrRh3)3
_symmetry_space_group_name_H-M   'P 1'
_cell_length_a   10.94740901
_cell_length_b   10.94740941
_cell_length_c   6.39193600
_cell_angle_alpha   89.99918346
_cell_angle_beta   89.99918467
_cell_angle_gamma   89.94121997
_symmetry_Int_Tables_number   1
_chemical_formula_structural   Y18Ho2(IrRh3)3
_chemical_formula_sum   'Y18 Ho2 Ir3 Rh9'
_cell_volume   766.04607834
_cell_formula_units_Z   1
loop_
 _symmetry_equiv_pos_site_id
 _symmetry_equiv_pos_as_xyz
  1  'x, y, z'
loop_
 _atom_site_type_symbol
 _atom_site_label
 _atom_site_symmetry_multiplicity
 _atom_site_fract_x
 _atom_site_fract_y
 _atom_site_fract_z
 _atom_site_occupancy
  Y  Y0  1  0.291011  0.089827  0.378384  1
  Y  Y1  1  0.291170  0.909885  0.878188  1
  Y  Y2  1  0.709052  0.088391  0.878147  1
  Y  Y3  1  0.708755  0.909987  0.378089  1
  Y  Y4  1  0.587452  0.789476  0.879446  1
  Y  Y5  1  0.587124  0.209683  0.378110  1
  Y  Y6  1  0.412495  0.789773  0.378815  1
  Y  Y7  1  0.410844  0.209701  0.879472  1
  Y  Y8  1  0.210524  0.412548  0.620554  1
  Y  Y9  1  0.210227  0.587505  0.121185  1
  Y  Y10  1  0.790317  0.412876  0.121890  1
  Y  Y11  1  0.790299  0.589156  0.620528  1
  Y  Y12  1  0.910173  0.708989  0.121616  1
  Y  Y13  1  0.911609  0.290948  0.621853  1
  Y  Y14  1  0.090115  0.708830  0.621812  1
  Y  Y15  1  0.090013  0.291245  0.121911  1
  Y  Y16  1  0.999821  0.999906  0.499875  1
  Y  Y17  1  0.000094  0.000179  0.000125  1
  Ho  Ho18  1  0.499697  0.499984  0.999984  1
  Ho  Ho19  1  0.500016  0.500303  0.500016  1
  Ir  Ir20  1  0.653867  0.653181  0.250008  1
  Ir  Ir21  1  0.346819  0.346133  0.249992  1
  Ir  Ir22  1  0.346085  0.653915  0.750000  1
  Rh  Rh23  1  0.845775  0.154225  0.250000  1
  Rh  Rh24  1  0.846296  0.846781  0.750252  1
  Rh  Rh25  1  0.153219  0.153704  0.749748  1
  Rh  Rh26  1  0.153487  0.846513  0.250000  1
  Rh  Rh27  1  0.654269  0.345731  0.750000  1
  Rh  Rh28  1  0.500227  0.000472  0.122908  1
  Rh  Rh29  1  0.500332  0.000710  0.623566  1
  Rh  Rh30  1  0.999290  0.499668  0.876434  1
  Rh  Rh31  1  0.999528  0.499773  0.377092  1
