# generated using pymatgen
data_TbEr23Ru14
_symmetry_space_group_name_H-M   'P 1'
_cell_length_a   11.21388620
_cell_length_b   8.30073923
_cell_length_c   11.15147984
_cell_angle_alpha   56.57700021
_cell_angle_beta   89.97655393
_cell_angle_gamma   90.00277178
_symmetry_Int_Tables_number   1
_chemical_formula_structural   TbEr23Ru14
_chemical_formula_sum   'Tb1 Er23 Ru14'
_cell_volume   866.35860982
_cell_formula_units_Z   1
loop_
 _symmetry_equiv_pos_site_id
 _symmetry_equiv_pos_as_xyz
  1  'x, y, z'
loop_
 _atom_site_type_symbol
 _atom_site_label
 _atom_site_symmetry_multiplicity
 _atom_site_fract_x
 _atom_site_fract_y
 _atom_site_fract_z
 _atom_site_occupancy
  Tb  Tb0  1  0.704621  0.241969  0.531835  1
  Er  Er1  1  0.205677  0.757445  0.969018  1
  Er  Er2  1  0.844785  0.508129  0.655349  1
  Er  Er3  1  0.344489  0.492040  0.844802  1
  Er  Er4  1  0.155542  0.492151  0.344885  1
  Er  Er5  1  0.655227  0.508114  0.154454  1
  Er  Er6  1  0.006926  0.851927  0.362113  1
  Er  Er7  1  0.506783  0.148355  0.137795  1
  Er  Er8  1  0.993715  0.148154  0.637918  1
  Er  Er9  1  0.493008  0.851713  0.862271  1
  Er  Er10  1  0.794268  0.242272  0.031524  1
  Er  Er11  1  0.294208  0.757081  0.469143  1
  Er  Er12  1  0.931544  0.777233  0.090518  1
  Er  Er13  1  0.429897  0.222992  0.408901  1
  Er  Er14  1  0.068465  0.222882  0.909675  1
  Er  Er15  1  0.568619  0.777042  0.590334  1
  Er  Er16  1  0.301509  0.240908  0.675272  1
  Er  Er17  1  0.801996  0.758417  0.825495  1
  Er  Er18  1  0.698574  0.759557  0.324752  1
  Er  Er19  1  0.198390  0.240985  0.174655  1
  Er  Er20  1  0.925660  0.279604  0.293320  1
  Er  Er21  1  0.425287  0.720632  0.206351  1
  Er  Er22  1  0.074873  0.720411  0.706487  1
  Er  Er23  1  0.574445  0.279626  0.794244  1
  Ru  Ru24  1  0.498696  0.501824  0.500194  1
  Ru  Ru25  1  0.000593  0.500814  0.999602  1
  Ru  Ru26  1  0.647962  0.923131  0.033553  1
  Ru  Ru27  1  0.148251  0.076398  0.466181  1
  Ru  Ru28  1  0.352378  0.076334  0.966851  1
  Ru  Ru29  1  0.852437  0.922144  0.533937  1
  Ru  Ru30  1  0.397663  0.485224  0.103036  1
  Ru  Ru31  1  0.898811  0.515465  0.395974  1
  Ru  Ru32  1  0.602002  0.516122  0.895995  1
  Ru  Ru33  1  0.101526  0.484185  0.603428  1
  Ru  Ru34  1  0.821739  0.099480  0.849815  1
  Ru  Ru35  1  0.320746  0.900562  0.651416  1
  Ru  Ru36  1  0.178819  0.900390  0.151429  1
  Ru  Ru37  1  0.679868  0.098289  0.347476  1
