# generated using pymatgen
data_Gd2As2Cl2O5
_symmetry_space_group_name_H-M   'P 1'
_cell_length_a   7.14862257
_cell_length_b   7.76747621
_cell_length_c   9.52511017
_cell_angle_alpha   110.12778749
_cell_angle_beta   103.69145055
_cell_angle_gamma   102.19359244
_symmetry_Int_Tables_number   1
_chemical_formula_structural   Gd2As2Cl2O5
_chemical_formula_sum   'Gd4 As4 Cl4 O10'
_cell_volume   456.98244088
_cell_formula_units_Z   2
loop_
 _symmetry_equiv_pos_site_id
 _symmetry_equiv_pos_as_xyz
  1  'x, y, z'
loop_
 _atom_site_type_symbol
 _atom_site_label
 _atom_site_symmetry_multiplicity
 _atom_site_fract_x
 _atom_site_fract_y
 _atom_site_fract_z
 _atom_site_occupancy
  Gd  Gd0  1  0.394472  0.702310  0.521933  1
  Gd  Gd1  1  0.605528  0.297690  0.478067  1
  Gd  Gd2  1  0.839550  0.760412  0.330997  1
  Gd  Gd3  1  0.160450  0.239588  0.669003  1
  As  As4  1  0.884714  0.848243  0.739829  1
  As  As5  1  0.115286  0.151757  0.260171  1
  As  As6  1  0.711790  0.232319  0.799339  1
  As  As7  1  0.288210  0.767681  0.200661  1
  Cl  Cl8  1  0.234239  0.633305  0.737086  1
  Cl  Cl9  1  0.765761  0.366695  0.262914  1
  Cl  Cl10  1  0.779405  0.726074  0.036925  1
  Cl  Cl11  1  0.220595  0.273926  0.963075  1
  O  O12  1  0.847045  0.276340  0.669906  1
  O  O13  1  0.152955  0.723660  0.330094  1
  O  O14  1  0.527990  0.791515  0.338692  1
  O  O15  1  0.472010  0.208485  0.661308  1
  O  O16  1  0.670949  0.964520  0.724861  1
  O  O17  1  0.329051  0.035480  0.275139  1
  O  O18  1  0.692238  0.624339  0.586406  1
  O  O19  1  0.307762  0.375661  0.413594  1
  O  O20  1  0.990726  0.918399  0.606180  1
  O  O21  1  0.009274  0.081601  0.393820  1
