# generated using pymatgen
data_Dy2Ho3Tm7Ni4
_symmetry_space_group_name_H-M   'P 1'
_cell_length_a   6.29331721
_cell_length_b   6.75528528
_cell_length_c   9.46646521
_cell_angle_alpha   89.99229794
_cell_angle_beta   89.57343314
_cell_angle_gamma   90.01768248
_symmetry_Int_Tables_number   1
_chemical_formula_structural   Dy2Ho3Tm7Ni4
_chemical_formula_sum   'Dy2 Ho3 Tm7 Ni4'
_cell_volume   402.43810844
_cell_formula_units_Z   1
loop_
 _symmetry_equiv_pos_site_id
 _symmetry_equiv_pos_as_xyz
  1  'x, y, z'
loop_
 _atom_site_type_symbol
 _atom_site_label
 _atom_site_symmetry_multiplicity
 _atom_site_fract_x
 _atom_site_fract_y
 _atom_site_fract_z
 _atom_site_occupancy
  Dy  Dy0  1  0.635229  0.030305  0.250173  1
  Dy  Dy1  1  0.365175  0.969186  0.749614  1
  Ho  Ho2  1  0.135356  0.469189  0.749924  1
  Ho  Ho3  1  0.863971  0.531353  0.249602  1
  Ho  Ho4  1  0.179320  0.177459  0.066683  1
  Tm  Tm5  1  0.819916  0.821563  0.932380  1
  Tm  Tm6  1  0.680599  0.321602  0.933309  1
  Tm  Tm7  1  0.820402  0.821126  0.564709  1
  Tm  Tm8  1  0.319683  0.678132  0.065915  1
  Tm  Tm9  1  0.180180  0.179533  0.435675  1
  Tm  Tm10  1  0.319400  0.677819  0.434046  1
  Tm  Tm11  1  0.680437  0.322731  0.565732  1
  Ni  Ni12  1  0.447939  0.393589  0.249144  1
  Ni  Ni13  1  0.553388  0.606501  0.751468  1
  Ni  Ni14  1  0.945974  0.107639  0.746076  1
  Ni  Ni15  1  0.053030  0.892272  0.255549  1
