# generated using pymatgen
data_Tm7LuSc12Si15Au
_symmetry_space_group_name_H-M   'P 1'
_cell_length_a   7.07513874
_cell_length_b   7.33385901
_cell_length_c   13.98742617
_cell_angle_alpha   89.88616842
_cell_angle_beta   89.62454446
_cell_angle_gamma   90.16565377
_symmetry_Int_Tables_number   1
_chemical_formula_structural   Tm7LuSc12Si15Au
_chemical_formula_sum   'Tm7 Lu1 Sc12 Si15 Au1'
_cell_volume   725.76047297
_cell_formula_units_Z   1
loop_
 _symmetry_equiv_pos_site_id
 _symmetry_equiv_pos_as_xyz
  1  'x, y, z'
loop_
 _atom_site_type_symbol
 _atom_site_label
 _atom_site_symmetry_multiplicity
 _atom_site_fract_x
 _atom_site_fract_y
 _atom_site_fract_z
 _atom_site_occupancy
  Tm  Tm0  1  0.988329  0.825087  0.904534  1
  Tm  Tm1  1  0.487625  0.677603  0.904245  1
  Tm  Tm2  1  0.989824  0.827404  0.597356  1
  Tm  Tm3  1  0.511307  0.322883  0.095973  1
  Tm  Tm4  1  0.009545  0.174768  0.399831  1
  Tm  Tm5  1  0.508261  0.323386  0.400788  1
  Tm  Tm6  1  0.492023  0.676747  0.598941  1
  Lu  Lu7  1  0.011460  0.176006  0.097287  1
  Sc  Sc8  1  0.164454  0.502635  0.751709  1
  Sc  Sc9  1  0.835935  0.497547  0.250685  1
  Sc  Sc10  1  0.336771  0.001291  0.249060  1
  Sc  Sc11  1  0.665305  0.995273  0.750918  1
  Sc  Sc12  1  0.340549  0.176102  0.625884  1
  Sc  Sc13  1  0.665055  0.824004  0.373376  1
  Sc  Sc14  1  0.167329  0.672818  0.372804  1
  Sc  Sc15  1  0.669636  0.824074  0.125022  1
  Sc  Sc16  1  0.829678  0.326265  0.625492  1
  Sc  Sc17  1  0.329404  0.175404  0.876193  1
  Sc  Sc18  1  0.831573  0.321960  0.876110  1
  Sc  Sc19  1  0.168090  0.676863  0.125257  1
  Si  Si20  1  0.036366  0.117218  0.750635  1
  Si  Si21  1  0.965727  0.886797  0.248829  1
  Si  Si22  1  0.465888  0.612988  0.247865  1
  Si  Si23  1  0.535924  0.387491  0.752819  1
  Si  Si24  1  0.285897  0.872334  0.751197  1
  Si  Si25  1  0.712571  0.130353  0.248244  1
  Si  Si26  1  0.212892  0.367754  0.247143  1
  Si  Si27  1  0.788159  0.629671  0.753233  1
  Si  Si28  1  0.832606  0.536586  0.459515  1
  Si  Si29  1  0.337906  0.962913  0.460198  1
  Si  Si30  1  0.842149  0.534327  0.039188  1
  Si  Si31  1  0.660884  0.035781  0.537554  1
  Si  Si32  1  0.157587  0.464341  0.962245  1
  Si  Si33  1  0.658708  0.034164  0.961246  1
  Si  Si34  1  0.340231  0.965225  0.039572  1
  Au  Au35  1  0.164353  0.463937  0.539052  1
