# generated using pymatgen
data_K3Sc2(AsO4)3
_symmetry_space_group_name_H-M   'P 1'
_cell_length_a   10.02803636
_cell_length_b   10.02803597
_cell_length_c   17.79911400
_cell_angle_alpha   65.64571033
_cell_angle_beta   65.64571134
_cell_angle_gamma   60.32502163
_symmetry_Int_Tables_number   1
_chemical_formula_structural   K3Sc2(AsO4)3
_chemical_formula_sum   'K12 Sc8 As12 O48'
_cell_volume   1366.86878731
_cell_formula_units_Z   4
loop_
 _symmetry_equiv_pos_site_id
 _symmetry_equiv_pos_as_xyz
  1  'x, y, z'
loop_
 _atom_site_type_symbol
 _atom_site_label
 _atom_site_symmetry_multiplicity
 _atom_site_fract_x
 _atom_site_fract_y
 _atom_site_fract_z
 _atom_site_occupancy
  K  K0  1  0.307460  0.525300  0.676114  1
  K  K1  1  0.074162  0.331938  0.421571  1
  K  K2  1  0.719263  0.280735  0.750000  1
  K  K3  1  0.525307  0.307446  0.176124  1
  K  K4  1  0.332021  0.074105  0.921558  1
  K  K5  1  0.000016  0.499975  0.999992  1
  K  K6  1  0.280736  0.719263  0.250004  1
  K  K7  1  0.925903  0.667994  0.578426  1
  K  K8  1  0.692535  0.474708  0.323886  1
  K  K9  1  0.474697  0.692542  0.823876  1
  K  K10  1  0.500019  0.999989  0.500003  1
  K  K11  1  0.668017  0.925843  0.078441  1
  Sc  Sc12  1  0.833607  0.807938  0.825973  1
  Sc  Sc13  1  0.807952  0.833564  0.325960  1
  Sc  Sc14  1  0.166427  0.192056  0.174037  1
  Sc  Sc15  1  0.786870  0.275140  0.969519  1
  Sc  Sc16  1  0.724855  0.213125  0.530476  1
  Sc  Sc17  1  0.275115  0.786890  0.469522  1
  Sc  Sc18  1  0.192059  0.166394  0.674039  1
  Sc  Sc19  1  0.213123  0.724882  0.030482  1
  As  As20  1  0.037830  0.988666  0.623831  1
  As  As21  1  0.346205  0.400421  0.476515  1
  As  As22  1  0.988668  0.037848  0.123827  1
  As  As23  1  0.965885  0.420398  0.808845  1
  As  As24  1  0.653764  0.599597  0.523489  1
  As  As25  1  0.400405  0.346232  0.976510  1
  As  As26  1  0.599589  0.653789  0.023486  1
  As  As27  1  0.011335  0.962160  0.876177  1
  As  As28  1  0.962152  0.011341  0.376166  1
  As  As29  1  0.034121  0.579601  0.191151  1
  As  As30  1  0.420413  0.965876  0.308845  1
  As  As31  1  0.579600  0.034114  0.691155  1
  O  O32  1  0.912396  0.619648  0.287893  1
  O  O33  1  0.619665  0.912410  0.787896  1
  O  O34  1  0.779935  0.695375  0.451551  1
  O  O35  1  0.823803  0.118113  0.087487  1
  O  O36  1  0.537447  0.269778  0.482807  1
  O  O37  1  0.968794  0.599083  0.797750  1
  O  O38  1  0.881899  0.176203  0.412507  1
  O  O39  1  0.434867  0.774224  0.335328  1
  O  O40  1  0.838642  0.070662  0.937379  1
  O  O41  1  0.296824  0.557409  0.513696  1
  O  O42  1  0.599098  0.968785  0.297755  1
  O  O43  1  0.671589  0.549133  0.623057  1
  O  O44  1  0.269763  0.537477  0.982801  1
  O  O45  1  0.087592  0.380332  0.712104  1
  O  O46  1  0.695360  0.779967  0.951549  1
  O  O47  1  0.283806  0.026171  0.398657  1
  O  O48  1  0.965629  0.902778  0.221143  1
  O  O49  1  0.118059  0.823798  0.587497  1
  O  O50  1  0.716200  0.973834  0.601339  1
  O  O51  1  0.557379  0.296859  0.013702  1
  O  O52  1  0.070647  0.838656  0.437375  1
  O  O53  1  0.034363  0.097207  0.778852  1
  O  O54  1  0.549125  0.671618  0.123055  1
  O  O55  1  0.097239  0.034364  0.278856  1
  O  O56  1  0.929332  0.161355  0.562626  1
  O  O57  1  0.703146  0.442618  0.486298  1
  O  O58  1  0.026169  0.283799  0.898661  1
  O  O59  1  0.804366  0.988633  0.374985  1
  O  O60  1  0.730233  0.462549  0.017193  1
  O  O61  1  0.304637  0.220054  0.048453  1
  O  O62  1  0.973831  0.716201  0.101338  1
  O  O63  1  0.565122  0.225781  0.664671  1
  O  O64  1  0.400917  0.031197  0.702247  1
  O  O65  1  0.328367  0.450869  0.376950  1
  O  O66  1  0.225779  0.565136  0.164670  1
  O  O67  1  0.031220  0.400908  0.202251  1
  O  O68  1  0.442618  0.703162  0.986294  1
  O  O69  1  0.195644  0.011346  0.625000  1
  O  O70  1  0.176207  0.881924  0.912509  1
  O  O71  1  0.011380  0.195631  0.125012  1
  O  O72  1  0.220043  0.304632  0.548457  1
  O  O73  1  0.161356  0.929347  0.062623  1
  O  O74  1  0.902777  0.965639  0.721153  1
  O  O75  1  0.774220  0.434871  0.835329  1
  O  O76  1  0.380365  0.087604  0.212105  1
  O  O77  1  0.988652  0.804346  0.875006  1
  O  O78  1  0.450866  0.328408  0.876942  1
  O  O79  1  0.462519  0.730242  0.517196  1
