# generated using pymatgen
data_Pr2DyTm3(IrO7)2
_symmetry_space_group_name_H-M   'P 1'
_cell_length_a   6.42349731
_cell_length_b   6.43560951
_cell_length_c   7.48047700
_cell_angle_alpha   90.00000000
_cell_angle_beta   90.00000000
_cell_angle_gamma   109.57725154
_symmetry_Int_Tables_number   1
_chemical_formula_structural   Pr2DyTm3(IrO7)2
_chemical_formula_sum   'Pr2 Dy1 Tm3 Ir2 O14'
_cell_volume   291.35956137
_cell_formula_units_Z   1
loop_
 _symmetry_equiv_pos_site_id
 _symmetry_equiv_pos_as_xyz
  1  'x, y, z'
loop_
 _atom_site_type_symbol
 _atom_site_label
 _atom_site_symmetry_multiplicity
 _atom_site_fract_x
 _atom_site_fract_y
 _atom_site_fract_z
 _atom_site_occupancy
  Pr  Pr0  1  0.998271  0.999009  0.999007  1
  Pr  Pr1  1  0.998271  0.999009  0.500993  1
  Dy  Dy2  1  0.063075  0.515699  0.250000  1
  Tm  Tm3  1  0.486308  0.940133  0.750000  1
  Tm  Tm4  1  0.513665  0.059090  0.250000  1
  Tm  Tm5  1  0.938836  0.486793  0.750000  1
  Ir  Ir6  1  0.499082  0.498707  0.999038  1
  Ir  Ir7  1  0.499082  0.498707  0.500962  1
  O  O8  1  0.597447  0.596710  0.750000  1
  O  O9  1  0.412876  0.408002  0.250000  1
  O  O10  1  0.836223  0.125675  0.750000  1
  O  O11  1  0.162421  0.880558  0.250000  1
  O  O12  1  0.125170  0.836564  0.750000  1
  O  O13  1  0.873742  0.160444  0.250000  1
  O  O14  1  0.440615  0.177876  0.965958  1
  O  O15  1  0.557259  0.820828  0.466753  1
  O  O16  1  0.178381  0.437743  0.962905  1
  O  O17  1  0.821510  0.561003  0.468518  1
  O  O18  1  0.440615  0.177876  0.534042  1
  O  O19  1  0.557259  0.820828  0.033247  1
  O  O20  1  0.821510  0.561003  0.031482  1
  O  O21  1  0.178381  0.437743  0.537095  1
