# generated using pymatgen
data_EuHo5ErPtI12
_symmetry_space_group_name_H-M   'P 1'
_cell_length_a   9.79588263
_cell_length_b   9.79724465
_cell_length_c   9.79350417
_cell_angle_alpha   106.64968039
_cell_angle_beta   106.65679534
_cell_angle_gamma   106.66090657
_symmetry_Int_Tables_number   1
_chemical_formula_structural   EuHo5ErPtI12
_chemical_formula_sum   'Eu1 Ho5 Er1 Pt1 I12'
_cell_volume   789.99948641
_cell_formula_units_Z   1
loop_
 _symmetry_equiv_pos_site_id
 _symmetry_equiv_pos_as_xyz
  1  'x, y, z'
loop_
 _atom_site_type_symbol
 _atom_site_label
 _atom_site_symmetry_multiplicity
 _atom_site_fract_x
 _atom_site_fract_y
 _atom_site_fract_z
 _atom_site_occupancy
  Eu  Eu0  1  0.999964  0.999974  0.999987  1
  Ho  Ho1  1  0.201140  0.403341  0.474753  1
  Ho  Ho2  1  0.474837  0.201180  0.403245  1
  Ho  Ho3  1  0.596688  0.525157  0.798902  1
  Ho  Ho4  1  0.798801  0.596653  0.525046  1
  Ho  Ho5  1  0.525094  0.798787  0.596531  1
  Er  Er6  1  0.403561  0.474889  0.201733  1
  Pt  Pt7  1  0.499897  0.499971  0.499706  1
  I  I8  1  0.045821  0.360028  0.124742  1
  I  I9  1  0.124763  0.045522  0.359932  1
  I  I10  1  0.359931  0.124989  0.045536  1
  I  I11  1  0.954463  0.640059  0.875236  1
  I  I12  1  0.875249  0.954481  0.640078  1
  I  I13  1  0.640073  0.875226  0.954472  1
  I  I14  1  0.721731  0.573446  0.177227  1
  I  I15  1  0.177294  0.722090  0.573560  1
  I  I16  1  0.573560  0.177310  0.722109  1
  I  I17  1  0.277997  0.426488  0.822966  1
  I  I18  1  0.822728  0.277903  0.426451  1
  I  I19  1  0.426409  0.822506  0.277787  1
