# generated using pymatgen
data_Zr2SbRh5
_symmetry_space_group_name_H-M   'P 1'
_cell_length_a   4.16816200
_cell_length_b   5.69658600
_cell_length_c   11.13019200
_cell_angle_alpha   90.00000000
_cell_angle_beta   90.00000000
_cell_angle_gamma   90.00000000
_symmetry_Int_Tables_number   1
_chemical_formula_structural   Zr2SbRh5
_chemical_formula_sum   'Zr4 Sb2 Rh10'
_cell_volume   264.27854328
_cell_formula_units_Z   2
loop_
 _symmetry_equiv_pos_site_id
 _symmetry_equiv_pos_as_xyz
  1  'x, y, z'
loop_
 _atom_site_type_symbol
 _atom_site_label
 _atom_site_symmetry_multiplicity
 _atom_site_fract_x
 _atom_site_fract_y
 _atom_site_fract_z
 _atom_site_occupancy
  Zr  Zr0  1  0.500000  0.172845  0.644190  1
  Zr  Zr1  1  0.500000  0.827155  0.355810  1
  Zr  Zr2  1  0.500000  0.672845  0.855810  1
  Zr  Zr3  1  0.500000  0.327155  0.144190  1
  Sb  Sb4  1  0.000000  0.500000  0.500000  1
  Sb  Sb5  1  0.000000  0.000000  0.000000  1
  Rh  Rh6  1  0.500000  0.194945  0.888859  1
  Rh  Rh7  1  0.500000  0.805055  0.111141  1
  Rh  Rh8  1  0.500000  0.694945  0.611141  1
  Rh  Rh9  1  0.500000  0.305055  0.388859  1
  Rh  Rh10  1  0.000000  0.431756  0.746379  1
  Rh  Rh11  1  0.000000  0.568244  0.253621  1
  Rh  Rh12  1  0.000000  0.000000  0.500000  1
  Rh  Rh13  1  0.000000  0.500000  0.000000  1
  Rh  Rh14  1  0.000000  0.068244  0.246379  1
  Rh  Rh15  1  0.000000  0.931756  0.753621  1
