# generated using pymatgen
data_Yb2Ce(SnIr)3
_symmetry_space_group_name_H-M   'P 1'
_cell_length_a   7.37934594
_cell_length_b   7.53025910
_cell_length_c   4.07246500
_cell_angle_alpha   90.00000000
_cell_angle_beta   90.00000000
_cell_angle_gamma   120.67883985
_symmetry_Int_Tables_number   1
_chemical_formula_structural   Yb2Ce(SnIr)3
_chemical_formula_sum   'Yb2 Ce1 Sn3 Ir3'
_cell_volume   194.62749223
_cell_formula_units_Z   1
loop_
 _symmetry_equiv_pos_site_id
 _symmetry_equiv_pos_as_xyz
  1  'x, y, z'
loop_
 _atom_site_type_symbol
 _atom_site_label
 _atom_site_symmetry_multiplicity
 _atom_site_fract_x
 _atom_site_fract_y
 _atom_site_fract_z
 _atom_site_occupancy
  Yb  Yb0  1  0.591242  0.591339  0.500000  1
  Yb  Yb1  1  0.408758  0.000096  0.500000  1
  Ce  Ce2  1  0.000000  0.414097  0.500000  1
  Sn  Sn3  1  0.000000  0.754663  0.000000  1
  Sn  Sn4  1  0.266629  0.255885  0.000000  1
  Sn  Sn5  1  0.733371  0.989257  0.000000  1
  Ir  Ir6  1  0.312659  0.649541  0.000000  1
  Ir  Ir7  1  0.687341  0.336881  0.000000  1
  Ir  Ir8  1  0.000000  0.008242  0.500000  1
