# generated using pymatgen
data_LuMg7(FeB6)4
_symmetry_space_group_name_H-M   'P 1'
_cell_length_a   8.79936739
_cell_length_b   11.03095249
_cell_length_c   3.30953600
_cell_angle_alpha   90.00000000
_cell_angle_beta   90.00000000
_cell_angle_gamma   90.03411326
_symmetry_Int_Tables_number   1
_chemical_formula_structural   LuMg7(FeB6)4
_chemical_formula_sum   'Lu1 Mg7 Fe4 B24'
_cell_volume   321.24139066
_cell_formula_units_Z   1
loop_
 _symmetry_equiv_pos_site_id
 _symmetry_equiv_pos_as_xyz
  1  'x, y, z'
loop_
 _atom_site_type_symbol
 _atom_site_label
 _atom_site_symmetry_multiplicity
 _atom_site_fract_x
 _atom_site_fract_y
 _atom_site_fract_z
 _atom_site_occupancy
  Lu  Lu0  1  0.824937  0.085555  0.000000  1
  Mg  Mg1  1  0.442961  0.132571  0.000000  1
  Mg  Mg2  1  0.943427  0.369374  0.000000  1
  Mg  Mg3  1  0.329026  0.414734  0.000000  1
  Mg  Mg4  1  0.670994  0.585592  0.000000  1
  Mg  Mg5  1  0.057593  0.631931  0.000000  1
  Mg  Mg6  1  0.557239  0.867167  0.000000  1
  Mg  Mg7  1  0.171281  0.913932  0.000000  1
  Fe  Fe8  1  0.141397  0.181081  0.000000  1
  Fe  Fe9  1  0.642235  0.320509  0.000000  1
  Fe  Fe10  1  0.358850  0.680691  0.000000  1
  Fe  Fe11  1  0.859407  0.816564  0.000000  1
  B  B12  1  0.594218  0.025702  0.500001  1
  B  B13  1  0.056885  0.065802  0.500001  1
  B  B14  1  0.253849  0.080691  0.500001  1
  B  B15  1  0.629957  0.184191  0.500001  1
  B  B16  1  0.984296  0.212268  0.500001  1
  B  B17  1  0.295163  0.237673  0.500001  1
  B  B18  1  0.794450  0.264447  0.500001  1
  B  B19  1  0.481778  0.289627  0.500001  1
  B  B20  1  0.132274  0.318388  0.500001  1
  B  B21  1  0.752932  0.420373  0.500001  1
  B  B22  1  0.555353  0.434741  0.500001  1
  B  B23  1  0.095425  0.474544  0.500001  1
  B  B24  1  0.905059  0.526397  0.500001  1
  B  B25  1  0.444006  0.565523  0.500001  1
  B  B26  1  0.246830  0.581300  0.500001  1
  B  B27  1  0.868542  0.681895  0.500001  1
  B  B28  1  0.517897  0.710182  0.500001  1
  B  B29  1  0.204819  0.737457  0.500001  1
  B  B30  1  0.704245  0.761380  0.500001  1
  B  B31  1  0.018827  0.788304  0.500001  1
  B  B32  1  0.368454  0.817811  0.500001  1
  B  B33  1  0.746746  0.916004  0.500001  1
  B  B34  1  0.944079  0.932014  0.500001  1
  B  B35  1  0.404563  0.973580  0.500001  1
