# generated using pymatgen
data_Dy5ErAl24Os7Rh
_symmetry_space_group_name_H-M   'P 1'
_cell_length_a   8.81656076
_cell_length_b   8.81656115
_cell_length_c   9.56369234
_cell_angle_alpha   89.75191730
_cell_angle_beta   90.24808180
_cell_angle_gamma   119.71696149
_symmetry_Int_Tables_number   1
_chemical_formula_structural   Dy5ErAl24Os7Rh
_chemical_formula_sum   'Dy5 Er1 Al24 Os7 Rh1'
_cell_volume   645.62569430
_cell_formula_units_Z   1
loop_
 _symmetry_equiv_pos_site_id
 _symmetry_equiv_pos_as_xyz
  1  'x, y, z'
loop_
 _atom_site_type_symbol
 _atom_site_label
 _atom_site_symmetry_multiplicity
 _atom_site_fract_x
 _atom_site_fract_y
 _atom_site_fract_z
 _atom_site_occupancy
  Dy  Dy0  1  0.190614  0.387238  0.251899  1
  Dy  Dy1  1  0.809415  0.612752  0.748091  1
  Dy  Dy2  1  0.612762  0.809386  0.251899  1
  Dy  Dy3  1  0.387248  0.190585  0.748091  1
  Dy  Dy4  1  0.194873  0.805127  0.251341  1
  Er  Er5  1  0.804830  0.195170  0.748695  1
  Al  Al6  1  0.332914  0.667086  0.018514  1
  Al  Al7  1  0.667190  0.332810  0.981327  1
  Al  Al8  1  0.666827  0.333173  0.516741  1
  Al  Al9  1  0.333289  0.666711  0.483405  1
  Al  Al10  1  0.163707  0.325265  0.577303  1
  Al  Al11  1  0.836135  0.674657  0.422789  1
  Al  Al12  1  0.674735  0.836293  0.577303  1
  Al  Al13  1  0.839188  0.675415  0.077481  1
  Al  Al14  1  0.325343  0.163865  0.422789  1
  Al  Al15  1  0.160635  0.324509  0.922416  1
  Al  Al16  1  0.163433  0.836567  0.575993  1
  Al  Al17  1  0.324585  0.160812  0.077481  1
  Al  Al18  1  0.836552  0.163448  0.424245  1
  Al  Al19  1  0.675491  0.839365  0.922416  1
  Al  Al20  1  0.836821  0.163179  0.075812  1
  Al  Al21  1  0.163168  0.836832  0.923950  1
  Al  Al22  1  0.560306  0.122272  0.249581  1
  Al  Al23  1  0.440016  0.877987  0.750416  1
  Al  Al24  1  0.877728  0.439694  0.249581  1
  Al  Al25  1  0.122013  0.559984  0.750416  1
  Al  Al26  1  0.560402  0.439598  0.249908  1
  Al  Al27  1  0.439580  0.560420  0.750098  1
  Al  Al28  1  0.999577  0.000423  0.250130  1
  Al  Al29  1  0.000280  0.999720  0.749868  1
  Os  Os30  1  0.500215  0.000106  0.999863  1
  Os  Os31  1  0.999894  0.499785  0.999863  1
  Os  Os32  1  0.500239  0.000125  0.500151  1
  Os  Os33  1  0.999875  0.499761  0.500151  1
  Os  Os34  1  0.500068  0.499932  0.500040  1
  Os  Os35  1  0.000005  0.999995  0.999961  1
  Os  Os36  1  0.000000  0.000000  0.500026  1
  Rh  Rh37  1  0.500047  0.499953  0.999968  1
