# generated using pymatgen
data_Hf18CuRe8Pd
_symmetry_space_group_name_H-M   'P 1'
_cell_length_a   8.65568600
_cell_length_b   8.65568603
_cell_length_c   8.53486700
_cell_angle_alpha   90.00000000
_cell_angle_beta   90.00000000
_cell_angle_gamma   119.99999988
_symmetry_Int_Tables_number   1
_chemical_formula_structural   Hf18CuRe8Pd
_chemical_formula_sum   'Hf18 Cu1 Re8 Pd1'
_cell_volume   553.77121602
_cell_formula_units_Z   1
loop_
 _symmetry_equiv_pos_site_id
 _symmetry_equiv_pos_as_xyz
  1  'x, y, z'
loop_
 _atom_site_type_symbol
 _atom_site_label
 _atom_site_symmetry_multiplicity
 _atom_site_fract_x
 _atom_site_fract_y
 _atom_site_fract_z
 _atom_site_occupancy
  Hf  Hf0  1  0.195206  0.804794  0.445936  1
  Hf  Hf1  1  0.195206  0.390412  0.445936  1
  Hf  Hf2  1  0.609588  0.804794  0.445936  1
  Hf  Hf3  1  0.806081  0.193919  0.551754  1
  Hf  Hf4  1  0.806081  0.612161  0.551754  1
  Hf  Hf5  1  0.387839  0.193919  0.551754  1
  Hf  Hf6  1  0.806081  0.193919  0.948246  1
  Hf  Hf7  1  0.806081  0.612161  0.948246  1
  Hf  Hf8  1  0.387839  0.193919  0.948246  1
  Hf  Hf9  1  0.195206  0.804794  0.054064  1
  Hf  Hf10  1  0.195206  0.390412  0.054064  1
  Hf  Hf11  1  0.609588  0.804794  0.054064  1
  Hf  Hf12  1  0.541271  0.458729  0.250000  1
  Hf  Hf13  1  0.541271  0.082541  0.250000  1
  Hf  Hf14  1  0.917459  0.458729  0.250000  1
  Hf  Hf15  1  0.457093  0.542907  0.750000  1
  Hf  Hf16  1  0.457093  0.914186  0.750000  1
  Hf  Hf17  1  0.085814  0.542907  0.750000  1
  Cu  Cu18  1  0.333333  0.666667  0.250000  1
  Re  Re19  1  0.889380  0.110620  0.250000  1
  Re  Re20  1  0.889380  0.778758  0.250000  1
  Re  Re21  1  0.221242  0.110620  0.250000  1
  Re  Re22  1  0.111110  0.888890  0.750000  1
  Re  Re23  1  0.111110  0.222219  0.750000  1
  Re  Re24  1  0.777781  0.888890  0.750000  1
  Re  Re25  1  0.000000  0.000000  0.500178  1
  Re  Re26  1  0.000000  0.000000  0.999822  1
  Pd  Pd27  1  0.666667  0.333333  0.750000  1
