# generated using pymatgen
data_Be10FeAu
_symmetry_space_group_name_H-M   'P 1'
_cell_length_a   4.18889300
_cell_length_b   4.18889347
_cell_length_c   6.90866000
_cell_angle_alpha   90.00000000
_cell_angle_beta   90.00000000
_cell_angle_gamma   120.00000422
_symmetry_Int_Tables_number   1
_chemical_formula_structural   Be10FeAu
_chemical_formula_sum   'Be10 Fe1 Au1'
_cell_volume   104.98397573
_cell_formula_units_Z   1
loop_
 _symmetry_equiv_pos_site_id
 _symmetry_equiv_pos_as_xyz
  1  'x, y, z'
loop_
 _atom_site_type_symbol
 _atom_site_label
 _atom_site_symmetry_multiplicity
 _atom_site_fract_x
 _atom_site_fract_y
 _atom_site_fract_z
 _atom_site_occupancy
  Be  Be0  1  0.337565  0.168783  0.036947  1
  Be  Be1  1  0.831219  0.168783  0.036947  1
  Be  Be2  1  0.831218  0.662435  0.036947  1
  Be  Be3  1  0.000000  0.000000  0.297358  1
  Be  Be4  1  0.666667  0.333333  0.400715  1
  Be  Be5  1  0.166444  0.332886  0.562478  1
  Be  Be6  1  0.166443  0.833558  0.562478  1
  Be  Be7  1  0.667116  0.833558  0.562478  1
  Be  Be8  1  0.000000  0.000000  0.797916  1
  Be  Be9  1  0.333333  0.666666  0.841955  1
  Fe  Fe10  1  0.666667  0.333333  0.747545  1
  Au  Au11  1  0.333333  0.666666  0.244373  1
