# generated using pymatgen
data_Li12ZnCoO8
_symmetry_space_group_name_H-M   'P 1'
_cell_length_a   6.57258200
_cell_length_b   6.57258200
_cell_length_c   4.68110800
_cell_angle_alpha   90.00000000
_cell_angle_beta   90.00000000
_cell_angle_gamma   90.00000000
_symmetry_Int_Tables_number   1
_chemical_formula_structural   Li12ZnCoO8
_chemical_formula_sum   'Li12 Zn1 Co1 O8'
_cell_volume   202.21840811
_cell_formula_units_Z   1
loop_
 _symmetry_equiv_pos_site_id
 _symmetry_equiv_pos_as_xyz
  1  'x, y, z'
loop_
 _atom_site_type_symbol
 _atom_site_label
 _atom_site_symmetry_multiplicity
 _atom_site_fract_x
 _atom_site_fract_y
 _atom_site_fract_z
 _atom_site_occupancy
  Li  Li0  1  0.000000  0.500000  0.455323  1
  Li  Li1  1  0.500000  0.000000  0.044304  1
  Li  Li2  1  0.282128  0.717872  0.500000  1
  Li  Li3  1  0.218023  0.218023  0.000000  1
  Li  Li4  1  0.781977  0.781977  0.000000  1
  Li  Li5  1  0.717872  0.282128  0.500000  1
  Li  Li6  1  0.218023  0.781977  0.000000  1
  Li  Li7  1  0.282128  0.282128  0.500000  1
  Li  Li8  1  0.717872  0.717872  0.500000  1
  Li  Li9  1  0.500000  0.000000  0.544677  1
  Li  Li10  1  0.000000  0.500000  0.955696  1
  Li  Li11  1  0.781977  0.218023  0.000000  1
  Zn  Zn12  1  0.000000  0.000000  0.500000  1
  Co  Co13  1  0.500000  0.500000  0.000000  1
  O  O14  1  0.735852  0.000000  0.282562  1
  O  O15  1  0.500000  0.236453  0.783682  1
  O  O16  1  0.236453  0.500000  0.216318  1
  O  O17  1  0.000000  0.264148  0.717438  1
  O  O18  1  0.000000  0.735852  0.717438  1
  O  O19  1  0.500000  0.763547  0.783682  1
  O  O20  1  0.264148  0.000000  0.282562  1
  O  O21  1  0.763547  0.500000  0.216318  1
