# generated using pymatgen
data_K7Hf(SO4)6
_symmetry_space_group_name_H-M   'P 1'
_cell_length_a   9.52079491
_cell_length_b   9.52079559
_cell_length_c   9.52079545
_cell_angle_alpha   109.42922372
_cell_angle_beta   109.42922824
_cell_angle_gamma   109.42924092
_symmetry_Int_Tables_number   1
_chemical_formula_structural   K7Hf(SO4)6
_chemical_formula_sum   'K7 Hf1 S6 O24'
_cell_volume   665.38212323
_cell_formula_units_Z   1
loop_
 _symmetry_equiv_pos_site_id
 _symmetry_equiv_pos_as_xyz
  1  'x, y, z'
loop_
 _atom_site_type_symbol
 _atom_site_label
 _atom_site_symmetry_multiplicity
 _atom_site_fract_x
 _atom_site_fract_y
 _atom_site_fract_z
 _atom_site_occupancy
  K  K0  1  0.500000  0.500000  0.500000  1
  K  K1  1  0.837726  0.335049  0.677465  1
  K  K2  1  0.335049  0.677465  0.837726  1
  K  K3  1  0.677465  0.837726  0.335049  1
  K  K4  1  0.162274  0.664951  0.322535  1
  K  K5  1  0.664951  0.322535  0.162274  1
  K  K6  1  0.322535  0.162274  0.664951  1
  Hf  Hf7  1  0.000000  0.000000  0.000000  1
  S  S8  1  0.967868  0.745894  0.617787  1
  S  S9  1  0.745894  0.617787  0.967868  1
  S  S10  1  0.617787  0.967868  0.745894  1
  S  S11  1  0.032132  0.254106  0.382213  1
  S  S12  1  0.254106  0.382213  0.032132  1
  S  S13  1  0.382213  0.032132  0.254106  1
  O  O14  1  0.431834  0.911477  0.170561  1
  O  O15  1  0.911477  0.170561  0.431834  1
  O  O16  1  0.170561  0.431834  0.911477  1
  O  O17  1  0.568166  0.088523  0.829439  1
  O  O18  1  0.088523  0.829439  0.568166  1
  O  O19  1  0.829439  0.568166  0.088523  1
  O  O20  1  0.316648  0.985108  0.361190  1
  O  O21  1  0.985108  0.361190  0.316648  1
  O  O22  1  0.361190  0.316648  0.985108  1
  O  O23  1  0.683352  0.014892  0.638810  1
  O  O24  1  0.014892  0.638810  0.683352  1
  O  O25  1  0.638810  0.683352  0.014892  1
  O  O26  1  0.761017  0.976581  0.889667  1
  O  O27  1  0.976581  0.889667  0.761017  1
  O  O28  1  0.645139  0.472995  0.788345  1
  O  O29  1  0.788345  0.645139  0.472995  1
  O  O30  1  0.472995  0.788345  0.645139  1
  O  O31  1  0.354861  0.527005  0.211655  1
  O  O32  1  0.211655  0.354861  0.527005  1
  O  O33  1  0.527005  0.211655  0.354861  1
  O  O34  1  0.110333  0.238983  0.023419  1
  O  O35  1  0.023419  0.110333  0.238983  1
  O  O36  1  0.238983  0.023419  0.110333  1
  O  O37  1  0.889667  0.761017  0.976581  1
