# generated using pymatgen
data_Tb3YbS4
_symmetry_space_group_name_H-M   'P 1'
_cell_length_a   13.00333241
_cell_length_b   13.00333261
_cell_length_c   13.00333320
_cell_angle_alpha   17.48224657
_cell_angle_beta   17.48224340
_cell_angle_gamma   17.48224258
_symmetry_Int_Tables_number   1
_chemical_formula_structural   Tb3YbS4
_chemical_formula_sum   'Tb3 Yb1 S4'
_cell_volume   173.17290957
_cell_formula_units_Z   1
loop_
 _symmetry_equiv_pos_site_id
 _symmetry_equiv_pos_as_xyz
  1  'x, y, z'
loop_
 _atom_site_type_symbol
 _atom_site_label
 _atom_site_symmetry_multiplicity
 _atom_site_fract_x
 _atom_site_fract_y
 _atom_site_fract_z
 _atom_site_occupancy
  Tb  Tb0  1  0.248918  0.248918  0.248918  1
  Tb  Tb1  1  0.500000  0.500000  0.500000  1
  Tb  Tb2  1  0.751082  0.751082  0.751082  1
  Yb  Yb3  1  0.000000  0.000000  0.000000  1
  S  S4  1  0.375292  0.375292  0.375292  1
  S  S5  1  0.125149  0.125149  0.125149  1
  S  S6  1  0.624708  0.624708  0.624708  1
  S  S7  1  0.874851  0.874851  0.874851  1
