# generated using pymatgen
data_Er16AlHg3Pd4
_symmetry_space_group_name_H-M   'P 1'
_cell_length_a   9.56858882
_cell_length_b   9.56858750
_cell_length_c   9.56858700
_cell_angle_alpha   60.01410675
_cell_angle_beta   60.01411292
_cell_angle_gamma   60.01410759
_symmetry_Int_Tables_number   1
_chemical_formula_structural   Er16AlHg3Pd4
_chemical_formula_sum   'Er16 Al1 Hg3 Pd4'
_cell_volume   619.67992727
_cell_formula_units_Z   1
loop_
 _symmetry_equiv_pos_site_id
 _symmetry_equiv_pos_as_xyz
  1  'x, y, z'
loop_
 _atom_site_type_symbol
 _atom_site_label
 _atom_site_symmetry_multiplicity
 _atom_site_fract_x
 _atom_site_fract_y
 _atom_site_fract_z
 _atom_site_occupancy
  Er  Er0  1  0.354793  0.354793  0.354793  1
  Er  Er1  1  0.358693  0.358693  0.929191  1
  Er  Er2  1  0.358693  0.929191  0.358693  1
  Er  Er3  1  0.929191  0.358693  0.358693  1
  Er  Er4  1  0.810720  0.189486  0.189486  1
  Er  Er5  1  0.192469  0.808983  0.808983  1
  Er  Er6  1  0.189486  0.810720  0.189486  1
  Er  Er7  1  0.808983  0.192469  0.808983  1
  Er  Er8  1  0.189486  0.189486  0.810720  1
  Er  Er9  1  0.808983  0.808983  0.192469  1
  Er  Er10  1  0.933312  0.566813  0.566813  1
  Er  Er11  1  0.564420  0.935561  0.935561  1
  Er  Er12  1  0.566813  0.933312  0.566813  1
  Er  Er13  1  0.935561  0.564420  0.935561  1
  Er  Er14  1  0.566813  0.566813  0.933312  1
  Er  Er15  1  0.935561  0.935561  0.564420  1
  Al  Al16  1  0.581771  0.581771  0.581771  1
  Hg  Hg17  1  0.586305  0.586305  0.242415  1
  Hg  Hg18  1  0.586305  0.242415  0.586305  1
  Hg  Hg19  1  0.242415  0.586305  0.586305  1
  Pd  Pd20  1  0.146304  0.146304  0.146304  1
  Pd  Pd21  1  0.143788  0.143788  0.565343  1
  Pd  Pd22  1  0.143788  0.565343  0.143788  1
  Pd  Pd23  1  0.565343  0.143788  0.143788  1
