# generated using pymatgen
data_Tb2HoEr(SiPd)4
_symmetry_space_group_name_H-M   'P 1'
_cell_length_a   4.34035400
_cell_length_b   7.50216601
_cell_length_c   13.91417202
_cell_angle_alpha   89.99446816
_cell_angle_beta   90.00000000
_cell_angle_gamma   90.00000000
_symmetry_Int_Tables_number   1
_chemical_formula_structural   Tb2HoEr(SiPd)4
_chemical_formula_sum   'Tb4 Ho2 Er2 Si8 Pd8'
_cell_volume   453.07404968
_cell_formula_units_Z   2
loop_
 _symmetry_equiv_pos_site_id
 _symmetry_equiv_pos_as_xyz
  1  'x, y, z'
loop_
 _atom_site_type_symbol
 _atom_site_label
 _atom_site_symmetry_multiplicity
 _atom_site_fract_x
 _atom_site_fract_y
 _atom_site_fract_z
 _atom_site_occupancy
  Tb  Tb0  1  0.000000  0.299200  0.999938  1
  Tb  Tb1  1  0.500000  0.700800  0.500062  1
  Tb  Tb2  1  0.000000  0.289888  0.500036  1
  Tb  Tb3  1  0.500000  0.710112  0.999964  1
  Ho  Ho4  1  0.000000  0.210432  0.248969  1
  Ho  Ho5  1  0.500000  0.789568  0.251031  1
  Er  Er6  1  0.000000  0.210541  0.750973  1
  Er  Er7  1  0.500000  0.789459  0.749027  1
  Si  Si8  1  0.000000  0.909508  0.594439  1
  Si  Si9  1  0.500000  0.090492  0.905561  1
  Si  Si10  1  0.000000  0.909474  0.405732  1
  Si  Si11  1  0.500000  0.090526  0.094268  1
  Si  Si12  1  0.000000  0.591469  0.144934  1
  Si  Si13  1  0.500000  0.408531  0.355066  1
  Si  Si14  1  0.000000  0.591575  0.854987  1
  Si  Si15  1  0.500000  0.408425  0.645013  1
  Pd  Pd16  1  0.500000  0.075625  0.609972  1
  Pd  Pd17  1  0.000000  0.924375  0.890028  1
  Pd  Pd18  1  0.500000  0.075735  0.390265  1
  Pd  Pd19  1  0.000000  0.924265  0.109735  1
  Pd  Pd20  1  0.500000  0.419891  0.157703  1
  Pd  Pd21  1  0.000000  0.580109  0.342297  1
  Pd  Pd22  1  0.500000  0.419814  0.842151  1
  Pd  Pd23  1  0.000000  0.580186  0.657849  1
