# generated using pymatgen
data_Tb4Dy6Cd3Ru
_symmetry_space_group_name_H-M   'P 1'
_cell_length_a   9.62022902
_cell_length_b   9.62131370
_cell_length_c   9.87048801
_cell_angle_alpha   90.00000094
_cell_angle_beta   90.00328067
_cell_angle_gamma   120.00372931
_symmetry_Int_Tables_number   1
_chemical_formula_structural   Tb4Dy6Cd3Ru
_chemical_formula_sum   'Tb8 Dy12 Cd6 Ru2'
_cell_volume   791.17530030
_cell_formula_units_Z   2
loop_
 _symmetry_equiv_pos_site_id
 _symmetry_equiv_pos_as_xyz
  1  'x, y, z'
loop_
 _atom_site_type_symbol
 _atom_site_label
 _atom_site_symmetry_multiplicity
 _atom_site_fract_x
 _atom_site_fract_y
 _atom_site_fract_z
 _atom_site_occupancy
  Tb  Tb0  1  0.209819  0.790273  0.439873  1
  Tb  Tb1  1  0.209819  0.419547  0.439873  1
  Tb  Tb2  1  0.541286  0.458785  0.249977  1
  Tb  Tb3  1  0.541286  0.082500  0.249977  1
  Tb  Tb4  1  0.917426  0.458712  0.249943  1
  Tb  Tb5  1  0.458823  0.541237  0.750044  1
  Tb  Tb6  1  0.458823  0.917587  0.750044  1
  Tb  Tb7  1  0.082393  0.541197  0.750084  1
  Dy  Dy8  1  0.999931  0.999966  0.500026  1
  Dy  Dy9  1  0.000000  0.000000  0.000013  1
  Dy  Dy10  1  0.580487  0.790244  0.439885  1
  Dy  Dy11  1  0.790067  0.209846  0.560217  1
  Dy  Dy12  1  0.790067  0.580220  0.560217  1
  Dy  Dy13  1  0.419812  0.209905  0.560221  1
  Dy  Dy14  1  0.790115  0.209880  0.939805  1
  Dy  Dy15  1  0.790115  0.580234  0.939805  1
  Dy  Dy16  1  0.419774  0.209887  0.939819  1
  Dy  Dy17  1  0.209857  0.790181  0.060083  1
  Dy  Dy18  1  0.209857  0.419677  0.060083  1
  Dy  Dy19  1  0.580279  0.790140  0.060152  1
  Cd  Cd20  1  0.885441  0.114517  0.249990  1
  Cd  Cd21  1  0.885441  0.770925  0.249990  1
  Cd  Cd22  1  0.229064  0.114533  0.249971  1
  Cd  Cd23  1  0.114515  0.885471  0.750028  1
  Cd  Cd24  1  0.114515  0.229043  0.750028  1
  Cd  Cd25  1  0.770930  0.885464  0.750003  1
  Ru  Ru26  1  0.333395  0.666698  0.249880  1
  Ru  Ru27  1  0.666664  0.333331  0.749964  1
