# generated using pymatgen
data_Sr2FeNi3As4
_symmetry_space_group_name_H-M   'P 1'
_cell_length_a   5.76932700
_cell_length_b   6.36069845
_cell_length_c   5.76478808
_cell_angle_alpha   62.89522535
_cell_angle_beta   89.99977159
_cell_angle_gamma   89.99904197
_symmetry_Int_Tables_number   1
_chemical_formula_structural   Sr2FeNi3As4
_chemical_formula_sum   'Sr2 Fe1 Ni3 As4'
_cell_volume   188.31660830
_cell_formula_units_Z   1
loop_
 _symmetry_equiv_pos_site_id
 _symmetry_equiv_pos_as_xyz
  1  'x, y, z'
loop_
 _atom_site_type_symbol
 _atom_site_label
 _atom_site_symmetry_multiplicity
 _atom_site_fract_x
 _atom_site_fract_y
 _atom_site_fract_z
 _atom_site_occupancy
  Sr  Sr0  1  0.996810  0.999997  0.000000  1
  Sr  Sr1  1  0.503123  0.000000  0.499999  1
  Fe  Fe2  1  0.250381  0.499997  0.499998  1
  Ni  Ni3  1  0.250241  0.500006  0.000012  1
  Ni  Ni4  1  0.749830  0.500007  0.999988  1
  Ni  Ni5  1  0.749924  0.499986  0.500006  1
  As  As6  1  0.497652  0.713646  0.144420  1
  As  As7  1  0.002204  0.712889  0.641705  1
  As  As8  1  0.002196  0.287121  0.358289  1
  As  As9  1  0.497640  0.286353  0.855583  1
