# generated using pymatgen
data_Sr2Tm3LuSe8
_symmetry_space_group_name_H-M   'P 1'
_cell_length_a   4.10111100
_cell_length_b   12.61239400
_cell_length_c   14.84065400
_cell_angle_alpha   90.00000000
_cell_angle_beta   90.00000000
_cell_angle_gamma   90.00000000
_symmetry_Int_Tables_number   1
_chemical_formula_structural   Sr2Tm3LuSe8
_chemical_formula_sum   'Sr4 Tm6 Lu2 Se16'
_cell_volume   767.63027214
_cell_formula_units_Z   2
loop_
 _symmetry_equiv_pos_site_id
 _symmetry_equiv_pos_as_xyz
  1  'x, y, z'
loop_
 _atom_site_type_symbol
 _atom_site_label
 _atom_site_symmetry_multiplicity
 _atom_site_fract_x
 _atom_site_fract_y
 _atom_site_fract_z
 _atom_site_occupancy
  Sr  Sr0  1  0.250000  0.759617  0.333425  1
  Sr  Sr1  1  0.250000  0.259617  0.166575  1
  Sr  Sr2  1  0.750000  0.240314  0.666216  1
  Sr  Sr3  1  0.750000  0.740314  0.833784  1
  Tm  Tm4  1  0.250000  0.439246  0.388790  1
  Tm  Tm5  1  0.250000  0.939246  0.111210  1
  Tm  Tm6  1  0.750000  0.560698  0.610859  1
  Tm  Tm7  1  0.750000  0.060698  0.889141  1
  Tm  Tm8  1  0.250000  0.417151  0.902855  1
  Tm  Tm9  1  0.250000  0.917151  0.597145  1
  Lu  Lu10  1  0.750000  0.582758  0.097356  1
  Lu  Lu11  1  0.750000  0.082758  0.402644  1
  Se  Se12  1  0.250000  0.204609  0.830708  1
  Se  Se13  1  0.250000  0.704609  0.669292  1
  Se  Se14  1  0.750000  0.794474  0.168762  1
  Se  Se15  1  0.750000  0.294474  0.331238  1
  Se  Se16  1  0.250000  0.127562  0.528961  1
  Se  Se17  1  0.250000  0.627562  0.971039  1
  Se  Se18  1  0.750000  0.873135  0.469322  1
  Se  Se19  1  0.750000  0.373135  0.030678  1
  Se  Se20  1  0.250000  0.028635  0.285310  1
  Se  Se21  1  0.250000  0.528635  0.214690  1
  Se  Se22  1  0.750000  0.971825  0.715503  1
  Se  Se23  1  0.750000  0.471825  0.784497  1
  Se  Se24  1  0.250000  0.409884  0.576495  1
  Se  Se25  1  0.250000  0.909884  0.923505  1
  Se  Se26  1  0.750000  0.590090  0.423267  1
  Se  Se27  1  0.750000  0.090090  0.076733  1
