# generated using pymatgen
data_Zr5Sn2BSb
_symmetry_space_group_name_H-M   'P 1'
_cell_length_a   8.57816166
_cell_length_b   8.57233845
_cell_length_c   5.81268800
_cell_angle_alpha   90.00000000
_cell_angle_beta   90.00000000
_cell_angle_gamma   119.97754926
_symmetry_Int_Tables_number   1
_chemical_formula_structural   Zr5Sn2BSb
_chemical_formula_sum   'Zr10 Sn4 B2 Sb2'
_cell_volume   370.25368150
_cell_formula_units_Z   2
loop_
 _symmetry_equiv_pos_site_id
 _symmetry_equiv_pos_as_xyz
  1  'x, y, z'
loop_
 _atom_site_type_symbol
 _atom_site_label
 _atom_site_symmetry_multiplicity
 _atom_site_fract_x
 _atom_site_fract_y
 _atom_site_fract_z
 _atom_site_occupancy
  Zr  Zr0  1  0.665494  0.332349  0.999449  1
  Zr  Zr1  1  0.334506  0.666856  0.999449  1
  Zr  Zr2  1  0.334506  0.666856  0.500551  1
  Zr  Zr3  1  0.665494  0.332349  0.500551  1
  Zr  Zr4  1  0.769028  0.769644  0.750000  1
  Zr  Zr5  1  0.230972  0.000616  0.750000  1
  Zr  Zr6  1  0.000000  0.230621  0.750000  1
  Zr  Zr7  1  0.231636  0.231023  0.250000  1
  Zr  Zr8  1  0.768364  0.999388  0.250000  1
  Zr  Zr9  1  0.000000  0.769701  0.250000  1
  Sn  Sn10  1  0.000000  0.600627  0.750000  1
  Sn  Sn11  1  0.601564  0.601272  0.250000  1
  Sn  Sn12  1  0.398436  0.999708  0.250000  1
  Sn  Sn13  1  0.000000  0.399381  0.250000  1
  B  B14  1  0.000000  0.999804  0.000692  1
  B  B15  1  0.000000  0.999804  0.499308  1
  Sb  Sb16  1  0.400129  0.400064  0.750000  1
  Sb  Sb17  1  0.599871  0.999935  0.750000  1
