# generated using pymatgen
data_TbY2Al7Cu2
_symmetry_space_group_name_H-M   'P 1'
_cell_length_a   9.06096051
_cell_length_b   9.06096108
_cell_length_c   9.06096071
_cell_angle_alpha   35.23843963
_cell_angle_beta   35.23843360
_cell_angle_gamma   35.23843437
_symmetry_Int_Tables_number   1
_chemical_formula_structural   TbY2Al7Cu2
_chemical_formula_sum   'Tb1 Y2 Al7 Cu2'
_cell_volume   221.21557363
_cell_formula_units_Z   1
loop_
 _symmetry_equiv_pos_site_id
 _symmetry_equiv_pos_as_xyz
  1  'x, y, z'
loop_
 _atom_site_type_symbol
 _atom_site_label
 _atom_site_symmetry_multiplicity
 _atom_site_fract_x
 _atom_site_fract_y
 _atom_site_fract_z
 _atom_site_occupancy
  Tb  Tb0  1  0.000000  0.000000  0.000000  1
  Y  Y1  1  0.858066  0.858066  0.858066  1
  Y  Y2  1  0.141934  0.141934  0.141934  1
  Al  Al3  1  0.418402  0.418402  0.927112  1
  Al  Al4  1  0.927112  0.418402  0.418402  1
  Al  Al5  1  0.418402  0.927112  0.418402  1
  Al  Al6  1  0.500000  0.500000  0.500000  1
  Al  Al7  1  0.581598  0.072888  0.581598  1
  Al  Al8  1  0.072888  0.581598  0.581598  1
  Al  Al9  1  0.581598  0.581598  0.072888  1
  Cu  Cu10  1  0.664783  0.664783  0.664783  1
  Cu  Cu11  1  0.335217  0.335217  0.335217  1
