# generated using pymatgen
data_Th14ReTc4Pt
_symmetry_space_group_name_H-M   'P 1'
_cell_length_a   9.98776865
_cell_length_b   10.00476009
_cell_length_c   6.35452905
_cell_angle_alpha   90.15915669
_cell_angle_beta   89.98603341
_cell_angle_gamma   119.58598947
_symmetry_Int_Tables_number   1
_chemical_formula_structural   Th14ReTc4Pt
_chemical_formula_sum   'Th14 Re1 Tc4 Pt1'
_cell_volume   552.18403618
_cell_formula_units_Z   1
loop_
 _symmetry_equiv_pos_site_id
 _symmetry_equiv_pos_as_xyz
  1  'x, y, z'
loop_
 _atom_site_type_symbol
 _atom_site_label
 _atom_site_symmetry_multiplicity
 _atom_site_fract_x
 _atom_site_fract_y
 _atom_site_fract_z
 _atom_site_occupancy
  Th  Th0  1  0.664134  0.335579  0.541218  1
  Th  Th1  1  0.333893  0.666596  0.034755  1
  Th  Th2  1  0.874324  0.752093  0.755726  1
  Th  Th3  1  0.246880  0.123826  0.756179  1
  Th  Th4  1  0.874192  0.123425  0.761483  1
  Th  Th5  1  0.135983  0.256062  0.257819  1
  Th  Th6  1  0.744638  0.863947  0.255833  1
  Th  Th7  1  0.124847  0.875163  0.253884  1
  Th  Th8  1  0.455723  0.918963  0.548114  1
  Th  Th9  1  0.080304  0.545488  0.548196  1
  Th  Th10  1  0.460753  0.541440  0.548966  1
  Th  Th11  1  0.533461  0.075599  0.044571  1
  Th  Th12  1  0.925507  0.465497  0.043909  1
  Th  Th13  1  0.539972  0.457366  0.045711  1
  Re  Re14  1  0.183164  0.371008  0.801685  1
  Tc  Tc15  1  0.631721  0.818219  0.796388  1
  Tc  Tc16  1  0.184382  0.816432  0.796506  1
  Tc  Tc17  1  0.816698  0.624910  0.295853  1
  Tc  Tc18  1  0.375907  0.182936  0.297702  1
  Pt  Pt19  1  0.813517  0.185449  0.303597  1
