# generated using pymatgen
data_Tm2B4Ir3Ru2
_symmetry_space_group_name_H-M   'P 1'
_cell_length_a   7.49807711
_cell_length_b   6.37764214
_cell_length_c   5.52196548
_cell_angle_alpha   77.74943309
_cell_angle_beta   56.22240594
_cell_angle_gamma   46.02815903
_symmetry_Int_Tables_number   1
_chemical_formula_structural   Tm2B4Ir3Ru2
_chemical_formula_sum   'Tm2 B4 Ir3 Ru2'
_cell_volume   151.14522395
_cell_formula_units_Z   1
loop_
 _symmetry_equiv_pos_site_id
 _symmetry_equiv_pos_as_xyz
  1  'x, y, z'
loop_
 _atom_site_type_symbol
 _atom_site_label
 _atom_site_symmetry_multiplicity
 _atom_site_fract_x
 _atom_site_fract_y
 _atom_site_fract_z
 _atom_site_occupancy
  Tm  Tm0  1  0.637743  0.637744  0.362257  1
  Tm  Tm1  1  0.362257  0.362257  0.637743  1
  B  B2  1  0.288723  0.975107  0.024894  1
  B  B3  1  0.024893  0.711278  0.288723  1
  B  B4  1  0.975106  0.288723  0.711277  1
  B  B5  1  0.711277  0.024894  0.975107  1
  Ir  Ir6  1  0.000000  0.000000  0.000000  1
  Ir  Ir7  1  0.250001  0.249999  0.249999  1
  Ir  Ir8  1  0.750001  0.750000  0.749999  1
  Ru  Ru9  1  0.500001  0.499999  0.000000  1
  Ru  Ru10  1  0.000000  0.000000  0.499999  1
