# generated using pymatgen
data_HfZrCoCuSn2
_symmetry_space_group_name_H-M   'P 1'
_cell_length_a   4.36685801
_cell_length_b   4.36685936
_cell_length_c   6.83275301
_cell_angle_alpha   90.00006034
_cell_angle_beta   89.99992313
_cell_angle_gamma   119.99970171
_symmetry_Int_Tables_number   1
_chemical_formula_structural   HfZrCoCuSn2
_chemical_formula_sum   'Hf1 Zr1 Co1 Cu1 Sn2'
_cell_volume   112.84074231
_cell_formula_units_Z   1
loop_
 _symmetry_equiv_pos_site_id
 _symmetry_equiv_pos_as_xyz
  1  'x, y, z'
loop_
 _atom_site_type_symbol
 _atom_site_label
 _atom_site_symmetry_multiplicity
 _atom_site_fract_x
 _atom_site_fract_y
 _atom_site_fract_z
 _atom_site_occupancy
  Hf  Hf0  1  0.999999  0.000001  0.975897  1
  Zr  Zr1  1  0.000002  0.999998  0.496524  1
  Co  Co2  1  0.333330  0.666670  0.837624  1
  Cu  Cu3  1  0.666671  0.333329  0.326838  1
  Sn  Sn4  1  0.333334  0.666666  0.223103  1
  Sn  Sn5  1  0.666665  0.333335  0.736015  1
