# generated using pymatgen
data_TbY3ErRu2
_symmetry_space_group_name_H-M   'P 1'
_cell_length_a   6.36602438
_cell_length_b   7.29764475
_cell_length_c   8.49006677
_cell_angle_alpha   96.66953752
_cell_angle_beta   112.01876092
_cell_angle_gamma   90.00000475
_symmetry_Int_Tables_number   1
_chemical_formula_structural   TbY3ErRu2
_chemical_formula_sum   'Tb2 Y6 Er2 Ru4'
_cell_volume   362.77328640
_cell_formula_units_Z   2
loop_
 _symmetry_equiv_pos_site_id
 _symmetry_equiv_pos_as_xyz
  1  'x, y, z'
loop_
 _atom_site_type_symbol
 _atom_site_label
 _atom_site_symmetry_multiplicity
 _atom_site_fract_x
 _atom_site_fract_y
 _atom_site_fract_z
 _atom_site_occupancy
  Tb  Tb0  1  0.793437  0.314922  0.433507  1
  Tb  Tb1  1  0.359931  0.185078  0.566493  1
  Y  Y2  1  0.792386  0.584667  0.814607  1
  Y  Y3  1  0.977780  0.915333  0.185393  1
  Y  Y4  1  0.207520  0.416276  0.185238  1
  Y  Y5  1  0.022282  0.083724  0.814762  1
  Y  Y6  1  0.205887  0.685273  0.565732  1
  Y  Y7  1  0.640154  0.814727  0.434268  1
  Er  Er8  1  0.422588  0.750000  0.000000  1
  Er  Er9  1  0.576878  0.250000  0.000000  1
  Ru  Ru10  1  0.601532  0.926924  0.781918  1
  Ru  Ru11  1  0.819612  0.573076  0.218082  1
  Ru  Ru12  1  0.399081  0.074792  0.218151  1
  Ru  Ru13  1  0.180931  0.425208  0.781849  1
