# generated using pymatgen
data_Tb10SnBi5S2
_symmetry_space_group_name_H-M   'P 1'
_cell_length_a   9.17926259
_cell_length_b   9.19679776
_cell_length_c   6.62305600
_cell_angle_alpha   90.00000000
_cell_angle_beta   90.00000000
_cell_angle_gamma   120.06320512
_symmetry_Int_Tables_number   1
_chemical_formula_structural   Tb10SnBi5S2
_chemical_formula_sum   'Tb10 Sn1 Bi5 S2'
_cell_volume   483.90101780
_cell_formula_units_Z   1
loop_
 _symmetry_equiv_pos_site_id
 _symmetry_equiv_pos_as_xyz
  1  'x, y, z'
loop_
 _atom_site_type_symbol
 _atom_site_label
 _atom_site_symmetry_multiplicity
 _atom_site_fract_x
 _atom_site_fract_y
 _atom_site_fract_z
 _atom_site_occupancy
  Tb  Tb0  1  0.669761  0.334129  0.001546  1
  Tb  Tb1  1  0.330239  0.664369  0.001546  1
  Tb  Tb2  1  0.330239  0.664369  0.498454  1
  Tb  Tb3  1  0.669761  0.334129  0.498454  1
  Tb  Tb4  1  0.753874  0.754172  0.750000  1
  Tb  Tb5  1  0.246126  0.000298  0.750000  1
  Tb  Tb6  1  0.000000  0.246642  0.750000  1
  Tb  Tb7  1  0.242970  0.247458  0.250000  1
  Tb  Tb8  1  0.757030  0.004487  0.250000  1
  Tb  Tb9  1  0.000000  0.751503  0.250000  1
  Sn  Sn10  1  0.000000  0.396946  0.250000  1
  Bi  Bi11  1  0.396131  0.395711  0.750000  1
  Bi  Bi12  1  0.603869  0.999580  0.750000  1
  Bi  Bi13  1  0.000000  0.603128  0.750000  1
  Bi  Bi14  1  0.604717  0.605066  0.250000  1
  Bi  Bi15  1  0.395283  0.000348  0.250000  1
  S  S16  1  0.000000  0.998832  0.999706  1
  S  S17  1  0.000000  0.998832  0.500294  1
