# generated using pymatgen
data_Tb7HfGaPd24
_symmetry_space_group_name_H-M   'P 1'
_cell_length_a   8.33832421
_cell_length_b   8.33832421
_cell_length_c   8.33832421
_cell_angle_alpha   90.23234993
_cell_angle_beta   90.23234993
_cell_angle_gamma   89.76765007
_symmetry_Int_Tables_number   1
_chemical_formula_structural   Tb7HfGaPd24
_chemical_formula_sum   'Tb7 Hf1 Ga1 Pd24'
_cell_volume   579.72983052
_cell_formula_units_Z   1
loop_
 _symmetry_equiv_pos_site_id
 _symmetry_equiv_pos_as_xyz
  1  'x, y, z'
loop_
 _atom_site_type_symbol
 _atom_site_label
 _atom_site_symmetry_multiplicity
 _atom_site_fract_x
 _atom_site_fract_y
 _atom_site_fract_z
 _atom_site_occupancy
  Tb  Tb0  1  0.251663  0.748286  0.251714  1
  Tb  Tb1  1  0.748286  0.251663  0.251714  1
  Tb  Tb2  1  0.748286  0.748286  0.748337  1
  Tb  Tb3  1  0.747136  0.747136  0.252864  1
  Tb  Tb4  1  0.749138  0.252391  0.747609  1
  Tb  Tb5  1  0.252391  0.749138  0.747609  1
  Tb  Tb6  1  0.252391  0.252391  0.250862  1
  Hf  Hf7  1  0.255297  0.255297  0.744703  1
  Ga  Ga8  1  0.996445  0.996445  0.003555  1
  Pd  Pd9  1  0.495631  0.495631  0.746628  1
  Pd  Pd10  1  0.495631  0.253372  0.504369  1
  Pd  Pd11  1  0.253372  0.495631  0.504369  1
  Pd  Pd12  1  0.498819  0.498819  0.252517  1
  Pd  Pd13  1  0.498819  0.747483  0.501181  1
  Pd  Pd14  1  0.747483  0.498819  0.501181  1
  Pd  Pd15  1  0.005921  0.005921  0.712327  1
  Pd  Pd16  1  0.005921  0.287673  0.994079  1
  Pd  Pd17  1  0.287673  0.005921  0.994079  1
  Pd  Pd18  1  0.999926  0.999926  0.294120  1
  Pd  Pd19  1  0.999926  0.705880  0.000074  1
  Pd  Pd20  1  0.705880  0.999926  0.000074  1
  Pd  Pd21  1  0.007085  0.496021  0.739973  1
  Pd  Pd22  1  0.496021  0.260027  0.992915  1
  Pd  Pd23  1  0.260027  0.007085  0.503979  1
  Pd  Pd24  1  0.007085  0.260027  0.503979  1
  Pd  Pd25  1  0.496021  0.007085  0.739973  1
  Pd  Pd26  1  0.260027  0.496021  0.992915  1
  Pd  Pd27  1  0.000601  0.498036  0.259789  1
  Pd  Pd28  1  0.498036  0.740211  0.999399  1
  Pd  Pd29  1  0.000601  0.740211  0.501964  1
  Pd  Pd30  1  0.498036  0.000601  0.259789  1
  Pd  Pd31  1  0.740211  0.000601  0.501964  1
  Pd  Pd32  1  0.740211  0.498036  0.999399  1
