# generated using pymatgen
data_Dy2Y6Re(B8Os)3
_symmetry_space_group_name_H-M   'P 1'
_cell_length_a   3.66759200
_cell_length_b   9.16940125
_cell_length_c   11.55528701
_cell_angle_alpha   90.08767519
_cell_angle_beta   90.00000000
_cell_angle_gamma   90.00000000
_symmetry_Int_Tables_number   1
_chemical_formula_structural   Dy2Y6Re(B8Os)3
_chemical_formula_sum   'Dy2 Y6 Re1 B24 Os3'
_cell_volume   388.59948708
_cell_formula_units_Z   1
loop_
 _symmetry_equiv_pos_site_id
 _symmetry_equiv_pos_as_xyz
  1  'x, y, z'
loop_
 _atom_site_type_symbol
 _atom_site_label
 _atom_site_symmetry_multiplicity
 _atom_site_fract_x
 _atom_site_fract_y
 _atom_site_fract_z
 _atom_site_occupancy
  Dy  Dy0  1  0.000000  0.442967  0.127817  1
  Dy  Dy1  1  0.000000  0.556479  0.872800  1
  Y  Y2  1  0.000000  0.322716  0.414771  1
  Y  Y3  1  0.000000  0.679760  0.588262  1
  Y  Y4  1  0.000000  0.822825  0.083684  1
  Y  Y5  1  0.000000  0.176215  0.913151  1
  Y  Y6  1  0.000000  0.943430  0.372126  1
  Y  Y7  1  0.000000  0.055803  0.627493  1
  Re  Re8  1  0.000000  0.862388  0.821475  1
  B  B9  1  0.500000  0.553874  0.432994  1
  B  B10  1  0.500000  0.446303  0.567375  1
  B  B11  1  0.500000  0.053652  0.067526  1
  B  B12  1  0.500000  0.947056  0.932867  1
  B  B13  1  0.500000  0.747827  0.419342  1
  B  B14  1  0.500000  0.252319  0.580510  1
  B  B15  1  0.500000  0.247676  0.080831  1
  B  B16  1  0.500000  0.751982  0.919157  1
  B  B17  1  0.500000  0.790136  0.266407  1
  B  B18  1  0.500000  0.209402  0.732862  1
  B  B19  1  0.500000  0.290641  0.233520  1
  B  B20  1  0.500000  0.708730  0.766492  1
  B  B21  1  0.500000  0.631270  0.185839  1
  B  B22  1  0.500000  0.368234  0.813805  1
  B  B23  1  0.500000  0.132053  0.314281  1
  B  B24  1  0.500000  0.868283  0.685996  1
  B  B25  1  0.500000  0.983791  0.212629  1
  B  B26  1  0.500000  0.017209  0.787225  1
  B  B27  1  0.500000  0.483535  0.287679  1
  B  B28  1  0.500000  0.516476  0.712894  1
  B  B29  1  0.500000  0.606749  0.030305  1
  B  B30  1  0.500000  0.391692  0.970349  1
  B  B31  1  0.500000  0.108329  0.469608  1
  B  B32  1  0.500000  0.892264  0.529322  1
  Os  Os33  1  0.000000  0.637234  0.321528  1
  Os  Os34  1  0.000000  0.362775  0.678038  1
  Os  Os35  1  0.000000  0.137925  0.179038  1
