# generated using pymatgen
data_Tm5In5Rh
_symmetry_space_group_name_H-M   'P 1'
_cell_length_a   3.58715000
_cell_length_b   8.31137928
_cell_length_c   18.44188200
_cell_angle_alpha   90.95242295
_cell_angle_beta   90.00000000
_cell_angle_gamma   90.00000000
_symmetry_Int_Tables_number   1
_chemical_formula_structural   Tm5In5Rh
_chemical_formula_sum   'Tm10 In10 Rh2'
_cell_volume   549.75333473
_cell_formula_units_Z   2
loop_
 _symmetry_equiv_pos_site_id
 _symmetry_equiv_pos_as_xyz
  1  'x, y, z'
loop_
 _atom_site_type_symbol
 _atom_site_label
 _atom_site_symmetry_multiplicity
 _atom_site_fract_x
 _atom_site_fract_y
 _atom_site_fract_z
 _atom_site_occupancy
  Tm  Tm0  1  0.000000  0.113474  0.417080  1
  Tm  Tm1  1  0.000000  0.886526  0.582920  1
  Tm  Tm2  1  0.000000  0.375194  0.926939  1
  Tm  Tm3  1  0.000000  0.624806  0.073061  1
  Tm  Tm4  1  0.000000  0.199573  0.224594  1
  Tm  Tm5  1  0.000000  0.800427  0.775406  1
  Tm  Tm6  1  0.000000  0.232848  0.711472  1
  Tm  Tm7  1  0.000000  0.767152  0.288528  1
  Tm  Tm8  1  0.000000  0.000000  0.000000  1
  Tm  Tm9  1  0.000000  0.500000  0.500000  1
  In  In10  1  0.500000  0.409478  0.354900  1
  In  In11  1  0.500000  0.590522  0.645100  1
  In  In12  1  0.500000  0.084982  0.851805  1
  In  In13  1  0.500000  0.915018  0.148195  1
  In  In14  1  0.500000  0.287206  0.071146  1
  In  In15  1  0.500000  0.712794  0.928854  1
  In  In16  1  0.500000  0.206997  0.564703  1
  In  In17  1  0.500000  0.793003  0.435297  1
  In  In18  1  0.500000  0.481846  0.800287  1
  In  In19  1  0.500000  0.518154  0.199713  1
  Rh  Rh20  1  0.500000  0.020570  0.307921  1
  Rh  Rh21  1  0.500000  0.979430  0.692079  1
