# generated using pymatgen
data_NaSmSnBr6
_symmetry_space_group_name_H-M   'P 1'
_cell_length_a   8.06689078
_cell_length_b   8.06703964
_cell_length_c   8.06697469
_cell_angle_alpha   55.80928362
_cell_angle_beta   55.81011872
_cell_angle_gamma   55.80931647
_symmetry_Int_Tables_number   1
_chemical_formula_structural   NaSmSnBr6
_chemical_formula_sum   'Na1 Sm1 Sn1 Br6'
_cell_volume   335.13946442
_cell_formula_units_Z   1
loop_
 _symmetry_equiv_pos_site_id
 _symmetry_equiv_pos_as_xyz
  1  'x, y, z'
loop_
 _atom_site_type_symbol
 _atom_site_label
 _atom_site_symmetry_multiplicity
 _atom_site_fract_x
 _atom_site_fract_y
 _atom_site_fract_z
 _atom_site_occupancy
  Na  Na0  1  0.669747  0.669751  0.669751  1
  Sm  Sm1  1  0.999741  0.999734  0.999732  1
  Sn  Sn2  1  0.331046  0.331039  0.331044  1
  Br  Br3  1  0.238852  0.605243  0.919675  1
  Br  Br4  1  0.605230  0.919680  0.238848  1
  Br  Br5  1  0.919674  0.238857  0.605225  1
  Br  Br6  1  0.755219  0.390152  0.090343  1
  Br  Br7  1  0.390150  0.090327  0.755234  1
  Br  Br8  1  0.090343  0.755216  0.390148  1
