# generated using pymatgen
data_SmY4(In2Rh)2
_symmetry_space_group_name_H-M   'P 1'
_cell_length_a   3.65786100
_cell_length_b   8.07956900
_cell_length_c   18.40063500
_cell_angle_alpha   90.00000000
_cell_angle_beta   90.00000000
_cell_angle_gamma   90.00000000
_symmetry_Int_Tables_number   1
_chemical_formula_structural   SmY4(In2Rh)2
_chemical_formula_sum   'Sm2 Y8 In8 Rh4'
_cell_volume   543.81126904
_cell_formula_units_Z   2
loop_
 _symmetry_equiv_pos_site_id
 _symmetry_equiv_pos_as_xyz
  1  'x, y, z'
loop_
 _atom_site_type_symbol
 _atom_site_label
 _atom_site_symmetry_multiplicity
 _atom_site_fract_x
 _atom_site_fract_y
 _atom_site_fract_z
 _atom_site_occupancy
  Sm  Sm0  1  0.500000  0.000000  0.000000  1
  Sm  Sm1  1  0.500000  0.500000  0.500000  1
  Y  Y2  1  0.500000  0.244605  0.779425  1
  Y  Y3  1  0.500000  0.755395  0.220575  1
  Y  Y4  1  0.500000  0.255395  0.279425  1
  Y  Y5  1  0.500000  0.744605  0.720575  1
  Y  Y6  1  0.500000  0.118003  0.588746  1
  Y  Y7  1  0.500000  0.881997  0.411254  1
  Y  Y8  1  0.500000  0.381997  0.088746  1
  Y  Y9  1  0.500000  0.618003  0.911254  1
  In  In10  1  0.000000  0.073515  0.152459  1
  In  In11  1  0.000000  0.926485  0.847541  1
  In  In12  1  0.000000  0.426485  0.652459  1
  In  In13  1  0.000000  0.573515  0.347541  1
  In  In14  1  0.000000  0.204845  0.430864  1
  In  In15  1  0.000000  0.795155  0.569136  1
  In  In16  1  0.000000  0.295155  0.930864  1
  In  In17  1  0.000000  0.704845  0.069136  1
  Rh  Rh18  1  0.000000  0.021087  0.694775  1
  Rh  Rh19  1  0.000000  0.978913  0.305225  1
  Rh  Rh20  1  0.000000  0.478913  0.194775  1
  Rh  Rh21  1  0.000000  0.521087  0.805225  1
