# generated using pymatgen
data_Dy2Ho8(GaSb)3
_symmetry_space_group_name_H-M   'P 1'
_cell_length_a   8.74470200
_cell_length_b   8.77776425
_cell_length_c   6.39237100
_cell_angle_alpha   90.00000000
_cell_angle_beta   90.00000000
_cell_angle_gamma   119.75386081
_symmetry_Int_Tables_number   1
_chemical_formula_structural   Dy2Ho8(GaSb)3
_chemical_formula_sum   'Dy2 Ho8 Ga3 Sb3'
_cell_volume   425.98407211
_cell_formula_units_Z   1
loop_
 _symmetry_equiv_pos_site_id
 _symmetry_equiv_pos_as_xyz
  1  'x, y, z'
loop_
 _atom_site_type_symbol
 _atom_site_label
 _atom_site_symmetry_multiplicity
 _atom_site_fract_x
 _atom_site_fract_y
 _atom_site_fract_z
 _atom_site_occupancy
  Dy  Dy0  1  0.758602  0.002073  0.750000  1
  Dy  Dy1  1  0.245021  0.231813  0.750000  1
  Ho  Ho2  1  0.333246  0.682092  0.003227  1
  Ho  Ho3  1  0.666356  0.323735  0.496904  1
  Ho  Ho4  1  0.666356  0.323735  0.003096  1
  Ho  Ho5  1  0.333246  0.682092  0.496773  1
  Ho  Ho6  1  0.233000  0.986938  0.250000  1
  Ho  Ho7  1  0.985182  0.233578  0.250000  1
  Ho  Ho8  1  0.763568  0.764125  0.250000  1
  Ho  Ho9  1  0.014969  0.770775  0.750000  1
  Ga  Ga10  1  0.602264  0.999165  0.250000  1
  Ga  Ga11  1  0.401645  0.003534  0.750000  1
  Ga  Ga12  1  0.994655  0.601519  0.250000  1
  Sb  Sb13  1  0.387615  0.391506  0.250000  1
  Sb  Sb14  1  0.609369  0.606852  0.750000  1
  Sb  Sb15  1  0.004905  0.396467  0.750000  1
