# generated using pymatgen
data_K4ScIn(AgSb2)2
_symmetry_space_group_name_H-M   'P 1'
_cell_length_a   9.61778115
_cell_length_b   9.61798149
_cell_length_c   9.61794422
_cell_angle_alpha   138.56135342
_cell_angle_beta   60.19724498
_cell_angle_gamma   138.36064330
_symmetry_Int_Tables_number   1
_chemical_formula_structural   K4ScIn(AgSb2)2
_chemical_formula_sum   'K4 Sc1 In1 Ag2 Sb4'
_cell_volume   387.16565948
_cell_formula_units_Z   1
loop_
 _symmetry_equiv_pos_site_id
 _symmetry_equiv_pos_as_xyz
  1  'x, y, z'
loop_
 _atom_site_type_symbol
 _atom_site_label
 _atom_site_symmetry_multiplicity
 _atom_site_fract_x
 _atom_site_fract_y
 _atom_site_fract_z
 _atom_site_occupancy
  K  K0  1  0.819842  0.257074  0.093159  1
  K  K1  1  0.680182  0.773331  0.437285  1
  K  K2  1  0.336066  0.242908  0.562778  1
  K  K3  1  0.163954  0.726689  0.906863  1
  Sc  Sc4  1  0.249966  0.249977  0.999899  1
  In  In5  1  0.749995  0.750087  0.999929  1
  Ag  Ag6  1  0.749984  0.249980  0.500008  1
  Ag  Ag7  1  0.249991  0.749978  0.500014  1
  Sb  Sb8  1  0.391685  0.735411  0.140270  1
  Sb  Sb9  1  0.108318  0.248570  0.343759  1
  Sb  Sb10  1  0.904843  0.764580  0.656293  1
  Sb  Sb11  1  0.595175  0.251418  0.859744  1
