# generated using pymatgen
data_Sc6Ta4Ga12Co7
_symmetry_space_group_name_H-M   'P 1'
_cell_length_a   8.63024439
_cell_length_b   8.63024346
_cell_length_c   8.63024500
_cell_angle_alpha   59.99999792
_cell_angle_beta   60.00000151
_cell_angle_gamma   59.99999742
_symmetry_Int_Tables_number   1
_chemical_formula_structural   Sc6Ta4Ga12Co7
_chemical_formula_sum   'Sc6 Ta4 Ga12 Co7'
_cell_volume   454.52131899
_cell_formula_units_Z   1
loop_
 _symmetry_equiv_pos_site_id
 _symmetry_equiv_pos_as_xyz
  1  'x, y, z'
loop_
 _atom_site_type_symbol
 _atom_site_label
 _atom_site_symmetry_multiplicity
 _atom_site_fract_x
 _atom_site_fract_y
 _atom_site_fract_z
 _atom_site_occupancy
  Sc  Sc0  1  0.698085  0.698085  0.301915  1
  Sc  Sc1  1  0.301915  0.698085  0.301915  1
  Sc  Sc2  1  0.698085  0.301915  0.301915  1
  Sc  Sc3  1  0.301915  0.301915  0.698085  1
  Sc  Sc4  1  0.698085  0.301915  0.698085  1
  Sc  Sc5  1  0.301915  0.698085  0.698085  1
  Ta  Ta6  1  0.878500  0.878500  0.364498  1
  Ta  Ta7  1  0.878500  0.364498  0.878500  1
  Ta  Ta8  1  0.364498  0.878500  0.878500  1
  Ta  Ta9  1  0.878500  0.878500  0.878500  1
  Ga  Ga10  1  0.118960  0.118960  0.643121  1
  Ga  Ga11  1  0.118960  0.643121  0.118960  1
  Ga  Ga12  1  0.643121  0.118960  0.118960  1
  Ga  Ga13  1  0.118960  0.118960  0.118960  1
  Ga  Ga14  1  0.656788  0.656788  0.029637  1
  Ga  Ga15  1  0.656788  0.029637  0.656788  1
  Ga  Ga16  1  0.029637  0.656788  0.656788  1
  Ga  Ga17  1  0.656788  0.656788  0.656788  1
  Ga  Ga18  1  0.337390  0.337390  0.987829  1
  Ga  Ga19  1  0.337390  0.987829  0.337390  1
  Ga  Ga20  1  0.987829  0.337390  0.337390  1
  Ga  Ga21  1  0.337390  0.337390  0.337390  1
  Co  Co22  1  0.000000  0.000000  0.000000  1
  Co  Co23  1  0.994412  0.994412  0.505588  1
  Co  Co24  1  0.505588  0.994412  0.505588  1
  Co  Co25  1  0.994412  0.505588  0.505588  1
  Co  Co26  1  0.505588  0.505588  0.994412  1
  Co  Co27  1  0.994412  0.505588  0.994412  1
  Co  Co28  1  0.505588  0.994412  0.994412  1
