# generated using pymatgen
data_Tm19Lu(GaBi2)4
_symmetry_space_group_name_H-M   'P 1'
_cell_length_a   8.00946101
_cell_length_b   9.25986801
_cell_length_c   11.77092502
_cell_angle_alpha   90.00499680
_cell_angle_beta   89.99564241
_cell_angle_gamma   89.99856699
_symmetry_Int_Tables_number   1
_chemical_formula_structural   Tm19Lu(GaBi2)4
_chemical_formula_sum   'Tm19 Lu1 Ga4 Bi8'
_cell_volume   873.00891346
_cell_formula_units_Z   1
loop_
 _symmetry_equiv_pos_site_id
 _symmetry_equiv_pos_as_xyz
  1  'x, y, z'
loop_
 _atom_site_type_symbol
 _atom_site_label
 _atom_site_symmetry_multiplicity
 _atom_site_fract_x
 _atom_site_fract_y
 _atom_site_fract_z
 _atom_site_occupancy
  Tm  Tm0  1  0.037105  0.250059  0.508508  1
  Tm  Tm1  1  0.963031  0.749961  0.491503  1
  Tm  Tm2  1  0.462940  0.749998  0.008484  1
  Tm  Tm3  1  0.537023  0.249996  0.991513  1
  Tm  Tm4  1  0.347356  0.250012  0.295427  1
  Tm  Tm5  1  0.652586  0.749952  0.704571  1
  Tm  Tm6  1  0.152640  0.749970  0.795376  1
  Tm  Tm7  1  0.847377  0.250000  0.204590  1
  Tm  Tm8  1  0.179641  0.250006  0.788089  1
  Tm  Tm9  1  0.820387  0.749989  0.211913  1
  Tm  Tm10  1  0.320355  0.749957  0.288151  1
  Tm  Tm11  1  0.679644  0.249979  0.711907  1
  Tm  Tm12  1  0.184167  0.057717  0.055889  1
  Tm  Tm13  1  0.815832  0.942289  0.944099  1
  Tm  Tm14  1  0.315843  0.942207  0.555889  1
  Tm  Tm15  1  0.815841  0.557715  0.944107  1
  Tm  Tm16  1  0.684161  0.057716  0.444089  1
  Tm  Tm17  1  0.184162  0.442287  0.055899  1
  Tm  Tm18  1  0.684128  0.442322  0.444122  1
  Lu  Lu19  1  0.315956  0.557829  0.555873  1
  Ga  Ga20  1  0.408847  0.250156  0.540719  1
  Ga  Ga21  1  0.591029  0.749923  0.459322  1
  Ga  Ga22  1  0.091113  0.750001  0.040710  1
  Ga  Ga23  1  0.908905  0.250010  0.959299  1
  Bi  Bi24  1  0.056315  0.000288  0.321174  1
  Bi  Bi25  1  0.943678  0.999682  0.678826  1
  Bi  Bi26  1  0.443666  0.999681  0.821166  1
  Bi  Bi27  1  0.943707  0.500309  0.678789  1
  Bi  Bi28  1  0.556319  0.000301  0.178841  1
  Bi  Bi29  1  0.056295  0.499698  0.321173  1
  Bi  Bi30  1  0.556297  0.499687  0.178841  1
  Bi  Bi31  1  0.443656  0.500304  0.821139  1
