# generated using pymatgen
data_Dy4Ho15ErBi12
_symmetry_space_group_name_H-M   'P 1'
_cell_length_a   8.24628409
_cell_length_b   9.51194200
_cell_length_c   12.02214313
_cell_angle_alpha   89.99697261
_cell_angle_beta   90.01671306
_cell_angle_gamma   89.99912880
_symmetry_Int_Tables_number   1
_chemical_formula_structural   Dy4Ho15ErBi12
_chemical_formula_sum   'Dy4 Ho15 Er1 Bi12'
_cell_volume   942.99493722
_cell_formula_units_Z   1
loop_
 _symmetry_equiv_pos_site_id
 _symmetry_equiv_pos_as_xyz
  1  'x, y, z'
loop_
 _atom_site_type_symbol
 _atom_site_label
 _atom_site_symmetry_multiplicity
 _atom_site_fract_x
 _atom_site_fract_y
 _atom_site_fract_z
 _atom_site_occupancy
  Dy  Dy0  1  0.312613  0.250003  0.218551  1
  Dy  Dy1  1  0.812709  0.250007  0.281438  1
  Dy  Dy2  1  0.687287  0.749896  0.781523  1
  Dy  Dy3  1  0.187298  0.749989  0.718586  1
  Ho  Ho4  1  0.352639  0.749902  0.216129  1
  Ho  Ho5  1  0.852368  0.749851  0.283713  1
  Ho  Ho6  1  0.647410  0.249914  0.783769  1
  Ho  Ho7  1  0.147433  0.249954  0.716175  1
  Ho  Ho8  1  0.192446  0.935666  0.441153  1
  Ho  Ho9  1  0.307591  0.064369  0.941204  1
  Ho  Ho10  1  0.807502  0.435680  0.558809  1
  Ho  Ho11  1  0.307443  0.435682  0.941156  1
  Ho  Ho12  1  0.807539  0.064345  0.558845  1
  Ho  Ho13  1  0.692545  0.935552  0.058807  1
  Ho  Ho14  1  0.192462  0.564336  0.441149  1
  Ho  Ho15  1  0.475316  0.249950  0.488285  1
  Ho  Ho16  1  0.975204  0.250022  0.011692  1
  Ho  Ho17  1  0.524654  0.749998  0.511657  1
  Ho  Ho18  1  0.024463  0.749898  0.988360  1
  Er  Er19  1  0.692800  0.564742  0.058941  1
  Bi  Bi20  1  0.406833  0.749768  0.957771  1
  Bi  Bi21  1  0.906606  0.750004  0.542316  1
  Bi  Bi22  1  0.593546  0.250712  0.042410  1
  Bi  Bi23  1  0.093347  0.250003  0.457655  1
  Bi  Bi24  1  0.565585  0.995138  0.325693  1
  Bi  Bi25  1  0.065417  0.504807  0.174187  1
  Bi  Bi26  1  0.434489  0.495162  0.674295  1
  Bi  Bi27  1  0.934392  0.004793  0.825764  1
  Bi  Bi28  1  0.434436  0.004797  0.674279  1
  Bi  Bi29  1  0.934445  0.495130  0.825827  1
  Bi  Bi30  1  0.565639  0.504804  0.325638  1
  Bi  Bi31  1  0.065546  0.995127  0.174223  1
