# generated using pymatgen
data_Ba6Li2Ag21Sn
_symmetry_space_group_name_H-M   'P 1'
_cell_length_a   10.01436800
_cell_length_b   10.01436656
_cell_length_c   8.39732000
_cell_angle_alpha   90.00000000
_cell_angle_beta   90.00000000
_cell_angle_gamma   119.99999817
_symmetry_Int_Tables_number   1
_chemical_formula_structural   Ba6Li2Ag21Sn
_chemical_formula_sum   'Ba6 Li2 Ag21 Sn1'
_cell_volume   729.32041988
_cell_formula_units_Z   1
loop_
 _symmetry_equiv_pos_site_id
 _symmetry_equiv_pos_as_xyz
  1  'x, y, z'
loop_
 _atom_site_type_symbol
 _atom_site_label
 _atom_site_symmetry_multiplicity
 _atom_site_fract_x
 _atom_site_fract_y
 _atom_site_fract_z
 _atom_site_occupancy
  Ba  Ba0  1  0.524847  0.049696  0.248601  1
  Ba  Ba1  1  0.476404  0.952807  0.750355  1
  Ba  Ba2  1  0.950304  0.475153  0.248601  1
  Ba  Ba3  1  0.047193  0.523596  0.750355  1
  Ba  Ba4  1  0.524847  0.475153  0.248601  1
  Ba  Ba5  1  0.476404  0.523596  0.750355  1
  Li  Li6  1  0.000000  0.000000  0.001133  1
  Li  Li7  1  0.000000  0.000000  0.500441  1
  Ag  Ag8  1  0.164649  0.329297  0.064999  1
  Ag  Ag9  1  0.835401  0.670801  0.937529  1
  Ag  Ag10  1  0.670703  0.835351  0.064999  1
  Ag  Ag11  1  0.834995  0.669991  0.563007  1
  Ag  Ag12  1  0.329199  0.164599  0.937529  1
  Ag  Ag13  1  0.167041  0.334081  0.433755  1
  Ag  Ag14  1  0.164649  0.835351  0.064999  1
  Ag  Ag15  1  0.330009  0.165005  0.563007  1
  Ag  Ag16  1  0.835401  0.164599  0.937529  1
  Ag  Ag17  1  0.665919  0.832959  0.433755  1
  Ag  Ag18  1  0.834995  0.165005  0.563007  1
  Ag  Ag19  1  0.167041  0.832959  0.433755  1
  Ag  Ag20  1  0.900025  0.800050  0.252058  1
  Ag  Ag21  1  0.099869  0.199736  0.749060  1
  Ag  Ag22  1  0.199950  0.099975  0.252058  1
  Ag  Ag23  1  0.800264  0.900131  0.749060  1
  Ag  Ag24  1  0.900025  0.099975  0.252058  1
  Ag  Ag25  1  0.099869  0.900131  0.749060  1
  Ag  Ag26  1  0.333333  0.666667  0.075666  1
  Ag  Ag27  1  0.666667  0.333333  0.924846  1
  Ag  Ag28  1  0.666667  0.333333  0.571747  1
  Sn  Sn29  1  0.333333  0.666667  0.428079  1
