# generated using pymatgen
data_CeLu9Os4
_symmetry_space_group_name_H-M   'P 1'
_cell_length_a   6.24763949
_cell_length_b   7.25928438
_cell_length_c   8.27851419
_cell_angle_alpha   96.58358458
_cell_angle_beta   112.37103674
_cell_angle_gamma   90.99598041
_symmetry_Int_Tables_number   1
_chemical_formula_structural   CeLu9Os4
_chemical_formula_sum   'Ce1 Lu9 Os4'
_cell_volume   344.14983568
_cell_formula_units_Z   1
loop_
 _symmetry_equiv_pos_site_id
 _symmetry_equiv_pos_as_xyz
  1  'x, y, z'
loop_
 _atom_site_type_symbol
 _atom_site_label
 _atom_site_symmetry_multiplicity
 _atom_site_fract_x
 _atom_site_fract_y
 _atom_site_fract_z
 _atom_site_occupancy
  Ce  Ce0  1  0.514164  0.094576  0.814345  1
  Lu  Lu1  1  0.470566  0.916879  0.182872  1
  Lu  Lu2  1  0.712394  0.419964  0.189449  1
  Lu  Lu3  1  0.291971  0.579736  0.822585  1
  Lu  Lu4  1  0.295662  0.319013  0.433839  1
  Lu  Lu5  1  0.706459  0.683576  0.561997  1
  Lu  Lu6  1  0.859539  0.177224  0.560796  1
  Lu  Lu7  1  0.145773  0.816038  0.433192  1
  Lu  Lu8  1  0.076152  0.249767  0.001919  1
  Lu  Lu9  1  0.917619  0.750747  0.998680  1
  Os  Os10  1  0.320127  0.576913  0.217400  1
  Os  Os11  1  0.673817  0.413125  0.779913  1
  Os  Os12  1  0.122237  0.924357  0.783705  1
  Os  Os13  1  0.893520  0.078086  0.219307  1
