# generated using pymatgen
data_Tb3Dy(CoOs)4
_symmetry_space_group_name_H-M   'P 1'
_cell_length_a   5.26508300
_cell_length_b   5.24180746
_cell_length_c   9.05073883
_cell_angle_alpha   71.66262424
_cell_angle_beta   90.00000000
_cell_angle_gamma   120.14700146
_symmetry_Int_Tables_number   1
_chemical_formula_structural   Tb3Dy(CoOs)4
_chemical_formula_sum   'Tb3 Dy1 Co4 Os4'
_cell_volume   201.19807267
_cell_formula_units_Z   1
loop_
 _symmetry_equiv_pos_site_id
 _symmetry_equiv_pos_as_xyz
  1  'x, y, z'
loop_
 _atom_site_type_symbol
 _atom_site_label
 _atom_site_symmetry_multiplicity
 _atom_site_fract_x
 _atom_site_fract_y
 _atom_site_fract_z
 _atom_site_occupancy
  Tb  Tb0  1  0.811252  0.122503  0.561183  1
  Tb  Tb1  1  0.188984  0.877966  0.438598  1
  Tb  Tb2  1  0.688652  0.877306  0.938775  1
  Dy  Dy3  1  0.310942  0.121884  0.061190  1
  Co  Co4  1  0.750236  0.500678  0.249073  1
  Co  Co5  1  0.250240  0.499442  0.750996  1
  Co  Co6  1  0.250442  0.500678  0.249073  1
  Co  Co7  1  0.749202  0.499442  0.750996  1
  Os  Os8  1  0.999898  0.499796  0.000103  1
  Os  Os9  1  0.500136  0.500274  0.499960  1
  Os  Os10  1  0.749550  0.999101  0.249433  1
  Os  Os11  1  0.250465  0.000931  0.750622  1
