# generated using pymatgen
data_Ca4Si12Ni19Rh
_symmetry_space_group_name_H-M   'P 1'
_cell_length_a   3.76774700
_cell_length_b   6.73699549
_cell_length_c   18.69727200
_cell_angle_alpha   89.94166660
_cell_angle_beta   90.00000000
_cell_angle_gamma   90.00000000
_symmetry_Int_Tables_number   1
_chemical_formula_structural   Ca4Si12Ni19Rh
_chemical_formula_sum   'Ca4 Si12 Ni19 Rh1'
_cell_volume   474.59811653
_cell_formula_units_Z   1
loop_
 _symmetry_equiv_pos_site_id
 _symmetry_equiv_pos_as_xyz
  1  'x, y, z'
loop_
 _atom_site_type_symbol
 _atom_site_label
 _atom_site_symmetry_multiplicity
 _atom_site_fract_x
 _atom_site_fract_y
 _atom_site_fract_z
 _atom_site_occupancy
  Ca  Ca0  1  0.250000  0.621823  0.641166  1
  Ca  Ca1  1  0.750000  0.377771  0.358739  1
  Ca  Ca2  1  0.750000  0.121155  0.857528  1
  Ca  Ca3  1  0.250000  0.879363  0.142982  1
  Si  Si4  1  0.250000  0.836452  0.924176  1
  Si  Si5  1  0.750000  0.157941  0.074163  1
  Si  Si6  1  0.750000  0.344214  0.574176  1
  Si  Si7  1  0.250000  0.655593  0.425797  1
  Si  Si8  1  0.750000  0.623119  0.759892  1
  Si  Si9  1  0.250000  0.376259  0.239953  1
  Si  Si10  1  0.250000  0.422038  0.913969  1
  Si  Si11  1  0.750000  0.580160  0.087522  1
  Si  Si12  1  0.750000  0.918319  0.585289  1
  Si  Si13  1  0.250000  0.081294  0.414605  1
  Si  Si14  1  0.250000  0.123411  0.737704  1
  Si  Si15  1  0.750000  0.877333  0.262550  1
  Ni  Ni16  1  0.750000  0.398651  0.985228  1
  Ni  Ni17  1  0.750000  0.115842  0.485882  1
  Ni  Ni18  1  0.250000  0.614605  0.016100  1
  Ni  Ni19  1  0.250000  0.366927  0.118494  1
  Ni  Ni20  1  0.750000  0.639066  0.881465  1
  Ni  Ni21  1  0.750000  0.859817  0.385287  1
  Ni  Ni22  1  0.250000  0.140315  0.614850  1
  Ni  Ni23  1  0.250000  0.065755  0.293642  1
  Ni  Ni24  1  0.750000  0.934577  0.706078  1
  Ni  Ni25  1  0.750000  0.566076  0.208298  1
  Ni  Ni26  1  0.250000  0.434403  0.792299  1
  Ni  Ni27  1  0.750000  0.633372  0.504398  1
  Ni  Ni28  1  0.250000  0.366679  0.495582  1
  Ni  Ni29  1  0.250000  0.813015  0.797936  1
  Ni  Ni30  1  0.750000  0.186363  0.200633  1
  Ni  Ni31  1  0.750000  0.313962  0.699473  1
  Ni  Ni32  1  0.250000  0.686054  0.300525  1
  Ni  Ni33  1  0.250000  0.884222  0.514006  1
  Ni  Ni34  1  0.750000  0.852768  0.004771  1
  Rh  Rh35  1  0.250000  0.131289  0.994844  1
