# generated using pymatgen
data_CsLi6BiO6
_symmetry_space_group_name_H-M   'P 1'
_cell_length_a   5.58875392
_cell_length_b   5.58875428
_cell_length_c   5.58875496
_cell_angle_alpha   101.53518896
_cell_angle_beta   101.53519498
_cell_angle_gamma   101.53518600
_symmetry_Int_Tables_number   1
_chemical_formula_structural   CsLi6BiO6
_chemical_formula_sum   'Cs1 Li6 Bi1 O6'
_cell_volume   162.26052993
_cell_formula_units_Z   1
loop_
 _symmetry_equiv_pos_site_id
 _symmetry_equiv_pos_as_xyz
  1  'x, y, z'
loop_
 _atom_site_type_symbol
 _atom_site_label
 _atom_site_symmetry_multiplicity
 _atom_site_fract_x
 _atom_site_fract_y
 _atom_site_fract_z
 _atom_site_occupancy
  Cs  Cs0  1  0.500000  0.500000  0.500000  1
  Li  Li1  1  0.000000  0.342916  0.657084  1
  Li  Li2  1  0.657084  0.000000  0.342916  1
  Li  Li3  1  0.657084  0.342916  0.000000  1
  Li  Li4  1  0.342916  0.000000  0.657084  1
  Li  Li5  1  0.000000  0.657084  0.342916  1
  Li  Li6  1  0.342916  0.657084  0.000000  1
  Bi  Bi7  1  0.000000  0.000000  0.000000  1
  O  O8  1  0.277183  0.905465  0.277183  1
  O  O9  1  0.905465  0.277183  0.277183  1
  O  O10  1  0.722817  0.722817  0.094535  1
  O  O11  1  0.722817  0.094535  0.722817  1
  O  O12  1  0.094535  0.722817  0.722817  1
  O  O13  1  0.277183  0.277183  0.905465  1
