# generated using pymatgen
data_ErHf5(InPd2)6
_symmetry_space_group_name_H-M   'P 1'
_cell_length_a   4.71080603
_cell_length_b   6.50308300
_cell_length_c   14.24901405
_cell_angle_alpha   90.00000000
_cell_angle_beta   89.99789314
_cell_angle_gamma   90.00000000
_symmetry_Int_Tables_number   1
_chemical_formula_structural   ErHf5(InPd2)6
_chemical_formula_sum   'Er1 Hf5 In6 Pd12'
_cell_volume   436.51516287
_cell_formula_units_Z   1
loop_
 _symmetry_equiv_pos_site_id
 _symmetry_equiv_pos_as_xyz
  1  'x, y, z'
loop_
 _atom_site_type_symbol
 _atom_site_label
 _atom_site_symmetry_multiplicity
 _atom_site_fract_x
 _atom_site_fract_y
 _atom_site_fract_z
 _atom_site_occupancy
  Er  Er0  1  0.000000  0.499999  0.000000  1
  Hf  Hf1  1  0.500014  0.000000  0.167159  1
  Hf  Hf2  1  0.000023  0.499999  0.333848  1
  Hf  Hf3  1  0.499999  0.000000  0.500000  1
  Hf  Hf4  1  0.999977  0.499999  0.666152  1
  Hf  Hf5  1  0.499986  0.000000  0.832840  1
  In  In6  1  0.000000  0.000000  0.000000  1
  In  In7  1  0.500006  0.499999  0.167555  1
  In  In8  1  0.000011  0.000000  0.336142  1
  In  In9  1  0.499999  0.499999  0.500000  1
  In  In10  1  0.999989  0.000000  0.663858  1
  In  In11  1  0.499994  0.499999  0.832445  1
  Pd  Pd12  1  0.499999  0.231160  0.000000  1
  Pd  Pd13  1  0.499999  0.768839  0.000000  1
  Pd  Pd14  1  0.000013  0.242831  0.172157  1
  Pd  Pd15  1  0.000013  0.757168  0.172157  1
  Pd  Pd16  1  0.500020  0.245917  0.333597  1
  Pd  Pd17  1  0.500020  0.754084  0.333597  1
  Pd  Pd18  1  0.000000  0.253212  0.500000  1
  Pd  Pd19  1  0.000000  0.746789  0.500000  1
  Pd  Pd20  1  0.499980  0.245917  0.666402  1
  Pd  Pd21  1  0.499980  0.754084  0.666402  1
  Pd  Pd22  1  0.999987  0.242831  0.827843  1
  Pd  Pd23  1  0.999987  0.757168  0.827843  1
