# generated using pymatgen
data_Ce2Sc3Ge4
_symmetry_space_group_name_H-M   'P 1'
_cell_length_a   7.34977400
_cell_length_b   7.54610600
_cell_length_c   14.22002500
_cell_angle_alpha   90.00000000
_cell_angle_beta   90.00000000
_cell_angle_gamma   90.00000000
_symmetry_Int_Tables_number   1
_chemical_formula_structural   Ce2Sc3Ge4
_chemical_formula_sum   'Ce8 Sc12 Ge16'
_cell_volume   788.67349628
_cell_formula_units_Z   4
loop_
 _symmetry_equiv_pos_site_id
 _symmetry_equiv_pos_as_xyz
  1  'x, y, z'
loop_
 _atom_site_type_symbol
 _atom_site_label
 _atom_site_symmetry_multiplicity
 _atom_site_fract_x
 _atom_site_fract_y
 _atom_site_fract_z
 _atom_site_occupancy
  Ce  Ce0  1  0.995882  0.171981  0.095957  1
  Ce  Ce1  1  0.495882  0.328019  0.404043  1
  Ce  Ce2  1  0.504118  0.671981  0.904043  1
  Ce  Ce3  1  0.004118  0.828019  0.595957  1
  Ce  Ce4  1  0.004118  0.828019  0.904043  1
  Ce  Ce5  1  0.504118  0.671981  0.595957  1
  Ce  Ce6  1  0.495882  0.328019  0.095957  1
  Ce  Ce7  1  0.995882  0.171981  0.404043  1
  Sc  Sc8  1  0.667890  0.002730  0.250000  1
  Sc  Sc9  1  0.167890  0.497270  0.250000  1
  Sc  Sc10  1  0.832110  0.502730  0.750000  1
  Sc  Sc11  1  0.332110  0.997270  0.750000  1
  Sc  Sc12  1  0.834478  0.669841  0.124299  1
  Sc  Sc13  1  0.334478  0.830159  0.375701  1
  Sc  Sc14  1  0.665522  0.169841  0.875701  1
  Sc  Sc15  1  0.165522  0.330159  0.624299  1
  Sc  Sc16  1  0.165522  0.330159  0.875701  1
  Sc  Sc17  1  0.665522  0.169841  0.624299  1
  Sc  Sc18  1  0.334478  0.830159  0.124299  1
  Sc  Sc19  1  0.834478  0.669841  0.375701  1
  Ge  Ge20  1  0.803216  0.365390  0.250000  1
  Ge  Ge21  1  0.303216  0.134610  0.250000  1
  Ge  Ge22  1  0.696784  0.865390  0.750000  1
  Ge  Ge23  1  0.196784  0.634610  0.750000  1
  Ge  Ge24  1  0.032624  0.871270  0.250000  1
  Ge  Ge25  1  0.532624  0.628730  0.250000  1
  Ge  Ge26  1  0.467376  0.371270  0.750000  1
  Ge  Ge27  1  0.967376  0.128730  0.750000  1
  Ge  Ge28  1  0.829848  0.460445  0.957834  1
  Ge  Ge29  1  0.329848  0.039555  0.542166  1
  Ge  Ge30  1  0.670152  0.960445  0.042166  1
  Ge  Ge31  1  0.170152  0.539555  0.457834  1
  Ge  Ge32  1  0.170152  0.539555  0.042166  1
  Ge  Ge33  1  0.670152  0.960445  0.457834  1
  Ge  Ge34  1  0.329848  0.039555  0.957834  1
  Ge  Ge35  1  0.829848  0.460445  0.542166  1
