# generated using pymatgen
data_Pr2VGeF14
_symmetry_space_group_name_H-M   'P 1'
_cell_length_a   5.60903500
_cell_length_b   9.10929165
_cell_length_c   12.16897181
_cell_angle_alpha   62.12918625
_cell_angle_beta   90.00000000
_cell_angle_gamma   90.00000000
_symmetry_Int_Tables_number   1
_chemical_formula_structural   Pr2VGeF14
_chemical_formula_sum   'Pr4 V2 Ge2 F28'
_cell_volume   549.64314000
_cell_formula_units_Z   2
loop_
 _symmetry_equiv_pos_site_id
 _symmetry_equiv_pos_as_xyz
  1  'x, y, z'
loop_
 _atom_site_type_symbol
 _atom_site_label
 _atom_site_symmetry_multiplicity
 _atom_site_fract_x
 _atom_site_fract_y
 _atom_site_fract_z
 _atom_site_occupancy
  Pr  Pr0  1  0.759892  0.804007  0.766475  1
  Pr  Pr1  1  0.259892  0.195993  0.733525  1
  Pr  Pr2  1  0.240173  0.189875  0.234927  1
  Pr  Pr3  1  0.740173  0.810125  0.265073  1
  V  V4  1  0.244688  0.725130  0.043349  1
  V  V5  1  0.744688  0.274870  0.456651  1
  Ge  Ge6  1  0.756918  0.274286  0.957635  1
  Ge  Ge7  1  0.256918  0.725714  0.542365  1
  F  F8  1  0.437059  0.709101  0.921654  1
  F  F9  1  0.937059  0.290899  0.578346  1
  F  F10  1  0.568353  0.291952  0.073258  1
  F  F11  1  0.068353  0.708048  0.426742  1
  F  F12  1  0.463796  0.284510  0.541481  1
  F  F13  1  0.963796  0.715490  0.958519  1
  F  F14  1  0.528110  0.713926  0.461325  1
  F  F15  1  0.028110  0.286074  0.038675  1
  F  F16  1  0.765274  0.500694  0.865141  1
  F  F17  1  0.265274  0.499306  0.634859  1
  F  F18  1  0.235515  0.496211  0.133783  1
  F  F19  1  0.735515  0.503789  0.366217  1
  F  F20  1  0.762733  0.048170  0.046707  1
  F  F21  1  0.262733  0.951830  0.453293  1
  F  F22  1  0.238369  0.952137  0.954461  1
  F  F23  1  0.738369  0.047863  0.545539  1
  F  F24  1  0.992176  0.731691  0.628548  1
  F  F25  1  0.492176  0.268309  0.871452  1
  F  F26  1  0.020601  0.270388  0.368249  1
  F  F27  1  0.520601  0.729612  0.131751  1
  F  F28  1  0.053188  0.739595  0.167833  1
  F  F29  1  0.553188  0.260405  0.332167  1
  F  F30  1  0.943916  0.259386  0.838906  1
  F  F31  1  0.443916  0.740614  0.661094  1
  F  F32  1  0.395416  0.964930  0.225405  1
  F  F33  1  0.895416  0.035070  0.274595  1
  F  F34  1  0.593823  0.030779  0.770616  1
  F  F35  1  0.093823  0.969221  0.729384  1
