# generated using pymatgen
data_Dy4CrCo16(TcP4)3
_symmetry_space_group_name_H-M   'P 1'
_cell_length_a   3.69044800
_cell_length_b   10.33563327
_cell_length_c   11.79269020
_cell_angle_alpha   89.89438498
_cell_angle_beta   90.00000000
_cell_angle_gamma   90.00000000
_symmetry_Int_Tables_number   1
_chemical_formula_structural   Dy4CrCo16(TcP4)3
_chemical_formula_sum   'Dy4 Cr1 Co16 Tc3 P12'
_cell_volume   449.80919898
_cell_formula_units_Z   1
loop_
 _symmetry_equiv_pos_site_id
 _symmetry_equiv_pos_as_xyz
  1  'x, y, z'
loop_
 _atom_site_type_symbol
 _atom_site_label
 _atom_site_symmetry_multiplicity
 _atom_site_fract_x
 _atom_site_fract_y
 _atom_site_fract_z
 _atom_site_occupancy
  Dy  Dy0  1  0.250000  0.582077  0.703025  1
  Dy  Dy1  1  0.250000  0.916081  0.204484  1
  Dy  Dy2  1  0.750000  0.415500  0.295666  1
  Dy  Dy3  1  0.750000  0.084277  0.795380  1
  Cr  Cr4  1  0.750000  0.210536  0.511518  1
  Co  Co5  1  0.250000  0.405051  0.488488  1
  Co  Co6  1  0.250000  0.093230  0.988929  1
  Co  Co7  1  0.750000  0.593207  0.510298  1
  Co  Co8  1  0.750000  0.906706  0.010566  1
  Co  Co9  1  0.250000  0.221013  0.177441  1
  Co  Co10  1  0.250000  0.278459  0.676201  1
  Co  Co11  1  0.750000  0.778468  0.822718  1
  Co  Co12  1  0.750000  0.721984  0.323578  1
  Co  Co13  1  0.250000  0.887356  0.700926  1
  Co  Co14  1  0.250000  0.614125  0.202633  1
  Co  Co15  1  0.750000  0.114902  0.300532  1
  Co  Co16  1  0.750000  0.385627  0.798118  1
  Co  Co17  1  0.250000  0.464170  0.931506  1
  Co  Co18  1  0.250000  0.035066  0.433053  1
  Co  Co19  1  0.750000  0.535864  0.068462  1
  Co  Co20  1  0.750000  0.965967  0.566982  1
  Tc  Tc21  1  0.250000  0.710711  0.989601  1
  Tc  Tc22  1  0.250000  0.790524  0.489158  1
  Tc  Tc23  1  0.750000  0.289459  0.010720  1
  P  P24  1  0.250000  0.420078  0.113405  1
  P  P25  1  0.250000  0.082680  0.612370  1
  P  P26  1  0.750000  0.579433  0.886505  1
  P  P27  1  0.750000  0.920875  0.386248  1
  P  P28  1  0.250000  0.270019  0.865277  1
  P  P29  1  0.250000  0.230488  0.368282  1
  P  P30  1  0.750000  0.730098  0.134639  1
  P  P31  1  0.750000  0.770113  0.633987  1
  P  P32  1  0.250000  0.596488  0.391713  1
  P  P33  1  0.250000  0.903492  0.890809  1
  P  P34  1  0.750000  0.399369  0.607005  1
  P  P35  1  0.750000  0.096506  0.109777  1
