# generated using pymatgen
data_Er2SnHgRh4
_symmetry_space_group_name_H-M   'P 1'
_cell_length_a   6.30080200
_cell_length_b   6.29764500
_cell_length_c   7.30892400
_cell_angle_alpha   90.00000000
_cell_angle_beta   89.99905429
_cell_angle_gamma   90.00000000
_symmetry_Int_Tables_number   1
_chemical_formula_structural   Er2SnHgRh4
_chemical_formula_sum   'Er4 Sn2 Hg2 Rh8'
_cell_volume   290.01966997
_cell_formula_units_Z   2
loop_
 _symmetry_equiv_pos_site_id
 _symmetry_equiv_pos_as_xyz
  1  'x, y, z'
loop_
 _atom_site_type_symbol
 _atom_site_label
 _atom_site_symmetry_multiplicity
 _atom_site_fract_x
 _atom_site_fract_y
 _atom_site_fract_z
 _atom_site_occupancy
  Er  Er0  1  0.750144  0.250033  0.000012  1
  Er  Er1  1  0.249856  0.749966  0.999988  1
  Er  Er2  1  0.750017  0.250107  0.500003  1
  Er  Er3  1  0.249984  0.749892  0.499997  1
  Sn  Sn4  1  0.749927  0.750001  0.500012  1
  Sn  Sn5  1  0.250073  0.249998  0.499988  1
  Hg  Hg6  1  0.250040  0.249951  0.999988  1
  Hg  Hg7  1  0.749961  0.750048  0.000012  1
  Rh  Rh8  1  0.499993  0.000016  0.261134  1
  Rh  Rh9  1  0.499991  0.500010  0.261174  1
  Rh  Rh10  1  0.000003  0.999982  0.261148  1
  Rh  Rh11  1  0.000005  0.500005  0.261173  1
  Rh  Rh12  1  0.999997  0.000018  0.738852  1
  Rh  Rh13  1  0.999995  0.499994  0.738827  1
  Rh  Rh14  1  0.500006  0.999984  0.738866  1
  Rh  Rh15  1  0.500008  0.499990  0.738826  1
