# generated using pymatgen
data_Dy6ScVO12
_symmetry_space_group_name_H-M   'P 1'
_cell_length_a   6.57383414
_cell_length_b   6.57383438
_cell_length_c   6.57383410
_cell_angle_alpha   92.66224484
_cell_angle_beta   92.66225008
_cell_angle_gamma   92.66224864
_symmetry_Int_Tables_number   1
_chemical_formula_structural   Dy6ScVO12
_chemical_formula_sum   'Dy6 Sc1 V1 O12'
_cell_volume   283.14077535
_cell_formula_units_Z   1
loop_
 _symmetry_equiv_pos_site_id
 _symmetry_equiv_pos_as_xyz
  1  'x, y, z'
loop_
 _atom_site_type_symbol
 _atom_site_label
 _atom_site_symmetry_multiplicity
 _atom_site_fract_x
 _atom_site_fract_y
 _atom_site_fract_z
 _atom_site_occupancy
  Dy  Dy0  1  0.743607  0.927750  0.436389  1
  Dy  Dy1  1  0.927750  0.436389  0.743607  1
  Dy  Dy2  1  0.436389  0.743607  0.927750  1
  Dy  Dy3  1  0.256393  0.072250  0.563611  1
  Dy  Dy4  1  0.072250  0.563611  0.256393  1
  Dy  Dy5  1  0.563611  0.256393  0.072250  1
  Sc  Sc6  1  0.000000  0.000000  0.000000  1
  V  V7  1  0.500000  0.500000  0.500000  1
  O  O8  1  0.589487  0.461417  0.800873  1
  O  O9  1  0.461417  0.800873  0.589487  1
  O  O10  1  0.800873  0.589487  0.461417  1
  O  O11  1  0.410513  0.538583  0.199127  1
  O  O12  1  0.538583  0.199127  0.410513  1
  O  O13  1  0.199127  0.410513  0.538583  1
  O  O14  1  0.068633  0.914879  0.307007  1
  O  O15  1  0.914879  0.307007  0.068633  1
  O  O16  1  0.692993  0.931367  0.085121  1
  O  O17  1  0.085121  0.692993  0.931367  1
  O  O18  1  0.931367  0.085121  0.692993  1
  O  O19  1  0.307007  0.068633  0.914879  1
