# generated using pymatgen
data_Pr4LuAl2Pb
_symmetry_space_group_name_H-M   'P 1'
_cell_length_a   8.18184100
_cell_length_b   8.18184100
_cell_length_c   14.37459400
_cell_angle_alpha   90.00000000
_cell_angle_beta   90.00000000
_cell_angle_gamma   90.00000000
_symmetry_Int_Tables_number   1
_chemical_formula_structural   Pr4LuAl2Pb
_chemical_formula_sum   'Pr16 Lu4 Al8 Pb4'
_cell_volume   962.27157723
_cell_formula_units_Z   4
loop_
 _symmetry_equiv_pos_site_id
 _symmetry_equiv_pos_as_xyz
  1  'x, y, z'
loop_
 _atom_site_type_symbol
 _atom_site_label
 _atom_site_symmetry_multiplicity
 _atom_site_fract_x
 _atom_site_fract_y
 _atom_site_fract_z
 _atom_site_occupancy
  Pr  Pr0  1  0.831460  0.830156  0.895514  1
  Pr  Pr1  1  0.169844  0.168540  0.604486  1
  Pr  Pr2  1  0.831460  0.169844  0.395514  1
  Pr  Pr3  1  0.168540  0.830156  0.395514  1
  Pr  Pr4  1  0.330156  0.331460  0.395514  1
  Pr  Pr5  1  0.830156  0.168540  0.104486  1
  Pr  Pr6  1  0.330156  0.668540  0.895514  1
  Pr  Pr7  1  0.169844  0.831460  0.104486  1
  Pr  Pr8  1  0.331460  0.669844  0.604486  1
  Pr  Pr9  1  0.668540  0.669844  0.104486  1
  Pr  Pr10  1  0.668540  0.330156  0.604486  1
  Pr  Pr11  1  0.830156  0.831460  0.604486  1
  Pr  Pr12  1  0.669844  0.331460  0.895514  1
  Pr  Pr13  1  0.168540  0.169844  0.895514  1
  Pr  Pr14  1  0.669844  0.668540  0.395514  1
  Pr  Pr15  1  0.331460  0.330156  0.104486  1
  Lu  Lu16  1  0.500000  0.000000  0.749992  1
  Lu  Lu17  1  0.000000  0.500000  0.250008  1
  Lu  Lu18  1  0.000000  0.500000  0.750008  1
  Lu  Lu19  1  0.500000  0.000000  0.249992  1
  Al  Al20  1  0.622665  0.377335  0.250000  1
  Al  Al21  1  0.377335  0.622665  0.250000  1
  Al  Al22  1  0.122665  0.122665  0.250000  1
  Al  Al23  1  0.377335  0.377335  0.750000  1
  Al  Al24  1  0.122665  0.877335  0.750000  1
  Al  Al25  1  0.877335  0.877335  0.250000  1
  Al  Al26  1  0.622665  0.622665  0.750000  1
  Al  Al27  1  0.877335  0.122665  0.750000  1
  Pb  Pb28  1  0.000000  0.500000  0.000198  1
  Pb  Pb29  1  0.500000  0.000000  0.999802  1
  Pb  Pb30  1  0.500000  0.000000  0.499802  1
  Pb  Pb31  1  0.000000  0.500000  0.500198  1
