# generated using pymatgen
data_LiSmZnPt3
_symmetry_space_group_name_H-M   'P 1'
_cell_length_a   5.53120988
_cell_length_b   5.53120948
_cell_length_c   5.16199072
_cell_angle_alpha   57.60431970
_cell_angle_beta   57.60432517
_cell_angle_gamma   60.00000498
_symmetry_Int_Tables_number   1
_chemical_formula_structural   LiSmZnPt3
_chemical_formula_sum   'Li1 Sm1 Zn1 Pt3'
_cell_volume   107.45539648
_cell_formula_units_Z   1
loop_
 _symmetry_equiv_pos_site_id
 _symmetry_equiv_pos_as_xyz
  1  'x, y, z'
loop_
 _atom_site_type_symbol
 _atom_site_label
 _atom_site_symmetry_multiplicity
 _atom_site_fract_x
 _atom_site_fract_y
 _atom_site_fract_z
 _atom_site_occupancy
  Li  Li0  1  0.259741  0.259741  0.220778  1
  Sm  Sm1  1  0.005414  0.005414  0.983757  1
  Zn  Zn2  1  0.621178  0.621178  0.136465  1
  Pt  Pt3  1  0.619935  0.123797  0.636333  1
  Pt  Pt4  1  0.123797  0.619935  0.636333  1
  Pt  Pt5  1  0.619935  0.619935  0.636333  1
