# generated using pymatgen
data_La3FeHgSb3O14
_symmetry_space_group_name_H-M   'P 1'
_cell_length_a   7.41526057
_cell_length_b   7.42000399
_cell_length_c   7.41771149
_cell_angle_alpha   117.34567658
_cell_angle_beta   62.65990236
_cell_angle_gamma   117.33362501
_symmetry_Int_Tables_number   1
_chemical_formula_structural   La3FeHgSb3O14
_chemical_formula_sum   'La3 Fe1 Hg1 Sb3 O14'
_cell_volume   305.68088088
_cell_formula_units_Z   1
loop_
 _symmetry_equiv_pos_site_id
 _symmetry_equiv_pos_as_xyz
  1  'x, y, z'
loop_
 _atom_site_type_symbol
 _atom_site_label
 _atom_site_symmetry_multiplicity
 _atom_site_fract_x
 _atom_site_fract_y
 _atom_site_fract_z
 _atom_site_occupancy
  La  La0  1  0.999997  0.499985  0.999990  1
  La  La1  1  0.500021  0.999927  0.000010  1
  La  La2  1  0.499990  0.500030  0.499868  1
  Fe  Fe3  1  0.999950  0.999992  0.500004  1
  Hg  Hg4  1  0.499990  0.499814  0.999778  1
  Sb  Sb5  1  0.500011  0.000036  0.500034  1
  Sb  Sb6  1  0.999978  0.500056  0.500026  1
  Sb  Sb7  1  0.000009  0.000016  0.000051  1
  O  O8  1  0.619041  0.380608  0.119263  1
  O  O9  1  0.380957  0.619232  0.880500  1
  O  O10  1  0.066387  0.316318  0.183604  1
  O  O11  1  0.683581  0.933765  0.183671  1
  O  O12  1  0.683456  0.316388  0.566232  1
  O  O13  1  0.933638  0.683726  0.816485  1
  O  O14  1  0.316436  0.066240  0.816419  1
  O  O15  1  0.316534  0.683692  0.433867  1
  O  O16  1  0.653469  0.912268  0.587833  1
  O  O17  1  0.088047  0.347257  0.588108  1
  O  O18  1  0.088169  0.911861  0.152866  1
  O  O19  1  0.346585  0.087833  0.412228  1
  O  O20  1  0.911914  0.652779  0.411918  1
  O  O21  1  0.911841  0.088177  0.847244  1
