# generated using pymatgen
data_LiHf5(NbB5)4
_symmetry_space_group_name_H-M   'P 1'
_cell_length_a   6.22777894
_cell_length_b   7.10106665
_cell_length_c   7.52261007
_cell_angle_alpha   94.32630379
_cell_angle_beta   101.98032319
_cell_angle_gamma   115.98053325
_symmetry_Int_Tables_number   1
_chemical_formula_structural   LiHf5(NbB5)4
_chemical_formula_sum   'Li1 Hf5 Nb4 B20'
_cell_volume   287.26223404
_cell_formula_units_Z   1
loop_
 _symmetry_equiv_pos_site_id
 _symmetry_equiv_pos_as_xyz
  1  'x, y, z'
loop_
 _atom_site_type_symbol
 _atom_site_label
 _atom_site_symmetry_multiplicity
 _atom_site_fract_x
 _atom_site_fract_y
 _atom_site_fract_z
 _atom_site_occupancy
  Li  Li0  1  0.999906  0.999893  0.001143  1
  Hf  Hf1  1  0.501448  0.801587  0.399090  1
  Hf  Hf2  1  0.999847  0.397023  0.198361  1
  Hf  Hf3  1  0.500149  0.199537  0.601037  1
  Hf  Hf4  1  0.998609  0.799319  0.399755  1
  Hf  Hf5  1  0.501974  0.601186  0.802135  1
  Nb  Nb6  1  0.498776  0.000002  0.999494  1
  Nb  Nb7  1  0.498031  0.398447  0.198521  1
  Nb  Nb8  1  0.000723  0.201660  0.600938  1
  Nb  Nb9  1  0.999928  0.601998  0.800036  1
  B  B10  1  0.331121  0.231512  0.869450  1
  B  B11  1  0.332661  0.633438  0.066616  1
  B  B12  1  0.163926  0.361297  0.935610  1
  B  B13  1  0.330869  0.033323  0.263499  1
  B  B14  1  0.165085  0.768007  0.129432  1
  B  B15  1  0.836055  0.230787  0.870221  1
  B  B16  1  0.164273  0.165270  0.328215  1
  B  B17  1  0.834698  0.637372  0.063815  1
  B  B18  1  0.333246  0.432357  0.466296  1
  B  B19  1  0.666629  0.366632  0.932790  1
  B  B20  1  0.835113  0.034539  0.262519  1
  B  B21  1  0.668823  0.768798  0.129697  1
  B  B22  1  0.334259  0.835746  0.667592  1
  B  B23  1  0.166718  0.567099  0.532218  1
  B  B24  1  0.665030  0.165108  0.332427  1
  B  B25  1  0.833410  0.433002  0.466447  1
  B  B26  1  0.165315  0.966580  0.738167  1
  B  B27  1  0.835698  0.835029  0.672557  1
  B  B28  1  0.667548  0.566670  0.534622  1
  B  B29  1  0.670130  0.966784  0.737299  1
