# generated using pymatgen
data_K3(AlAu)4
_symmetry_space_group_name_H-M   'P 1'
_cell_length_a   6.94026301
_cell_length_b   6.94026345
_cell_length_c   12.40599300
_cell_angle_alpha   90.00000000
_cell_angle_beta   90.00000000
_cell_angle_gamma   105.43170438
_symmetry_Int_Tables_number   1
_chemical_formula_structural   K3(AlAu)4
_chemical_formula_sum   'K6 Al8 Au8'
_cell_volume   576.01947102
_cell_formula_units_Z   2
loop_
 _symmetry_equiv_pos_site_id
 _symmetry_equiv_pos_as_xyz
  1  'x, y, z'
loop_
 _atom_site_type_symbol
 _atom_site_label
 _atom_site_symmetry_multiplicity
 _atom_site_fract_x
 _atom_site_fract_y
 _atom_site_fract_z
 _atom_site_occupancy
  K  K0  1  0.209909  0.790091  0.500000  1
  K  K1  1  0.209909  0.790091  0.000000  1
  K  K2  1  0.790091  0.209909  0.500000  1
  K  K3  1  0.790091  0.209909  0.000000  1
  K  K4  1  0.977294  0.977294  0.250000  1
  K  K5  1  0.022706  0.022706  0.750000  1
  Al  Al6  1  0.480249  0.736816  0.250000  1
  Al  Al7  1  0.263184  0.519751  0.750000  1
  Al  Al8  1  0.519751  0.263184  0.750000  1
  Al  Al9  1  0.736816  0.480249  0.250000  1
  Al  Al10  1  0.357878  0.357878  0.365620  1
  Al  Al11  1  0.642122  0.642122  0.634380  1
  Al  Al12  1  0.357878  0.357878  0.134380  1
  Al  Al13  1  0.642122  0.642122  0.865620  1
  Au  Au14  1  0.493510  0.108024  0.250000  1
  Au  Au15  1  0.891976  0.506490  0.750000  1
  Au  Au16  1  0.506490  0.891976  0.750000  1
  Au  Au17  1  0.108024  0.493510  0.250000  1
  Au  Au18  1  0.344198  0.344198  0.928655  1
  Au  Au19  1  0.655802  0.655802  0.071345  1
  Au  Au20  1  0.344198  0.344198  0.571345  1
  Au  Au21  1  0.655802  0.655802  0.428655  1
