# generated using pymatgen
data_Sc6TaAl13Mo2Os7
_symmetry_space_group_name_H-M   'P 1'
_cell_length_a   8.82654262
_cell_length_b   8.82654223
_cell_length_c   8.84236536
_cell_angle_alpha   59.80737812
_cell_angle_beta   59.80737883
_cell_angle_gamma   59.85329401
_symmetry_Int_Tables_number   1
_chemical_formula_structural   Sc6TaAl13Mo2Os7
_chemical_formula_sum   'Sc6 Ta1 Al13 Mo2 Os7'
_cell_volume   485.15786865
_cell_formula_units_Z   1
loop_
 _symmetry_equiv_pos_site_id
 _symmetry_equiv_pos_as_xyz
  1  'x, y, z'
loop_
 _atom_site_type_symbol
 _atom_site_label
 _atom_site_symmetry_multiplicity
 _atom_site_fract_x
 _atom_site_fract_y
 _atom_site_fract_z
 _atom_site_occupancy
  Sc  Sc0  1  0.711734  0.711734  0.278003  1
  Sc  Sc1  1  0.292728  0.710078  0.288440  1
  Sc  Sc2  1  0.710078  0.292728  0.288440  1
  Sc  Sc3  1  0.288455  0.288455  0.713444  1
  Sc  Sc4  1  0.713734  0.276787  0.714924  1
  Sc  Sc5  1  0.276787  0.713734  0.714924  1
  Ta  Ta6  1  0.877704  0.877704  0.362418  1
  Al  Al7  1  0.879826  0.879826  0.881370  1
  Al  Al8  1  0.121713  0.121713  0.635881  1
  Al  Al9  1  0.120474  0.638022  0.121757  1
  Al  Al10  1  0.638022  0.120474  0.121757  1
  Al  Al11  1  0.121828  0.121828  0.123185  1
  Al  Al12  1  0.666563  0.666563  0.006300  1
  Al  Al13  1  0.664741  0.008691  0.666723  1
  Al  Al14  1  0.008691  0.664741  0.666723  1
  Al  Al15  1  0.658570  0.658570  0.658986  1
  Al  Al16  1  0.335914  0.335914  0.995140  1
  Al  Al17  1  0.336188  0.995221  0.335550  1
  Al  Al18  1  0.995221  0.336188  0.335550  1
  Al  Al19  1  0.335920  0.335920  0.335573  1
  Mo  Mo20  1  0.875567  0.364492  0.876936  1
  Mo  Mo21  1  0.364492  0.875567  0.876936  1
  Os  Os22  1  0.006171  0.006171  0.997354  1
  Os  Os23  1  0.998546  0.998546  0.499553  1
  Os  Os24  1  0.502442  0.997283  0.504839  1
  Os  Os25  1  0.997283  0.502442  0.504839  1
  Os  Os26  1  0.504019  0.504019  0.996654  1
  Os  Os27  1  0.998859  0.497729  0.998899  1
  Os  Os28  1  0.497729  0.998859  0.998899  1
