# generated using pymatgen
data_Zr10Zn2(InSb)3
_symmetry_space_group_name_H-M   'P 1'
_cell_length_a   8.71792600
_cell_length_b   8.71792558
_cell_length_c   5.89396400
_cell_angle_alpha   89.99952292
_cell_angle_beta   89.99952038
_cell_angle_gamma   120.00257650
_symmetry_Int_Tables_number   1
_chemical_formula_structural   Zr10Zn2(InSb)3
_chemical_formula_sum   'Zr10 Zn2 In3 Sb3'
_cell_volume   387.92982470
_cell_formula_units_Z   1
loop_
 _symmetry_equiv_pos_site_id
 _symmetry_equiv_pos_as_xyz
  1  'x, y, z'
loop_
 _atom_site_type_symbol
 _atom_site_label
 _atom_site_symmetry_multiplicity
 _atom_site_fract_x
 _atom_site_fract_y
 _atom_site_fract_z
 _atom_site_occupancy
  Zr  Zr0  1  0.666704  0.333343  0.001145  1
  Zr  Zr1  1  0.333343  0.666703  0.001145  1
  Zr  Zr2  1  0.273232  0.000008  0.250002  1
  Zr  Zr3  1  0.000008  0.273232  0.250002  1
  Zr  Zr4  1  0.726765  0.726765  0.250011  1
  Zr  Zr5  1  0.666657  0.333299  0.498859  1
  Zr  Zr6  1  0.333298  0.666657  0.498859  1
  Zr  Zr7  1  0.735966  0.000003  0.749991  1
  Zr  Zr8  1  0.264070  0.264070  0.750009  1
  Zr  Zr9  1  0.000002  0.735967  0.749991  1
  Zn  Zn10  1  0.000005  0.000005  0.013772  1
  Zn  Zn11  1  0.000008  0.000008  0.486236  1
  In  In12  1  0.620892  0.999917  0.249990  1
  In  In13  1  0.999917  0.620891  0.249990  1
  In  In14  1  0.379101  0.379102  0.249996  1
  Sb  Sb15  1  0.386439  0.000008  0.750004  1
  Sb  Sb16  1  0.000008  0.386439  0.750004  1
  Sb  Sb17  1  0.613585  0.613586  0.749997  1
