# generated using pymatgen
data_Ho2Lu2ReB12Os
_symmetry_space_group_name_H-M   'P 1'
_cell_length_a   3.62827900
_cell_length_b   9.08224237
_cell_length_c   11.46944404
_cell_angle_alpha   90.11934428
_cell_angle_beta   90.00000000
_cell_angle_gamma   90.00000000
_symmetry_Int_Tables_number   1
_chemical_formula_structural   Ho2Lu2ReB12Os
_chemical_formula_sum   'Ho4 Lu4 Re2 B24 Os2'
_cell_volume   377.95072884
_cell_formula_units_Z   2
loop_
 _symmetry_equiv_pos_site_id
 _symmetry_equiv_pos_as_xyz
  1  'x, y, z'
loop_
 _atom_site_type_symbol
 _atom_site_label
 _atom_site_symmetry_multiplicity
 _atom_site_fract_x
 _atom_site_fract_y
 _atom_site_fract_z
 _atom_site_occupancy
  Ho  Ho0  1  0.000000  0.320256  0.412551  1
  Ho  Ho1  1  0.000000  0.679744  0.587449  1
  Ho  Ho2  1  0.000000  0.823864  0.084765  1
  Ho  Ho3  1  0.000000  0.176136  0.915235  1
  Lu  Lu4  1  0.000000  0.943770  0.370995  1
  Lu  Lu5  1  0.000000  0.056230  0.629005  1
  Lu  Lu6  1  0.000000  0.442811  0.128390  1
  Lu  Lu7  1  0.000000  0.557189  0.871610  1
  Re  Re8  1  0.000000  0.138782  0.180228  1
  Re  Re9  1  0.000000  0.861218  0.819772  1
  B  B10  1  0.500000  0.553970  0.432938  1
  B  B11  1  0.500000  0.446030  0.567062  1
  B  B12  1  0.500000  0.053342  0.067080  1
  B  B13  1  0.500000  0.946658  0.932920  1
  B  B14  1  0.500000  0.750225  0.418674  1
  B  B15  1  0.500000  0.249775  0.581326  1
  B  B16  1  0.500000  0.250277  0.081095  1
  B  B17  1  0.500000  0.749723  0.918905  1
  B  B18  1  0.500000  0.791765  0.265587  1
  B  B19  1  0.500000  0.208235  0.734413  1
  B  B20  1  0.500000  0.292738  0.234896  1
  B  B21  1  0.500000  0.707262  0.765104  1
  B  B22  1  0.500000  0.630088  0.185048  1
  B  B23  1  0.500000  0.369912  0.814952  1
  B  B24  1  0.500000  0.130511  0.315782  1
  B  B25  1  0.500000  0.869489  0.684218  1
  B  B26  1  0.500000  0.981763  0.213227  1
  B  B27  1  0.500000  0.018237  0.786773  1
  B  B28  1  0.500000  0.482220  0.287353  1
  B  B29  1  0.500000  0.517780  0.712647  1
  B  B30  1  0.500000  0.600716  0.028045  1
  B  B31  1  0.500000  0.399284  0.971955  1
  B  B32  1  0.500000  0.101013  0.472414  1
  B  B33  1  0.500000  0.898987  0.527586  1
  Os  Os34  1  0.000000  0.638190  0.320876  1
  Os  Os35  1  0.000000  0.361810  0.679124  1
