# generated using pymatgen
data_TlBi7(Os2O11)2
_symmetry_space_group_name_H-M   'P 1'
_cell_length_a   6.61152513
_cell_length_b   7.57427501
_cell_length_c   9.87456800
_cell_angle_alpha   101.10321981
_cell_angle_beta   92.05983414
_cell_angle_gamma   90.09849666
_symmetry_Int_Tables_number   1
_chemical_formula_structural   TlBi7(Os2O11)2
_chemical_formula_sum   'Tl1 Bi7 Os4 O22'
_cell_volume   484.90539271
_cell_formula_units_Z   1
loop_
 _symmetry_equiv_pos_site_id
 _symmetry_equiv_pos_as_xyz
  1  'x, y, z'
loop_
 _atom_site_type_symbol
 _atom_site_label
 _atom_site_symmetry_multiplicity
 _atom_site_fract_x
 _atom_site_fract_y
 _atom_site_fract_z
 _atom_site_occupancy
  Tl  Tl0  1  0.750271  0.371362  0.485682  1
  Bi  Bi1  1  0.251728  0.631512  0.522072  1
  Bi  Bi2  1  0.745708  0.873166  0.478255  1
  Bi  Bi3  1  0.246264  0.129980  0.519105  1
  Bi  Bi4  1  0.477409  0.956615  0.824754  1
  Bi  Bi5  1  0.528899  0.043666  0.176875  1
  Bi  Bi6  1  0.400782  0.457640  0.830890  1
  Bi  Bi7  1  0.587928  0.540994  0.172937  1
  Os  Os8  1  0.934495  0.704512  0.810778  1
  Os  Os9  1  0.064939  0.297242  0.190263  1
  Os  Os10  1  0.933651  0.204857  0.812498  1
  Os  Os11  1  0.066555  0.793058  0.186685  1
  O  O12  1  0.231735  0.726892  0.772562  1
  O  O13  1  0.775184  0.275772  0.230271  1
  O  O14  1  0.639968  0.675761  0.829464  1
  O  O15  1  0.362907  0.316193  0.157172  1
  O  O16  1  0.641835  0.244116  0.839886  1
  O  O17  1  0.359863  0.756733  0.151258  1
  O  O18  1  0.894836  0.163101  0.616058  1
  O  O19  1  0.109974  0.831518  0.387683  1
  O  O20  1  0.228644  0.160427  0.769746  1
  O  O21  1  0.774302  0.838113  0.233558  1
  O  O22  1  0.907490  0.648397  0.611786  1
  O  O23  1  0.115162  0.359510  0.387645  1
  O  O24  1  0.023386  0.543890  0.182311  1
  O  O25  1  0.001925  0.455148  0.814645  1
  O  O26  1  0.994852  0.765711  0.999326  1
  O  O27  1  0.999631  0.233370  0.999385  1
  O  O28  1  0.559727  0.614794  0.392457  1
  O  O29  1  0.416215  0.395865  0.609412  1
  O  O30  1  0.136576  0.050337  0.206250  1
  O  O31  1  0.847134  0.950652  0.798809  1
  O  O32  1  0.532839  0.082426  0.395800  1
  O  O33  1  0.457184  0.906668  0.603722  1
