# generated using pymatgen
data_Er10Cd7HgPd4
_symmetry_space_group_name_H-M   'P 1'
_cell_length_a   3.62611000
_cell_length_b   7.91393368
_cell_length_c   18.19149293
_cell_angle_alpha   90.01464689
_cell_angle_beta   90.00000000
_cell_angle_gamma   90.00000000
_symmetry_Int_Tables_number   1
_chemical_formula_structural   Er10Cd7HgPd4
_chemical_formula_sum   'Er10 Cd7 Hg1 Pd4'
_cell_volume   522.03750944
_cell_formula_units_Z   1
loop_
 _symmetry_equiv_pos_site_id
 _symmetry_equiv_pos_as_xyz
  1  'x, y, z'
loop_
 _atom_site_type_symbol
 _atom_site_label
 _atom_site_symmetry_multiplicity
 _atom_site_fract_x
 _atom_site_fract_y
 _atom_site_fract_z
 _atom_site_occupancy
  Er  Er0  1  0.000000  0.499621  0.500133  1
  Er  Er1  1  0.000000  0.997092  0.997787  1
  Er  Er2  1  0.000000  0.741020  0.281248  1
  Er  Er3  1  0.000000  0.258293  0.717699  1
  Er  Er4  1  0.000000  0.760412  0.784502  1
  Er  Er5  1  0.000000  0.240994  0.218259  1
  Er  Er6  1  0.000000  0.614333  0.083813  1
  Er  Er7  1  0.000000  0.389914  0.915952  1
  Er  Er8  1  0.000000  0.883769  0.584772  1
  Er  Er9  1  0.000000  0.114577  0.415901  1
  Cd  Cd10  1  0.500000  0.284207  0.066565  1
  Cd  Cd11  1  0.500000  0.786546  0.433084  1
  Cd  Cd12  1  0.500000  0.211669  0.566713  1
  Cd  Cd13  1  0.500000  0.575725  0.648662  1
  Cd  Cd14  1  0.500000  0.425018  0.351925  1
  Cd  Cd15  1  0.500000  0.925713  0.147469  1
  Cd  Cd16  1  0.500000  0.081206  0.851407  1
  Hg  Hg17  1  0.500000  0.713814  0.935039  1
  Pd  Pd18  1  0.500000  0.525516  0.194952  1
  Pd  Pd19  1  0.500000  0.472522  0.803494  1
  Pd  Pd20  1  0.500000  0.972419  0.696250  1
  Pd  Pd21  1  0.500000  0.025624  0.304372  1
