# generated using pymatgen
data_V2FeCoP2
_symmetry_space_group_name_H-M   'P 1'
_cell_length_a   3.49388900
_cell_length_b   5.88285700
_cell_length_c   6.69802400
_cell_angle_alpha   90.00000000
_cell_angle_beta   90.00000000
_cell_angle_gamma   90.00000000
_symmetry_Int_Tables_number   1
_chemical_formula_structural   V2FeCoP2
_chemical_formula_sum   'V4 Fe2 Co2 P4'
_cell_volume   137.67151592
_cell_formula_units_Z   2
loop_
 _symmetry_equiv_pos_site_id
 _symmetry_equiv_pos_as_xyz
  1  'x, y, z'
loop_
 _atom_site_type_symbol
 _atom_site_label
 _atom_site_symmetry_multiplicity
 _atom_site_fract_x
 _atom_site_fract_y
 _atom_site_fract_z
 _atom_site_occupancy
  V  V0  1  0.750000  0.473717  0.671315  1
  V  V1  1  0.750000  0.973717  0.828685  1
  V  V2  1  0.250000  0.528291  0.328358  1
  V  V3  1  0.250000  0.028291  0.171642  1
  Fe  Fe4  1  0.250000  0.640043  0.940532  1
  Fe  Fe5  1  0.250000  0.140043  0.559468  1
  Co  Co6  1  0.750000  0.356394  0.062910  1
  Co  Co7  1  0.750000  0.856394  0.437090  1
  P  P8  1  0.750000  0.733643  0.122756  1
  P  P9  1  0.750000  0.233643  0.377244  1
  P  P10  1  0.250000  0.267911  0.873955  1
  P  P11  1  0.250000  0.767911  0.626045  1
