# generated using pymatgen
data_TbTmZnCo2
_symmetry_space_group_name_H-M   'P 1'
_cell_length_a   5.30899669
_cell_length_b   5.30899735
_cell_length_c   5.30899722
_cell_angle_alpha   135.03416442
_cell_angle_beta   118.27402393
_cell_angle_gamma   79.55932880
_symmetry_Int_Tables_number   1
_chemical_formula_structural   TbTmZnCo2
_chemical_formula_sum   'Tb1 Tm1 Zn1 Co2'
_cell_volume   90.23614182
_cell_formula_units_Z   1
loop_
 _symmetry_equiv_pos_site_id
 _symmetry_equiv_pos_as_xyz
  1  'x, y, z'
loop_
 _atom_site_type_symbol
 _atom_site_label
 _atom_site_symmetry_multiplicity
 _atom_site_fract_x
 _atom_site_fract_y
 _atom_site_fract_z
 _atom_site_occupancy
  Tb  Tb0  1  0.289874  0.789875  0.500000  1
  Tm  Tm1  1  0.708987  0.208987  0.500000  1
  Zn  Zn2  1  0.999107  0.999107  0.000000  1
  Co  Co3  1  0.710288  0.501016  0.209272  1
  Co  Co4  1  0.291745  0.501017  0.790728  1
