# generated using pymatgen
data_Er5Al2SiC4
_symmetry_space_group_name_H-M   'P 1'
_cell_length_a   10.65448500
_cell_length_b   10.65448500
_cell_length_c   3.49253300
_cell_angle_alpha   90.00000000
_cell_angle_beta   90.00000000
_cell_angle_gamma   90.00000000
_symmetry_Int_Tables_number   1
_chemical_formula_structural   Er5Al2SiC4
_chemical_formula_sum   'Er10 Al4 Si2 C8'
_cell_volume   396.46553787
_cell_formula_units_Z   2
loop_
 _symmetry_equiv_pos_site_id
 _symmetry_equiv_pos_as_xyz
  1  'x, y, z'
loop_
 _atom_site_type_symbol
 _atom_site_label
 _atom_site_symmetry_multiplicity
 _atom_site_fract_x
 _atom_site_fract_y
 _atom_site_fract_z
 _atom_site_occupancy
  Er  Er0  1  0.550944  0.725014  0.500000  1
  Er  Er1  1  0.449056  0.274986  0.500000  1
  Er  Er2  1  0.050944  0.774986  0.500000  1
  Er  Er3  1  0.949056  0.225014  0.500000  1
  Er  Er4  1  0.274986  0.550944  0.500000  1
  Er  Er5  1  0.725014  0.449056  0.500000  1
  Er  Er6  1  0.225014  0.050944  0.500000  1
  Er  Er7  1  0.774986  0.949056  0.500000  1
  Er  Er8  1  0.500000  0.000000  0.000000  1
  Er  Er9  1  0.000000  0.500000  0.000000  1
  Al  Al10  1  0.703676  0.203676  0.000000  1
  Al  Al11  1  0.296324  0.796324  0.000000  1
  Al  Al12  1  0.203676  0.296324  0.000000  1
  Al  Al13  1  0.796324  0.703676  0.000000  1
  Si  Si14  1  0.500000  0.500000  0.000000  1
  Si  Si15  1  0.000000  0.000000  0.000000  1
  C  C16  1  0.633064  0.133064  0.500000  1
  C  C17  1  0.366936  0.866936  0.500000  1
  C  C18  1  0.133064  0.366936  0.500000  1
  C  C19  1  0.866936  0.633064  0.500000  1
  C  C20  1  0.162549  0.662549  0.000000  1
  C  C21  1  0.837451  0.337451  0.000000  1
  C  C22  1  0.662549  0.837451  0.000000  1
  C  C23  1  0.337451  0.162549  0.000000  1
