# generated using pymatgen
data_Cs3Na2ZrP3
_symmetry_space_group_name_H-M   'P 1'
_cell_length_a   10.92423307
_cell_length_b   10.92423295
_cell_length_c   16.61881800
_cell_angle_alpha   90.00000000
_cell_angle_beta   90.00000000
_cell_angle_gamma   142.81190048
_symmetry_Int_Tables_number   1
_chemical_formula_structural   Cs3Na2ZrP3
_chemical_formula_sum   'Cs12 Na8 Zr4 P12'
_cell_volume   1198.75569540
_cell_formula_units_Z   4
loop_
 _symmetry_equiv_pos_site_id
 _symmetry_equiv_pos_as_xyz
  1  'x, y, z'
loop_
 _atom_site_type_symbol
 _atom_site_label
 _atom_site_symmetry_multiplicity
 _atom_site_fract_x
 _atom_site_fract_y
 _atom_site_fract_z
 _atom_site_occupancy
  Cs  Cs0  1  0.945863  0.608100  0.825014  1
  Cs  Cs1  1  0.554137  0.891900  0.325014  1
  Cs  Cs2  1  0.391900  0.054137  0.174986  1
  Cs  Cs3  1  0.054137  0.391900  0.174986  1
  Cs  Cs4  1  0.891900  0.554137  0.325014  1
  Cs  Cs5  1  0.445863  0.108100  0.674986  1
  Cs  Cs6  1  0.608100  0.945863  0.825014  1
  Cs  Cs7  1  0.275790  0.275790  0.317365  1
  Cs  Cs8  1  0.775790  0.775790  0.182635  1
  Cs  Cs9  1  0.224210  0.224210  0.817365  1
  Cs  Cs10  1  0.724210  0.724210  0.682635  1
  Cs  Cs11  1  0.108100  0.445863  0.674986  1
  Na  Na12  1  0.919678  0.080322  0.000000  1
  Na  Na13  1  0.580322  0.419678  0.500000  1
  Na  Na14  1  0.080322  0.919678  0.000000  1
  Na  Na15  1  0.419678  0.580322  0.500000  1
  Na  Na16  1  0.754722  0.245278  0.000000  1
  Na  Na17  1  0.745278  0.254722  0.500000  1
  Na  Na18  1  0.245278  0.754722  0.000000  1
  Na  Na19  1  0.254722  0.745278  0.500000  1
  Zr  Zr20  1  0.585970  0.414030  0.000000  1
  Zr  Zr21  1  0.914030  0.085970  0.500000  1
  Zr  Zr22  1  0.414030  0.585970  0.000000  1
  Zr  Zr23  1  0.085970  0.914030  0.500000  1
  P  P24  1  0.869623  0.558475  0.089097  1
  P  P25  1  0.441525  0.130377  0.910903  1
  P  P26  1  0.630377  0.941525  0.589097  1
  P  P27  1  0.941525  0.630377  0.589097  1
  P  P28  1  0.130377  0.441525  0.910903  1
  P  P29  1  0.558475  0.869623  0.089097  1
  P  P30  1  0.369623  0.058475  0.410903  1
  P  P31  1  0.197500  0.197500  0.580536  1
  P  P32  1  0.697500  0.697500  0.919464  1
  P  P33  1  0.302500  0.302500  0.080536  1
  P  P34  1  0.058475  0.369623  0.410903  1
  P  P35  1  0.802500  0.802500  0.419464  1
