# generated using pymatgen
data_Sc22FeIr5Os2
_symmetry_space_group_name_H-M   'P 1'
_cell_length_a   9.44440765
_cell_length_b   9.45476516
_cell_length_c   9.44440790
_cell_angle_alpha   59.96371701
_cell_angle_beta   59.97983675
_cell_angle_gamma   59.96371944
_symmetry_Int_Tables_number   1
_chemical_formula_structural   Sc22FeIr5Os2
_chemical_formula_sum   'Sc22 Fe1 Ir5 Os2'
_cell_volume   595.91000053
_cell_formula_units_Z   1
loop_
 _symmetry_equiv_pos_site_id
 _symmetry_equiv_pos_as_xyz
  1  'x, y, z'
loop_
 _atom_site_type_symbol
 _atom_site_label
 _atom_site_symmetry_multiplicity
 _atom_site_fract_x
 _atom_site_fract_y
 _atom_site_fract_z
 _atom_site_occupancy
  Sc  Sc0  1  0.802728  0.801840  0.197272  1
  Sc  Sc1  1  0.197553  0.802447  0.197553  1
  Sc  Sc2  1  0.802728  0.198160  0.197272  1
  Sc  Sc3  1  0.197272  0.198160  0.802728  1
  Sc  Sc4  1  0.802447  0.197553  0.802447  1
  Sc  Sc5  1  0.197272  0.801840  0.802728  1
  Sc  Sc6  1  0.616111  0.614271  0.155347  1
  Sc  Sc7  1  0.614788  0.155576  0.614788  1
  Sc  Sc8  1  0.155347  0.614271  0.616111  1
  Sc  Sc9  1  0.614788  0.614849  0.614788  1
  Sc  Sc10  1  0.383889  0.385729  0.844653  1
  Sc  Sc11  1  0.385212  0.844424  0.385212  1
  Sc  Sc12  1  0.844653  0.385729  0.383889  1
  Sc  Sc13  1  0.385212  0.385151  0.385212  1
  Sc  Sc14  1  0.842615  0.842951  0.471483  1
  Sc  Sc15  1  0.843225  0.471205  0.843225  1
  Sc  Sc16  1  0.471483  0.842951  0.842615  1
  Sc  Sc17  1  0.843225  0.842344  0.843225  1
  Sc  Sc18  1  0.157385  0.157049  0.528517  1
  Sc  Sc19  1  0.156775  0.528795  0.156775  1
  Sc  Sc20  1  0.528517  0.157049  0.157385  1
  Sc  Sc21  1  0.156775  0.157656  0.156775  1
  Fe  Fe22  1  0.500000  0.500000  0.500000  1
  Ir  Ir23  1  0.000000  0.000000  0.500000  1
  Ir  Ir24  1  0.500000  0.000000  0.500000  1
  Ir  Ir25  1  0.000000  0.500000  0.500000  1
  Ir  Ir26  1  0.500000  0.500000  0.000000  1
  Ir  Ir27  1  0.500000  0.000000  0.000000  1
  Os  Os28  1  0.000000  0.000000  0.000000  1
  Os  Os29  1  0.000000  0.500000  0.000000  1
