# generated using pymatgen
data_Er5In4IrPd
_symmetry_space_group_name_H-M   'P 1'
_cell_length_a   3.59484500
_cell_length_b   8.10619631
_cell_length_c   18.17502302
_cell_angle_alpha   90.06568703
_cell_angle_beta   90.00000000
_cell_angle_gamma   90.00000000
_symmetry_Int_Tables_number   1
_chemical_formula_structural   Er5In4IrPd
_chemical_formula_sum   'Er10 In8 Ir2 Pd2'
_cell_volume   529.62926100
_cell_formula_units_Z   2
loop_
 _symmetry_equiv_pos_site_id
 _symmetry_equiv_pos_as_xyz
  1  'x, y, z'
loop_
 _atom_site_type_symbol
 _atom_site_label
 _atom_site_symmetry_multiplicity
 _atom_site_fract_x
 _atom_site_fract_y
 _atom_site_fract_z
 _atom_site_occupancy
  Er  Er0  1  0.000000  0.500000  0.500000  1
  Er  Er1  1  0.000000  0.000000  0.000000  1
  Er  Er2  1  0.000000  0.728364  0.277433  1
  Er  Er3  1  0.000000  0.271636  0.722567  1
  Er  Er4  1  0.000000  0.747382  0.779948  1
  Er  Er5  1  0.000000  0.252618  0.220052  1
  Er  Er6  1  0.000000  0.613105  0.086937  1
  Er  Er7  1  0.000000  0.386895  0.913063  1
  Er  Er8  1  0.000000  0.885012  0.584345  1
  Er  Er9  1  0.000000  0.114988  0.415655  1
  In  In10  1  0.500000  0.710189  0.932175  1
  In  In11  1  0.500000  0.289811  0.067825  1
  In  In12  1  0.500000  0.790168  0.432070  1
  In  In13  1  0.500000  0.209832  0.567930  1
  In  In14  1  0.500000  0.579439  0.648146  1
  In  In15  1  0.500000  0.420561  0.351854  1
  In  In16  1  0.500000  0.921541  0.149596  1
  In  In17  1  0.500000  0.078459  0.850404  1
  Ir  Ir18  1  0.500000  0.519683  0.195790  1
  Ir  Ir19  1  0.500000  0.480317  0.804210  1
  Pd  Pd20  1  0.500000  0.980028  0.696029  1
  Pd  Pd21  1  0.500000  0.019972  0.303971  1
