# generated using pymatgen
data_TbDy(LuBi)3
_symmetry_space_group_name_H-M   'P 1'
_cell_length_a   8.17662700
_cell_length_b   9.39473600
_cell_length_c   11.95157500
_cell_angle_alpha   90.00000000
_cell_angle_beta   90.00000000
_cell_angle_gamma   90.00000000
_symmetry_Int_Tables_number   1
_chemical_formula_structural   TbDy(LuBi)3
_chemical_formula_sum   'Tb4 Dy4 Lu12 Bi12'
_cell_volume   918.08714900
_cell_formula_units_Z   4
loop_
 _symmetry_equiv_pos_site_id
 _symmetry_equiv_pos_as_xyz
  1  'x, y, z'
loop_
 _atom_site_type_symbol
 _atom_site_label
 _atom_site_symmetry_multiplicity
 _atom_site_fract_x
 _atom_site_fract_y
 _atom_site_fract_z
 _atom_site_occupancy
  Tb  Tb0  1  0.313718  0.250000  0.218126  1
  Tb  Tb1  1  0.813718  0.250000  0.281874  1
  Tb  Tb2  1  0.686282  0.750000  0.781874  1
  Tb  Tb3  1  0.186282  0.750000  0.718126  1
  Dy  Dy4  1  0.352227  0.750000  0.217343  1
  Dy  Dy5  1  0.852227  0.750000  0.282657  1
  Dy  Dy6  1  0.647773  0.250000  0.782657  1
  Dy  Dy7  1  0.147773  0.250000  0.717343  1
  Lu  Lu8  1  0.692064  0.566624  0.058899  1
  Lu  Lu9  1  0.192064  0.933376  0.441101  1
  Lu  Lu10  1  0.307936  0.066624  0.941101  1
  Lu  Lu11  1  0.807936  0.433376  0.558899  1
  Lu  Lu12  1  0.307936  0.433376  0.941101  1
  Lu  Lu13  1  0.807936  0.066624  0.558899  1
  Lu  Lu14  1  0.692064  0.933376  0.058899  1
  Lu  Lu15  1  0.192064  0.566624  0.441101  1
  Lu  Lu16  1  0.477233  0.250000  0.488759  1
  Lu  Lu17  1  0.977233  0.250000  0.011241  1
  Lu  Lu18  1  0.522767  0.750000  0.511241  1
  Lu  Lu19  1  0.022767  0.750000  0.988759  1
  Bi  Bi20  1  0.403496  0.750000  0.958108  1
  Bi  Bi21  1  0.903496  0.750000  0.541892  1
  Bi  Bi22  1  0.596504  0.250000  0.041892  1
  Bi  Bi23  1  0.096504  0.250000  0.458108  1
  Bi  Bi24  1  0.565499  0.995381  0.327644  1
  Bi  Bi25  1  0.065499  0.504619  0.172356  1
  Bi  Bi26  1  0.434501  0.495381  0.672356  1
  Bi  Bi27  1  0.934501  0.004619  0.827644  1
  Bi  Bi28  1  0.434501  0.004619  0.672356  1
  Bi  Bi29  1  0.934501  0.495381  0.827644  1
  Bi  Bi30  1  0.565499  0.504619  0.327644  1
  Bi  Bi31  1  0.065499  0.995381  0.172356  1
