# generated using pymatgen
data_La17Yb3(Ga2Sn)4
_symmetry_space_group_name_H-M   'P 1'
_cell_length_a   8.08959800
_cell_length_b   8.08959800
_cell_length_c   14.62507800
_cell_angle_alpha   90.00000000
_cell_angle_beta   90.00000000
_cell_angle_gamma   90.00000000
_symmetry_Int_Tables_number   1
_chemical_formula_structural   La17Yb3(Ga2Sn)4
_chemical_formula_sum   'La17 Yb3 Ga8 Sn4'
_cell_volume   957.08844304
_cell_formula_units_Z   1
loop_
 _symmetry_equiv_pos_site_id
 _symmetry_equiv_pos_as_xyz
  1  'x, y, z'
loop_
 _atom_site_type_symbol
 _atom_site_label
 _atom_site_symmetry_multiplicity
 _atom_site_fract_x
 _atom_site_fract_y
 _atom_site_fract_z
 _atom_site_occupancy
  La  La0  1  0.822906  0.833969  0.603301  1
  La  La1  1  0.171586  0.834051  0.105147  1
  La  La2  1  0.165998  0.825365  0.394859  1
  La  La3  1  0.834002  0.174635  0.394859  1
  La  La4  1  0.674635  0.665998  0.394859  1
  La  La5  1  0.666031  0.322906  0.603301  1
  La  La6  1  0.333969  0.677094  0.603301  1
  La  La7  1  0.665949  0.671586  0.105147  1
  La  La8  1  0.675102  0.336675  0.894838  1
  La  La9  1  0.836675  0.824898  0.894838  1
  La  La10  1  0.325365  0.334002  0.394859  1
  La  La11  1  0.177094  0.166031  0.603301  1
  La  La12  1  0.828414  0.165949  0.105147  1
  La  La13  1  0.324898  0.663325  0.894838  1
  La  La14  1  0.334051  0.328414  0.105147  1
  La  La15  1  0.163325  0.175102  0.894838  1
  La  La16  1  0.500000  0.000000  0.779032  1
  Yb  Yb17  1  0.000000  0.500000  0.736472  1
  Yb  Yb18  1  0.000000  0.500000  0.241670  1
  Yb  Yb19  1  0.500000  0.000000  0.257352  1
  Ga  Ga20  1  0.619848  0.380089  0.250198  1
  Ga  Ga21  1  0.119892  0.879742  0.747251  1
  Ga  Ga22  1  0.379742  0.380108  0.747251  1
  Ga  Ga23  1  0.380152  0.619911  0.250198  1
  Ga  Ga24  1  0.880089  0.880152  0.250198  1
  Ga  Ga25  1  0.620258  0.619892  0.747251  1
  Ga  Ga26  1  0.880108  0.120258  0.747251  1
  Ga  Ga27  1  0.119911  0.119848  0.250198  1
  Sn  Sn28  1  0.000000  0.500000  0.503620  1
  Sn  Sn29  1  0.500000  0.000000  0.492675  1
  Sn  Sn30  1  0.500000  0.000000  0.002309  1
  Sn  Sn31  1  0.000000  0.500000  0.004497  1
