# generated using pymatgen
data_SmEuZn2Ni5
_symmetry_space_group_name_H-M   'P 1'
_cell_length_a   5.18202088
_cell_length_b   5.18201983
_cell_length_c   12.35893669
_cell_angle_alpha   77.89834932
_cell_angle_beta   77.89835185
_cell_angle_gamma   59.99999413
_symmetry_Int_Tables_number   1
_chemical_formula_structural   SmEuZn2Ni5
_chemical_formula_sum   'Sm2 Eu2 Zn4 Ni10'
_cell_volume   278.86660165
_cell_formula_units_Z   2
loop_
 _symmetry_equiv_pos_site_id
 _symmetry_equiv_pos_as_xyz
  1  'x, y, z'
loop_
 _atom_site_type_symbol
 _atom_site_label
 _atom_site_symmetry_multiplicity
 _atom_site_fract_x
 _atom_site_fract_y
 _atom_site_fract_z
 _atom_site_occupancy
  Sm  Sm0  1  0.853144  0.853144  0.440570  1
  Sm  Sm1  1  0.146856  0.146856  0.559430  1
  Eu  Eu2  1  0.950682  0.950682  0.147954  1
  Eu  Eu3  1  0.049318  0.049318  0.852046  1
  Zn  Zn4  1  0.722713  0.722713  0.831863  1
  Zn  Zn5  1  0.277287  0.277287  0.168137  1
  Zn  Zn6  1  0.610930  0.610930  0.167210  1
  Zn  Zn7  1  0.389070  0.389070  0.832790  1
  Ni  Ni8  1  0.500000  0.500000  0.500000  1
  Ni  Ni9  1  0.000000  0.500000  0.000000  1
  Ni  Ni10  1  0.500000  0.000000  0.000000  1
  Ni  Ni11  1  0.500000  0.500000  0.000000  1
  Ni  Ni12  1  0.388901  0.388901  0.334162  1
  Ni  Ni13  1  0.888036  0.388901  0.334162  1
  Ni  Ni14  1  0.388901  0.888036  0.334162  1
  Ni  Ni15  1  0.611099  0.611099  0.665838  1
  Ni  Ni16  1  0.111964  0.611099  0.665838  1
  Ni  Ni17  1  0.611099  0.111964  0.665838  1
