# generated using pymatgen
data_Dy6Er3Tm7(CdIr)4
_symmetry_space_group_name_H-M   'P 1'
_cell_length_a   9.55749488
_cell_length_b   9.55548997
_cell_length_c   9.55549000
_cell_angle_alpha   59.99999988
_cell_angle_beta   60.00693891
_cell_angle_gamma   60.00693844
_symmetry_Int_Tables_number   1
_chemical_formula_structural   Dy6Er3Tm7(CdIr)4
_chemical_formula_sum   'Dy6 Er3 Tm7 Cd4 Ir4'
_cell_volume   617.13551346
_cell_formula_units_Z   1
loop_
 _symmetry_equiv_pos_site_id
 _symmetry_equiv_pos_as_xyz
  1  'x, y, z'
loop_
 _atom_site_type_symbol
 _atom_site_label
 _atom_site_symmetry_multiplicity
 _atom_site_fract_x
 _atom_site_fract_y
 _atom_site_fract_z
 _atom_site_occupancy
  Dy  Dy0  1  0.188082  0.811890  0.811890  1
  Dy  Dy1  1  0.812200  0.187922  0.187922  1
  Dy  Dy2  1  0.812200  0.187922  0.811956  1
  Dy  Dy3  1  0.188082  0.811890  0.188137  1
  Dy  Dy4  1  0.812200  0.811956  0.187922  1
  Dy  Dy5  1  0.188082  0.188137  0.811890  1
  Er  Er6  1  0.599420  0.599493  0.599493  1
  Er  Er7  1  0.599420  0.599493  0.201596  1
  Er  Er8  1  0.599420  0.201596  0.599493  1
  Tm  Tm9  1  0.202148  0.599284  0.599284  1
  Tm  Tm10  1  0.062021  0.437983  0.437983  1
  Tm  Tm11  1  0.437666  0.062185  0.062185  1
  Tm  Tm12  1  0.437666  0.062185  0.437964  1
  Tm  Tm13  1  0.062021  0.437983  0.062013  1
  Tm  Tm14  1  0.437666  0.437964  0.062185  1
  Tm  Tm15  1  0.062021  0.062013  0.437983  1
  Cd  Cd16  1  0.830408  0.830304  0.830304  1
  Cd  Cd17  1  0.830408  0.830304  0.508985  1
  Cd  Cd18  1  0.830408  0.508985  0.830304  1
  Cd  Cd19  1  0.508956  0.830348  0.830348  1
  Ir  Ir20  1  0.391492  0.391731  0.391731  1
  Ir  Ir21  1  0.391492  0.391731  0.825048  1
  Ir  Ir22  1  0.391492  0.825048  0.391731  1
  Ir  Ir23  1  0.825032  0.391656  0.391656  1
