# generated using pymatgen
data_Ce3Nd(WN3)4
_symmetry_space_group_name_H-M   'P 1'
_cell_length_a   5.55441093
_cell_length_b   5.65427972
_cell_length_c   7.91771500
_cell_angle_alpha   90.00000000
_cell_angle_beta   90.00000000
_cell_angle_gamma   89.77301885
_symmetry_Int_Tables_number   1
_chemical_formula_structural   Ce3Nd(WN3)4
_chemical_formula_sum   'Ce3 Nd1 W4 N12'
_cell_volume   248.66333493
_cell_formula_units_Z   1
loop_
 _symmetry_equiv_pos_site_id
 _symmetry_equiv_pos_as_xyz
  1  'x, y, z'
loop_
 _atom_site_type_symbol
 _atom_site_label
 _atom_site_symmetry_multiplicity
 _atom_site_fract_x
 _atom_site_fract_y
 _atom_site_fract_z
 _atom_site_occupancy
  Ce  Ce0  1  0.492998  0.450169  0.250000  1
  Ce  Ce1  1  0.006597  0.951884  0.250000  1
  Ce  Ce2  1  0.498547  0.550514  0.750000  1
  Nd  Nd3  1  0.995625  0.045738  0.750000  1
  W  W4  1  0.502869  0.001048  0.499974  1
  W  W5  1  0.997449  0.501057  0.000500  1
  W  W6  1  0.997449  0.501057  0.499500  1
  W  W7  1  0.502869  0.001048  0.000026  1
  N  N8  1  0.700474  0.298324  0.538495  1
  N  N9  1  0.299163  0.701144  0.039905  1
  N  N10  1  0.202045  0.202130  0.043368  1
  N  N11  1  0.432037  0.983487  0.750000  1
  N  N12  1  0.923058  0.517498  0.250000  1
  N  N13  1  0.299163  0.701144  0.460095  1
  N  N14  1  0.795435  0.793366  0.965545  1
  N  N15  1  0.700474  0.298324  0.961505  1
  N  N16  1  0.795435  0.793366  0.534455  1
  N  N17  1  0.076887  0.486590  0.750000  1
  N  N18  1  0.202045  0.202130  0.456632  1
  N  N19  1  0.579378  0.019978  0.250000  1
