# generated using pymatgen
data_Er12Tc2NiRh
_symmetry_space_group_name_H-M   'P 1'
_cell_length_a   6.29299806
_cell_length_b   7.20489392
_cell_length_c   9.09778500
_cell_angle_alpha   90.00000000
_cell_angle_beta   90.00000000
_cell_angle_gamma   90.27002229
_symmetry_Int_Tables_number   1
_chemical_formula_structural   Er12Tc2NiRh
_chemical_formula_sum   'Er12 Tc2 Ni1 Rh1'
_cell_volume   412.49247951
_cell_formula_units_Z   1
loop_
 _symmetry_equiv_pos_site_id
 _symmetry_equiv_pos_as_xyz
  1  'x, y, z'
loop_
 _atom_site_type_symbol
 _atom_site_label
 _atom_site_symmetry_multiplicity
 _atom_site_fract_x
 _atom_site_fract_y
 _atom_site_fract_z
 _atom_site_occupancy
  Er  Er0  1  0.327806  0.678709  0.065472  1
  Er  Er1  1  0.166437  0.179629  0.439909  1
  Er  Er2  1  0.668093  0.322719  0.562538  1
  Er  Er3  1  0.828022  0.820303  0.935235  1
  Er  Er4  1  0.668093  0.322719  0.937462  1
  Er  Er5  1  0.828022  0.820303  0.564765  1
  Er  Er6  1  0.327806  0.678709  0.434528  1
  Er  Er7  1  0.166437  0.179629  0.060091  1
  Er  Er8  1  0.870620  0.537009  0.250000  1
  Er  Er9  1  0.628864  0.039722  0.250000  1
  Er  Er10  1  0.137589  0.462684  0.750000  1
  Er  Er11  1  0.374889  0.957400  0.750000  1
  Tc  Tc12  1  0.461028  0.389140  0.250000  1
  Tc  Tc13  1  0.964400  0.110096  0.750000  1
  Ni  Ni14  1  0.544218  0.615217  0.750000  1
  Rh  Rh15  1  0.037678  0.886012  0.250000  1
