# generated using pymatgen
data_Na7Pa4InBr24
_symmetry_space_group_name_H-M   'P 1'
_cell_length_a   7.45690600
_cell_length_b   7.45690721
_cell_length_c   27.88781500
_cell_angle_alpha   90.00000000
_cell_angle_beta   90.00000000
_cell_angle_gamma   119.99998578
_symmetry_Int_Tables_number   1
_chemical_formula_structural   Na7Pa4InBr24
_chemical_formula_sum   'Na7 Pa4 In1 Br24'
_cell_volume   1342.95849280
_cell_formula_units_Z   1
loop_
 _symmetry_equiv_pos_site_id
 _symmetry_equiv_pos_as_xyz
  1  'x, y, z'
loop_
 _atom_site_type_symbol
 _atom_site_label
 _atom_site_symmetry_multiplicity
 _atom_site_fract_x
 _atom_site_fract_y
 _atom_site_fract_z
 _atom_site_occupancy
  Na  Na0  1  0.000000  0.000000  0.249305  1
  Na  Na1  1  0.000000  0.000000  0.750085  1
  Na  Na2  1  0.333333  0.666667  0.000477  1
  Na  Na3  1  0.333333  0.666667  0.499347  1
  Na  Na4  1  0.333333  0.666667  0.249294  1
  Na  Na5  1  0.666667  0.333333  0.749960  1
  Na  Na6  1  0.666667  0.333333  0.998999  1
  Pa  Pa7  1  0.000000  0.000000  0.999749  1
  Pa  Pa8  1  0.000000  0.000000  0.500151  1
  Pa  Pa9  1  0.333333  0.666667  0.748738  1
  Pa  Pa10  1  0.666667  0.333333  0.252584  1
  In  In11  1  0.666667  0.333333  0.500075  1
  Br  Br12  1  0.351301  0.016997  0.308233  1
  Br  Br13  1  0.334722  0.978310  0.806499  1
  Br  Br14  1  0.997761  0.311167  0.056939  1
  Br  Br15  1  0.024800  0.313206  0.560747  1
  Br  Br16  1  0.983003  0.334304  0.308233  1
  Br  Br17  1  0.021690  0.356412  0.806499  1
  Br  Br18  1  0.358192  0.334087  0.193956  1
  Br  Br19  1  0.334404  0.353355  0.692219  1
  Br  Br20  1  0.290256  0.311742  0.439277  1
  Br  Br21  1  0.311116  0.313341  0.942540  1
  Br  Br22  1  0.688258  0.978513  0.439277  1
  Br  Br23  1  0.313405  0.002239  0.056939  1
  Br  Br24  1  0.288406  0.975200  0.560747  1
  Br  Br25  1  0.688833  0.686595  0.056939  1
  Br  Br26  1  0.686794  0.711594  0.560747  1
  Br  Br27  1  0.665696  0.648699  0.308233  1
  Br  Br28  1  0.643588  0.665278  0.806499  1
  Br  Br29  1  0.975894  0.641808  0.193956  1
  Br  Br30  1  0.018951  0.665596  0.692219  1
  Br  Br31  1  0.021487  0.709744  0.439277  1
  Br  Br32  1  0.002225  0.688884  0.942540  1
  Br  Br33  1  0.686659  0.997775  0.942540  1
  Br  Br34  1  0.665913  0.024106  0.193956  1
  Br  Br35  1  0.646645  0.981049  0.692219  1
