# generated using pymatgen
data_Dy3Cr(Co4P3)2
_symmetry_space_group_name_H-M   'P 1'
_cell_length_a   3.69050100
_cell_length_b   10.54019800
_cell_length_c   12.18189400
_cell_angle_alpha   90.00000000
_cell_angle_beta   90.00000000
_cell_angle_gamma   90.00000000
_symmetry_Int_Tables_number   1
_chemical_formula_structural   Dy3Cr(Co4P3)2
_chemical_formula_sum   'Dy6 Cr2 Co16 P12'
_cell_volume   473.85875911
_cell_formula_units_Z   2
loop_
 _symmetry_equiv_pos_site_id
 _symmetry_equiv_pos_as_xyz
  1  'x, y, z'
loop_
 _atom_site_type_symbol
 _atom_site_label
 _atom_site_symmetry_multiplicity
 _atom_site_fract_x
 _atom_site_fract_y
 _atom_site_fract_z
 _atom_site_occupancy
  Dy  Dy0  1  0.000000  0.500000  0.523237  1
  Dy  Dy1  1  0.500000  0.000000  0.476763  1
  Dy  Dy2  1  0.500000  0.817870  0.204738  1
  Dy  Dy3  1  0.500000  0.182130  0.204738  1
  Dy  Dy4  1  0.000000  0.682130  0.795262  1
  Dy  Dy5  1  0.000000  0.317870  0.795262  1
  Cr  Cr6  1  0.500000  0.500000  0.156348  1
  Cr  Cr7  1  0.000000  0.000000  0.843652  1
  Co  Co8  1  0.500000  0.500000  0.702507  1
  Co  Co9  1  0.000000  0.000000  0.297493  1
  Co  Co10  1  0.000000  0.500000  0.987159  1
  Co  Co11  1  0.500000  0.000000  0.012841  1
  Co  Co12  1  0.500000  0.332799  0.992609  1
  Co  Co13  1  0.500000  0.667201  0.992609  1
  Co  Co14  1  0.000000  0.167201  0.007391  1
  Co  Co15  1  0.000000  0.832799  0.007391  1
  Co  Co16  1  0.500000  0.296351  0.430854  1
  Co  Co17  1  0.500000  0.703649  0.430854  1
  Co  Co18  1  0.000000  0.203649  0.569146  1
  Co  Co19  1  0.000000  0.796351  0.569146  1
  Co  Co20  1  0.500000  0.879507  0.708607  1
  Co  Co21  1  0.500000  0.120493  0.708607  1
  Co  Co22  1  0.000000  0.620493  0.291393  1
  Co  Co23  1  0.000000  0.379507  0.291393  1
  P  P24  1  0.500000  0.500000  0.882258  1
  P  P25  1  0.000000  0.000000  0.117742  1
  P  P26  1  0.500000  0.500000  0.344974  1
  P  P27  1  0.000000  0.000000  0.655026  1
  P  P28  1  0.500000  0.311270  0.616006  1
  P  P29  1  0.500000  0.688730  0.616006  1
  P  P30  1  0.000000  0.188730  0.383994  1
  P  P31  1  0.000000  0.811270  0.383994  1
  P  P32  1  0.500000  0.847702  0.892330  1
  P  P33  1  0.500000  0.152298  0.892330  1
  P  P34  1  0.000000  0.652298  0.107670  1
  P  P35  1  0.000000  0.347702  0.107670  1
