# generated using pymatgen
data_Tm3Sc3TcSb2
_symmetry_space_group_name_H-M   'P 1'
_cell_length_a   7.80743600
_cell_length_b   7.80743571
_cell_length_c   4.19420600
_cell_angle_alpha   90.00000000
_cell_angle_beta   90.00000000
_cell_angle_gamma   120.00000971
_symmetry_Int_Tables_number   1
_chemical_formula_structural   Tm3Sc3TcSb2
_chemical_formula_sum   'Tm3 Sc3 Tc1 Sb2'
_cell_volume   221.40998163
_cell_formula_units_Z   1
loop_
 _symmetry_equiv_pos_site_id
 _symmetry_equiv_pos_as_xyz
  1  'x, y, z'
loop_
 _atom_site_type_symbol
 _atom_site_label
 _atom_site_symmetry_multiplicity
 _atom_site_fract_x
 _atom_site_fract_y
 _atom_site_fract_z
 _atom_site_occupancy
  Tm  Tm0  1  0.604286  0.000000  0.500000  1
  Tm  Tm1  1  0.395714  0.395714  0.500000  1
  Tm  Tm2  1  0.000000  0.604286  0.500000  1
  Sc  Sc3  1  0.228773  0.000000  0.000000  1
  Sc  Sc4  1  0.771227  0.771227  0.000000  1
  Sc  Sc5  1  0.000000  0.228773  0.000000  1
  Tc  Tc6  1  0.000000  0.000000  0.500000  1
  Sb  Sb7  1  0.333333  0.666667  0.000000  1
  Sb  Sb8  1  0.666667  0.333333  0.000000  1
