# generated using pymatgen
data_Er2(CO3)3
_symmetry_space_group_name_H-M   'P 1'
_cell_length_a   8.10786734
_cell_length_b   8.30556326
_cell_length_c   8.33865207
_cell_angle_alpha   119.86157804
_cell_angle_beta   90.04173381
_cell_angle_gamma   89.97892927
_symmetry_Int_Tables_number   1
_chemical_formula_structural   Er2(CO3)3
_chemical_formula_sum   'Er4 C6 O18'
_cell_volume   486.97444757
_cell_formula_units_Z   2
loop_
 _symmetry_equiv_pos_site_id
 _symmetry_equiv_pos_as_xyz
  1  'x, y, z'
loop_
 _atom_site_type_symbol
 _atom_site_label
 _atom_site_symmetry_multiplicity
 _atom_site_fract_x
 _atom_site_fract_y
 _atom_site_fract_z
 _atom_site_occupancy
  Er  Er0  1  0.966620  0.665492  0.332475  1
  Er  Er1  1  0.533488  0.667541  0.333627  1
  Er  Er2  1  0.466512  0.332459  0.666373  1
  Er  Er3  1  0.033380  0.334508  0.667525  1
  C  C4  1  0.249308  0.965778  0.373356  1
  C  C5  1  0.250144  0.408638  0.035240  1
  C  C6  1  0.749658  0.371112  0.407532  1
  C  C7  1  0.250342  0.628888  0.592468  1
  C  C8  1  0.749856  0.591362  0.964760  1
  C  C9  1  0.750692  0.034222  0.626644  1
  O  O10  1  0.110929  0.879666  0.321653  1
  O  O11  1  0.388366  0.881045  0.321972  1
  O  O12  1  0.749716  0.662944  0.144642  1
  O  O13  1  0.388681  0.443814  0.120872  1
  O  O14  1  0.111445  0.441083  0.120019  1
  O  O15  1  0.749436  0.479647  0.335256  1
  O  O16  1  0.751090  0.853604  0.517649  1
  O  O17  1  0.111374  0.679480  0.557745  1
  O  O18  1  0.388854  0.680770  0.558543  1
  O  O19  1  0.611146  0.319230  0.441457  1
  O  O20  1  0.888626  0.320520  0.442255  1
  O  O21  1  0.248910  0.146396  0.482351  1
  O  O22  1  0.250564  0.520353  0.664744  1
  O  O23  1  0.888555  0.558917  0.879981  1
  O  O24  1  0.611319  0.556186  0.879128  1
  O  O25  1  0.250284  0.337056  0.855358  1
  O  O26  1  0.611634  0.118955  0.678028  1
  O  O27  1  0.889071  0.120334  0.678347  1
