# generated using pymatgen
data_Nd2U6Nb11Si16Hg
_symmetry_space_group_name_H-M   'P 1'
_cell_length_a   7.11482794
_cell_length_b   7.12542900
_cell_length_c   13.06115706
_cell_angle_alpha   89.84863647
_cell_angle_beta   90.10579577
_cell_angle_gamma   89.90075670
_symmetry_Int_Tables_number   1
_chemical_formula_structural   Nd2U6Nb11Si16Hg
_chemical_formula_sum   'Nd2 U6 Nb11 Si16 Hg1'
_cell_volume   662.14660975
_cell_formula_units_Z   1
loop_
 _symmetry_equiv_pos_site_id
 _symmetry_equiv_pos_as_xyz
  1  'x, y, z'
loop_
 _atom_site_type_symbol
 _atom_site_label
 _atom_site_symmetry_multiplicity
 _atom_site_fract_x
 _atom_site_fract_y
 _atom_site_fract_z
 _atom_site_occupancy
  Nd  Nd0  1  0.996132  0.337389  0.216508  1
  Nd  Nd1  1  0.004406  0.664383  0.716105  1
  U  U2  1  0.169009  0.495319  0.467322  1
  U  U3  1  0.503081  0.834712  0.029077  1
  U  U4  1  0.831957  0.503515  0.969174  1
  U  U5  1  0.496207  0.165996  0.531137  1
  U  U6  1  0.342581  0.998187  0.782603  1
  U  U7  1  0.661575  0.999046  0.283049  1
  Nb  Nb8  1  0.828035  0.832780  0.497915  1
  Nb  Nb9  1  0.333498  0.670621  0.251579  1
  Nb  Nb10  1  0.667626  0.329759  0.749160  1
  Nb  Nb11  1  0.156789  0.999062  0.377156  1
  Nb  Nb12  1  0.844889  0.000633  0.877444  1
  Nb  Nb13  1  0.504193  0.655235  0.625407  1
  Nb  Nb14  1  0.347117  0.493443  0.878344  1
  Nb  Nb15  1  0.495239  0.345213  0.123238  1
  Nb  Nb16  1  0.651714  0.504669  0.375815  1
  Nb  Nb17  1  0.000894  0.155533  0.623974  1
  Nb  Nb18  1  0.998928  0.845984  0.125313  1
  Si  Si19  1  0.300240  0.033345  0.191578  1
  Si  Si20  1  0.705523  0.961656  0.685203  1
  Si  Si21  1  0.458262  0.796322  0.436593  1
  Si  Si22  1  0.210250  0.562868  0.064932  1
  Si  Si23  1  0.556204  0.207194  0.933578  1
  Si  Si24  1  0.794149  0.455863  0.561591  1
  Si  Si25  1  0.037442  0.294271  0.809807  1
  Si  Si26  1  0.958741  0.708999  0.315273  1
  Si  Si27  1  0.373312  0.292230  0.317482  1
  Si  Si28  1  0.627217  0.706689  0.817603  1
  Si  Si29  1  0.210280  0.872072  0.565717  1
  Si  Si30  1  0.125158  0.779508  0.929695  1
  Si  Si31  1  0.773125  0.121759  0.069612  1
  Si  Si32  1  0.868815  0.206510  0.433332  1
  Si  Si33  1  0.298316  0.366982  0.683061  1
  Si  Si34  1  0.701615  0.632385  0.182791  1
  Hg  Hg35  1  0.167483  0.169867  0.001834  1
