# generated using pymatgen
data_Dy3YAl18Co5Cu
_symmetry_space_group_name_H-M   'P 1'
_cell_length_a   7.40485313
_cell_length_b   7.40494446
_cell_length_c   9.30239741
_cell_angle_alpha   89.92990114
_cell_angle_beta   89.92584237
_cell_angle_gamma   119.27948943
_symmetry_Int_Tables_number   1
_chemical_formula_structural   Dy3YAl18Co5Cu
_chemical_formula_sum   'Dy3 Y1 Al18 Co5 Cu1'
_cell_volume   444.90776786
_cell_formula_units_Z   1
loop_
 _symmetry_equiv_pos_site_id
 _symmetry_equiv_pos_as_xyz
  1  'x, y, z'
loop_
 _atom_site_type_symbol
 _atom_site_label
 _atom_site_symmetry_multiplicity
 _atom_site_fract_x
 _atom_site_fract_y
 _atom_site_fract_z
 _atom_site_occupancy
  Dy  Dy0  1  0.994409  0.674583  0.250444  1
  Dy  Dy1  1  0.005603  0.325441  0.749552  1
  Dy  Dy2  1  0.674550  0.994392  0.250446  1
  Y  Y3  1  0.325399  0.005649  0.749592  1
  Al  Al4  1  0.130734  0.130721  0.257213  1
  Al  Al5  1  0.869176  0.869282  0.742775  1
  Al  Al6  1  0.331958  0.331971  0.542089  1
  Al  Al7  1  0.661417  0.661435  0.046437  1
  Al  Al8  1  0.338577  0.338681  0.953654  1
  Al  Al9  1  0.668102  0.668038  0.457828  1
  Al  Al10  1  0.339614  0.555609  0.251190  1
  Al  Al11  1  0.660526  0.444470  0.748722  1
  Al  Al12  1  0.555635  0.339611  0.251273  1
  Al  Al13  1  0.444385  0.660276  0.748808  1
  Al  Al14  1  0.999459  0.342868  0.074263  1
  Al  Al15  1  0.002963  0.664470  0.569859  1
  Al  Al16  1  0.335452  0.996935  0.429971  1
  Al  Al17  1  0.657235  0.000538  0.925821  1
  Al  Al18  1  0.000479  0.657045  0.925814  1
  Al  Al19  1  0.996799  0.335395  0.430078  1
  Al  Al20  1  0.664705  0.003208  0.569838  1
  Al  Al21  1  0.342864  0.999411  0.074372  1
  Co  Co22  1  0.999921  0.999983  0.499947  1
  Co  Co23  1  0.671068  0.329002  0.000012  1
  Co  Co24  1  0.328947  0.671000  0.499970  1
  Co  Co25  1  0.328974  0.670990  0.000021  1
  Co  Co26  1  0.671105  0.329006  0.499971  1
  Cu  Cu27  1  0.999946  0.999990  0.000042  1
