# generated using pymatgen
data_Ni3Mo2Ir2Rh
_symmetry_space_group_name_H-M   'P 1'
_cell_length_a   4.31034300
_cell_length_b   4.68826421
_cell_length_c   5.37565300
_cell_angle_alpha   90.50928469
_cell_angle_beta   90.00000000
_cell_angle_gamma   90.00000000
_symmetry_Int_Tables_number   1
_chemical_formula_structural   Ni3Mo2Ir2Rh
_chemical_formula_sum   'Ni3 Mo2 Ir2 Rh1'
_cell_volume   108.62704851
_cell_formula_units_Z   1
loop_
 _symmetry_equiv_pos_site_id
 _symmetry_equiv_pos_as_xyz
  1  'x, y, z'
loop_
 _atom_site_type_symbol
 _atom_site_label
 _atom_site_symmetry_multiplicity
 _atom_site_fract_x
 _atom_site_fract_y
 _atom_site_fract_z
 _atom_site_occupancy
  Ni  Ni0  1  0.500000  0.172992  0.250224  1
  Ni  Ni1  1  0.000000  0.333616  0.491395  1
  Ni  Ni2  1  0.500000  0.665197  0.005848  1
  Mo  Mo3  1  0.500000  0.657072  0.496795  1
  Mo  Mo4  1  0.000000  0.339698  0.004380  1
  Ir  Ir5  1  0.000000  0.821114  0.755500  1
  Ir  Ir6  1  0.000000  0.836065  0.252660  1
  Rh  Rh7  1  0.500000  0.174243  0.743200  1
