# generated using pymatgen
data_Ho2Er3InBi2
_symmetry_space_group_name_H-M   'P 1'
_cell_length_a   9.02738143
_cell_length_b   9.02738189
_cell_length_c   6.47019600
_cell_angle_alpha   90.00000000
_cell_angle_beta   90.00000000
_cell_angle_gamma   119.65692437
_symmetry_Int_Tables_number   1
_chemical_formula_structural   Ho2Er3InBi2
_chemical_formula_sum   'Ho4 Er6 In2 Bi4'
_cell_volume   458.20803506
_cell_formula_units_Z   2
loop_
 _symmetry_equiv_pos_site_id
 _symmetry_equiv_pos_as_xyz
  1  'x, y, z'
loop_
 _atom_site_type_symbol
 _atom_site_label
 _atom_site_symmetry_multiplicity
 _atom_site_fract_x
 _atom_site_fract_y
 _atom_site_fract_z
 _atom_site_occupancy
  Ho  Ho0  1  0.762538  0.762538  0.750000  1
  Ho  Ho1  1  0.234154  0.997835  0.750000  1
  Ho  Ho2  1  0.997835  0.234154  0.750000  1
  Ho  Ho3  1  0.233735  0.233735  0.250000  1
  Er  Er4  1  0.668984  0.329115  0.003699  1
  Er  Er5  1  0.329115  0.668984  0.003699  1
  Er  Er6  1  0.329115  0.668984  0.496301  1
  Er  Er7  1  0.668984  0.329115  0.496301  1
  Er  Er8  1  0.766330  0.008710  0.250000  1
  Er  Er9  1  0.008710  0.766330  0.250000  1
  In  In10  1  0.396825  0.002107  0.250000  1
  In  In11  1  0.002107  0.396825  0.250000  1
  Bi  Bi12  1  0.393728  0.393728  0.750000  1
  Bi  Bi13  1  0.602163  0.996639  0.750000  1
  Bi  Bi14  1  0.996639  0.602163  0.750000  1
  Bi  Bi15  1  0.609038  0.609038  0.250000  1
