# generated using pymatgen
data_MgSc3(ZnNi3)2
_symmetry_space_group_name_H-M   'P 1'
_cell_length_a   5.02503900
_cell_length_b   5.02503974
_cell_length_c   7.80134100
_cell_angle_alpha   90.00000000
_cell_angle_beta   90.00000000
_cell_angle_gamma   120.00000168
_symmetry_Int_Tables_number   1
_chemical_formula_structural   MgSc3(ZnNi3)2
_chemical_formula_sum   'Mg1 Sc3 Zn2 Ni6'
_cell_volume   170.59992018
_cell_formula_units_Z   1
loop_
 _symmetry_equiv_pos_site_id
 _symmetry_equiv_pos_as_xyz
  1  'x, y, z'
loop_
 _atom_site_type_symbol
 _atom_site_label
 _atom_site_symmetry_multiplicity
 _atom_site_fract_x
 _atom_site_fract_y
 _atom_site_fract_z
 _atom_site_occupancy
  Mg  Mg0  1  0.333333  0.666667  0.555542  1
  Sc  Sc1  1  0.666667  0.333333  0.065249  1
  Sc  Sc2  1  0.666667  0.333333  0.444139  1
  Sc  Sc3  1  0.333333  0.666667  0.926411  1
  Zn  Zn4  1  0.000000  0.000000  0.003563  1
  Zn  Zn5  1  0.000000  0.000000  0.500087  1
  Ni  Ni6  1  0.172168  0.344336  0.248577  1
  Ni  Ni7  1  0.829879  0.170121  0.753093  1
  Ni  Ni8  1  0.340242  0.170121  0.753093  1
  Ni  Ni9  1  0.655664  0.827832  0.248577  1
  Ni  Ni10  1  0.172168  0.827832  0.248577  1
  Ni  Ni11  1  0.829879  0.659758  0.753093  1
