# generated using pymatgen
data_Dy3Ho5(AlRu)2
_symmetry_space_group_name_H-M   'P 1'
_cell_length_a   9.49339454
_cell_length_b   9.49339427
_cell_length_c   9.49339500
_cell_angle_alpha   60.00000094
_cell_angle_beta   60.00000189
_cell_angle_gamma   60.00000031
_symmetry_Int_Tables_number   1
_chemical_formula_structural   Dy3Ho5(AlRu)2
_chemical_formula_sum   'Dy6 Ho10 Al4 Ru4'
_cell_volume   604.99197264
_cell_formula_units_Z   2
loop_
 _symmetry_equiv_pos_site_id
 _symmetry_equiv_pos_as_xyz
  1  'x, y, z'
loop_
 _atom_site_type_symbol
 _atom_site_label
 _atom_site_symmetry_multiplicity
 _atom_site_fract_x
 _atom_site_fract_y
 _atom_site_fract_z
 _atom_site_occupancy
  Dy  Dy0  1  0.189777  0.810223  0.810223  1
  Dy  Dy1  1  0.810223  0.189777  0.189777  1
  Dy  Dy2  1  0.810223  0.189777  0.810223  1
  Dy  Dy3  1  0.189777  0.810223  0.189777  1
  Dy  Dy4  1  0.810223  0.810223  0.189777  1
  Dy  Dy5  1  0.189777  0.189777  0.810223  1
  Ho  Ho6  1  0.601156  0.601156  0.601156  1
  Ho  Ho7  1  0.601156  0.601156  0.196531  1
  Ho  Ho8  1  0.601156  0.196531  0.601156  1
  Ho  Ho9  1  0.196531  0.601156  0.601156  1
  Ho  Ho10  1  0.055999  0.444001  0.444001  1
  Ho  Ho11  1  0.444001  0.055999  0.055999  1
  Ho  Ho12  1  0.444001  0.055999  0.444001  1
  Ho  Ho13  1  0.055999  0.444001  0.055999  1
  Ho  Ho14  1  0.444001  0.444001  0.055999  1
  Ho  Ho15  1  0.055999  0.055999  0.444001  1
  Al  Al16  1  0.826726  0.826726  0.826726  1
  Al  Al17  1  0.826726  0.826726  0.519822  1
  Al  Al18  1  0.826726  0.519822  0.826726  1
  Al  Al19  1  0.519822  0.826726  0.826726  1
  Ru  Ru20  1  0.389981  0.389981  0.389981  1
  Ru  Ru21  1  0.389981  0.389981  0.830058  1
  Ru  Ru22  1  0.389981  0.830058  0.389981  1
  Ru  Ru23  1  0.830058  0.389981  0.389981  1
