# generated using pymatgen
data_Ho20Ir9OsRu2
_symmetry_space_group_name_H-M   'P 1'
_cell_length_a   10.80660000
_cell_length_b   10.80660000
_cell_length_c   6.39687900
_cell_angle_alpha   90.00000000
_cell_angle_beta   90.00000000
_cell_angle_gamma   90.00000000
_symmetry_Int_Tables_number   1
_chemical_formula_structural   Ho20Ir9OsRu2
_chemical_formula_sum   'Ho20 Ir9 Os1 Ru2'
_cell_volume   747.04418428
_cell_formula_units_Z   1
loop_
 _symmetry_equiv_pos_site_id
 _symmetry_equiv_pos_as_xyz
  1  'x, y, z'
loop_
 _atom_site_type_symbol
 _atom_site_label
 _atom_site_symmetry_multiplicity
 _atom_site_fract_x
 _atom_site_fract_y
 _atom_site_fract_z
 _atom_site_occupancy
  Ho  Ho0  1  0.293688  0.086322  0.378450  1
  Ho  Ho1  1  0.293725  0.913880  0.878419  1
  Ho  Ho2  1  0.706275  0.086120  0.878419  1
  Ho  Ho3  1  0.706312  0.913678  0.378450  1
  Ho  Ho4  1  0.586120  0.793725  0.878419  1
  Ho  Ho5  1  0.586322  0.206312  0.378450  1
  Ho  Ho6  1  0.413678  0.793688  0.378450  1
  Ho  Ho7  1  0.413880  0.206275  0.878419  1
  Ho  Ho8  1  0.207727  0.412715  0.624250  1
  Ho  Ho9  1  0.207410  0.587332  0.120394  1
  Ho  Ho10  1  0.792590  0.412668  0.120394  1
  Ho  Ho11  1  0.792273  0.587285  0.624250  1
  Ho  Ho12  1  0.912668  0.707410  0.120394  1
  Ho  Ho13  1  0.912715  0.292273  0.624250  1
  Ho  Ho14  1  0.087285  0.707727  0.624250  1
  Ho  Ho15  1  0.087332  0.292590  0.120394  1
  Ho  Ho16  1  0.000000  0.000000  0.498670  1
  Ho  Ho17  1  0.000000  0.000000  0.998832  1
  Ho  Ho18  1  0.500000  0.500000  0.998832  1
  Ho  Ho19  1  0.500000  0.500000  0.498670  1
  Ir  Ir20  1  0.847418  0.152498  0.249473  1
  Ir  Ir21  1  0.847254  0.847575  0.749037  1
  Ir  Ir22  1  0.152746  0.152425  0.749037  1
  Ir  Ir23  1  0.152582  0.847502  0.249473  1
  Ir  Ir24  1  0.652425  0.347254  0.749037  1
  Ir  Ir25  1  0.652498  0.652582  0.249473  1
  Ir  Ir26  1  0.347502  0.347418  0.249473  1
  Ir  Ir27  1  0.347575  0.652746  0.749037  1
  Ir  Ir28  1  0.000000  0.500000  0.378975  1
  Os  Os29  1  0.000000  0.500000  0.877707  1
  Ru  Ru30  1  0.500000  0.000000  0.124137  1
  Ru  Ru31  1  0.500000  0.000000  0.624091  1
