# generated using pymatgen
data_Pr18Sm2Si15S
_symmetry_space_group_name_H-M   'P 1'
_cell_length_a   7.92560245
_cell_length_b   7.86667837
_cell_length_c   15.34063402
_cell_angle_alpha   89.58718610
_cell_angle_beta   89.11480284
_cell_angle_gamma   90.25504277
_symmetry_Int_Tables_number   1
_chemical_formula_structural   Pr18Sm2Si15S
_chemical_formula_sum   'Pr18 Sm2 Si15 S1'
_cell_volume   956.31145995
_cell_formula_units_Z   1
loop_
 _symmetry_equiv_pos_site_id
 _symmetry_equiv_pos_as_xyz
  1  'x, y, z'
loop_
 _atom_site_type_symbol
 _atom_site_label
 _atom_site_symmetry_multiplicity
 _atom_site_fract_x
 _atom_site_fract_y
 _atom_site_fract_z
 _atom_site_occupancy
  Pr  Pr0  1  0.802792  0.191406  0.751240  1
  Pr  Pr1  1  0.688414  0.687546  0.498535  1
  Pr  Pr2  1  0.381123  0.004941  0.442397  1
  Pr  Pr3  1  0.491449  0.872418  0.699354  1
  Pr  Pr4  1  0.510627  0.121538  0.195998  1
  Pr  Pr5  1  0.876847  0.485916  0.301963  1
  Pr  Pr6  1  0.124006  0.507928  0.801009  1
  Pr  Pr7  1  0.631000  0.986090  0.950240  1
  Pr  Pr8  1  0.002705  0.379050  0.550763  1
  Pr  Pr9  1  0.991823  0.622873  0.052799  1
  Pr  Pr10  1  0.139269  0.990033  0.870751  1
  Pr  Pr11  1  0.518902  0.629689  0.125717  1
  Pr  Pr12  1  0.468753  0.362605  0.632121  1
  Pr  Pr13  1  0.632679  0.521747  0.875610  1
  Pr  Pr14  1  0.369742  0.477429  0.374374  1
  Pr  Pr15  1  0.871271  0.018885  0.376758  1
  Pr  Pr16  1  0.982951  0.128141  0.124158  1
  Pr  Pr17  1  0.021380  0.877070  0.622594  1
  Sm  Sm18  1  0.312266  0.310118  0.999668  1
  Sm  Sm19  1  0.187558  0.808821  0.249192  1
  Si  Si20  1  0.330828  0.696785  0.950719  1
  Si  Si21  1  0.663166  0.304381  0.455476  1
  Si  Si22  1  0.698876  0.333954  0.048528  1
  Si  Si23  1  0.303674  0.665957  0.549655  1
  Si  Si24  1  0.806929  0.830665  0.203763  1
  Si  Si25  1  0.169434  0.192148  0.295405  1
  Si  Si26  1  0.841901  0.803590  0.796535  1
  Si  Si27  1  0.287001  0.922902  0.059124  1
  Si  Si28  1  0.575336  0.785169  0.308015  1
  Si  Si29  1  0.447699  0.211822  0.825118  1
  Si  Si30  1  0.787984  0.580726  0.688291  1
  Si  Si31  1  0.212248  0.424499  0.189381  1
  Si  Si32  1  0.703352  0.074620  0.561139  1
  Si  Si33  1  0.929435  0.290478  0.940925  1
  Si  Si34  1  0.079236  0.712499  0.439263  1
  S  S35  1  0.157341  0.185557  0.693425  1
