# generated using pymatgen
data_Ti5SiB4Mo5P
_symmetry_space_group_name_H-M   'P 1'
_cell_length_a   7.07147244
_cell_length_b   7.04831514
_cell_length_c   7.04915941
_cell_angle_alpha   129.35838368
_cell_angle_beta   129.53691775
_cell_angle_gamma   74.38011268
_symmetry_Int_Tables_number   1
_chemical_formula_structural   Ti5SiB4Mo5P
_chemical_formula_sum   'Ti5 Si1 B4 Mo5 P1'
_cell_volume   204.11165324
_cell_formula_units_Z   1
loop_
 _symmetry_equiv_pos_site_id
 _symmetry_equiv_pos_as_xyz
  1  'x, y, z'
loop_
 _atom_site_type_symbol
 _atom_site_label
 _atom_site_symmetry_multiplicity
 _atom_site_fract_x
 _atom_site_fract_y
 _atom_site_fract_z
 _atom_site_occupancy
  Ti  Ti0  1  0.804455  0.966479  0.495888  1
  Ti  Ti1  1  0.311988  0.808644  0.840196  1
  Ti  Ti2  1  0.190650  0.029433  0.496245  1
  Ti  Ti3  1  0.532557  0.692223  0.503205  1
  Ti  Ti4  1  0.028067  0.531303  0.838745  1
  Si  Si5  1  0.249354  0.249860  0.998943  1
  B  B6  1  0.386602  0.886468  0.274729  1
  B  B7  1  0.887761  0.614106  0.500377  1
  B  B8  1  0.613122  0.111397  0.725701  1
  B  B9  1  0.113789  0.387571  0.500955  1
  Mo  Mo10  1  0.002844  0.000432  0.000950  1
  Mo  Mo11  1  0.694614  0.191733  0.160222  1
  Mo  Mo12  1  0.967170  0.470971  0.160815  1
  Mo  Mo13  1  0.499956  0.500242  0.001087  1
  Mo  Mo14  1  0.467255  0.309074  0.502595  1
  P  P15  1  0.749813  0.750064  0.999346  1
