# generated using pymatgen
data_Dy8Y4Co4BiOs
_symmetry_space_group_name_H-M   'P 1'
_cell_length_a   8.34969099
_cell_length_b   8.34969007
_cell_length_c   8.34969068
_cell_angle_alpha   111.28961228
_cell_angle_beta   110.29121524
_cell_angle_gamma   106.86548598
_symmetry_Int_Tables_number   1
_chemical_formula_structural   Dy8Y4Co4BiOs
_chemical_formula_sum   'Dy8 Y4 Co4 Bi1 Os1'
_cell_volume   447.38797009
_cell_formula_units_Z   1
loop_
 _symmetry_equiv_pos_site_id
 _symmetry_equiv_pos_as_xyz
  1  'x, y, z'
loop_
 _atom_site_type_symbol
 _atom_site_label
 _atom_site_symmetry_multiplicity
 _atom_site_fract_x
 _atom_site_fract_y
 _atom_site_fract_z
 _atom_site_occupancy
  Dy  Dy0  1  0.687753  0.378187  0.690434  1
  Dy  Dy1  1  0.312247  0.621813  0.309566  1
  Dy  Dy2  1  0.687753  0.997319  0.309566  1
  Dy  Dy3  1  0.312247  0.002681  0.690434  1
  Dy  Dy4  1  0.592037  0.787953  0.804084  1
  Dy  Dy5  1  0.407963  0.212047  0.195916  1
  Dy  Dy6  1  0.983869  0.787953  0.195916  1
  Dy  Dy7  1  0.016131  0.212047  0.804084  1
  Y  Y8  1  0.818616  0.716526  0.535143  1
  Y  Y9  1  0.181384  0.283474  0.464857  1
  Y  Y10  1  0.181384  0.716526  0.897909  1
  Y  Y11  1  0.818616  0.283474  0.102091  1
  Co  Co12  1  0.623223  0.000000  0.623223  1
  Co  Co13  1  0.376777  0.000000  0.376777  1
  Co  Co14  1  0.110831  0.610831  0.500000  1
  Co  Co15  1  0.889169  0.389169  0.500000  1
  Bi  Bi16  1  0.500000  0.500000  0.000000  1
  Os  Os17  1  0.000000  0.000000  0.000000  1
