# generated using pymatgen
data_Ac7Pr9(YPb4)4
_symmetry_space_group_name_H-M   'P 1'
_cell_length_a   8.57064883
_cell_length_b   16.55447731
_cell_length_c   8.67925400
_cell_angle_alpha   90.09217111
_cell_angle_beta   89.61070934
_cell_angle_gamma   90.29793827
_symmetry_Int_Tables_number   1
_chemical_formula_structural   Ac7Pr9(YPb4)4
_chemical_formula_sum   'Ac7 Pr9 Y4 Pb16'
_cell_volume   1231.38862681
_cell_formula_units_Z   1
loop_
 _symmetry_equiv_pos_site_id
 _symmetry_equiv_pos_as_xyz
  1  'x, y, z'
loop_
 _atom_site_type_symbol
 _atom_site_label
 _atom_site_symmetry_multiplicity
 _atom_site_fract_x
 _atom_site_fract_y
 _atom_site_fract_z
 _atom_site_occupancy
  Ac  Ac0  1  0.978007  0.901111  0.821604  1
  Ac  Ac1  1  0.521613  0.097003  0.322326  1
  Ac  Ac2  1  0.023729  0.403636  0.178720  1
  Ac  Ac3  1  0.523364  0.403290  0.324540  1
  Ac  Ac4  1  0.021458  0.096802  0.177703  1
  Ac  Ac5  1  0.478894  0.902555  0.677406  1
  Ac  Ac6  1  0.976950  0.597232  0.820184  1
  Pr  Pr7  1  0.634637  0.620808  0.155017  1
  Pr  Pr8  1  0.137298  0.878512  0.344769  1
  Pr  Pr9  1  0.363549  0.121849  0.844122  1
  Pr  Pr10  1  0.865161  0.381169  0.653773  1
  Pr  Pr11  1  0.366896  0.379633  0.844783  1
  Pr  Pr12  1  0.863027  0.120853  0.655218  1
  Pr  Pr13  1  0.636051  0.876675  0.155812  1
  Pr  Pr14  1  0.135503  0.619275  0.345540  1
  Pr  Pr15  1  0.473745  0.600463  0.676807  1
  Y  Y16  1  0.800412  0.748760  0.496185  1
  Y  Y17  1  0.300546  0.748683  0.002035  1
  Y  Y18  1  0.199744  0.251092  0.504388  1
  Y  Y19  1  0.699956  0.250162  0.996690  1
  Pb  Pb20  1  0.703582  0.453106  0.960327  1
  Pb  Pb21  1  0.202352  0.046988  0.542298  1
  Pb  Pb22  1  0.298526  0.952038  0.040055  1
  Pb  Pb23  1  0.787764  0.549616  0.464847  1
  Pb  Pb24  1  0.298289  0.548645  0.034580  1
  Pb  Pb25  1  0.797802  0.952652  0.457258  1
  Pb  Pb26  1  0.701709  0.046499  0.959544  1
  Pb  Pb27  1  0.209253  0.455896  0.544954  1
  Pb  Pb28  1  0.440935  0.747858  0.370245  1
  Pb  Pb29  1  0.942980  0.748984  0.131975  1
  Pb  Pb30  1  0.559072  0.250510  0.632092  1
  Pb  Pb31  1  0.057099  0.251332  0.867190  1
  Pb  Pb32  1  0.662943  0.746980  0.846864  1
  Pb  Pb33  1  0.172057  0.748698  0.648326  1
  Pb  Pb34  1  0.332446  0.250304  0.150566  1
  Pb  Pb35  1  0.832649  0.250328  0.351253  1
