# generated using pymatgen
data_La2GaPt9
_symmetry_space_group_name_H-M   'P 1'
_cell_length_a   5.38032305
_cell_length_b   5.38032330
_cell_length_c   8.91287600
_cell_angle_alpha   90.00000000
_cell_angle_beta   90.00000000
_cell_angle_gamma   118.07727157
_symmetry_Int_Tables_number   1
_chemical_formula_structural   La2GaPt9
_chemical_formula_sum   'La2 Ga1 Pt9'
_cell_volume   227.64472081
_cell_formula_units_Z   1
loop_
 _symmetry_equiv_pos_site_id
 _symmetry_equiv_pos_as_xyz
  1  'x, y, z'
loop_
 _atom_site_type_symbol
 _atom_site_label
 _atom_site_symmetry_multiplicity
 _atom_site_fract_x
 _atom_site_fract_y
 _atom_site_fract_z
 _atom_site_occupancy
  La  La0  1  0.000000  0.000000  0.765134  1
  La  La1  1  0.000000  0.000000  0.234866  1
  Ga  Ga2  1  0.500000  0.500000  0.500000  1
  Pt  Pt3  1  0.663651  0.336349  0.745780  1
  Pt  Pt4  1  0.663651  0.336349  0.254220  1
  Pt  Pt5  1  0.500000  0.500000  0.000000  1
  Pt  Pt6  1  0.336349  0.663651  0.745780  1
  Pt  Pt7  1  0.500000  0.000000  0.500000  1
  Pt  Pt8  1  0.000000  0.500000  0.000000  1
  Pt  Pt9  1  0.500000  0.000000  0.000000  1
  Pt  Pt10  1  0.336349  0.663651  0.254220  1
  Pt  Pt11  1  0.000000  0.500000  0.500000  1
