# generated using pymatgen
data_Tm6Lu10MgCd3Pt4
_symmetry_space_group_name_H-M   'P 1'
_cell_length_a   9.53389059
_cell_length_b   9.53389071
_cell_length_c   9.53388981
_cell_angle_alpha   59.81478024
_cell_angle_beta   59.81478769
_cell_angle_gamma   59.81478425
_symmetry_Int_Tables_number   1
_chemical_formula_structural   Tm6Lu10MgCd3Pt4
_chemical_formula_sum   'Tm6 Lu10 Mg1 Cd3 Pt4'
_cell_volume   610.19095294
_cell_formula_units_Z   1
loop_
 _symmetry_equiv_pos_site_id
 _symmetry_equiv_pos_as_xyz
  1  'x, y, z'
loop_
 _atom_site_type_symbol
 _atom_site_label
 _atom_site_symmetry_multiplicity
 _atom_site_fract_x
 _atom_site_fract_y
 _atom_site_fract_z
 _atom_site_occupancy
  Tm  Tm0  1  0.935194  0.565953  0.565953  1
  Tm  Tm1  1  0.562951  0.937096  0.937096  1
  Tm  Tm2  1  0.565953  0.935194  0.565953  1
  Tm  Tm3  1  0.937096  0.562951  0.937096  1
  Tm  Tm4  1  0.565953  0.565953  0.935194  1
  Tm  Tm5  1  0.937096  0.937096  0.562951  1
  Lu  Lu6  1  0.350385  0.350385  0.350385  1
  Lu  Lu7  1  0.353691  0.353691  0.942216  1
  Lu  Lu8  1  0.353691  0.942216  0.353691  1
  Lu  Lu9  1  0.942216  0.353691  0.353691  1
  Lu  Lu10  1  0.810222  0.190405  0.190405  1
  Lu  Lu11  1  0.189040  0.812116  0.812116  1
  Lu  Lu12  1  0.190405  0.810222  0.190405  1
  Lu  Lu13  1  0.812116  0.189040  0.812116  1
  Lu  Lu14  1  0.190405  0.190405  0.810222  1
  Lu  Lu15  1  0.812116  0.812116  0.189040  1
  Mg  Mg16  1  0.576872  0.576872  0.576872  1
  Cd  Cd17  1  0.581378  0.581378  0.252968  1
  Cd  Cd18  1  0.581378  0.252968  0.581378  1
  Cd  Cd19  1  0.252968  0.581378  0.581378  1
  Pt  Pt20  1  0.143842  0.143842  0.143842  1
  Pt  Pt21  1  0.141890  0.141890  0.571253  1
  Pt  Pt22  1  0.141890  0.571253  0.141890  1
  Pt  Pt23  1  0.571253  0.141890  0.141890  1
