# generated using pymatgen
data_PrHoU2F15
_symmetry_space_group_name_H-M   'P 1'
_cell_length_a   7.88691600
_cell_length_b   7.77961255
_cell_length_c   7.88691600
_cell_angle_alpha   112.48783710
_cell_angle_beta   113.53458735
_cell_angle_gamma   112.48784627
_symmetry_Int_Tables_number   1
_chemical_formula_structural   PrHoU2F15
_chemical_formula_sum   'Pr1 Ho1 U2 F15'
_cell_volume   317.74377123
_cell_formula_units_Z   1
loop_
 _symmetry_equiv_pos_site_id
 _symmetry_equiv_pos_as_xyz
  1  'x, y, z'
loop_
 _atom_site_type_symbol
 _atom_site_label
 _atom_site_symmetry_multiplicity
 _atom_site_fract_x
 _atom_site_fract_y
 _atom_site_fract_z
 _atom_site_occupancy
  Pr  Pr0  1  0.494931  0.495866  0.494931  1
  Ho  Ho1  1  0.852050  0.276940  0.852050  1
  U  U2  1  0.290040  0.853920  0.862911  1
  U  U3  1  0.862911  0.853920  0.290040  1
  F  F4  1  0.606602  0.938701  0.151907  1
  F  F5  1  0.929461  0.135342  0.593586  1
  F  F6  1  0.146368  0.605840  0.929624  1
  F  F7  1  0.929624  0.605840  0.146368  1
  F  F8  1  0.596566  0.587757  0.248727  1
  F  F9  1  0.248727  0.587757  0.596566  1
  F  F10  1  0.604479  0.280743  0.604479  1
  F  F11  1  0.138171  0.136956  0.354494  1
  F  F12  1  0.354494  0.136956  0.138171  1
  F  F13  1  0.154073  0.371726  0.154073  1
  F  F14  1  0.661495  0.675253  0.904866  1
  F  F15  1  0.904866  0.675253  0.661495  1
  F  F16  1  0.666817  0.894356  0.666817  1
  F  F17  1  0.151907  0.938701  0.606602  1
  F  F18  1  0.593586  0.135342  0.929461  1
