# generated using pymatgen
data_Zr12CuTc5Ir6
_symmetry_space_group_name_H-M   'P 1'
_cell_length_a   4.66485700
_cell_length_b   6.55718800
_cell_length_c   14.03884100
_cell_angle_alpha   90.00000000
_cell_angle_beta   90.00024118
_cell_angle_gamma   90.00000000
_symmetry_Int_Tables_number   1
_chemical_formula_structural   Zr12CuTc5Ir6
_chemical_formula_sum   'Zr12 Cu1 Tc5 Ir6'
_cell_volume   429.42490267
_cell_formula_units_Z   1
loop_
 _symmetry_equiv_pos_site_id
 _symmetry_equiv_pos_as_xyz
  1  'x, y, z'
loop_
 _atom_site_type_symbol
 _atom_site_label
 _atom_site_symmetry_multiplicity
 _atom_site_fract_x
 _atom_site_fract_y
 _atom_site_fract_z
 _atom_site_occupancy
  Zr  Zr0  1  0.500000  0.248635  0.000000  1
  Zr  Zr1  1  0.500000  0.751366  0.000000  1
  Zr  Zr2  1  0.999985  0.248897  0.166757  1
  Zr  Zr3  1  0.999985  0.751102  0.166757  1
  Zr  Zr4  1  0.499988  0.250090  0.333622  1
  Zr  Zr5  1  0.499988  0.749911  0.333622  1
  Zr  Zr6  1  0.000000  0.248760  0.500000  1
  Zr  Zr7  1  0.000000  0.751239  0.500000  1
  Zr  Zr8  1  0.500012  0.250090  0.666377  1
  Zr  Zr9  1  0.500012  0.749911  0.666377  1
  Zr  Zr10  1  0.000015  0.248897  0.833243  1
  Zr  Zr11  1  0.000015  0.751102  0.833243  1
  Cu  Cu12  1  0.000000  0.000000  0.000000  1
  Tc  Tc13  1  0.499982  0.500000  0.166257  1
  Tc  Tc14  1  0.999986  0.000000  0.333719  1
  Tc  Tc15  1  0.500000  0.500000  0.500000  1
  Tc  Tc16  1  0.000014  0.000000  0.666281  1
  Tc  Tc17  1  0.500018  0.500000  0.833743  1
  Ir  Ir18  1  0.000000  0.500000  0.000000  1
  Ir  Ir19  1  0.499981  0.000000  0.167565  1
  Ir  Ir20  1  0.999987  0.500000  0.332379  1
  Ir  Ir21  1  0.500000  0.000000  0.500000  1
  Ir  Ir22  1  0.000013  0.500000  0.667621  1
  Ir  Ir23  1  0.500019  0.000000  0.832435  1
