# generated using pymatgen
data_La5Pr6Ho5(CdIr)4
_symmetry_space_group_name_H-M   'P 1'
_cell_length_a   9.91677245
_cell_length_b   9.92509569
_cell_length_c   9.92509573
_cell_angle_alpha   59.59103066
_cell_angle_beta   60.02773865
_cell_angle_gamma   60.02773838
_symmetry_Int_Tables_number   1
_chemical_formula_structural   La5Pr6Ho5(CdIr)4
_chemical_formula_sum   'La5 Pr6 Ho5 Cd4 Ir4'
_cell_volume   688.88271574
_cell_formula_units_Z   1
loop_
 _symmetry_equiv_pos_site_id
 _symmetry_equiv_pos_as_xyz
  1  'x, y, z'
loop_
 _atom_site_type_symbol
 _atom_site_label
 _atom_site_symmetry_multiplicity
 _atom_site_fract_x
 _atom_site_fract_y
 _atom_site_fract_z
 _atom_site_occupancy
  La  La0  1  0.345640  0.350664  0.350664  1
  La  La1  1  0.349282  0.349213  0.952223  1
  La  La2  1  0.349282  0.952223  0.349213  1
  La  La3  1  0.953030  0.350664  0.350664  1
  La  La4  1  0.815915  0.184085  0.184085  1
  Pr  Pr5  1  0.938214  0.561786  0.561786  1
  Pr  Pr6  1  0.560900  0.939100  0.939100  1
  Pr  Pr7  1  0.558662  0.937060  0.562997  1
  Pr  Pr8  1  0.941282  0.562997  0.937060  1
  Pr  Pr9  1  0.558662  0.562997  0.937060  1
  Pr  Pr10  1  0.941282  0.937060  0.562997  1
  Ho  Ho11  1  0.183863  0.816137  0.816137  1
  Ho  Ho12  1  0.188810  0.812303  0.183346  1
  Ho  Ho13  1  0.815541  0.183346  0.812303  1
  Ho  Ho14  1  0.188810  0.183346  0.812303  1
  Ho  Ho15  1  0.815541  0.812303  0.183346  1
  Cd  Cd16  1  0.580094  0.579258  0.579258  1
  Cd  Cd17  1  0.578341  0.582017  0.261299  1
  Cd  Cd18  1  0.578341  0.261299  0.582017  1
  Cd  Cd19  1  0.261388  0.579258  0.579258  1
  Ir  Ir20  1  0.139378  0.140114  0.140114  1
  Ir  Ir21  1  0.138674  0.140744  0.581910  1
  Ir  Ir22  1  0.138674  0.581910  0.140744  1
  Ir  Ir23  1  0.580395  0.140114  0.140114  1
