# generated using pymatgen
data_Ba3LiPtO6
_symmetry_space_group_name_H-M   'P 1'
_cell_length_a   7.08781547
_cell_length_b   7.08781527
_cell_length_c   7.08781538
_cell_angle_alpha   92.86499934
_cell_angle_beta   92.86499582
_cell_angle_gamma   92.86499700
_symmetry_Int_Tables_number   1
_chemical_formula_structural   Ba3LiPtO6
_chemical_formula_sum   'Ba6 Li2 Pt2 O12'
_cell_volume   354.68998693
_cell_formula_units_Z   2
loop_
 _symmetry_equiv_pos_site_id
 _symmetry_equiv_pos_as_xyz
  1  'x, y, z'
loop_
 _atom_site_type_symbol
 _atom_site_label
 _atom_site_symmetry_multiplicity
 _atom_site_fract_x
 _atom_site_fract_y
 _atom_site_fract_z
 _atom_site_occupancy
  Ba  Ba0  1  0.892194  0.607806  0.250000  1
  Ba  Ba1  1  0.607806  0.250000  0.892194  1
  Ba  Ba2  1  0.750000  0.107806  0.392194  1
  Ba  Ba3  1  0.392194  0.750000  0.107806  1
  Ba  Ba4  1  0.107806  0.392194  0.750000  1
  Ba  Ba5  1  0.250000  0.892194  0.607806  1
  Li  Li6  1  0.250000  0.250000  0.250000  1
  Li  Li7  1  0.750000  0.750000  0.750000  1
  Pt  Pt8  1  0.000000  0.000000  0.000000  1
  Pt  Pt9  1  0.500000  0.500000  0.500000  1
  O  O10  1  0.772385  0.458508  0.588219  1
  O  O11  1  0.911781  0.041492  0.727615  1
  O  O12  1  0.727615  0.911781  0.041492  1
  O  O13  1  0.041492  0.727615  0.911781  1
  O  O14  1  0.588219  0.772385  0.458508  1
  O  O15  1  0.458508  0.588219  0.772385  1
  O  O16  1  0.411781  0.227615  0.541492  1
  O  O17  1  0.541492  0.411781  0.227615  1
  O  O18  1  0.958508  0.272385  0.088219  1
  O  O19  1  0.272385  0.088219  0.958508  1
  O  O20  1  0.088219  0.958508  0.272385  1
  O  O21  1  0.227615  0.541492  0.411781  1
