# generated using pymatgen
data_Ti13Al9GaRu7
_symmetry_space_group_name_H-M   'P 1'
_cell_length_a   8.74027076
_cell_length_b   8.74027092
_cell_length_c   8.74027200
_cell_angle_alpha   59.86966184
_cell_angle_beta   59.86965367
_cell_angle_gamma   59.86967475
_symmetry_Int_Tables_number   1
_chemical_formula_structural   Ti13Al9GaRu7
_chemical_formula_sum   'Ti13 Al9 Ga1 Ru7'
_cell_volume   470.73166761
_cell_formula_units_Z   1
loop_
 _symmetry_equiv_pos_site_id
 _symmetry_equiv_pos_as_xyz
  1  'x, y, z'
loop_
 _atom_site_type_symbol
 _atom_site_label
 _atom_site_symmetry_multiplicity
 _atom_site_fract_x
 _atom_site_fract_y
 _atom_site_fract_z
 _atom_site_occupancy
  Ti  Ti0  1  0.217910  0.217910  0.780945  1
  Ti  Ti1  1  0.780945  0.217910  0.217910  1
  Ti  Ti2  1  0.217910  0.780945  0.217910  1
  Ti  Ti3  1  0.788087  0.788087  0.199751  1
  Ti  Ti4  1  0.199751  0.788087  0.788087  1
  Ti  Ti5  1  0.788087  0.199751  0.788087  1
  Ti  Ti6  1  0.379359  0.379359  0.379359  1
  Ti  Ti7  1  0.379073  0.863673  0.379073  1
  Ti  Ti8  1  0.863673  0.379073  0.379073  1
  Ti  Ti9  1  0.379073  0.379073  0.863673  1
  Ti  Ti10  1  0.841855  0.475220  0.841855  1
  Ti  Ti11  1  0.475220  0.841855  0.841855  1
  Ti  Ti12  1  0.841855  0.841855  0.475220  1
  Al  Al13  1  0.155829  0.155829  0.155829  1
  Al  Al14  1  0.157439  0.530501  0.157439  1
  Al  Al15  1  0.530501  0.157439  0.157439  1
  Al  Al16  1  0.157439  0.157439  0.530501  1
  Al  Al17  1  0.618236  0.618236  0.618236  1
  Al  Al18  1  0.619545  0.144254  0.619545  1
  Al  Al19  1  0.144254  0.619545  0.619545  1
  Al  Al20  1  0.619545  0.619545  0.144254  1
  Al  Al21  1  0.833433  0.833433  0.833433  1
  Ga  Ga22  1  0.003235  0.003235  0.003235  1
  Ru  Ru23  1  0.001848  0.001848  0.499762  1
  Ru  Ru24  1  0.499762  0.001848  0.001848  1
  Ru  Ru25  1  0.001848  0.499762  0.001848  1
  Ru  Ru26  1  0.501394  0.501394  0.001463  1
  Ru  Ru27  1  0.001463  0.501394  0.501394  1
  Ru  Ru28  1  0.501394  0.001463  0.501394  1
  Ru  Ru29  1  0.500037  0.500037  0.500037  1
