# generated using pymatgen
data_Th3Al2Ir3Au
_symmetry_space_group_name_H-M   'P 1'
_cell_length_a   7.62345800
_cell_length_b   7.33124987
_cell_length_c   4.01087600
_cell_angle_alpha   90.00000000
_cell_angle_beta   90.00000000
_cell_angle_gamma   121.32747613
_symmetry_Int_Tables_number   1
_chemical_formula_structural   Th3Al2Ir3Au
_chemical_formula_sum   'Th3 Al2 Ir3 Au1'
_cell_volume   191.48454003
_cell_formula_units_Z   1
loop_
 _symmetry_equiv_pos_site_id
 _symmetry_equiv_pos_as_xyz
  1  'x, y, z'
loop_
 _atom_site_type_symbol
 _atom_site_label
 _atom_site_symmetry_multiplicity
 _atom_site_fract_x
 _atom_site_fract_y
 _atom_site_fract_z
 _atom_site_occupancy
  Th  Th0  1  0.415148  0.000000  0.500000  1
  Th  Th1  1  0.993564  0.402472  0.500000  1
  Th  Th2  1  0.591092  0.597528  0.500000  1
  Al  Al3  1  0.002215  0.760125  0.000000  1
  Al  Al4  1  0.242090  0.239875  0.000000  1
  Ir  Ir5  1  0.301237  0.646065  0.000000  1
  Ir  Ir6  1  0.655173  0.353935  0.000000  1
  Ir  Ir7  1  0.041447  0.000000  0.500000  1
  Au  Au8  1  0.758034  0.000000  0.000000  1
