# generated using pymatgen
data_Nd2Th(TaSn)18
_symmetry_space_group_name_H-M   'P 1'
_cell_length_a   5.80440038
_cell_length_b   9.64524344
_cell_length_c   16.04149298
_cell_angle_alpha   107.48656601
_cell_angle_beta   100.28251660
_cell_angle_gamma   90.06461766
_symmetry_Int_Tables_number   1
_chemical_formula_structural   Nd2Th(TaSn)18
_chemical_formula_sum   'Nd2 Th1 Ta18 Sn18'
_cell_volume   841.38475168
_cell_formula_units_Z   1
loop_
 _symmetry_equiv_pos_site_id
 _symmetry_equiv_pos_as_xyz
  1  'x, y, z'
loop_
 _atom_site_type_symbol
 _atom_site_label
 _atom_site_symmetry_multiplicity
 _atom_site_fract_x
 _atom_site_fract_y
 _atom_site_fract_z
 _atom_site_occupancy
  Nd  Nd0  1  0.667646  0.167404  0.336656  1
  Nd  Nd1  1  0.999836  0.999219  0.000579  1
  Th  Th2  1  0.331435  0.830949  0.663860  1
  Ta  Ta3  1  0.166189  0.415710  0.333770  1
  Ta  Ta4  1  0.333021  0.833007  0.167096  1
  Ta  Ta5  1  0.665556  0.667226  0.833705  1
  Ta  Ta6  1  0.500144  0.749601  0.000211  1
  Ta  Ta7  1  0.166813  0.164683  0.833308  1
  Ta  Ta8  1  0.833628  0.332243  0.167066  1
  Ta  Ta9  1  0.832351  0.080879  0.666956  1
  Ta  Ta10  1  0.166052  0.666907  0.833035  1
  Ta  Ta11  1  0.498690  0.998371  0.500886  1
  Ta  Ta12  1  0.499234  0.248748  0.000375  1
  Ta  Ta13  1  0.000273  0.998592  0.500735  1
  Ta  Ta14  1  0.000461  0.499854  0.500782  1
  Ta  Ta15  1  0.832947  0.832464  0.166763  1
  Ta  Ta16  1  0.833482  0.584157  0.666818  1
  Ta  Ta17  1  0.333319  0.331679  0.166572  1
  Ta  Ta18  1  0.166455  0.915283  0.333631  1
  Ta  Ta19  1  0.665706  0.164504  0.833044  1
  Ta  Ta20  1  0.499065  0.500051  0.500864  1
  Sn  Sn21  1  0.998973  0.332996  0.999923  1
  Sn  Sn22  1  0.888143  0.888073  0.777845  1
  Sn  Sn23  1  0.111397  0.110740  0.223734  1
  Sn  Sn24  1  0.222703  0.221980  0.446351  1
  Sn  Sn25  1  0.443259  0.443741  0.889287  1
  Sn  Sn26  1  0.109512  0.608844  0.220135  1
  Sn  Sn27  1  0.778804  0.278639  0.559186  1
  Sn  Sn28  1  0.889538  0.389242  0.780022  1
  Sn  Sn29  1  0.219945  0.718869  0.440419  1
  Sn  Sn30  1  0.334190  0.488577  0.667599  1
  Sn  Sn31  1  0.556560  0.055292  0.112590  1
  Sn  Sn32  1  0.665243  0.502187  0.333228  1
  Sn  Sn33  1  0.443414  0.943788  0.889195  1
  Sn  Sn34  1  0.331641  0.176913  0.667165  1
  Sn  Sn35  1  0.776314  0.775609  0.553528  1
  Sn  Sn36  1  0.667217  0.829194  0.333511  1
  Sn  Sn37  1  0.555799  0.554786  0.111426  1
  Sn  Sn38  1  0.000301  0.665050  0.000509  1
