# generated using pymatgen
data_Lu3Pa(CdPt2)2
_symmetry_space_group_name_H-M   'P 1'
_cell_length_a   7.70619835
_cell_length_b   7.70619857
_cell_length_c   3.63466800
_cell_angle_alpha   90.00000000
_cell_angle_beta   90.00000000
_cell_angle_gamma   91.24828671
_symmetry_Int_Tables_number   1
_chemical_formula_structural   Lu3Pa(CdPt2)2
_chemical_formula_sum   'Lu3 Pa1 Cd2 Pt4'
_cell_volume   215.79533221
_cell_formula_units_Z   1
loop_
 _symmetry_equiv_pos_site_id
 _symmetry_equiv_pos_as_xyz
  1  'x, y, z'
loop_
 _atom_site_type_symbol
 _atom_site_label
 _atom_site_symmetry_multiplicity
 _atom_site_fract_x
 _atom_site_fract_y
 _atom_site_fract_z
 _atom_site_occupancy
  Lu  Lu0  1  0.328307  0.828307  0.500000  1
  Lu  Lu1  1  0.168395  0.335512  0.500000  1
  Lu  Lu2  1  0.835512  0.668395  0.500000  1
  Pa  Pa3  1  0.665446  0.165446  0.500000  1
  Cd  Cd4  1  0.006650  0.998443  0.000000  1
  Cd  Cd5  1  0.498443  0.506650  0.000000  1
  Pt  Pt6  1  0.126976  0.626976  0.000000  1
  Pt  Pt7  1  0.860919  0.360919  0.000000  1
  Pt  Pt8  1  0.635129  0.874223  0.000000  1
  Pt  Pt9  1  0.374223  0.135129  0.000000  1
