# generated using pymatgen
data_Hf16Re3Ni4Pt
_symmetry_space_group_name_H-M   'P 1'
_cell_length_a   8.63259237
_cell_length_b   8.63259222
_cell_length_c   8.63259279
_cell_angle_alpha   60.01387813
_cell_angle_beta   60.01388263
_cell_angle_gamma   60.01387775
_symmetry_Int_Tables_number   1
_chemical_formula_structural   Hf16Re3Ni4Pt
_chemical_formula_sum   'Hf16 Re3 Ni4 Pt1'
_cell_volume   455.03557267
_cell_formula_units_Z   1
loop_
 _symmetry_equiv_pos_site_id
 _symmetry_equiv_pos_as_xyz
  1  'x, y, z'
loop_
 _atom_site_type_symbol
 _atom_site_label
 _atom_site_symmetry_multiplicity
 _atom_site_fract_x
 _atom_site_fract_y
 _atom_site_fract_z
 _atom_site_occupancy
  Hf  Hf0  1  0.686433  0.104079  0.104079  1
  Hf  Hf1  1  0.104079  0.686433  0.104079  1
  Hf  Hf2  1  0.104079  0.104079  0.686433  1
  Hf  Hf3  1  0.103106  0.103106  0.103106  1
  Hf  Hf4  1  0.315974  0.315974  0.691555  1
  Hf  Hf5  1  0.685542  0.685542  0.315304  1
  Hf  Hf6  1  0.315974  0.691555  0.315974  1
  Hf  Hf7  1  0.685542  0.315304  0.685542  1
  Hf  Hf8  1  0.691555  0.315974  0.315974  1
  Hf  Hf9  1  0.315304  0.685542  0.685542  1
  Hf  Hf10  1  0.954020  0.954020  0.545398  1
  Hf  Hf11  1  0.548261  0.548261  0.948740  1
  Hf  Hf12  1  0.954020  0.545398  0.954020  1
  Hf  Hf13  1  0.548261  0.948740  0.548261  1
  Hf  Hf14  1  0.545398  0.954020  0.954020  1
  Hf  Hf15  1  0.948740  0.548261  0.548261  1
  Re  Re16  1  0.998198  0.332431  0.332431  1
  Re  Re17  1  0.332431  0.998198  0.332431  1
  Re  Re18  1  0.332431  0.332431  0.998198  1
  Ni  Ni19  1  0.324315  0.890275  0.890275  1
  Ni  Ni20  1  0.890275  0.324315  0.890275  1
  Ni  Ni21  1  0.890275  0.890275  0.324315  1
  Ni  Ni22  1  0.892382  0.892382  0.892382  1
  Pt  Pt23  1  0.333401  0.333401  0.333401  1
