# generated using pymatgen
data_Y4Tc3OsRu4
_symmetry_space_group_name_H-M   'P 1'
_cell_length_a   5.28016100
_cell_length_b   5.10299933
_cell_length_c   9.09892100
_cell_angle_alpha   90.00000000
_cell_angle_beta   90.00000000
_cell_angle_gamma   117.46558976
_symmetry_Int_Tables_number   1
_chemical_formula_structural   Y4Tc3OsRu4
_chemical_formula_sum   'Y4 Tc3 Os1 Ru4'
_cell_volume   217.53401319
_cell_formula_units_Z   1
loop_
 _symmetry_equiv_pos_site_id
 _symmetry_equiv_pos_as_xyz
  1  'x, y, z'
loop_
 _atom_site_type_symbol
 _atom_site_label
 _atom_site_symmetry_multiplicity
 _atom_site_fract_x
 _atom_site_fract_y
 _atom_site_fract_z
 _atom_site_occupancy
  Y  Y0  1  0.671258  0.333406  0.566255  1
  Y  Y1  1  0.328766  0.665900  0.435810  1
  Y  Y2  1  0.328766  0.665900  0.064190  1
  Y  Y3  1  0.671258  0.333406  0.933745  1
  Tc  Tc4  1  0.166037  0.831221  0.750000  1
  Tc  Tc5  1  0.834257  0.661342  0.250000  1
  Tc  Tc6  1  0.836034  0.176078  0.250000  1
  Os  Os7  1  0.167932  0.340532  0.750000  1
  Ru  Ru8  1  0.998034  0.996300  0.500428  1
  Ru  Ru9  1  0.998034  0.996300  0.999572  1
  Ru  Ru10  1  0.653951  0.825992  0.750000  1
  Ru  Ru11  1  0.345672  0.173626  0.250000  1
