# generated using pymatgen
data_DyHoMgB2Rh5
_symmetry_space_group_name_H-M   'P 1'
_cell_length_a   9.64105316
_cell_length_b   9.64105316
_cell_length_c   3.18329400
_cell_angle_alpha   90.00000000
_cell_angle_beta   90.00000000
_cell_angle_gamma   89.92321777
_symmetry_Int_Tables_number   1
_chemical_formula_structural   DyHoMgB2Rh5
_chemical_formula_sum   'Dy2 Ho2 Mg2 B4 Rh10'
_cell_volume   295.88661275
_cell_formula_units_Z   2
loop_
 _symmetry_equiv_pos_site_id
 _symmetry_equiv_pos_as_xyz
  1  'x, y, z'
loop_
 _atom_site_type_symbol
 _atom_site_label
 _atom_site_symmetry_multiplicity
 _atom_site_fract_x
 _atom_site_fract_y
 _atom_site_fract_z
 _atom_site_occupancy
  Dy  Dy0  1  0.675581  0.175581  0.000000  1
  Dy  Dy1  1  0.324419  0.824419  0.000000  1
  Ho  Ho2  1  0.175616  0.324384  0.000000  1
  Ho  Ho3  1  0.824384  0.675616  0.000000  1
  Mg  Mg4  1  0.000000  0.000000  0.000000  1
  Mg  Mg5  1  0.500000  0.500000  0.000000  1
  B  B6  1  0.122661  0.622661  0.000000  1
  B  B7  1  0.877339  0.377339  0.000000  1
  B  B8  1  0.622812  0.877188  0.000000  1
  B  B9  1  0.377188  0.122812  0.000000  1
  Rh  Rh10  1  0.500000  0.000000  0.500000  1
  Rh  Rh11  1  0.000000  0.500000  0.500000  1
  Rh  Rh12  1  0.223889  0.070958  0.500000  1
  Rh  Rh13  1  0.776111  0.929042  0.500000  1
  Rh  Rh14  1  0.070090  0.775707  0.500000  1
  Rh  Rh15  1  0.724293  0.429910  0.500000  1
  Rh  Rh16  1  0.929910  0.224293  0.500000  1
  Rh  Rh17  1  0.275707  0.570090  0.500000  1
  Rh  Rh18  1  0.570958  0.723889  0.500000  1
  Rh  Rh19  1  0.429042  0.276111  0.500000  1
