# generated using pymatgen
data_Nd2YTm3(Co3P2)6
_symmetry_space_group_name_H-M   'P 1'
_cell_length_a   3.70140900
_cell_length_b   10.52508000
_cell_length_c   12.19171100
_cell_angle_alpha   89.99854113
_cell_angle_beta   90.00000000
_cell_angle_gamma   90.00000000
_symmetry_Int_Tables_number   1
_chemical_formula_structural   Nd2YTm3(Co3P2)6
_chemical_formula_sum   'Nd2 Y1 Tm3 Co18 P12'
_cell_volume   474.96011538
_cell_formula_units_Z   1
loop_
 _symmetry_equiv_pos_site_id
 _symmetry_equiv_pos_as_xyz
  1  'x, y, z'
loop_
 _atom_site_type_symbol
 _atom_site_label
 _atom_site_symmetry_multiplicity
 _atom_site_fract_x
 _atom_site_fract_y
 _atom_site_fract_z
 _atom_site_occupancy
  Nd  Nd0  1  0.000000  0.499882  0.522622  1
  Nd  Nd1  1  0.500000  0.000209  0.477763  1
  Y  Y2  1  0.500000  0.817571  0.204726  1
  Tm  Tm3  1  0.500000  0.182724  0.204629  1
  Tm  Tm4  1  0.000000  0.681836  0.795440  1
  Tm  Tm5  1  0.000000  0.318011  0.794966  1
  Co  Co6  1  0.500000  0.499707  0.156647  1
  Co  Co7  1  0.000000  0.000333  0.843365  1
  Co  Co8  1  0.500000  0.499739  0.707039  1
  Co  Co9  1  0.000000  0.001607  0.293157  1
  Co  Co10  1  0.000000  0.499349  0.985863  1
  Co  Co11  1  0.500000  0.000651  0.012466  1
  Co  Co12  1  0.500000  0.333214  0.994656  1
  Co  Co13  1  0.500000  0.666062  0.994159  1
  Co  Co14  1  0.000000  0.167569  0.004773  1
  Co  Co15  1  0.000000  0.833023  0.004441  1
  Co  Co16  1  0.500000  0.296842  0.428695  1
  Co  Co17  1  0.500000  0.703040  0.429846  1
  Co  Co18  1  0.000000  0.203494  0.571421  1
  Co  Co19  1  0.000000  0.796664  0.572198  1
  Co  Co20  1  0.500000  0.878933  0.713318  1
  Co  Co21  1  0.500000  0.121092  0.712860  1
  Co  Co22  1  0.000000  0.619988  0.287723  1
  Co  Co23  1  0.000000  0.378875  0.286913  1
  P  P24  1  0.500000  0.499599  0.883205  1
  P  P25  1  0.000000  0.001208  0.115705  1
  P  P26  1  0.500000  0.499980  0.339850  1
  P  P27  1  0.000000  0.999963  0.660411  1
  P  P28  1  0.500000  0.307887  0.618441  1
  P  P29  1  0.500000  0.691868  0.619061  1
  P  P30  1  0.000000  0.192512  0.381612  1
  P  P31  1  0.000000  0.807702  0.383158  1
  P  P32  1  0.500000  0.845767  0.893732  1
  P  P33  1  0.500000  0.154406  0.893232  1
  P  P34  1  0.000000  0.652316  0.105649  1
  P  P35  1  0.000000  0.346376  0.106260  1
