# generated using pymatgen
data_Ho8VPd5Pt19
_symmetry_space_group_name_H-M   'P 1'
_cell_length_a   8.33799539
_cell_length_b   8.32837000
_cell_length_c   8.35211600
_cell_angle_alpha   90.00000000
_cell_angle_beta   90.04333950
_cell_angle_gamma   90.00000000
_symmetry_Int_Tables_number   1
_chemical_formula_structural   Ho8VPd5Pt19
_chemical_formula_sum   'Ho8 V1 Pd5 Pt19'
_cell_volume   579.98672690
_cell_formula_units_Z   1
loop_
 _symmetry_equiv_pos_site_id
 _symmetry_equiv_pos_as_xyz
  1  'x, y, z'
loop_
 _atom_site_type_symbol
 _atom_site_label
 _atom_site_symmetry_multiplicity
 _atom_site_fract_x
 _atom_site_fract_y
 _atom_site_fract_z
 _atom_site_occupancy
  Ho  Ho0  1  0.251179  0.250905  0.250747  1
  Ho  Ho1  1  0.747568  0.746938  0.747040  1
  Ho  Ho2  1  0.748681  0.748594  0.250959  1
  Ho  Ho3  1  0.747568  0.253062  0.747040  1
  Ho  Ho4  1  0.252420  0.252441  0.746943  1
  Ho  Ho5  1  0.251179  0.749095  0.250747  1
  Ho  Ho6  1  0.252420  0.747559  0.746943  1
  Ho  Ho7  1  0.748681  0.251406  0.250959  1
  V  V8  1  0.000720  0.000000  0.018152  1
  Pd  Pd9  1  0.500375  0.000000  0.737200  1
  Pd  Pd10  1  0.738146  0.000000  0.501283  1
  Pd  Pd11  1  0.999909  0.500000  0.259253  1
  Pd  Pd12  1  0.000156  0.500000  0.736973  1
  Pd  Pd13  1  0.999785  0.000000  0.715751  1
  Pt  Pt14  1  0.260693  0.500000  0.999445  1
  Pt  Pt15  1  0.739341  0.500000  0.999634  1
  Pt  Pt16  1  0.000021  0.262029  0.500355  1
  Pt  Pt17  1  0.499982  0.260832  0.999523  1
  Pt  Pt18  1  0.000021  0.737971  0.500355  1
  Pt  Pt19  1  0.499982  0.739168  0.999523  1
  Pt  Pt20  1  0.500262  0.000000  0.259028  1
  Pt  Pt21  1  0.261902  0.000000  0.500735  1
  Pt  Pt22  1  0.252949  0.500000  0.498662  1
  Pt  Pt23  1  0.746851  0.500000  0.498759  1
  Pt  Pt24  1  0.499731  0.253334  0.498330  1
  Pt  Pt25  1  0.499731  0.746666  0.498330  1
  Pt  Pt26  1  0.499971  0.500000  0.253106  1
  Pt  Pt27  1  0.499987  0.500000  0.745187  1
  Pt  Pt28  1  0.291478  0.000000  0.996257  1
  Pt  Pt29  1  0.709155  0.000000  0.996425  1
  Pt  Pt30  1  0.999890  0.292147  0.996441  1
  Pt  Pt31  1  0.999890  0.707853  0.996441  1
  Pt  Pt32  1  0.999377  0.000000  0.303478  1
