# generated using pymatgen
data_Ho2RuRhF14
_symmetry_space_group_name_H-M   'P 1'
_cell_length_a   5.53704200
_cell_length_b   8.84475042
_cell_length_c   11.92142098
_cell_angle_alpha   62.82350962
_cell_angle_beta   90.00000000
_cell_angle_gamma   90.00000000
_symmetry_Int_Tables_number   1
_chemical_formula_structural   Ho2RuRhF14
_chemical_formula_sum   'Ho4 Ru2 Rh2 F28'
_cell_volume   519.38341880
_cell_formula_units_Z   2
loop_
 _symmetry_equiv_pos_site_id
 _symmetry_equiv_pos_as_xyz
  1  'x, y, z'
loop_
 _atom_site_type_symbol
 _atom_site_label
 _atom_site_symmetry_multiplicity
 _atom_site_fract_x
 _atom_site_fract_y
 _atom_site_fract_z
 _atom_site_occupancy
  Ho  Ho0  1  0.756480  0.818809  0.767476  1
  Ho  Ho1  1  0.256480  0.181191  0.732524  1
  Ho  Ho2  1  0.236535  0.192348  0.236778  1
  Ho  Ho3  1  0.736535  0.807652  0.263222  1
  Ru  Ru4  1  0.757235  0.275726  0.953766  1
  Ru  Ru5  1  0.257235  0.724274  0.546234  1
  Rh  Rh6  1  0.240897  0.729591  0.040844  1
  Rh  Rh7  1  0.740897  0.270409  0.459156  1
  F  F8  1  0.443207  0.707900  0.912544  1
  F  F9  1  0.943207  0.292100  0.587456  1
  F  F10  1  0.560926  0.297136  0.078440  1
  F  F11  1  0.060926  0.702864  0.421560  1
  F  F12  1  0.442196  0.278300  0.547480  1
  F  F13  1  0.942196  0.721700  0.952520  1
  F  F14  1  0.550904  0.720715  0.458102  1
  F  F15  1  0.050904  0.279285  0.041898  1
  F  F16  1  0.773839  0.517624  0.857702  1
  F  F17  1  0.273839  0.482376  0.642298  1
  F  F18  1  0.228459  0.480088  0.138419  1
  F  F19  1  0.728459  0.519912  0.361581  1
  F  F20  1  0.751650  0.035008  0.044829  1
  F  F21  1  0.251650  0.964992  0.455171  1
  F  F22  1  0.239331  0.978153  0.944392  1
  F  F23  1  0.739331  0.021847  0.555608  1
  F  F24  1  0.971160  0.723798  0.639484  1
  F  F25  1  0.471160  0.276202  0.860516  1
  F  F26  1  0.031058  0.266430  0.364540  1
  F  F27  1  0.531058  0.733570  0.135460  1
  F  F28  1  0.045937  0.751936  0.171639  1
  F  F29  1  0.545937  0.248064  0.328361  1
  F  F30  1  0.952989  0.258279  0.825246  1
  F  F31  1  0.452989  0.741721  0.674754  1
  F  F32  1  0.425855  0.976646  0.234531  1
  F  F33  1  0.925855  0.023354  0.265469  1
  F  F34  1  0.591345  0.035131  0.771143  1
  F  F35  1  0.091345  0.964869  0.728857  1
