# generated using pymatgen
data_Tb3Mg2PaNi4
_symmetry_space_group_name_H-M   'P 1'
_cell_length_a   7.50779355
_cell_length_b   7.50779355
_cell_length_c   3.58997400
_cell_angle_alpha   90.00000000
_cell_angle_beta   90.00000000
_cell_angle_gamma   92.21185493
_symmetry_Int_Tables_number   1
_chemical_formula_structural   Tb3Mg2PaNi4
_chemical_formula_sum   'Tb3 Mg2 Pa1 Ni4'
_cell_volume   202.20517016
_cell_formula_units_Z   1
loop_
 _symmetry_equiv_pos_site_id
 _symmetry_equiv_pos_as_xyz
  1  'x, y, z'
loop_
 _atom_site_type_symbol
 _atom_site_label
 _atom_site_symmetry_multiplicity
 _atom_site_fract_x
 _atom_site_fract_y
 _atom_site_fract_z
 _atom_site_occupancy
  Tb  Tb0  1  0.326748  0.826748  0.500000  1
  Tb  Tb1  1  0.170231  0.331447  0.500000  1
  Tb  Tb2  1  0.831447  0.670231  0.500000  1
  Mg  Mg3  1  0.001568  0.999864  0.000000  1
  Mg  Mg4  1  0.499864  0.501568  0.000000  1
  Pa  Pa5  1  0.667652  0.167652  0.500000  1
  Ni  Ni6  1  0.115080  0.615080  0.000000  1
  Ni  Ni7  1  0.858940  0.358940  0.000000  1
  Ni  Ni8  1  0.631906  0.896564  0.000000  1
  Ni  Ni9  1  0.396564  0.131906  0.000000  1
