# generated using pymatgen
data_Sr2NpU3N8
_symmetry_space_group_name_H-M   'P 1'
_cell_length_a   10.12035217
_cell_length_b   3.51678300
_cell_length_c   11.91056883
_cell_angle_alpha   90.00000000
_cell_angle_beta   89.72974582
_cell_angle_gamma   90.00000000
_symmetry_Int_Tables_number   1
_chemical_formula_structural   Sr2NpU3N8
_chemical_formula_sum   'Sr4 Np2 U6 N16'
_cell_volume   423.90532155
_cell_formula_units_Z   2
loop_
 _symmetry_equiv_pos_site_id
 _symmetry_equiv_pos_as_xyz
  1  'x, y, z'
loop_
 _atom_site_type_symbol
 _atom_site_label
 _atom_site_symmetry_multiplicity
 _atom_site_fract_x
 _atom_site_fract_y
 _atom_site_fract_z
 _atom_site_occupancy
  Sr  Sr0  1  0.750321  0.500001  0.145055  1
  Sr  Sr1  1  0.249667  0.500001  0.351321  1
  Sr  Sr2  1  0.750097  0.000000  0.646331  1
  Sr  Sr3  1  0.251715  0.000000  0.857141  1
  Np  Np4  1  0.078902  0.500001  0.113238  1
  Np  Np5  1  0.422359  0.000000  0.113549  1
  U  U6  1  0.923674  0.000000  0.387547  1
  U  U7  1  0.577670  0.500001  0.385652  1
  U  U8  1  0.421928  0.000000  0.614030  1
  U  U9  1  0.076239  0.500001  0.612978  1
  U  U10  1  0.575124  0.500001  0.889368  1
  U  U11  1  0.921028  0.000000  0.888565  1
  N  N12  1  0.617769  0.000000  0.003542  1
  N  N13  1  0.940771  0.000000  0.072366  1
  N  N14  1  0.211640  0.000000  0.166554  1
  N  N15  1  0.488856  0.500001  0.218665  1
  N  N16  1  0.982920  0.500001  0.288340  1
  N  N17  1  0.711483  0.000000  0.335562  1
  N  N18  1  0.442055  0.000000  0.425921  1
  N  N19  1  0.114366  0.000000  0.493607  1
  N  N20  1  0.885569  0.500001  0.507826  1
  N  N21  1  0.558144  0.500001  0.574613  1
  N  N22  1  0.289950  0.500001  0.665149  1
  N  N23  1  0.011839  0.000000  0.713205  1
  N  N24  1  0.513861  0.000000  0.785698  1
  N  N25  1  0.788307  0.500001  0.835339  1
  N  N26  1  0.055121  0.500001  0.921180  1
  N  N27  1  0.388639  0.500001  0.987668  1
