# generated using pymatgen
data_Sm6PtCl10
_symmetry_space_group_name_H-M   'P 1'
_cell_length_a   7.29173798
_cell_length_b   9.11172404
_cell_length_c   9.14516982
_cell_angle_alpha   109.96546754
_cell_angle_beta   96.86076977
_cell_angle_gamma   106.92393677
_symmetry_Int_Tables_number   1
_chemical_formula_structural   Sm6PtCl10
_chemical_formula_sum   'Sm6 Pt1 Cl10'
_cell_volume   529.92724675
_cell_formula_units_Z   1
loop_
 _symmetry_equiv_pos_site_id
 _symmetry_equiv_pos_as_xyz
  1  'x, y, z'
loop_
 _atom_site_type_symbol
 _atom_site_label
 _atom_site_symmetry_multiplicity
 _atom_site_fract_x
 _atom_site_fract_y
 _atom_site_fract_z
 _atom_site_occupancy
  Sm  Sm0  1  0.877252  0.150331  0.198169  1
  Sm  Sm1  1  0.122748  0.849669  0.801831  1
  Sm  Sm2  1  0.523042  0.683955  0.891846  1
  Sm  Sm3  1  0.476958  0.316045  0.108154  1
  Sm  Sm4  1  0.638800  0.052450  0.748673  1
  Sm  Sm5  1  0.361200  0.947550  0.251327  1
  Pt  Pt6  1  0.500000  0.000000  0.000000  1
  Cl  Cl7  1  0.745023  0.079854  0.452410  1
  Cl  Cl8  1  0.254977  0.920146  0.547590  1
  Cl  Cl9  1  0.948634  0.829323  0.074251  1
  Cl  Cl10  1  0.051366  0.170677  0.925749  1
  Cl  Cl11  1  0.299046  0.257655  0.351287  1
  Cl  Cl12  1  0.700954  0.742345  0.648713  1
  Cl  Cl13  1  0.589942  0.367042  0.838361  1
  Cl  Cl14  1  0.410058  0.632958  0.161639  1
  Cl  Cl15  1  0.862323  0.462686  0.278941  1
  Cl  Cl16  1  0.137677  0.537314  0.721059  1
