# generated using pymatgen
data_ScMn2Zn3(B2Rh5)2
_symmetry_space_group_name_H-M   'P 1'
_cell_length_a   9.36541876
_cell_length_b   9.36088893
_cell_length_c   2.94925500
_cell_angle_alpha   90.00000000
_cell_angle_beta   90.00000000
_cell_angle_gamma   90.87090627
_symmetry_Int_Tables_number   1
_chemical_formula_structural   ScMn2Zn3(B2Rh5)2
_chemical_formula_sum   'Sc1 Mn2 Zn3 B4 Rh10'
_cell_volume   258.52732029
_cell_formula_units_Z   1
loop_
 _symmetry_equiv_pos_site_id
 _symmetry_equiv_pos_as_xyz
  1  'x, y, z'
loop_
 _atom_site_type_symbol
 _atom_site_label
 _atom_site_symmetry_multiplicity
 _atom_site_fract_x
 _atom_site_fract_y
 _atom_site_fract_z
 _atom_site_occupancy
  Sc  Sc0  1  0.676392  0.825206  0.000000  1
  Mn  Mn1  1  0.322037  0.180415  0.000000  1
  Mn  Mn2  1  0.173872  0.673330  0.000000  1
  Zn  Zn3  1  0.822060  0.322274  0.000000  1
  Zn  Zn4  1  0.000423  0.997933  0.000000  1
  Zn  Zn5  1  0.498979  0.501963  0.000000  1
  B  B6  1  0.627920  0.128769  0.000000  1
  B  B7  1  0.129444  0.371948  0.000000  1
  B  B8  1  0.876376  0.624743  0.000000  1
  B  B9  1  0.371134  0.871967  0.000000  1
  Rh  Rh10  1  0.073099  0.213670  0.500000  1
  Rh  Rh11  1  0.215935  0.928104  0.500000  1
  Rh  Rh12  1  0.785950  0.074985  0.500000  1
  Rh  Rh13  1  0.933989  0.780889  0.500000  1
  Rh  Rh14  1  0.425636  0.716313  0.500000  1
  Rh  Rh15  1  0.572131  0.286377  0.500000  1
  Rh  Rh16  1  0.716498  0.570042  0.500000  1
  Rh  Rh17  1  0.283255  0.431864  0.500000  1
  Rh  Rh18  1  0.497703  0.004257  0.500000  1
  Rh  Rh19  1  0.997166  0.494951  0.500000  1
