# generated using pymatgen
data_Er11Tm5(LuIr3)4
_symmetry_space_group_name_H-M   'P 1'
_cell_length_a   10.76830602
_cell_length_b   10.76500600
_cell_length_c   6.31883701
_cell_angle_alpha   90.00125897
_cell_angle_beta   90.00705491
_cell_angle_gamma   90.00175609
_symmetry_Int_Tables_number   1
_chemical_formula_structural   Er11Tm5(LuIr3)4
_chemical_formula_sum   'Er11 Tm5 Lu4 Ir12'
_cell_volume   732.48513436
_cell_formula_units_Z   1
loop_
 _symmetry_equiv_pos_site_id
 _symmetry_equiv_pos_as_xyz
  1  'x, y, z'
loop_
 _atom_site_type_symbol
 _atom_site_label
 _atom_site_symmetry_multiplicity
 _atom_site_fract_x
 _atom_site_fract_y
 _atom_site_fract_z
 _atom_site_occupancy
  Er  Er0  1  0.290598  0.087640  0.377251  1
  Er  Er1  1  0.290705  0.912479  0.877273  1
  Er  Er2  1  0.709237  0.087599  0.877449  1
  Er  Er3  1  0.709220  0.912405  0.377422  1
  Er  Er4  1  0.587591  0.790653  0.877300  1
  Er  Er5  1  0.587129  0.208952  0.377894  1
  Er  Er6  1  0.412674  0.791059  0.377354  1
  Er  Er7  1  0.412716  0.209039  0.877600  1
  Er  Er8  1  0.208795  0.412933  0.622407  1
  Er  Er9  1  0.208602  0.587137  0.122371  1
  Er  Er10  1  0.791117  0.413026  0.122458  1
  Tm  Tm11  1  0.791681  0.586868  0.621914  1
  Tm  Tm12  1  0.913135  0.708548  0.121821  1
  Tm  Tm13  1  0.913232  0.291538  0.621710  1
  Tm  Tm14  1  0.086434  0.708601  0.621925  1
  Tm  Tm15  1  0.086512  0.291503  0.121758  1
  Lu  Lu16  1  0.999941  0.000037  0.500819  1
  Lu  Lu17  1  0.999896  0.999881  0.000722  1
  Lu  Lu18  1  0.499985  0.500110  0.000734  1
  Lu  Lu19  1  0.500296  0.500168  0.500808  1
  Ir  Ir20  1  0.848168  0.152550  0.250845  1
  Ir  Ir21  1  0.848351  0.846721  0.750229  1
  Ir  Ir22  1  0.151741  0.152663  0.750785  1
  Ir  Ir23  1  0.151830  0.847265  0.250778  1
  Ir  Ir24  1  0.653138  0.348420  0.749495  1
  Ir  Ir25  1  0.653089  0.651942  0.250485  1
  Ir  Ir26  1  0.347290  0.347882  0.249847  1
  Ir  Ir27  1  0.347306  0.652336  0.749900  1
  Ir  Ir28  1  0.500006  0.999969  0.122287  1
  Ir  Ir29  1  0.500042  0.999875  0.622510  1
  Ir  Ir30  1  0.999752  0.500167  0.876612  1
  Ir  Ir31  1  0.999792  0.500033  0.377233  1
