# generated using pymatgen
data_SmY3(GaPt3)6
_symmetry_space_group_name_H-M   'P 1'
_cell_length_a   7.79613916
_cell_length_b   7.79217189
_cell_length_c   10.21054972
_cell_angle_alpha   67.74934352
_cell_angle_beta   67.70930225
_cell_angle_gamma   60.02197418
_symmetry_Int_Tables_number   1
_chemical_formula_structural   SmY3(GaPt3)6
_chemical_formula_sum   'Sm1 Y3 Ga6 Pt18'
_cell_volume   483.10495262
_cell_formula_units_Z   1
loop_
 _symmetry_equiv_pos_site_id
 _symmetry_equiv_pos_as_xyz
  1  'x, y, z'
loop_
 _atom_site_type_symbol
 _atom_site_label
 _atom_site_symmetry_multiplicity
 _atom_site_fract_x
 _atom_site_fract_y
 _atom_site_fract_z
 _atom_site_occupancy
  Sm  Sm0  1  0.414569  0.246052  0.250320  1
  Y  Y1  1  0.585636  0.753967  0.749629  1
  Y  Y2  1  0.754064  0.585534  0.249525  1
  Y  Y3  1  0.245923  0.414535  0.750378  1
  Ga  Ga4  1  0.500101  0.000094  0.999974  1
  Ga  Ga5  1  0.000342  0.499707  0.500152  1
  Ga  Ga6  1  0.639421  0.180989  0.499225  1
  Ga  Ga7  1  0.360481  0.818969  0.501114  1
  Ga  Ga8  1  0.818871  0.360418  0.000998  1
  Ga  Ga9  1  0.180852  0.639854  0.998706  1
  Pt  Pt10  1  0.292165  0.917383  0.253983  1
  Pt  Pt11  1  0.707003  0.082181  0.746094  1
  Pt  Pt12  1  0.082141  0.707524  0.246005  1
  Pt  Pt13  1  0.917529  0.293162  0.754013  1
  Pt  Pt14  1  0.470803  0.646522  0.077751  1
  Pt  Pt15  1  0.529735  0.356137  0.919237  1
  Pt  Pt16  1  0.354508  0.530327  0.422443  1
  Pt  Pt17  1  0.645220  0.470742  0.578514  1
  Pt  Pt18  1  0.867320  0.132975  0.250086  1
  Pt  Pt19  1  0.133571  0.866369  0.749891  1
  Pt  Pt20  1  0.809209  0.977045  0.072884  1
  Pt  Pt21  1  0.192646  0.021935  0.926081  1
  Pt  Pt22  1  0.020539  0.192086  0.427088  1
  Pt  Pt23  1  0.977522  0.807524  0.574208  1
  Pt  Pt24  1  0.698282  0.858130  0.423208  1
  Pt  Pt25  1  0.302383  0.139430  0.580095  1
  Pt  Pt26  1  0.139175  0.303191  0.076502  1
  Pt  Pt27  1  0.859990  0.697217  0.921898  1
