# generated using pymatgen
data_HoEr3CoB14
_symmetry_space_group_name_H-M   'P 1'
_cell_length_a   7.19030100
_cell_length_b   7.19030800
_cell_length_c   7.46183800
_cell_angle_alpha   90.00000000
_cell_angle_beta   90.00000000
_cell_angle_gamma   90.00003187
_symmetry_Int_Tables_number   1
_chemical_formula_structural   HoEr3CoB14
_chemical_formula_sum   'Ho2 Er6 Co2 B28'
_cell_volume   385.78059735
_cell_formula_units_Z   2
loop_
 _symmetry_equiv_pos_site_id
 _symmetry_equiv_pos_as_xyz
  1  'x, y, z'
loop_
 _atom_site_type_symbol
 _atom_site_label
 _atom_site_symmetry_multiplicity
 _atom_site_fract_x
 _atom_site_fract_y
 _atom_site_fract_z
 _atom_site_occupancy
  Ho  Ho0  1  0.193074  0.330363  0.000000  1
  Ho  Ho1  1  0.669763  0.193254  0.000000  1
  Er  Er2  1  0.330630  0.807015  0.000000  1
  Er  Er3  1  0.693003  0.169764  0.500000  1
  Er  Er4  1  0.306930  0.830204  0.500000  1
  Er  Er5  1  0.806826  0.669516  0.000000  1
  Er  Er6  1  0.830259  0.692980  0.500000  1
  Er  Er7  1  0.169822  0.306920  0.500000  1
  Co  Co8  1  0.000146  0.999395  0.000000  1
  Co  Co9  1  0.500079  0.500196  0.500000  1
  B  B10  1  0.174707  0.038436  0.230973  1
  B  B11  1  0.961273  0.174450  0.231121  1
  B  B12  1  0.038708  0.825036  0.230838  1
  B  B13  1  0.674684  0.461521  0.269646  1
  B  B14  1  0.325344  0.538993  0.269727  1
  B  B15  1  0.825295  0.961005  0.230986  1
  B  B16  1  0.538724  0.674933  0.269618  1
  B  B17  1  0.461247  0.325593  0.269759  1
  B  B18  1  0.825295  0.961005  0.769014  1
  B  B19  1  0.038708  0.825036  0.769162  1
  B  B20  1  0.961273  0.174450  0.768879  1
  B  B21  1  0.325344  0.538993  0.730273  1
  B  B22  1  0.674684  0.461521  0.730354  1
  B  B23  1  0.174707  0.038436  0.769027  1
  B  B24  1  0.461247  0.325593  0.730241  1
  B  B25  1  0.538724  0.674933  0.730382  1
  B  B26  1  0.087951  0.588022  0.250681  1
  B  B27  1  0.411880  0.088056  0.250663  1
  B  B28  1  0.587952  0.912040  0.250487  1
  B  B29  1  0.911937  0.411956  0.250474  1
  B  B30  1  0.911937  0.411956  0.749526  1
  B  B31  1  0.587952  0.912040  0.749513  1
  B  B32  1  0.411880  0.088056  0.749337  1
  B  B33  1  0.087951  0.588022  0.749319  1
  B  B34  1  0.999988  0.999710  0.388622  1
  B  B35  1  0.500046  0.500445  0.111738  1
  B  B36  1  0.999988  0.999710  0.611378  1
  B  B37  1  0.500046  0.500445  0.888262  1
