# generated using pymatgen
data_Cs3P2AuSe8
_symmetry_space_group_name_H-M   'P 1'
_cell_length_a   7.70655449
_cell_length_b   7.70655402
_cell_length_c   20.20238581
_cell_angle_alpha   86.22415492
_cell_angle_beta   86.22415279
_cell_angle_gamma   120.55772626
_symmetry_Int_Tables_number   1
_chemical_formula_structural   Cs3P2AuSe8
_chemical_formula_sum   'Cs6 P4 Au2 Se16'
_cell_volume   1024.04752485
_cell_formula_units_Z   2
loop_
 _symmetry_equiv_pos_site_id
 _symmetry_equiv_pos_as_xyz
  1  'x, y, z'
loop_
 _atom_site_type_symbol
 _atom_site_label
 _atom_site_symmetry_multiplicity
 _atom_site_fract_x
 _atom_site_fract_y
 _atom_site_fract_z
 _atom_site_occupancy
  Cs  Cs0  1  0.503146  0.359237  0.107738  1
  Cs  Cs1  1  0.359237  0.503146  0.607738  1
  Cs  Cs2  1  0.895297  0.694168  0.752283  1
  Cs  Cs3  1  0.694168  0.895297  0.252283  1
  Cs  Cs4  1  0.589953  0.036835  0.895410  1
  Cs  Cs5  1  0.036835  0.589953  0.395410  1
  P  P6  1  0.304237  0.430162  0.884359  1
  P  P7  1  0.430162  0.304237  0.384359  1
  P  P8  1  0.212736  0.677150  0.117506  1
  P  P9  1  0.677150  0.212736  0.617506  1
  Au  Au10  1  0.069244  0.958747  0.999210  1
  Au  Au11  1  0.958747  0.069244  0.499210  1
  Se  Se12  1  0.496308  0.150619  0.713021  1
  Se  Se13  1  0.150619  0.496308  0.213021  1
  Se  Se14  1  0.107143  0.089049  0.882221  1
  Se  Se15  1  0.089049  0.107143  0.382221  1
  Se  Se16  1  0.324506  0.600147  0.790666  1
  Se  Se17  1  0.600147  0.324506  0.290666  1
  Se  Se18  1  0.591043  0.522568  0.922939  1
  Se  Se19  1  0.522568  0.591043  0.422939  1
  Se  Se20  1  0.102235  0.527539  0.943006  1
  Se  Se21  1  0.527539  0.102235  0.443006  1
  Se  Se22  1  0.052394  0.398332  0.057562  1
  Se  Se23  1  0.398332  0.052394  0.557562  1
  Se  Se24  1  0.529479  0.886489  0.081373  1
  Se  Se25  1  0.886489  0.529479  0.581373  1
  Se  Se26  1  0.022024  0.825996  0.116407  1
  Se  Se27  1  0.825996  0.022024  0.616407  1
