# generated using pymatgen
data_MgPa4ZnRh4
_symmetry_space_group_name_H-M   'P 1'
_cell_length_a   7.55862200
_cell_length_b   7.55862200
_cell_length_c   3.62912600
_cell_angle_alpha   90.00000000
_cell_angle_beta   90.00000000
_cell_angle_gamma   90.00000000
_symmetry_Int_Tables_number   1
_chemical_formula_structural   MgPa4ZnRh4
_chemical_formula_sum   'Mg1 Pa4 Zn1 Rh4'
_cell_volume   207.34200850
_cell_formula_units_Z   1
loop_
 _symmetry_equiv_pos_site_id
 _symmetry_equiv_pos_as_xyz
  1  'x, y, z'
loop_
 _atom_site_type_symbol
 _atom_site_label
 _atom_site_symmetry_multiplicity
 _atom_site_fract_x
 _atom_site_fract_y
 _atom_site_fract_z
 _atom_site_occupancy
  Mg  Mg0  1  0.500000  0.500000  0.000000  1
  Pa  Pa1  1  0.676622  0.163354  0.500000  1
  Pa  Pa2  1  0.163354  0.323378  0.500000  1
  Pa  Pa3  1  0.836647  0.676622  0.500000  1
  Pa  Pa4  1  0.323378  0.836647  0.500000  1
  Zn  Zn5  1  0.000000  0.000000  0.000000  1
  Rh  Rh6  1  0.360932  0.135463  0.000000  1
  Rh  Rh7  1  0.864537  0.360932  0.000000  1
  Rh  Rh8  1  0.135463  0.639069  0.000000  1
  Rh  Rh9  1  0.639069  0.864537  0.000000  1
