# generated using pymatgen
data_EuDy3(AuCl6)4
_symmetry_space_group_name_H-M   'P 1'
_cell_length_a   7.77379734
_cell_length_b   9.89438257
_cell_length_c   14.06592800
_cell_angle_alpha   103.36752720
_cell_angle_beta   97.16945201
_cell_angle_gamma   112.57008870
_symmetry_Int_Tables_number   1
_chemical_formula_structural   EuDy3(AuCl6)4
_chemical_formula_sum   'Eu1 Dy3 Au4 Cl24'
_cell_volume   944.12201997
_cell_formula_units_Z   1
loop_
 _symmetry_equiv_pos_site_id
 _symmetry_equiv_pos_as_xyz
  1  'x, y, z'
loop_
 _atom_site_type_symbol
 _atom_site_label
 _atom_site_symmetry_multiplicity
 _atom_site_fract_x
 _atom_site_fract_y
 _atom_site_fract_z
 _atom_site_occupancy
  Eu  Eu0  1  0.967862  0.312918  0.871123  1
  Dy  Dy1  1  0.576437  0.923527  0.619713  1
  Dy  Dy2  1  0.031904  0.688577  0.130653  1
  Dy  Dy3  1  0.422448  0.074382  0.378098  1
  Au  Au4  1  0.291657  0.636573  0.762331  1
  Au  Au5  1  0.498988  0.498756  0.499419  1
  Au  Au6  1  0.709681  0.366593  0.236745  1
  Au  Au7  1  0.998808  0.998149  0.002365  1
  Cl  Cl8  1  0.776726  0.097537  0.976532  1
  Cl  Cl9  1  0.721768  0.149029  0.265900  1
  Cl  Cl10  1  0.279600  0.853863  0.733075  1
  Cl  Cl11  1  0.770483  0.787649  0.031225  1
  Cl  Cl12  1  0.613163  0.188967  0.737666  1
  Cl  Cl13  1  0.306682  0.416359  0.785854  1
  Cl  Cl14  1  0.699663  0.588809  0.213436  1
  Cl  Cl15  1  0.303335  0.626745  0.497753  1
  Cl  Cl16  1  0.229690  0.207108  0.973444  1
  Cl  Cl17  1  0.757246  0.733260  0.526636  1
  Cl  Cl18  1  0.217195  0.894991  0.028299  1
  Cl  Cl19  1  0.721141  0.048014  0.483204  1
  Cl  Cl20  1  0.606798  0.735185  0.747301  1
  Cl  Cl21  1  0.941642  0.052941  0.725658  1
  Cl  Cl22  1  0.240822  0.263979  0.471599  1
  Cl  Cl23  1  0.382969  0.808019  0.258247  1
  Cl  Cl24  1  0.974855  0.543967  0.774050  1
  Cl  Cl25  1  0.768766  0.442018  0.981675  1
  Cl  Cl26  1  0.239428  0.569188  0.028157  1
  Cl  Cl27  1  0.026073  0.463674  0.224075  1
  Cl  Cl28  1  0.394951  0.267042  0.252268  1
  Cl  Cl29  1  0.275768  0.948653  0.513346  1
  Cl  Cl30  1  0.694857  0.371065  0.501269  1
  Cl  Cl31  1  0.058592  0.942463  0.268883  1
