# generated using pymatgen
data_Cs2FeCo3F12
_symmetry_space_group_name_H-M   'P 1'
_cell_length_a   7.54182400
_cell_length_b   7.74981908
_cell_length_c   13.10621200
_cell_angle_alpha   55.15241107
_cell_angle_beta   90.00000000
_cell_angle_gamma   90.00000000
_symmetry_Int_Tables_number   1
_chemical_formula_structural   Cs2FeCo3F12
_chemical_formula_sum   'Cs4 Fe2 Co6 F24'
_cell_volume   628.66067845
_cell_formula_units_Z   2
loop_
 _symmetry_equiv_pos_site_id
 _symmetry_equiv_pos_as_xyz
  1  'x, y, z'
loop_
 _atom_site_type_symbol
 _atom_site_label
 _atom_site_symmetry_multiplicity
 _atom_site_fract_x
 _atom_site_fract_y
 _atom_site_fract_z
 _atom_site_occupancy
  Cs  Cs0  1  0.498606  0.359521  0.383112  1
  Cs  Cs1  1  0.001394  0.359521  0.883112  1
  Cs  Cs2  1  0.501394  0.640479  0.616888  1
  Cs  Cs3  1  0.998606  0.640479  0.116888  1
  Fe  Fe4  1  0.500000  0.500000  0.000000  1
  Fe  Fe5  1  0.000000  0.500000  0.500000  1
  Co  Co6  1  0.500000  0.000000  0.000000  1
  Co  Co7  1  0.000000  0.000000  0.500000  1
  Co  Co8  1  0.729065  0.994130  0.260289  1
  Co  Co9  1  0.770935  0.994130  0.760289  1
  Co  Co10  1  0.270935  0.005870  0.739711  1
  Co  Co11  1  0.229065  0.005870  0.239711  1
  F  F12  1  0.652894  0.911444  0.134745  1
  F  F13  1  0.847106  0.911444  0.634745  1
  F  F14  1  0.347106  0.088556  0.865255  1
  F  F15  1  0.152894  0.088556  0.365255  1
  F  F16  1  0.208447  0.957956  0.603060  1
  F  F17  1  0.291553  0.957956  0.103060  1
  F  F18  1  0.791553  0.042044  0.396940  1
  F  F19  1  0.708447  0.042044  0.896940  1
  F  F20  1  0.472683  0.937406  0.318790  1
  F  F21  1  0.027317  0.937406  0.818790  1
  F  F22  1  0.527317  0.062594  0.681210  1
  F  F23  1  0.972683  0.062594  0.181210  1
  F  F24  1  0.838141  0.319491  0.638537  1
  F  F25  1  0.661859  0.319491  0.138537  1
  F  F26  1  0.161859  0.680509  0.361463  1
  F  F27  1  0.338141  0.680509  0.861463  1
  F  F28  1  0.296365  0.332982  0.105016  1
  F  F29  1  0.203635  0.332982  0.605016  1
  F  F30  1  0.703635  0.667018  0.894984  1
  F  F31  1  0.796365  0.667018  0.394984  1
  F  F32  1  0.524530  0.305339  0.943892  1
  F  F33  1  0.975470  0.305339  0.443892  1
  F  F34  1  0.475470  0.694661  0.056108  1
  F  F35  1  0.024530  0.694661  0.556108  1
