# generated using pymatgen
data_OsPbF7
_symmetry_space_group_name_H-M   'P 1'
_cell_length_a   4.83117471
_cell_length_b   7.53933563
_cell_length_c   7.90265236
_cell_angle_alpha   105.22953916
_cell_angle_beta   101.53690870
_cell_angle_gamma   90.85257474
_symmetry_Int_Tables_number   1
_chemical_formula_structural   OsPbF7
_chemical_formula_sum   'Os2 Pb2 F14'
_cell_volume   271.43206850
_cell_formula_units_Z   2
loop_
 _symmetry_equiv_pos_site_id
 _symmetry_equiv_pos_as_xyz
  1  'x, y, z'
loop_
 _atom_site_type_symbol
 _atom_site_label
 _atom_site_symmetry_multiplicity
 _atom_site_fract_x
 _atom_site_fract_y
 _atom_site_fract_z
 _atom_site_occupancy
  Os  Os0  1  0.355129  0.187808  0.285037  1
  Os  Os1  1  0.644871  0.812192  0.714963  1
  Pb  Pb2  1  0.823162  0.645315  0.188870  1
  Pb  Pb3  1  0.176838  0.354685  0.811130  1
  F  F4  1  0.722153  0.430428  0.911687  1
  F  F5  1  0.277847  0.569572  0.088313  1
  F  F6  1  0.060894  0.053059  0.336384  1
  F  F7  1  0.939106  0.946941  0.663616  1
  F  F8  1  0.496816  0.958360  0.180109  1
  F  F9  1  0.503184  0.041640  0.819891  1
  F  F10  1  0.576869  0.200833  0.517223  1
  F  F11  1  0.423131  0.799167  0.482777  1
  F  F12  1  0.649706  0.324538  0.231472  1
  F  F13  1  0.350294  0.675462  0.768528  1
  F  F14  1  0.204642  0.414348  0.389601  1
  F  F15  1  0.795358  0.585652  0.610399  1
  F  F16  1  0.130049  0.186552  0.052344  1
  F  F17  1  0.869951  0.813448  0.947656  1
