# generated using pymatgen
data_Dy4ReOs6Ru
_symmetry_space_group_name_H-M   'P 1'
_cell_length_a   5.26665682
_cell_length_b   5.39299827
_cell_length_c   8.97582910
_cell_angle_alpha   90.00000239
_cell_angle_beta   89.95172577
_cell_angle_gamma   120.79675763
_symmetry_Int_Tables_number   1
_chemical_formula_structural   Dy4ReOs6Ru
_chemical_formula_sum   'Dy4 Re1 Os6 Ru1'
_cell_volume   218.99147323
_cell_formula_units_Z   1
loop_
 _symmetry_equiv_pos_site_id
 _symmetry_equiv_pos_as_xyz
  1  'x, y, z'
loop_
 _atom_site_type_symbol
 _atom_site_label
 _atom_site_symmetry_multiplicity
 _atom_site_fract_x
 _atom_site_fract_y
 _atom_site_fract_z
 _atom_site_occupancy
  Dy  Dy0  1  0.328367  0.664185  0.434529  1
  Dy  Dy1  1  0.656665  0.328332  0.564735  1
  Dy  Dy2  1  0.657725  0.328862  0.935150  1
  Dy  Dy3  1  0.329635  0.664819  0.065790  1
  Re  Re4  1  0.683151  0.841576  0.749215  1
  Os  Os5  1  0.976659  0.988330  0.500014  1
  Os  Os6  1  0.836798  0.169365  0.250482  1
  Os  Os7  1  0.836798  0.667433  0.250482  1
  Os  Os8  1  0.355188  0.177594  0.250715  1
  Os  Os9  1  0.181069  0.826008  0.749605  1
  Os  Os10  1  0.181069  0.355061  0.749605  1
  Ru  Ru11  1  0.976875  0.988438  0.999678  1
