# generated using pymatgen
data_Zr6Zn16Au7S
_symmetry_space_group_name_H-M   'P 1'
_cell_length_a   8.87772746
_cell_length_b   8.88457340
_cell_length_c   8.88461202
_cell_angle_alpha   60.00008117
_cell_angle_beta   59.97674866
_cell_angle_gamma   59.97636968
_symmetry_Int_Tables_number   1
_chemical_formula_structural   Zr6Zn16Au7S
_chemical_formula_sum   'Zr6 Zn16 Au7 S1'
_cell_volume   495.34542757
_cell_formula_units_Z   1
loop_
 _symmetry_equiv_pos_site_id
 _symmetry_equiv_pos_as_xyz
  1  'x, y, z'
loop_
 _atom_site_type_symbol
 _atom_site_label
 _atom_site_symmetry_multiplicity
 _atom_site_fract_x
 _atom_site_fract_y
 _atom_site_fract_z
 _atom_site_occupancy
  Zr  Zr0  1  0.705129  0.294862  0.294860  1
  Zr  Zr1  1  0.294512  0.703756  0.703757  1
  Zr  Zr2  1  0.294504  0.703768  0.297963  1
  Zr  Zr3  1  0.705138  0.294850  0.705161  1
  Zr  Zr4  1  0.294504  0.297963  0.703768  1
  Zr  Zr5  1  0.705137  0.705158  0.294850  1
  Zn  Zn6  1  0.364620  0.878457  0.878447  1
  Zn  Zn7  1  0.498461  0.998723  0.998722  1
  Zn  Zn8  1  0.999596  0.500057  0.500056  1
  Zn  Zn9  1  0.999596  0.500059  0.000288  1
  Zn  Zn10  1  0.498463  0.998720  0.504095  1
  Zn  Zn11  1  0.999596  0.000290  0.500057  1
  Zn  Zn12  1  0.498462  0.504094  0.998722  1
  Zn  Zn13  1  0.334482  0.334357  0.334358  1
  Zn  Zn14  1  0.663832  0.666590  0.666593  1
  Zn  Zn15  1  0.334491  0.334353  0.996797  1
  Zn  Zn16  1  0.334488  0.996809  0.334349  1
  Zn  Zn17  1  0.663828  0.666604  0.002973  1
  Zn  Zn18  1  0.663825  0.002985  0.666599  1
  Zn  Zn19  1  0.996710  0.334432  0.334433  1
  Zn  Zn20  1  0.002523  0.665823  0.665823  1
  Zn  Zn21  1  0.002273  0.999239  0.999250  1
  Au  Au22  1  0.124043  0.118769  0.118774  1
  Au  Au23  1  0.878675  0.878726  0.878727  1
  Au  Au24  1  0.124054  0.118758  0.638422  1
  Au  Au25  1  0.124053  0.638418  0.118761  1
  Au  Au26  1  0.878663  0.878734  0.363876  1
  Au  Au27  1  0.878666  0.363873  0.878737  1
  Au  Au28  1  0.635136  0.121624  0.121628  1
  S  S29  1  0.502540  0.499149  0.499158  1
