# generated using pymatgen
data_Nd2Y(ZnPt)4
_symmetry_space_group_name_H-M   'P 1'
_cell_length_a   8.32486054
_cell_length_b   8.32485969
_cell_length_c   8.32485985
_cell_angle_alpha   151.41320520
_cell_angle_beta   126.59144129
_cell_angle_gamma   61.69284936
_symmetry_Int_Tables_number   1
_chemical_formula_structural   Nd2Y(ZnPt)4
_chemical_formula_sum   'Nd2 Y1 Zn4 Pt4'
_cell_volume   219.82234400
_cell_formula_units_Z   1
loop_
 _symmetry_equiv_pos_site_id
 _symmetry_equiv_pos_as_xyz
  1  'x, y, z'
loop_
 _atom_site_type_symbol
 _atom_site_label
 _atom_site_symmetry_multiplicity
 _atom_site_fract_x
 _atom_site_fract_y
 _atom_site_fract_z
 _atom_site_occupancy
  Nd  Nd0  1  0.500420  0.000420  0.500000  1
  Nd  Nd1  1  0.125221  0.125221  0.000000  1
  Y  Y2  1  0.872955  0.872955  0.000000  1
  Zn  Zn3  1  0.480138  0.673543  0.806595  1
  Zn  Zn4  1  0.866947  0.673543  0.193405  1
  Zn  Zn5  1  0.129317  0.326346  0.802971  1
  Zn  Zn6  1  0.523375  0.326346  0.197029  1
  Pt  Pt7  1  0.281941  0.781941  0.500000  1
  Pt  Pt8  1  0.722225  0.222225  0.500000  1
  Pt  Pt9  1  0.805198  0.498731  0.306467  1
  Pt  Pt10  1  0.192264  0.498731  0.693533  1
