# generated using pymatgen
data_CeGe(AsRh2)3
_symmetry_space_group_name_H-M   'P 1'
_cell_length_a   7.26198000
_cell_length_b   7.26198036
_cell_length_c   3.86707700
_cell_angle_alpha   90.00000000
_cell_angle_beta   90.00000000
_cell_angle_gamma   120.00000747
_symmetry_Int_Tables_number   1
_chemical_formula_structural   CeGe(AsRh2)3
_chemical_formula_sum   'Ce1 Ge1 As3 Rh6'
_cell_volume   176.61335363
_cell_formula_units_Z   1
loop_
 _symmetry_equiv_pos_site_id
 _symmetry_equiv_pos_as_xyz
  1  'x, y, z'
loop_
 _atom_site_type_symbol
 _atom_site_label
 _atom_site_symmetry_multiplicity
 _atom_site_fract_x
 _atom_site_fract_y
 _atom_site_fract_z
 _atom_site_occupancy
  Ce  Ce0  1  0.000000  0.000000  0.000000  1
  Ge  Ge1  1  0.666667  0.333333  0.000000  1
  As  As2  1  0.192049  0.807951  0.500000  1
  As  As3  1  0.192049  0.384098  0.500000  1
  As  As4  1  0.615902  0.807951  0.500000  1
  Rh  Rh5  1  0.465904  0.534096  0.000000  1
  Rh  Rh6  1  0.465904  0.931807  0.000000  1
  Rh  Rh7  1  0.068193  0.534096  0.000000  1
  Rh  Rh8  1  0.802388  0.197612  0.500000  1
  Rh  Rh9  1  0.802388  0.604776  0.500000  1
  Rh  Rh10  1  0.395224  0.197612  0.500000  1
