# generated using pymatgen
data_Sc6Fe3CoSi5Ge
_symmetry_space_group_name_H-M   'P 1'
_cell_length_a   5.35906815
_cell_length_b   5.35906887
_cell_length_c   12.93385098
_cell_angle_alpha   90.15088563
_cell_angle_beta   89.84911429
_cell_angle_gamma   136.66995020
_symmetry_Int_Tables_number   1
_chemical_formula_structural   Sc6Fe3CoSi5Ge
_chemical_formula_sum   'Sc6 Fe3 Co1 Si5 Ge1'
_cell_volume   254.89153381
_cell_formula_units_Z   1
loop_
 _symmetry_equiv_pos_site_id
 _symmetry_equiv_pos_as_xyz
  1  'x, y, z'
loop_
 _atom_site_type_symbol
 _atom_site_label
 _atom_site_symmetry_multiplicity
 _atom_site_fract_x
 _atom_site_fract_y
 _atom_site_fract_z
 _atom_site_occupancy
  Sc  Sc0  1  0.639698  0.360302  0.749483  1
  Sc  Sc1  1  0.919539  0.080461  0.613229  1
  Sc  Sc2  1  0.918591  0.081409  0.886098  1
  Sc  Sc3  1  0.079275  0.920725  0.110791  1
  Sc  Sc4  1  0.360168  0.639832  0.250887  1
  Sc  Sc5  1  0.079062  0.920938  0.389638  1
  Fe  Fe6  1  0.214619  0.785381  0.582753  1
  Fe  Fe7  1  0.788615  0.211385  0.419618  1
  Fe  Fe8  1  0.215231  0.784769  0.919701  1
  Co  Co9  1  0.787690  0.212310  0.078245  1
  Si  Si10  1  0.384385  0.615615  0.460243  1
  Si  Si11  1  0.385935  0.614065  0.040195  1
  Si  Si12  1  0.617725  0.382275  0.540993  1
  Si  Si13  1  0.329397  0.670603  0.750191  1
  Si  Si14  1  0.616437  0.383563  0.958157  1
  Ge  Ge15  1  0.663635  0.336365  0.249777  1
