# generated using pymatgen
data_Ac2Yb(SnPt)3
_symmetry_space_group_name_H-M   'P 1'
_cell_length_a   7.76370415
_cell_length_b   7.69067085
_cell_length_c   4.30163700
_cell_angle_alpha   90.00000000
_cell_angle_beta   90.00000000
_cell_angle_gamma   119.68930735
_symmetry_Int_Tables_number   1
_chemical_formula_structural   Ac2Yb(SnPt)3
_chemical_formula_sum   'Ac2 Yb1 Sn3 Pt3'
_cell_volume   223.12527171
_cell_formula_units_Z   1
loop_
 _symmetry_equiv_pos_site_id
 _symmetry_equiv_pos_as_xyz
  1  'x, y, z'
loop_
 _atom_site_type_symbol
 _atom_site_label
 _atom_site_symmetry_multiplicity
 _atom_site_fract_x
 _atom_site_fract_y
 _atom_site_fract_z
 _atom_site_occupancy
  Ac  Ac0  1  0.415718  0.417140  0.000000  1
  Ac  Ac1  1  0.584282  0.001422  0.000000  1
  Yb  Yb2  1  0.000000  0.591362  0.000000  1
  Sn  Sn3  1  0.000000  0.256603  0.500000  1
  Sn  Sn4  1  0.763411  0.750674  0.500000  1
  Sn  Sn5  1  0.236589  0.987263  0.500000  1
  Pt  Pt6  1  0.676330  0.338570  0.500000  1
  Pt  Pt7  1  0.000000  0.994727  0.000000  1
  Pt  Pt8  1  0.323670  0.662240  0.500000  1
