# generated using pymatgen
data_Hf5Sc11(Pt2O)4
_symmetry_space_group_name_H-M   'P 1'
_cell_length_a   8.77429893
_cell_length_b   8.77429867
_cell_length_c   8.77020300
_cell_angle_alpha   60.01544352
_cell_angle_beta   60.01544451
_cell_angle_gamma   59.92596894
_symmetry_Int_Tables_number   1
_chemical_formula_structural   Hf5Sc11(Pt2O)4
_chemical_formula_sum   'Hf5 Sc11 Pt8 O4'
_cell_volume   477.28429288
_cell_formula_units_Z   1
loop_
 _symmetry_equiv_pos_site_id
 _symmetry_equiv_pos_as_xyz
  1  'x, y, z'
loop_
 _atom_site_type_symbol
 _atom_site_label
 _atom_site_symmetry_multiplicity
 _atom_site_fract_x
 _atom_site_fract_y
 _atom_site_fract_z
 _atom_site_occupancy
  Hf  Hf0  1  0.125259  0.625382  0.624680  1
  Hf  Hf1  1  0.625382  0.125259  0.624680  1
  Hf  Hf2  1  0.625318  0.625318  0.125525  1
  Hf  Hf3  1  0.625318  0.625318  0.623839  1
  Hf  Hf4  1  0.817777  0.817777  0.182223  1
  Sc  Sc5  1  0.181655  0.181655  0.818345  1
  Sc  Sc6  1  0.818857  0.182786  0.816778  1
  Sc  Sc7  1  0.182786  0.818857  0.181579  1
  Sc  Sc8  1  0.182786  0.818857  0.816778  1
  Sc  Sc9  1  0.818857  0.182786  0.181579  1
  Sc  Sc10  1  0.431426  0.431426  0.068574  1
  Sc  Sc11  1  0.067981  0.067981  0.432019  1
  Sc  Sc12  1  0.430461  0.068431  0.432816  1
  Sc  Sc13  1  0.068431  0.430461  0.068293  1
  Sc  Sc14  1  0.068431  0.430461  0.432816  1
  Sc  Sc15  1  0.430461  0.068431  0.068293  1
  Pt  Pt16  1  0.772074  0.409539  0.409193  1
  Pt  Pt17  1  0.409539  0.772074  0.409193  1
  Pt  Pt18  1  0.409755  0.409755  0.770648  1
  Pt  Pt19  1  0.409755  0.409755  0.409840  1
  Pt  Pt20  1  0.479604  0.839844  0.840276  1
  Pt  Pt21  1  0.839844  0.479604  0.840276  1
  Pt  Pt22  1  0.840359  0.840359  0.476435  1
  Pt  Pt23  1  0.840359  0.840359  0.842848  1
  O  O24  1  0.628212  0.119735  0.126026  1
  O  O25  1  0.119735  0.628212  0.126026  1
  O  O26  1  0.124789  0.124789  0.625525  1
  O  O27  1  0.124789  0.124789  0.124897  1
