# generated using pymatgen
data_K2Sm(YI4)3
_symmetry_space_group_name_H-M   'P 1'
_cell_length_a   8.52119900
_cell_length_b   8.52119892
_cell_length_c   14.58165300
_cell_angle_alpha   90.00000000
_cell_angle_beta   90.00000000
_cell_angle_gamma   119.99999643
_symmetry_Int_Tables_number   1
_chemical_formula_structural   K2Sm(YI4)3
_chemical_formula_sum   'K2 Sm1 Y3 I12'
_cell_volume   916.93556458
_cell_formula_units_Z   1
loop_
 _symmetry_equiv_pos_site_id
 _symmetry_equiv_pos_as_xyz
  1  'x, y, z'
loop_
 _atom_site_type_symbol
 _atom_site_label
 _atom_site_symmetry_multiplicity
 _atom_site_fract_x
 _atom_site_fract_y
 _atom_site_fract_z
 _atom_site_occupancy
  K  K0  1  0.333333  0.666667  0.870970  1
  K  K1  1  0.666667  0.333333  0.376580  1
  Sm  Sm2  1  0.000000  0.000000  0.125743  1
  Y  Y3  1  0.000000  0.000000  0.376157  1
  Y  Y4  1  0.000000  0.000000  0.625720  1
  Y  Y5  1  0.000000  0.000000  0.875413  1
  I  I6  1  0.987337  0.699517  0.997804  1
  I  I7  1  0.285272  0.982460  0.253748  1
  I  I8  1  0.017540  0.302812  0.253748  1
  I  I9  1  0.300483  0.287820  0.997804  1
  I  I10  1  0.284985  0.296821  0.501720  1
  I  I11  1  0.712180  0.012663  0.997804  1
  I  I12  1  0.298782  0.015932  0.749687  1
  I  I13  1  0.697188  0.714728  0.253748  1
  I  I14  1  0.717150  0.701218  0.749687  1
  I  I15  1  0.011836  0.715015  0.501720  1
  I  I16  1  0.703179  0.988164  0.501720  1
  I  I17  1  0.984068  0.282850  0.749687  1
