# generated using pymatgen
data_Ho20Ir8Pt3Au
_symmetry_space_group_name_H-M   'P 1'
_cell_length_a   10.97809905
_cell_length_b   10.96239318
_cell_length_c   6.31832541
_cell_angle_alpha   89.99232178
_cell_angle_beta   89.95344705
_cell_angle_gamma   89.37377952
_symmetry_Int_Tables_number   1
_chemical_formula_structural   Ho20Ir8Pt3Au
_chemical_formula_sum   'Ho20 Ir8 Pt3 Au1'
_cell_volume   760.34102242
_cell_formula_units_Z   1
loop_
 _symmetry_equiv_pos_site_id
 _symmetry_equiv_pos_as_xyz
  1  'x, y, z'
loop_
 _atom_site_type_symbol
 _atom_site_label
 _atom_site_symmetry_multiplicity
 _atom_site_fract_x
 _atom_site_fract_y
 _atom_site_fract_z
 _atom_site_occupancy
  Ho  Ho0  1  0.290280  0.088819  0.374322  1
  Ho  Ho1  1  0.292439  0.914529  0.874283  1
  Ho  Ho2  1  0.701046  0.083826  0.864437  1
  Ho  Ho3  1  0.702315  0.904890  0.375154  1
  Ho  Ho4  1  0.587684  0.791106  0.878619  1
  Ho  Ho5  1  0.576652  0.207018  0.371510  1
  Ho  Ho6  1  0.411481  0.793768  0.371542  1
  Ho  Ho7  1  0.405818  0.207689  0.877442  1
  Ho  Ho8  1  0.208814  0.408418  0.620983  1
  Ho  Ho9  1  0.206071  0.587679  0.127559  1
  Ho  Ho10  1  0.792992  0.422518  0.128944  1
  Ho  Ho11  1  0.792499  0.590278  0.622793  1
  Ho  Ho12  1  0.913040  0.708363  0.128787  1
  Ho  Ho13  1  0.919917  0.295736  0.637341  1
  Ho  Ho14  1  0.088693  0.705335  0.624058  1
  Ho  Ho15  1  0.096458  0.295496  0.121747  1
  Ho  Ho16  1  0.005383  0.996140  0.499717  1
  Ho  Ho17  1  0.005787  0.998682  0.000149  1
  Ho  Ho18  1  0.499531  0.499137  0.000036  1
  Ho  Ho19  1  0.500694  0.500880  0.500390  1
  Ir  Ir20  1  0.152297  0.152477  0.750662  1
  Ir  Ir21  1  0.155658  0.843832  0.249843  1
  Ir  Ir22  1  0.653145  0.651830  0.249123  1
  Ir  Ir23  1  0.348893  0.347745  0.251052  1
  Ir  Ir24  1  0.500500  0.999554  0.121707  1
  Ir  Ir25  1  0.499532  0.999959  0.622563  1
  Ir  Ir26  1  0.999926  0.501017  0.877439  1
  Ir  Ir27  1  0.000009  0.499658  0.378161  1
  Pt  Pt28  1  0.847043  0.847481  0.749564  1
  Pt  Pt29  1  0.657107  0.343877  0.749396  1
  Pt  Pt30  1  0.344871  0.655905  0.750623  1
  Au  Au31  1  0.843424  0.156360  0.250055  1
