# generated using pymatgen
data_Nd16Cd4NiOs3
_symmetry_space_group_name_H-M   'P 1'
_cell_length_a   9.86615941
_cell_length_b   9.98851713
_cell_length_c   9.98851700
_cell_angle_alpha   59.99999710
_cell_angle_beta   59.58889518
_cell_angle_gamma   59.58889966
_symmetry_Int_Tables_number   1
_chemical_formula_structural   Nd16Cd4NiOs3
_chemical_formula_sum   'Nd16 Cd4 Ni1 Os3'
_cell_volume   691.68505557
_cell_formula_units_Z   1
loop_
 _symmetry_equiv_pos_site_id
 _symmetry_equiv_pos_as_xyz
  1  'x, y, z'
loop_
 _atom_site_type_symbol
 _atom_site_label
 _atom_site_symmetry_multiplicity
 _atom_site_fract_x
 _atom_site_fract_y
 _atom_site_fract_z
 _atom_site_occupancy
  Nd  Nd0  1  0.597929  0.596714  0.596714  1
  Nd  Nd1  1  0.597929  0.596714  0.208644  1
  Nd  Nd2  1  0.597929  0.208644  0.596714  1
  Nd  Nd3  1  0.210171  0.596610  0.596610  1
  Nd  Nd4  1  0.059834  0.440016  0.440016  1
  Nd  Nd5  1  0.440257  0.060025  0.060025  1
  Nd  Nd6  1  0.440257  0.060025  0.439694  1
  Nd  Nd7  1  0.059834  0.440016  0.060134  1
  Nd  Nd8  1  0.440257  0.439694  0.060025  1
  Nd  Nd9  1  0.059834  0.060134  0.440016  1
  Nd  Nd10  1  0.189468  0.810219  0.810219  1
  Nd  Nd11  1  0.807306  0.188340  0.188340  1
  Nd  Nd12  1  0.807306  0.188340  0.816014  1
  Nd  Nd13  1  0.189468  0.810219  0.190093  1
  Nd  Nd14  1  0.807306  0.816014  0.188340  1
  Nd  Nd15  1  0.189468  0.190093  0.810219  1
  Cd  Cd16  1  0.828822  0.830155  0.830155  1
  Cd  Cd17  1  0.828822  0.830155  0.510869  1
  Cd  Cd18  1  0.828822  0.510869  0.830155  1
  Cd  Cd19  1  0.511755  0.829415  0.829415  1
  Ni  Ni20  1  0.830013  0.389996  0.389996  1
  Os  Os21  1  0.392405  0.387945  0.387945  1
  Os  Os22  1  0.392405  0.387945  0.831704  1
  Os  Os23  1  0.392405  0.831704  0.387945  1
