# generated using pymatgen
data_PuU(PO5)2
_symmetry_space_group_name_H-M   'P 1'
_cell_length_a   5.56122695
_cell_length_b   8.92387133
_cell_length_c   9.33831600
_cell_angle_alpha   101.87707752
_cell_angle_beta   103.34781625
_cell_angle_gamma   98.26009040
_symmetry_Int_Tables_number   1
_chemical_formula_structural   PuU(PO5)2
_chemical_formula_sum   'Pu2 U2 P4 O20'
_cell_volume   432.27977494
_cell_formula_units_Z   2
loop_
 _symmetry_equiv_pos_site_id
 _symmetry_equiv_pos_as_xyz
  1  'x, y, z'
loop_
 _atom_site_type_symbol
 _atom_site_label
 _atom_site_symmetry_multiplicity
 _atom_site_fract_x
 _atom_site_fract_y
 _atom_site_fract_z
 _atom_site_occupancy
  Pu  Pu0  1  0.351505  0.297488  0.046951  1
  Pu  Pu1  1  0.648495  0.702512  0.953049  1
  U  U2  1  0.336591  0.802429  0.552521  1
  U  U3  1  0.663409  0.197571  0.447479  1
  P  P4  1  0.092379  0.517541  0.765818  1
  P  P5  1  0.907621  0.482459  0.234182  1
  P  P6  1  0.281806  0.921915  0.177103  1
  P  P7  1  0.718194  0.078085  0.822897  1
  O  O8  1  0.002517  0.142902  0.894881  1
  O  O9  1  0.997483  0.857098  0.105119  1
  O  O10  1  0.975023  0.377075  0.631166  1
  O  O11  1  0.024977  0.622925  0.368834  1
  O  O12  1  0.725213  0.354301  0.270582  1
  O  O13  1  0.274787  0.645699  0.729418  1
  O  O14  1  0.431949  0.817219  0.093982  1
  O  O15  1  0.568051  0.182781  0.906018  1
  O  O16  1  0.432790  0.303810  0.496740  1
  O  O17  1  0.567210  0.696190  0.503260  1
  O  O18  1  0.883481  0.587570  0.824529  1
  O  O19  1  0.116519  0.412430  0.175471  1
  O  O20  1  0.281764  0.475943  0.898273  1
  O  O21  1  0.718236  0.524057  0.101727  1
  O  O22  1  0.884561  0.090138  0.386552  1
  O  O23  1  0.115439  0.909862  0.613448  1
  O  O24  1  0.357763  0.930773  0.350005  1
  O  O25  1  0.642237  0.069227  0.649995  1
  O  O26  1  0.363531  0.095344  0.172922  1
  O  O27  1  0.636469  0.904656  0.827078  1
