# generated using pymatgen
data_Tb3Y3Pa2(ReB6)4
_symmetry_space_group_name_H-M   'P 1'
_cell_length_a   3.71248400
_cell_length_b   9.20528436
_cell_length_c   11.57150400
_cell_angle_alpha   89.61039229
_cell_angle_beta   90.00000000
_cell_angle_gamma   90.00000000
_symmetry_Int_Tables_number   1
_chemical_formula_structural   Tb3Y3Pa2(ReB6)4
_chemical_formula_sum   'Tb3 Y3 Pa2 Re4 B24'
_cell_volume   395.44088404
_cell_formula_units_Z   1
loop_
 _symmetry_equiv_pos_site_id
 _symmetry_equiv_pos_as_xyz
  1  'x, y, z'
loop_
 _atom_site_type_symbol
 _atom_site_label
 _atom_site_symmetry_multiplicity
 _atom_site_fract_x
 _atom_site_fract_y
 _atom_site_fract_z
 _atom_site_occupancy
  Tb  Tb0  1  0.000000  0.324210  0.414199  1
  Tb  Tb1  1  0.000000  0.675782  0.585861  1
  Tb  Tb2  1  0.000000  0.444723  0.126884  1
  Y  Y3  1  0.000000  0.555205  0.873094  1
  Y  Y4  1  0.000000  0.943781  0.373508  1
  Y  Y5  1  0.000000  0.056226  0.626509  1
  Pa  Pa6  1  0.000000  0.822305  0.087015  1
  Pa  Pa7  1  0.000000  0.177755  0.912937  1
  Re  Re8  1  0.000000  0.134665  0.174624  1
  Re  Re9  1  0.000000  0.865217  0.825363  1
  Re  Re10  1  0.000000  0.640636  0.318059  1
  Re  Re11  1  0.000000  0.359425  0.681960  1
  B  B12  1  0.500000  0.052942  0.066924  1
  B  B13  1  0.500000  0.946995  0.933052  1
  B  B14  1  0.500000  0.553404  0.432279  1
  B  B15  1  0.500000  0.446640  0.567764  1
  B  B16  1  0.500000  0.246877  0.080048  1
  B  B17  1  0.500000  0.752992  0.919992  1
  B  B18  1  0.500000  0.747258  0.419437  1
  B  B19  1  0.500000  0.252753  0.580570  1
  B  B20  1  0.500000  0.290648  0.233549  1
  B  B21  1  0.500000  0.709134  0.766435  1
  B  B22  1  0.500000  0.792064  0.266151  1
  B  B23  1  0.500000  0.208014  0.733861  1
  B  B24  1  0.500000  0.131476  0.313768  1
  B  B25  1  0.500000  0.868484  0.686251  1
  B  B26  1  0.500000  0.633064  0.186202  1
  B  B27  1  0.500000  0.367029  0.813882  1
  B  B28  1  0.500000  0.482885  0.287532  1
  B  B29  1  0.500000  0.517293  0.712574  1
  B  B30  1  0.500000  0.982927  0.212849  1
  B  B31  1  0.500000  0.017066  0.787150  1
  B  B32  1  0.500000  0.106082  0.470175  1
  B  B33  1  0.500000  0.893913  0.529818  1
  B  B34  1  0.500000  0.614551  0.031503  1
  B  B35  1  0.500000  0.385576  0.968223  1
