# generated using pymatgen
data_Tm9Lu(Si3O)2
_symmetry_space_group_name_H-M   'P 1'
_cell_length_a   8.25680800
_cell_length_b   8.25680845
_cell_length_c   6.08696500
_cell_angle_alpha   90.00000000
_cell_angle_beta   90.00000000
_cell_angle_gamma   119.99999820
_symmetry_Int_Tables_number   1
_chemical_formula_structural   Tm9Lu(Si3O)2
_chemical_formula_sum   'Tm9 Lu1 Si6 O2'
_cell_volume   359.38160124
_cell_formula_units_Z   1
loop_
 _symmetry_equiv_pos_site_id
 _symmetry_equiv_pos_as_xyz
  1  'x, y, z'
loop_
 _atom_site_type_symbol
 _atom_site_label
 _atom_site_symmetry_multiplicity
 _atom_site_fract_x
 _atom_site_fract_y
 _atom_site_fract_z
 _atom_site_occupancy
  Tm  Tm0  1  0.767839  0.767744  0.250135  1
  Tm  Tm1  1  0.767839  0.000095  0.749865  1
  Tm  Tm2  1  0.999905  0.232161  0.250135  1
  Tm  Tm3  1  0.999905  0.767744  0.749865  1
  Tm  Tm4  1  0.232256  0.232161  0.749865  1
  Tm  Tm5  1  0.232256  0.000095  0.250135  1
  Tm  Tm6  1  0.666667  0.333333  0.000000  1
  Tm  Tm7  1  0.333333  0.666667  0.500000  1
  Tm  Tm8  1  0.333333  0.666667  0.000000  1
  Lu  Lu9  1  0.666667  0.333333  0.500000  1
  Si  Si10  1  0.398604  0.000382  0.749629  1
  Si  Si11  1  0.398604  0.398222  0.250371  1
  Si  Si12  1  0.999618  0.601396  0.250371  1
  Si  Si13  1  0.999618  0.398222  0.749629  1
  Si  Si14  1  0.601778  0.601396  0.749629  1
  Si  Si15  1  0.601778  0.000382  0.250371  1
  O  O16  1  0.000000  0.000000  0.500000  1
  O  O17  1  0.000000  0.000000  0.000000  1
