# generated using pymatgen
data_Sc8Ni(B8Ir)3
_symmetry_space_group_name_H-M   'P 1'
_cell_length_a   3.45310700
_cell_length_b   8.90233680
_cell_length_c   11.20052727
_cell_angle_alpha   89.86933531
_cell_angle_beta   90.00000000
_cell_angle_gamma   90.00000000
_symmetry_Int_Tables_number   1
_chemical_formula_structural   Sc8Ni(B8Ir)3
_chemical_formula_sum   'Sc8 Ni1 B24 Ir3'
_cell_volume   344.31139420
_cell_formula_units_Z   1
loop_
 _symmetry_equiv_pos_site_id
 _symmetry_equiv_pos_as_xyz
  1  'x, y, z'
loop_
 _atom_site_type_symbol
 _atom_site_label
 _atom_site_symmetry_multiplicity
 _atom_site_fract_x
 _atom_site_fract_y
 _atom_site_fract_z
 _atom_site_occupancy
  Sc  Sc0  1  0.500000  0.315625  0.409774  1
  Sc  Sc1  1  0.500000  0.682565  0.585610  1
  Sc  Sc2  1  0.500000  0.179920  0.919002  1
  Sc  Sc3  1  0.500000  0.823645  0.087801  1
  Sc  Sc4  1  0.500000  0.440934  0.126715  1
  Sc  Sc5  1  0.500000  0.555340  0.875505  1
  Sc  Sc6  1  0.500000  0.055509  0.624828  1
  Sc  Sc7  1  0.500000  0.946753  0.371231  1
  Ni  Ni8  1  0.500000  0.140923  0.180127  1
  B  B9  1  0.000000  0.103304  0.470741  1
  B  B10  1  0.000000  0.898347  0.526816  1
  B  B11  1  0.000000  0.395553  0.973019  1
  B  B12  1  0.000000  0.601796  0.028567  1
  B  B13  1  0.000000  0.131632  0.316675  1
  B  B14  1  0.000000  0.868646  0.680476  1
  B  B15  1  0.000000  0.368420  0.819605  1
  B  B16  1  0.000000  0.631051  0.181878  1
  B  B17  1  0.000000  0.053570  0.065388  1
  B  B18  1  0.000000  0.946947  0.936944  1
  B  B19  1  0.000000  0.446827  0.564041  1
  B  B20  1  0.000000  0.553396  0.435711  1
  B  B21  1  0.000000  0.478285  0.286973  1
  B  B22  1  0.000000  0.520459  0.713485  1
  B  B23  1  0.000000  0.020323  0.787342  1
  B  B24  1  0.000000  0.982240  0.211306  1
  B  B25  1  0.000000  0.250240  0.080171  1
  B  B26  1  0.000000  0.747777  0.923131  1
  B  B27  1  0.000000  0.247166  0.577359  1
  B  B28  1  0.000000  0.754257  0.421056  1
  B  B29  1  0.000000  0.294105  0.236737  1
  B  B30  1  0.000000  0.704261  0.762866  1
  B  B31  1  0.000000  0.204419  0.737143  1
  B  B32  1  0.000000  0.797118  0.262265  1
  Ir  Ir33  1  0.500000  0.859059  0.818749  1
  Ir  Ir34  1  0.500000  0.360020  0.679415  1
  Ir  Ir35  1  0.500000  0.639568  0.321549  1
