# generated using pymatgen
data_Dy8HoRh6
_symmetry_space_group_name_H-M   'P 1'
_cell_length_a   7.37418856
_cell_length_b   7.37418881
_cell_length_c   7.37418996
_cell_angle_alpha   71.56464754
_cell_angle_beta   71.56465133
_cell_angle_gamma   71.56464520
_symmetry_Int_Tables_number   1
_chemical_formula_structural   Dy8HoRh6
_chemical_formula_sum   'Dy8 Ho1 Rh6'
_cell_volume   350.32609610
_cell_formula_units_Z   1
loop_
 _symmetry_equiv_pos_site_id
 _symmetry_equiv_pos_as_xyz
  1  'x, y, z'
loop_
 _atom_site_type_symbol
 _atom_site_label
 _atom_site_symmetry_multiplicity
 _atom_site_fract_x
 _atom_site_fract_y
 _atom_site_fract_z
 _atom_site_occupancy
  Dy  Dy0  1  0.796338  0.796338  0.796338  1
  Dy  Dy1  1  0.203662  0.203662  0.203662  1
  Dy  Dy2  1  0.160460  0.393787  0.666457  1
  Dy  Dy3  1  0.666457  0.160460  0.393787  1
  Dy  Dy4  1  0.393787  0.666457  0.160460  1
  Dy  Dy5  1  0.839540  0.606213  0.333543  1
  Dy  Dy6  1  0.333543  0.839540  0.606213  1
  Dy  Dy7  1  0.606213  0.333543  0.839540  1
  Ho  Ho8  1  0.000000  0.000000  0.000000  1
  Rh  Rh9  1  0.956929  0.164175  0.591865  1
  Rh  Rh10  1  0.591865  0.956929  0.164175  1
  Rh  Rh11  1  0.164175  0.591865  0.956929  1
  Rh  Rh12  1  0.043071  0.835825  0.408135  1
  Rh  Rh13  1  0.408135  0.043071  0.835825  1
  Rh  Rh14  1  0.835825  0.408135  0.043071  1
