# generated using pymatgen
data_SmHo2Er2(In2Pt)2
_symmetry_space_group_name_H-M   'P 1'
_cell_length_a   3.61313100
_cell_length_b   8.16514000
_cell_length_c   18.26822900
_cell_angle_alpha   90.00000000
_cell_angle_beta   90.00000000
_cell_angle_gamma   90.00000000
_symmetry_Int_Tables_number   1
_chemical_formula_structural   SmHo2Er2(In2Pt)2
_chemical_formula_sum   'Sm2 Ho4 Er4 In8 Pt4'
_cell_volume   538.94418514
_cell_formula_units_Z   2
loop_
 _symmetry_equiv_pos_site_id
 _symmetry_equiv_pos_as_xyz
  1  'x, y, z'
loop_
 _atom_site_type_symbol
 _atom_site_label
 _atom_site_symmetry_multiplicity
 _atom_site_fract_x
 _atom_site_fract_y
 _atom_site_fract_z
 _atom_site_occupancy
  Sm  Sm0  1  0.000000  0.000000  0.000000  1
  Sm  Sm1  1  0.000000  0.500000  0.500000  1
  Ho  Ho2  1  0.000000  0.242678  0.220105  1
  Ho  Ho3  1  0.000000  0.757322  0.779895  1
  Ho  Ho4  1  0.000000  0.257322  0.720105  1
  Ho  Ho5  1  0.000000  0.742678  0.279895  1
  Er  Er6  1  0.000000  0.117231  0.414043  1
  Er  Er7  1  0.000000  0.882769  0.585957  1
  Er  Er8  1  0.000000  0.382769  0.914043  1
  Er  Er9  1  0.000000  0.617231  0.085957  1
  In  In10  1  0.500000  0.422034  0.349764  1
  In  In11  1  0.500000  0.577966  0.650236  1
  In  In12  1  0.500000  0.077966  0.849764  1
  In  In13  1  0.500000  0.922034  0.150236  1
  In  In14  1  0.500000  0.296386  0.066922  1
  In  In15  1  0.500000  0.703614  0.933078  1
  In  In16  1  0.500000  0.203614  0.566922  1
  In  In17  1  0.500000  0.796386  0.433078  1
  Pt  Pt18  1  0.500000  0.024607  0.303695  1
  Pt  Pt19  1  0.500000  0.975393  0.696305  1
  Pt  Pt20  1  0.500000  0.475393  0.803695  1
  Pt  Pt21  1  0.500000  0.524607  0.196305  1
