# generated using pymatgen
data_LiCa2Ni6As7Rh5
_symmetry_space_group_name_H-M   'P 1'
_cell_length_a   9.67720149
_cell_length_b   9.70754824
_cell_length_c   3.87401700
_cell_angle_alpha   90.00000000
_cell_angle_beta   90.00000000
_cell_angle_gamma   119.79339703
_symmetry_Int_Tables_number   1
_chemical_formula_structural   LiCa2Ni6As7Rh5
_chemical_formula_sum   'Li1 Ca2 Ni6 As7 Rh5'
_cell_volume   315.82890846
_cell_formula_units_Z   1
loop_
 _symmetry_equiv_pos_site_id
 _symmetry_equiv_pos_as_xyz
  1  'x, y, z'
loop_
 _atom_site_type_symbol
 _atom_site_label
 _atom_site_symmetry_multiplicity
 _atom_site_fract_x
 _atom_site_fract_y
 _atom_site_fract_z
 _atom_site_occupancy
  Li  Li0  1  0.442105  0.874309  0.500000  1
  Ca  Ca1  1  0.998971  0.998724  0.000000  1
  Ca  Ca2  1  0.669151  0.336643  0.500000  1
  Ni  Ni3  1  0.391440  0.291391  0.000000  1
  Ni  Ni4  1  0.904912  0.611719  0.000000  1
  Ni  Ni5  1  0.711204  0.096628  0.000000  1
  Ni  Ni6  1  0.611492  0.789816  0.000000  1
  Ni  Ni7  1  0.174337  0.384786  0.000000  1
  Ni  Ni8  1  0.216836  0.825283  0.000000  1
  As  As9  1  0.621644  0.546036  0.000000  1
  As  As10  1  0.923595  0.378477  0.000000  1
  As  As11  1  0.459046  0.082926  0.000000  1
  As  As12  1  0.736046  0.957139  0.500000  1
  As  As13  1  0.220540  0.261114  0.500000  1
  As  As14  1  0.043416  0.781054  0.500000  1
  As  As15  1  0.330027  0.660477  0.000000  1
  Rh  Rh16  1  0.763774  0.712104  0.500000  1
  Rh  Rh17  1  0.949212  0.234910  0.500000  1
  Rh  Rh18  1  0.290715  0.050015  0.500000  1
  Rh  Rh19  1  0.416692  0.546885  0.500000  1
  Rh  Rh20  1  0.124846  0.579565  0.500000  1
