# generated using pymatgen
data_Na2Hf2ZrNi9As7
_symmetry_space_group_name_H-M   'P 1'
_cell_length_a   9.78049768
_cell_length_b   9.76634581
_cell_length_c   3.85294000
_cell_angle_alpha   90.00000000
_cell_angle_beta   90.00000000
_cell_angle_gamma   120.11494998
_symmetry_Int_Tables_number   1
_chemical_formula_structural   Na2Hf2ZrNi9As7
_chemical_formula_sum   'Na2 Hf2 Zr1 Ni9 As7'
_cell_volume   318.35502900
_cell_formula_units_Z   1
loop_
 _symmetry_equiv_pos_site_id
 _symmetry_equiv_pos_as_xyz
  1  'x, y, z'
loop_
 _atom_site_type_symbol
 _atom_site_label
 _atom_site_symmetry_multiplicity
 _atom_site_fract_x
 _atom_site_fract_y
 _atom_site_fract_z
 _atom_site_occupancy
  Na  Na0  1  0.333384  0.667123  0.000000  1
  Na  Na1  1  0.666318  0.332958  0.500000  1
  Hf  Hf2  1  0.876584  0.108513  0.500000  1
  Hf  Hf3  1  0.891857  0.768176  0.500000  1
  Zr  Zr4  1  0.230960  0.123044  0.500000  1
  Ni  Ni5  1  0.124259  0.283248  0.000000  1
  Ni  Ni6  1  0.718411  0.843010  0.000000  1
  Ni  Ni7  1  0.155484  0.872741  0.000000  1
  Ni  Ni8  1  0.421756  0.362220  0.000000  1
  Ni  Ni9  1  0.641768  0.061148  0.000000  1
  Ni  Ni10  1  0.937817  0.579906  0.000000  1
  Ni  Ni11  1  0.053864  0.436284  0.500000  1
  Ni  Ni12  1  0.562965  0.616376  0.500000  1
  Ni  Ni13  1  0.384888  0.945876  0.500000  1
  As  As14  1  0.292639  0.423705  0.500000  1
  As  As15  1  0.577052  0.869269  0.500000  1
  As  As16  1  0.130991  0.707780  0.500000  1
  As  As17  1  0.425880  0.107816  0.000000  1
  As  As18  1  0.890385  0.316881  0.000000  1
  As  As19  1  0.683566  0.574149  0.000000  1
  As  As20  1  0.999172  0.999778  0.000000  1
