# generated using pymatgen
data_La3Ho3Th2(CdIr)2
_symmetry_space_group_name_H-M   'P 1'
_cell_length_a   9.90496088
_cell_length_b   9.90496065
_cell_length_c   9.90496100
_cell_angle_alpha   60.00000216
_cell_angle_beta   60.00000294
_cell_angle_gamma   60.00000696
_symmetry_Int_Tables_number   1
_chemical_formula_structural   La3Ho3Th2(CdIr)2
_chemical_formula_sum   'La6 Ho6 Th4 Cd4 Ir4'
_cell_volume   687.13699399
_cell_formula_units_Z   2
loop_
 _symmetry_equiv_pos_site_id
 _symmetry_equiv_pos_as_xyz
  1  'x, y, z'
loop_
 _atom_site_type_symbol
 _atom_site_label
 _atom_site_symmetry_multiplicity
 _atom_site_fract_x
 _atom_site_fract_y
 _atom_site_fract_z
 _atom_site_occupancy
  La  La0  1  0.191476  0.808524  0.808524  1
  La  La1  1  0.808524  0.191476  0.191476  1
  La  La2  1  0.808524  0.191476  0.808524  1
  La  La3  1  0.191476  0.808524  0.191476  1
  La  La4  1  0.808524  0.808524  0.191476  1
  La  La5  1  0.191476  0.191476  0.808524  1
  Ho  Ho6  1  0.066083  0.433917  0.433917  1
  Ho  Ho7  1  0.433917  0.066083  0.066083  1
  Ho  Ho8  1  0.433917  0.066083  0.433917  1
  Ho  Ho9  1  0.066083  0.433917  0.066083  1
  Ho  Ho10  1  0.433917  0.433917  0.066083  1
  Ho  Ho11  1  0.066083  0.066083  0.433917  1
  Th  Th12  1  0.598331  0.598331  0.598331  1
  Th  Th13  1  0.598331  0.598331  0.205006  1
  Th  Th14  1  0.598331  0.205006  0.598331  1
  Th  Th15  1  0.205006  0.598331  0.598331  1
  Cd  Cd16  1  0.828945  0.828945  0.828945  1
  Cd  Cd17  1  0.828945  0.828945  0.513163  1
  Cd  Cd18  1  0.828945  0.513163  0.828945  1
  Cd  Cd19  1  0.513163  0.828945  0.828945  1
  Ir  Ir20  1  0.393434  0.393434  0.393434  1
  Ir  Ir21  1  0.393434  0.393434  0.819698  1
  Ir  Ir22  1  0.393434  0.819698  0.393434  1
  Ir  Ir23  1  0.819698  0.393434  0.393434  1
