# generated using pymatgen
data_HfTe28
_symmetry_space_group_name_H-M   'P 1'
_cell_length_a   12.07044839
_cell_length_b   10.81983923
_cell_length_c   12.67756400
_cell_angle_alpha   115.00825248
_cell_angle_beta   124.68022695
_cell_angle_gamma   88.22720311
_symmetry_Int_Tables_number   1
_chemical_formula_structural   HfTe28
_chemical_formula_sum   'Hf1 Te28'
_cell_volume   1184.08520647
_cell_formula_units_Z   1
loop_
 _symmetry_equiv_pos_site_id
 _symmetry_equiv_pos_as_xyz
  1  'x, y, z'
loop_
 _atom_site_type_symbol
 _atom_site_label
 _atom_site_symmetry_multiplicity
 _atom_site_fract_x
 _atom_site_fract_y
 _atom_site_fract_z
 _atom_site_occupancy
  Hf  Hf0  1  0.500000  0.000000  0.000000  1
  Te  Te1  1  0.245851  0.108610  0.421358  1
  Te  Te2  1  0.615011  0.156334  0.440216  1
  Te  Te3  1  0.268792  0.267896  0.902775  1
  Te  Te4  1  0.888437  0.299310  0.892503  1
  Te  Te5  1  0.208281  0.554551  0.719191  1
  Te  Te6  1  0.803509  0.518053  0.623905  1
  Te  Te7  1  0.384989  0.843666  0.559784  1
  Te  Te8  1  0.754149  0.891390  0.578642  1
  Te  Te9  1  0.111563  0.700690  0.107497  1
  Te  Te10  1  0.731208  0.732104  0.097225  1
  Te  Te11  1  0.196491  0.481947  0.376095  1
  Te  Te12  1  0.791719  0.445449  0.280809  1
  Te  Te13  1  0.757617  0.062109  0.852697  1
  Te  Te14  1  0.237784  0.979522  0.741849  1
  Te  Te15  1  0.828068  0.664572  0.889958  1
  Te  Te16  1  0.380197  0.783864  0.022007  1
  Te  Te17  1  0.499639  0.239594  0.219243  1
  Te  Te18  1  0.049170  0.279217  0.368648  1
  Te  Te19  1  0.762216  0.020478  0.258151  1
  Te  Te20  1  0.242383  0.937891  0.147303  1
  Te  Te21  1  0.619803  0.216136  0.977993  1
  Te  Te22  1  0.171932  0.335428  0.110042  1
  Te  Te23  1  0.950830  0.720783  0.631352  1
  Te  Te24  1  0.500361  0.760406  0.780757  1
  Te  Te25  1  0.056642  0.380579  0.736051  1
  Te  Te26  1  0.512505  0.300441  0.591597  1
  Te  Te27  1  0.487495  0.699559  0.408403  1
  Te  Te28  1  0.943358  0.619421  0.263949  1
