# generated using pymatgen
data_Dy20IrOs3Pt8
_symmetry_space_group_name_H-M   'P 1'
_cell_length_a   11.00959600
_cell_length_b   11.00959600
_cell_length_c   6.40612000
_cell_angle_alpha   90.00000000
_cell_angle_beta   90.00000000
_cell_angle_gamma   90.00000000
_symmetry_Int_Tables_number   1
_chemical_formula_structural   Dy20IrOs3Pt8
_chemical_formula_sum   'Dy20 Ir1 Os3 Pt8'
_cell_volume   776.49351870
_cell_formula_units_Z   1
loop_
 _symmetry_equiv_pos_site_id
 _symmetry_equiv_pos_as_xyz
  1  'x, y, z'
loop_
 _atom_site_type_symbol
 _atom_site_label
 _atom_site_symmetry_multiplicity
 _atom_site_fract_x
 _atom_site_fract_y
 _atom_site_fract_z
 _atom_site_occupancy
  Dy  Dy0  1  0.297439  0.086253  0.373263  1
  Dy  Dy1  1  0.297616  0.913899  0.873308  1
  Dy  Dy2  1  0.702384  0.086101  0.873308  1
  Dy  Dy3  1  0.702561  0.913747  0.373263  1
  Dy  Dy4  1  0.586101  0.797616  0.873308  1
  Dy  Dy5  1  0.586253  0.202561  0.373263  1
  Dy  Dy6  1  0.413747  0.797439  0.373263  1
  Dy  Dy7  1  0.413899  0.202384  0.873308  1
  Dy  Dy8  1  0.203944  0.412704  0.628139  1
  Dy  Dy9  1  0.203565  0.587071  0.124619  1
  Dy  Dy10  1  0.796435  0.412929  0.124619  1
  Dy  Dy11  1  0.796056  0.587296  0.628139  1
  Dy  Dy12  1  0.912929  0.703565  0.124619  1
  Dy  Dy13  1  0.912704  0.296056  0.628139  1
  Dy  Dy14  1  0.087296  0.703944  0.628139  1
  Dy  Dy15  1  0.087071  0.296435  0.124619  1
  Dy  Dy16  1  0.000000  0.000000  0.499760  1
  Dy  Dy17  1  0.000000  0.000000  0.999697  1
  Dy  Dy18  1  0.500000  0.500000  0.999697  1
  Dy  Dy19  1  0.500000  0.500000  0.499760  1
  Ir  Ir20  1  0.000000  0.500000  0.377625  1
  Os  Os21  1  0.500000  0.000000  0.125293  1
  Os  Os22  1  0.500000  0.000000  0.624996  1
  Os  Os23  1  0.000000  0.500000  0.875284  1
  Pt  Pt24  1  0.847066  0.153711  0.250138  1
  Pt  Pt25  1  0.846997  0.846252  0.750005  1
  Pt  Pt26  1  0.153003  0.153748  0.750005  1
  Pt  Pt27  1  0.152934  0.846289  0.250138  1
  Pt  Pt28  1  0.653748  0.346997  0.750005  1
  Pt  Pt29  1  0.653711  0.652934  0.250138  1
  Pt  Pt30  1  0.346289  0.347066  0.250138  1
  Pt  Pt31  1  0.346252  0.653003  0.750005  1
