# generated using pymatgen
data_La3Y17(CoSb2)4
_symmetry_space_group_name_H-M   'P 1'
_cell_length_a   8.03301513
_cell_length_b   8.92023300
_cell_length_c   12.16466422
_cell_angle_alpha   90.00000000
_cell_angle_beta   90.38885138
_cell_angle_gamma   90.00000000
_symmetry_Int_Tables_number   1
_chemical_formula_structural   La3Y17(CoSb2)4
_chemical_formula_sum   'La3 Y17 Co4 Sb8'
_cell_volume   871.65556498
_cell_formula_units_Z   1
loop_
 _symmetry_equiv_pos_site_id
 _symmetry_equiv_pos_as_xyz
  1  'x, y, z'
loop_
 _atom_site_type_symbol
 _atom_site_label
 _atom_site_symmetry_multiplicity
 _atom_site_fract_x
 _atom_site_fract_y
 _atom_site_fract_z
 _atom_site_occupancy
  La  La0  1  0.119248  0.250000  0.190736  1
  La  La1  1  0.383546  0.250000  0.687810  1
  La  La2  1  0.881264  0.750000  0.810118  1
  Y  Y3  1  0.153524  0.750000  0.202260  1
  Y  Y4  1  0.650440  0.250000  0.299812  1
  Y  Y5  1  0.846531  0.250000  0.797801  1
  Y  Y6  1  0.346387  0.750000  0.703613  1
  Y  Y7  1  0.453350  0.750000  0.997917  1
  Y  Y8  1  0.949617  0.250000  0.501161  1
  Y  Y9  1  0.549430  0.250000  0.003238  1
  Y  Y10  1  0.047071  0.750000  0.498004  1
  Y  Y11  1  0.621116  0.750000  0.307188  1
  Y  Y12  1  0.820148  0.962825  0.067397  1
  Y  Y13  1  0.321260  0.031039  0.431473  1
  Y  Y14  1  0.180476  0.461962  0.932968  1
  Y  Y15  1  0.679163  0.540480  0.565223  1
  Y  Y16  1  0.180476  0.038038  0.932968  1
  Y  Y17  1  0.679163  0.959520  0.565223  1
  Y  Y18  1  0.820148  0.537175  0.067397  1
  Y  Y19  1  0.321260  0.468961  0.431473  1
  Co  Co20  1  0.434189  0.750000  0.490277  1
  Co  Co21  1  0.934762  0.250000  0.011525  1
  Co  Co22  1  0.564746  0.250000  0.511029  1
  Co  Co23  1  0.064796  0.750000  0.989122  1
  Sb  Sb24  1  0.922340  0.987903  0.330093  1
  Sb  Sb25  1  0.432717  0.005067  0.171473  1
  Sb  Sb26  1  0.071531  0.490031  0.669035  1
  Sb  Sb27  1  0.572357  0.508190  0.831530  1
  Sb  Sb28  1  0.071531  0.009969  0.669035  1
  Sb  Sb29  1  0.572357  0.991810  0.831530  1
  Sb  Sb30  1  0.922340  0.512097  0.330093  1
  Sb  Sb31  1  0.432717  0.494933  0.171473  1
