# generated using pymatgen
data_K4Mn3FeP12(HO10)4
_symmetry_space_group_name_H-M   'P 1'
_cell_length_a   8.37599400
_cell_length_b   9.42596209
_cell_length_c   12.38854300
_cell_angle_alpha   69.70130462
_cell_angle_beta   89.99997264
_cell_angle_gamma   89.99994796
_symmetry_Int_Tables_number   1
_chemical_formula_structural   K4Mn3FeP12(HO10)4
_chemical_formula_sum   'K4 Mn3 Fe1 P12 H4 O40'
_cell_volume   917.35482313
_cell_formula_units_Z   1
loop_
 _symmetry_equiv_pos_site_id
 _symmetry_equiv_pos_as_xyz
  1  'x, y, z'
loop_
 _atom_site_type_symbol
 _atom_site_label
 _atom_site_symmetry_multiplicity
 _atom_site_fract_x
 _atom_site_fract_y
 _atom_site_fract_z
 _atom_site_occupancy
  K  K0  1  0.944756  0.249004  0.501358  1
  K  K1  1  0.442357  0.249718  0.998947  1
  K  K2  1  0.057709  0.750306  0.501058  1
  K  K3  1  0.555290  0.751069  0.998620  1
  Mn  Mn4  1  0.249935  0.999903  0.749993  1
  Mn  Mn5  1  0.249956  0.500125  0.249991  1
  Mn  Mn6  1  0.749941  0.999915  0.250048  1
  Fe  Fe7  1  0.749988  0.499917  0.750023  1
  P  P8  1  0.370884  0.250125  0.499220  1
  P  P9  1  0.873025  0.251568  0.996207  1
  P  P10  1  0.627020  0.748420  0.503809  1
  P  P11  1  0.129096  0.749882  0.000740  1
  P  P12  1  0.070322  0.294302  0.790805  1
  P  P13  1  0.566285  0.294940  0.292747  1
  P  P14  1  0.064897  0.205510  0.205876  1
  P  P15  1  0.566237  0.204400  0.706961  1
  P  P16  1  0.933749  0.705102  0.207238  1
  P  P17  1  0.429678  0.705665  0.709186  1
  P  P18  1  0.933630  0.795513  0.793071  1
  P  P19  1  0.435116  0.794527  0.294137  1
  H  H20  1  0.750001  0.499971  0.250017  1
  H  H21  1  0.250012  0.499979  0.749999  1
  H  H22  1  0.249983  0.000093  0.249966  1
  H  H23  1  0.749913  0.000175  0.749936  1
  O  O24  1  0.887395  0.677571  0.741059  1
  O  O25  1  0.391385  0.678384  0.239738  1
  O  O26  1  0.889877  0.822087  0.261375  1
  O  O27  1  0.386052  0.825259  0.760817  1
  O  O28  1  0.108661  0.321664  0.260252  1
  O  O29  1  0.612474  0.322269  0.759055  1
  O  O30  1  0.113839  0.174687  0.739168  1
  O  O31  1  0.610139  0.177926  0.238642  1
  O  O32  1  0.944323  0.399457  0.714404  1
  O  O33  1  0.437403  0.400157  0.216529  1
  O  O34  1  0.936230  0.100383  0.282009  1
  O  O35  1  0.438585  0.099684  0.783939  1
  O  O36  1  0.062652  0.599907  0.283478  1
  O  O37  1  0.555708  0.600563  0.785591  1
  O  O38  1  0.061231  0.900211  0.715963  1
  O  O39  1  0.563818  0.899640  0.218011  1
  O  O40  1  0.279640  0.390736  0.431364  1
  O  O41  1  0.783972  0.393139  0.924757  1
  O  O42  1  0.276773  0.111326  0.565012  1
  O  O43  1  0.774921  0.116084  0.063577  1
  O  O44  1  0.716071  0.606845  0.575255  1
  O  O45  1  0.220411  0.609346  0.068624  1
  O  O46  1  0.725124  0.883937  0.436458  1
  O  O47  1  0.223196  0.888688  0.934951  1
  O  O48  1  0.987730  0.301165  0.081140  1
  O  O49  1  0.488308  0.299199  0.582855  1
  O  O50  1  0.992044  0.199575  0.915750  1
  O  O51  1  0.489793  0.200121  0.416644  1
  O  O52  1  0.011781  0.700755  0.917118  1
  O  O53  1  0.512328  0.698845  0.418869  1
  O  O54  1  0.010269  0.799922  0.083347  1
  O  O55  1  0.508008  0.800450  0.584259  1
  O  O56  1  0.707952  0.380740  0.319499  1
  O  O57  1  0.212515  0.378427  0.819090  1
  O  O58  1  0.707593  0.118507  0.679521  1
  O  O59  1  0.206065  0.118569  0.179408  1
  O  O60  1  0.287524  0.621527  0.680865  1
  O  O61  1  0.792092  0.619302  0.180488  1
  O  O62  1  0.293975  0.881434  0.320627  1
  O  O63  1  0.792361  0.881380  0.820539  1
