# generated using pymatgen
data_Dy6Ho3LuSi6
_symmetry_space_group_name_H-M   'P 1'
_cell_length_a   8.42081000
_cell_length_b   8.42081104
_cell_length_c   6.31499400
_cell_angle_alpha   90.00000000
_cell_angle_beta   90.00000000
_cell_angle_gamma   120.00000378
_symmetry_Int_Tables_number   1
_chemical_formula_structural   Dy6Ho3LuSi6
_chemical_formula_sum   'Dy6 Ho3 Lu1 Si6'
_cell_volume   387.80316365
_cell_formula_units_Z   1
loop_
 _symmetry_equiv_pos_site_id
 _symmetry_equiv_pos_as_xyz
  1  'x, y, z'
loop_
 _atom_site_type_symbol
 _atom_site_label
 _atom_site_symmetry_multiplicity
 _atom_site_fract_x
 _atom_site_fract_y
 _atom_site_fract_z
 _atom_site_occupancy
  Dy  Dy0  1  0.756152  0.000164  0.748908  1
  Dy  Dy1  1  0.756152  0.755987  0.251092  1
  Dy  Dy2  1  0.999836  0.243848  0.251092  1
  Dy  Dy3  1  0.999836  0.755987  0.748908  1
  Dy  Dy4  1  0.244013  0.243848  0.748908  1
  Dy  Dy5  1  0.244013  0.000164  0.251092  1
  Ho  Ho6  1  0.666667  0.333333  0.000000  1
  Ho  Ho7  1  0.333333  0.666667  0.500000  1
  Ho  Ho8  1  0.333333  0.666667  0.000000  1
  Lu  Lu9  1  0.666667  0.333333  0.500000  1
  Si  Si10  1  0.395261  0.001782  0.746942  1
  Si  Si11  1  0.395261  0.393479  0.253058  1
  Si  Si12  1  0.998218  0.604739  0.253058  1
  Si  Si13  1  0.998218  0.393479  0.746942  1
  Si  Si14  1  0.606521  0.604739  0.746942  1
  Si  Si15  1  0.606521  0.001782  0.253058  1
