# generated using pymatgen
data_Th2MnSiBr2
_symmetry_space_group_name_H-M   'P 1'
_cell_length_a   4.15135100
_cell_length_b   4.15135125
_cell_length_c   11.51570300
_cell_angle_alpha   90.00000000
_cell_angle_beta   90.00000000
_cell_angle_gamma   119.99999006
_symmetry_Int_Tables_number   1
_chemical_formula_structural   Th2MnSiBr2
_chemical_formula_sum   'Th2 Mn1 Si1 Br2'
_cell_volume   171.86999577
_cell_formula_units_Z   1
loop_
 _symmetry_equiv_pos_site_id
 _symmetry_equiv_pos_as_xyz
  1  'x, y, z'
loop_
 _atom_site_type_symbol
 _atom_site_label
 _atom_site_symmetry_multiplicity
 _atom_site_fract_x
 _atom_site_fract_y
 _atom_site_fract_z
 _atom_site_occupancy
  Th  Th0  1  0.000000  0.000000  0.156591  1
  Th  Th1  1  0.000000  0.000000  0.841422  1
  Mn  Mn2  1  0.333333  0.666667  0.006313  1
  Si  Si3  1  0.666667  0.333333  0.994452  1
  Br  Br4  1  0.333333  0.666667  0.664929  1
  Br  Br5  1  0.666667  0.333333  0.336293  1
