# generated using pymatgen
data_BaNb6FeSe12
_symmetry_space_group_name_H-M   'P 1'
_cell_length_a   6.06818700
_cell_length_b   6.06818580
_cell_length_c   14.45458300
_cell_angle_alpha   90.00000000
_cell_angle_beta   90.00000000
_cell_angle_gamma   120.00000109
_symmetry_Int_Tables_number   1
_chemical_formula_structural   BaNb6FeSe12
_chemical_formula_sum   'Ba1 Nb6 Fe1 Se12'
_cell_volume   460.95021274
_cell_formula_units_Z   1
loop_
 _symmetry_equiv_pos_site_id
 _symmetry_equiv_pos_as_xyz
  1  'x, y, z'
loop_
 _atom_site_type_symbol
 _atom_site_label
 _atom_site_symmetry_multiplicity
 _atom_site_fract_x
 _atom_site_fract_y
 _atom_site_fract_z
 _atom_site_occupancy
  Ba  Ba0  1  0.333333  0.666667  0.250000  1
  Nb  Nb1  1  0.000000  0.000000  0.540602  1
  Nb  Nb2  1  0.000000  0.000000  0.959398  1
  Nb  Nb3  1  0.333333  0.666667  0.961120  1
  Nb  Nb4  1  0.666667  0.333333  0.961816  1
  Nb  Nb5  1  0.666667  0.333333  0.538184  1
  Nb  Nb6  1  0.333333  0.666667  0.538880  1
  Fe  Fe7  1  0.666667  0.333333  0.750000  1
  Se  Se8  1  0.331176  0.327318  0.422529  1
  Se  Se9  1  0.672682  0.003857  0.422529  1
  Se  Se10  1  0.996143  0.668824  0.422529  1
  Se  Se11  1  0.335394  0.334289  0.653441  1
  Se  Se12  1  0.998895  0.664606  0.653441  1
  Se  Se13  1  0.665711  0.001105  0.653441  1
  Se  Se14  1  0.665711  0.664606  0.846559  1
  Se  Se15  1  0.335394  0.001105  0.846559  1
  Se  Se16  1  0.998895  0.334289  0.846559  1
  Se  Se17  1  0.672682  0.668824  0.077471  1
  Se  Se18  1  0.996143  0.327318  0.077471  1
  Se  Se19  1  0.331176  0.003857  0.077471  1
