# generated using pymatgen
data_TbPr4Ga2Sn
_symmetry_space_group_name_H-M   'P 1'
_cell_length_a   8.05649600
_cell_length_b   8.05649600
_cell_length_c   14.63382800
_cell_angle_alpha   90.00000000
_cell_angle_beta   90.00000000
_cell_angle_gamma   90.00000000
_symmetry_Int_Tables_number   1
_chemical_formula_structural   TbPr4Ga2Sn
_chemical_formula_sum   'Tb4 Pr16 Ga8 Sn4'
_cell_volume   949.83974417
_cell_formula_units_Z   4
loop_
 _symmetry_equiv_pos_site_id
 _symmetry_equiv_pos_as_xyz
  1  'x, y, z'
loop_
 _atom_site_type_symbol
 _atom_site_label
 _atom_site_symmetry_multiplicity
 _atom_site_fract_x
 _atom_site_fract_y
 _atom_site_fract_z
 _atom_site_occupancy
  Tb  Tb0  1  0.000000  0.500000  0.728936  1
  Tb  Tb1  1  0.000000  0.500000  0.228936  1
  Tb  Tb2  1  0.500000  0.000000  0.271064  1
  Tb  Tb3  1  0.500000  0.000000  0.771064  1
  Pr  Pr4  1  0.823692  0.839377  0.606799  1
  Pr  Pr5  1  0.176308  0.839377  0.106799  1
  Pr  Pr6  1  0.160623  0.823692  0.393201  1
  Pr  Pr7  1  0.839377  0.176308  0.393201  1
  Pr  Pr8  1  0.676308  0.660623  0.393201  1
  Pr  Pr9  1  0.660623  0.323692  0.606799  1
  Pr  Pr10  1  0.339377  0.676308  0.606799  1
  Pr  Pr11  1  0.660623  0.676308  0.106799  1
  Pr  Pr12  1  0.676308  0.339377  0.893201  1
  Pr  Pr13  1  0.839377  0.823692  0.893201  1
  Pr  Pr14  1  0.323692  0.339377  0.393201  1
  Pr  Pr15  1  0.176308  0.160623  0.606799  1
  Pr  Pr16  1  0.823692  0.160623  0.106799  1
  Pr  Pr17  1  0.323692  0.660623  0.893201  1
  Pr  Pr18  1  0.339377  0.323692  0.106799  1
  Pr  Pr19  1  0.160623  0.176308  0.893201  1
  Ga  Ga20  1  0.625431  0.374569  0.250000  1
  Ga  Ga21  1  0.125431  0.874569  0.750000  1
  Ga  Ga22  1  0.374569  0.374569  0.750000  1
  Ga  Ga23  1  0.374569  0.625431  0.250000  1
  Ga  Ga24  1  0.874569  0.874569  0.250000  1
  Ga  Ga25  1  0.625431  0.625431  0.750000  1
  Ga  Ga26  1  0.874569  0.125431  0.750000  1
  Ga  Ga27  1  0.125431  0.125431  0.250000  1
  Sn  Sn28  1  0.000000  0.500000  0.506729  1
  Sn  Sn29  1  0.500000  0.000000  0.493271  1
  Sn  Sn30  1  0.500000  0.000000  0.993271  1
  Sn  Sn31  1  0.000000  0.500000  0.006729  1
