# generated using pymatgen
data_NaEr2Si3P3Pd20
_symmetry_space_group_name_H-M   'P 1'
_cell_length_a   8.65367645
_cell_length_b   8.65553735
_cell_length_c   8.66298061
_cell_angle_alpha   59.95732852
_cell_angle_beta   59.97863964
_cell_angle_gamma   60.06403279
_symmetry_Int_Tables_number   1
_chemical_formula_structural   NaEr2Si3P3Pd20
_chemical_formula_sum   'Na1 Er2 Si3 P3 Pd20'
_cell_volume   458.82406827
_cell_formula_units_Z   1
loop_
 _symmetry_equiv_pos_site_id
 _symmetry_equiv_pos_as_xyz
  1  'x, y, z'
loop_
 _atom_site_type_symbol
 _atom_site_label
 _atom_site_symmetry_multiplicity
 _atom_site_fract_x
 _atom_site_fract_y
 _atom_site_fract_z
 _atom_site_occupancy
  Na  Na0  1  0.000377  0.999623  0.000377  1
  Er  Er1  1  0.249252  0.250748  0.249252  1
  Er  Er2  1  0.749252  0.750748  0.749252  1
  Si  Si3  1  0.736144  0.263856  0.262354  1
  Si  Si4  1  0.262354  0.737646  0.736144  1
  Si  Si5  1  0.263580  0.736420  0.263580  1
  P  P6  1  0.737747  0.262253  0.737747  1
  P  P7  1  0.261615  0.263351  0.736649  1
  P  P8  1  0.736649  0.738385  0.261615  1
  Pd  Pd9  1  0.383212  0.383251  0.385410  1
  Pd  Pd10  1  0.616738  0.615025  0.614981  1
  Pd  Pd11  1  0.384975  0.383262  0.846745  1
  Pd  Pd12  1  0.385410  0.848127  0.383212  1
  Pd  Pd13  1  0.616749  0.616788  0.151873  1
  Pd  Pd14  1  0.614981  0.153255  0.616738  1
  Pd  Pd15  1  0.846745  0.385019  0.384975  1
  Pd  Pd16  1  0.151873  0.614590  0.616749  1
  Pd  Pd17  1  0.346115  0.001854  0.998146  1
  Pd  Pd18  1  0.654943  0.999906  0.000094  1
  Pd  Pd19  1  0.000094  0.345057  0.654943  1
  Pd  Pd20  1  0.998146  0.653885  0.346115  1
  Pd  Pd21  1  0.002879  0.345406  0.999065  1
  Pd  Pd22  1  0.654594  0.997121  0.347349  1
  Pd  Pd23  1  0.999065  0.652651  0.002879  1
  Pd  Pd24  1  0.347349  0.000935  0.654594  1
  Pd  Pd25  1  0.000116  0.999884  0.347514  1
  Pd  Pd26  1  0.998250  0.001750  0.653280  1
  Pd  Pd27  1  0.653280  0.346720  0.998250  1
  Pd  Pd28  1  0.347514  0.652486  0.000116  1
