# generated using pymatgen
data_Nd5Ho(CI5)2
_symmetry_space_group_name_H-M   'P 1'
_cell_length_a   7.87266298
_cell_length_b   9.69311810
_cell_length_c   9.77958239
_cell_angle_alpha   107.12485961
_cell_angle_beta   96.47578679
_cell_angle_gamma   104.42137109
_symmetry_Int_Tables_number   1
_chemical_formula_structural   Nd5Ho(CI5)2
_chemical_formula_sum   'Nd5 Ho1 C2 I10'
_cell_volume   676.61788747
_cell_formula_units_Z   1
loop_
 _symmetry_equiv_pos_site_id
 _symmetry_equiv_pos_as_xyz
  1  'x, y, z'
loop_
 _atom_site_type_symbol
 _atom_site_label
 _atom_site_symmetry_multiplicity
 _atom_site_fract_x
 _atom_site_fract_y
 _atom_site_fract_z
 _atom_site_occupancy
  Nd  Nd0  1  0.105222  0.038791  0.775643  1
  Nd  Nd1  1  0.373673  0.133008  0.179104  1
  Nd  Nd2  1  0.891958  0.959888  0.223189  1
  Nd  Nd3  1  0.029260  0.734793  0.922373  1
  Nd  Nd4  1  0.968769  0.265076  0.076694  1
  Ho  Ho5  1  0.632536  0.869131  0.824337  1
  C  C6  1  0.908458  0.969559  0.958391  1
  C  C7  1  0.084914  0.028747  0.039466  1
  I  I8  1  0.205261  0.736814  0.648502  1
  I  I9  1  0.088293  0.369585  0.818873  1
  I  I10  1  0.459199  0.807568  0.084609  1
  I  I11  1  0.254043  0.084080  0.461639  1
  I  I12  1  0.545139  0.182871  0.902694  1
  I  I13  1  0.809234  0.267301  0.358039  1
  I  I14  1  0.346631  0.457768  0.273384  1
  I  I15  1  0.912069  0.630407  0.180760  1
  I  I16  1  0.648475  0.552015  0.726832  1
  I  I17  1  0.736865  0.912597  0.545470  1
