# generated using pymatgen
data_Lu4MgNiBiAu
_symmetry_space_group_name_H-M   'P 1'
_cell_length_a   8.44294483
_cell_length_b   8.44294489
_cell_length_c   8.68204962
_cell_angle_alpha   127.18571294
_cell_angle_beta   127.18571357
_cell_angle_gamma   75.93431192
_symmetry_Int_Tables_number   1
_chemical_formula_structural   Lu4MgNiBiAu
_chemical_formula_sum   'Lu8 Mg2 Ni2 Bi2 Au2'
_cell_volume   385.44941993
_cell_formula_units_Z   2
loop_
 _symmetry_equiv_pos_site_id
 _symmetry_equiv_pos_as_xyz
  1  'x, y, z'
loop_
 _atom_site_type_symbol
 _atom_site_label
 _atom_site_symmetry_multiplicity
 _atom_site_fract_x
 _atom_site_fract_y
 _atom_site_fract_z
 _atom_site_occupancy
  Lu  Lu0  1  0.779229  0.279229  0.797817  1
  Lu  Lu1  1  0.220771  0.720771  0.202183  1
  Lu  Lu2  1  0.481413  0.981413  0.202183  1
  Lu  Lu3  1  0.309616  0.451919  0.500000  1
  Lu  Lu4  1  0.048081  0.190384  0.500000  1
  Lu  Lu5  1  0.518587  0.018587  0.797817  1
  Lu  Lu6  1  0.690384  0.548081  0.500000  1
  Lu  Lu7  1  0.951919  0.809616  0.500000  1
  Mg  Mg8  1  0.000000  0.000000  0.000000  1
  Mg  Mg9  1  0.500000  0.500000  0.000000  1
  Ni  Ni10  1  0.624526  0.875474  0.500000  1
  Ni  Ni11  1  0.375474  0.124526  0.500000  1
  Bi  Bi12  1  0.250000  0.250000  0.000000  1
  Bi  Bi13  1  0.750000  0.750000  0.000000  1
  Au  Au14  1  0.136672  0.636672  0.773345  1
  Au  Au15  1  0.863328  0.363328  0.226655  1
