# generated using pymatgen
data_Zr13Ta6NbSi16
_symmetry_space_group_name_H-M   'P 1'
_cell_length_a   6.98741772
_cell_length_b   6.99579960
_cell_length_c   12.88823106
_cell_angle_alpha   90.22477588
_cell_angle_beta   90.21171014
_cell_angle_gamma   89.83803581
_symmetry_Int_Tables_number   1
_chemical_formula_structural   Zr13Ta6NbSi16
_chemical_formula_sum   'Zr13 Ta6 Nb1 Si16'
_cell_volume   629.99826986
_cell_formula_units_Z   1
loop_
 _symmetry_equiv_pos_site_id
 _symmetry_equiv_pos_as_xyz
  1  'x, y, z'
loop_
 _atom_site_type_symbol
 _atom_site_label
 _atom_site_symmetry_multiplicity
 _atom_site_fract_x
 _atom_site_fract_y
 _atom_site_fract_z
 _atom_site_occupancy
  Zr  Zr0  1  0.998932  0.852167  0.624627  1
  Zr  Zr1  1  0.647867  0.496067  0.877575  1
  Zr  Zr2  1  0.501621  0.351376  0.622054  1
  Zr  Zr3  1  0.500230  0.647073  0.125017  1
  Zr  Zr4  1  0.145912  0.000542  0.874665  1
  Zr  Zr5  1  0.001744  0.653301  0.035505  1
  Zr  Zr6  1  0.000430  0.346308  0.528146  1
  Zr  Zr7  1  0.653066  0.998649  0.970710  1
  Zr  Zr8  1  0.151053  0.497813  0.785346  1
  Zr  Zr9  1  0.846751  0.498459  0.281513  1
  Zr  Zr10  1  0.501455  0.154049  0.220239  1
  Zr  Zr11  1  0.500413  0.847494  0.712980  1
  Zr  Zr12  1  0.344212  0.000929  0.465221  1
  Ta  Ta13  1  0.853141  0.995030  0.374188  1
  Ta  Ta14  1  0.008509  0.148017  0.127034  1
  Ta  Ta15  1  0.673233  0.673538  0.497455  1
  Ta  Ta16  1  0.825593  0.173273  0.749703  1
  Ta  Ta17  1  0.171903  0.830963  0.251263  1
  Ta  Ta18  1  0.326457  0.324560  0.002584  1
  Nb  Nb19  1  0.351396  0.504930  0.374270  1
  Si  Si20  1  0.047748  0.700622  0.433597  1
  Si  Si21  1  0.953929  0.299317  0.939116  1
  Si  Si22  1  0.701094  0.048227  0.560967  1
  Si  Si23  1  0.201157  0.450651  0.187377  1
  Si  Si24  1  0.800999  0.545995  0.684808  1
  Si  Si25  1  0.453046  0.197356  0.814779  1
  Si  Si26  1  0.548764  0.798955  0.315036  1
  Si  Si27  1  0.299434  0.954207  0.066288  1
  Si  Si28  1  0.851320  0.797684  0.820372  1
  Si  Si29  1  0.137670  0.207426  0.322632  1
  Si  Si30  1  0.799233  0.864116  0.179706  1
  Si  Si31  1  0.297112  0.644317  0.566249  1
  Si  Si32  1  0.710186  0.352554  0.074921  1
  Si  Si33  1  0.640288  0.293528  0.424369  1
  Si  Si34  1  0.353793  0.702609  0.930703  1
  Si  Si35  1  0.200307  0.147896  0.678985  1
