# generated using pymatgen
data_Lu3Sc(ReRu3)2
_symmetry_space_group_name_H-M   'P 1'
_cell_length_a   5.26505121
_cell_length_b   5.13710358
_cell_length_c   8.84905222
_cell_angle_alpha   89.88216659
_cell_angle_beta   90.09149908
_cell_angle_gamma   118.97339787
_symmetry_Int_Tables_number   1
_chemical_formula_structural   Lu3Sc(ReRu3)2
_chemical_formula_sum   'Lu3 Sc1 Re2 Ru6'
_cell_volume   209.38599379
_cell_formula_units_Z   1
loop_
 _symmetry_equiv_pos_site_id
 _symmetry_equiv_pos_as_xyz
  1  'x, y, z'
loop_
 _atom_site_type_symbol
 _atom_site_label
 _atom_site_symmetry_multiplicity
 _atom_site_fract_x
 _atom_site_fract_y
 _atom_site_fract_z
 _atom_site_occupancy
  Lu  Lu0  1  0.330070  0.661061  0.432685  1
  Lu  Lu1  1  0.669081  0.329367  0.936871  1
  Lu  Lu2  1  0.670180  0.330115  0.565851  1
  Sc  Sc3  1  0.327842  0.660315  0.067632  1
  Re  Re4  1  0.164679  0.837080  0.751048  1
  Re  Re5  1  0.835199  0.673660  0.248112  1
  Ru  Ru6  1  0.653215  0.833325  0.751365  1
  Ru  Ru7  1  0.346588  0.181791  0.247518  1
  Ru  Ru8  1  0.832628  0.185249  0.247578  1
  Ru  Ru9  1  0.168983  0.353124  0.751689  1
  Ru  Ru10  1  0.999858  0.977692  0.499354  1
  Ru  Ru11  1  0.001677  0.977219  0.000297  1
