# generated using pymatgen
data_Er6Sc4Al12Rh7
_symmetry_space_group_name_H-M   'P 1'
_cell_length_a   9.08255444
_cell_length_b   9.08255444
_cell_length_c   9.08255400
_cell_angle_alpha   60.00000160
_cell_angle_beta   60.00000159
_cell_angle_gamma   60.00000527
_symmetry_Int_Tables_number   1
_chemical_formula_structural   Er6Sc4Al12Rh7
_chemical_formula_sum   'Er6 Sc4 Al12 Rh7'
_cell_volume   529.79644239
_cell_formula_units_Z   1
loop_
 _symmetry_equiv_pos_site_id
 _symmetry_equiv_pos_as_xyz
  1  'x, y, z'
loop_
 _atom_site_type_symbol
 _atom_site_label
 _atom_site_symmetry_multiplicity
 _atom_site_fract_x
 _atom_site_fract_y
 _atom_site_fract_z
 _atom_site_occupancy
  Er  Er0  1  0.700526  0.700526  0.299474  1
  Er  Er1  1  0.299474  0.700526  0.299474  1
  Er  Er2  1  0.700526  0.299474  0.299474  1
  Er  Er3  1  0.299474  0.299474  0.700526  1
  Er  Er4  1  0.700526  0.299474  0.700526  1
  Er  Er5  1  0.299474  0.700526  0.700526  1
  Sc  Sc6  1  0.881620  0.881620  0.355140  1
  Sc  Sc7  1  0.881620  0.355140  0.881620  1
  Sc  Sc8  1  0.355140  0.881620  0.881620  1
  Sc  Sc9  1  0.881620  0.881620  0.881620  1
  Al  Al10  1  0.120806  0.120806  0.637582  1
  Al  Al11  1  0.120806  0.637582  0.120806  1
  Al  Al12  1  0.637582  0.120806  0.120806  1
  Al  Al13  1  0.120806  0.120806  0.120806  1
  Al  Al14  1  0.669259  0.669259  0.992222  1
  Al  Al15  1  0.669259  0.992222  0.669259  1
  Al  Al16  1  0.992222  0.669259  0.669259  1
  Al  Al17  1  0.669259  0.669259  0.669259  1
  Al  Al18  1  0.329026  0.329026  0.012923  1
  Al  Al19  1  0.329026  0.012923  0.329026  1
  Al  Al20  1  0.012923  0.329026  0.329026  1
  Al  Al21  1  0.329026  0.329026  0.329026  1
  Rh  Rh22  1  0.000000  0.000000  0.000000  1
  Rh  Rh23  1  0.001151  0.001151  0.498849  1
  Rh  Rh24  1  0.498849  0.001151  0.498849  1
  Rh  Rh25  1  0.001151  0.498849  0.498849  1
  Rh  Rh26  1  0.498849  0.498849  0.001151  1
  Rh  Rh27  1  0.001151  0.498849  0.001151  1
  Rh  Rh28  1  0.498849  0.001151  0.001151  1
