# generated using pymatgen
data_Hf4Co4Si3Ge
_symmetry_space_group_name_H-M   'P 1'
_cell_length_a   3.85752100
_cell_length_b   6.42766614
_cell_length_c   7.11750097
_cell_angle_alpha   90.15940234
_cell_angle_beta   90.00000000
_cell_angle_gamma   90.00000000
_symmetry_Int_Tables_number   1
_chemical_formula_structural   Hf4Co4Si3Ge
_chemical_formula_sum   'Hf4 Co4 Si3 Ge1'
_cell_volume   176.47673670
_cell_formula_units_Z   1
loop_
 _symmetry_equiv_pos_site_id
 _symmetry_equiv_pos_as_xyz
  1  'x, y, z'
loop_
 _atom_site_type_symbol
 _atom_site_label
 _atom_site_symmetry_multiplicity
 _atom_site_fract_x
 _atom_site_fract_y
 _atom_site_fract_z
 _atom_site_occupancy
  Hf  Hf0  1  0.250000  0.006458  0.303366  1
  Hf  Hf1  1  0.250000  0.507660  0.193257  1
  Hf  Hf2  1  0.750000  0.986712  0.696755  1
  Hf  Hf3  1  0.750000  0.494687  0.806349  1
  Co  Co4  1  0.250000  0.142099  0.938130  1
  Co  Co5  1  0.250000  0.652564  0.569191  1
  Co  Co6  1  0.750000  0.855659  0.069136  1
  Co  Co7  1  0.750000  0.358363  0.422537  1
  Si  Si8  1  0.250000  0.779606  0.896116  1
  Si  Si9  1  0.750000  0.720160  0.392498  1
  Si  Si10  1  0.750000  0.219802  0.105196  1
  Ge  Ge11  1  0.250000  0.276229  0.607471  1
