# generated using pymatgen
data_Ce2MnFe13(SiC)3
_symmetry_space_group_name_H-M   'P 1'
_cell_length_a   6.46077444
_cell_length_b   6.44750637
_cell_length_c   6.46077414
_cell_angle_alpha   84.12356207
_cell_angle_beta   84.02756712
_cell_angle_gamma   84.12356308
_symmetry_Int_Tables_number   1
_chemical_formula_structural   Ce2MnFe13(SiC)3
_chemical_formula_sum   'Ce2 Mn1 Fe13 Si3 C3'
_cell_volume   265.11489509
_cell_formula_units_Z   1
loop_
 _symmetry_equiv_pos_site_id
 _symmetry_equiv_pos_as_xyz
  1  'x, y, z'
loop_
 _atom_site_type_symbol
 _atom_site_label
 _atom_site_symmetry_multiplicity
 _atom_site_fract_x
 _atom_site_fract_y
 _atom_site_fract_z
 _atom_site_occupancy
  Ce  Ce0  1  0.650473  0.650737  0.650940  1
  Ce  Ce1  1  0.349060  0.349263  0.349527  1
  Mn  Mn2  1  0.715373  0.000000  0.284627  1
  Fe  Fe3  1  0.284634  0.714921  0.001155  1
  Fe  Fe4  1  0.998845  0.285079  0.715366  1
  Fe  Fe5  1  0.284895  0.000000  0.715105  1
  Fe  Fe6  1  0.998216  0.715055  0.285591  1
  Fe  Fe7  1  0.714409  0.284945  0.001784  1
  Fe  Fe8  1  0.338531  0.339221  0.863917  1
  Fe  Fe9  1  0.339082  0.863227  0.337284  1
  Fe  Fe10  1  0.864724  0.338272  0.338513  1
  Fe  Fe11  1  0.661487  0.661728  0.135276  1
  Fe  Fe12  1  0.662716  0.136773  0.660918  1
  Fe  Fe13  1  0.136083  0.660779  0.661469  1
  Fe  Fe14  1  0.903303  0.902427  0.903214  1
  Fe  Fe15  1  0.096786  0.097573  0.096697  1
  Si  Si16  1  0.001201  0.000101  0.500502  1
  Si  Si17  1  0.999667  0.500000  0.000333  1
  Si  Si18  1  0.499498  0.999899  0.998799  1
  C  C19  1  0.500405  0.499970  0.999973  1
  C  C20  1  0.500586  0.000000  0.499414  1
  C  C21  1  0.000027  0.500030  0.499595  1
