# generated using pymatgen
data_Ti5Al(Tc2W)6
_symmetry_space_group_name_H-M   'P 1'
_cell_length_a   4.38217300
_cell_length_b   6.24657400
_cell_length_c   13.25430400
_cell_angle_alpha   90.00000000
_cell_angle_beta   90.00032559
_cell_angle_gamma   90.00000000
_symmetry_Int_Tables_number   1
_chemical_formula_structural   Ti5Al(Tc2W)6
_chemical_formula_sum   'Ti5 Al1 Tc12 W6'
_cell_volume   362.81759084
_cell_formula_units_Z   1
loop_
 _symmetry_equiv_pos_site_id
 _symmetry_equiv_pos_as_xyz
  1  'x, y, z'
loop_
 _atom_site_type_symbol
 _atom_site_label
 _atom_site_symmetry_multiplicity
 _atom_site_fract_x
 _atom_site_fract_y
 _atom_site_fract_z
 _atom_site_occupancy
  Ti  Ti0  1  0.499889  0.500000  0.166162  1
  Ti  Ti1  1  0.999891  0.000000  0.332667  1
  Ti  Ti2  1  0.499999  0.500000  0.500000  1
  Ti  Ti3  1  0.000110  0.000000  0.667334  1
  Ti  Ti4  1  0.500110  0.500000  0.833838  1
  Al  Al5  1  0.000000  0.000000  0.000000  1
  Tc  Tc6  1  0.499999  0.251911  0.000000  1
  Tc  Tc7  1  0.499999  0.748089  0.000000  1
  Tc  Tc8  1  0.999892  0.250607  0.167571  1
  Tc  Tc9  1  0.999892  0.749393  0.167571  1
  Tc  Tc10  1  0.499901  0.250027  0.333288  1
  Tc  Tc11  1  0.499901  0.749973  0.333288  1
  Tc  Tc12  1  0.000000  0.248883  0.500000  1
  Tc  Tc13  1  0.000000  0.751117  0.500000  1
  Tc  Tc14  1  0.500098  0.250027  0.666712  1
  Tc  Tc15  1  0.500098  0.749973  0.666712  1
  Tc  Tc16  1  0.000109  0.250607  0.832429  1
  Tc  Tc17  1  0.000109  0.749393  0.832429  1
  W  W18  1  0.000000  0.500000  0.000000  1
  W  W19  1  0.499878  0.000000  0.162765  1
  W  W20  1  0.999904  0.500000  0.333087  1
  W  W21  1  0.499999  0.000000  0.500000  1
  W  W22  1  0.000097  0.500000  0.666912  1
  W  W23  1  0.500121  0.000000  0.837235  1
