# generated using pymatgen
data_Yb6PrSm(Si3Pd)4
_symmetry_space_group_name_H-M   'P 1'
_cell_length_a   8.25569800
_cell_length_b   8.25569647
_cell_length_c   8.30157800
_cell_angle_alpha   90.00000000
_cell_angle_beta   90.00000000
_cell_angle_gamma   119.99999813
_symmetry_Int_Tables_number   1
_chemical_formula_structural   Yb6PrSm(Si3Pd)4
_chemical_formula_sum   'Yb6 Pr1 Sm1 Si12 Pd4'
_cell_volume   490.00307726
_cell_formula_units_Z   1
loop_
 _symmetry_equiv_pos_site_id
 _symmetry_equiv_pos_as_xyz
  1  'x, y, z'
loop_
 _atom_site_type_symbol
 _atom_site_label
 _atom_site_symmetry_multiplicity
 _atom_site_fract_x
 _atom_site_fract_y
 _atom_site_fract_z
 _atom_site_occupancy
  Yb  Yb0  1  0.499310  0.500690  0.750000  1
  Yb  Yb1  1  0.500594  0.499406  0.250000  1
  Yb  Yb2  1  0.001380  0.500690  0.750000  1
  Yb  Yb3  1  0.998811  0.499406  0.250000  1
  Yb  Yb4  1  0.499310  0.998620  0.750000  1
  Yb  Yb5  1  0.500594  0.001189  0.250000  1
  Pr  Pr6  1  0.000000  0.000000  0.250000  1
  Sm  Sm7  1  0.000000  0.000000  0.750000  1
  Si  Si8  1  0.834691  0.165309  0.997653  1
  Si  Si9  1  0.165289  0.834711  0.998820  1
  Si  Si10  1  0.330618  0.165309  0.997653  1
  Si  Si11  1  0.165289  0.834711  0.501180  1
  Si  Si12  1  0.669424  0.834711  0.998820  1
  Si  Si13  1  0.834691  0.165309  0.502347  1
  Si  Si14  1  0.834691  0.669382  0.997653  1
  Si  Si15  1  0.669424  0.834711  0.501180  1
  Si  Si16  1  0.165289  0.330576  0.998820  1
  Si  Si17  1  0.330618  0.165309  0.502347  1
  Si  Si18  1  0.165289  0.330576  0.501180  1
  Si  Si19  1  0.834691  0.669382  0.502347  1
  Pd  Pd20  1  0.666667  0.333333  0.996126  1
  Pd  Pd21  1  0.333333  0.666667  0.999227  1
  Pd  Pd22  1  0.333333  0.666667  0.500773  1
  Pd  Pd23  1  0.666667  0.333333  0.503874  1
