# generated using pymatgen
data_Tm6Lu10Tl3In3Co2
_symmetry_space_group_name_H-M   'P 1'
_cell_length_a   10.16667800
_cell_length_b   10.16667764
_cell_length_c   6.95856800
_cell_angle_alpha   90.00000000
_cell_angle_beta   90.00000000
_cell_angle_gamma   120.00000118
_symmetry_Int_Tables_number   1
_chemical_formula_structural   Tm6Lu10Tl3In3Co2
_chemical_formula_sum   'Tm6 Lu10 Tl3 In3 Co2'
_cell_volume   622.88607787
_cell_formula_units_Z   1
loop_
 _symmetry_equiv_pos_site_id
 _symmetry_equiv_pos_as_xyz
  1  'x, y, z'
loop_
 _atom_site_type_symbol
 _atom_site_label
 _atom_site_symmetry_multiplicity
 _atom_site_fract_x
 _atom_site_fract_y
 _atom_site_fract_z
 _atom_site_occupancy
  Tm  Tm0  1  0.536335  0.072671  0.521686  1
  Tm  Tm1  1  0.927329  0.463665  0.521686  1
  Tm  Tm2  1  0.536335  0.463665  0.521686  1
  Tm  Tm3  1  0.462558  0.925116  0.025312  1
  Tm  Tm4  1  0.074884  0.537442  0.025312  1
  Tm  Tm5  1  0.462558  0.537442  0.025312  1
  Lu  Lu6  1  0.179080  0.358162  0.726292  1
  Lu  Lu7  1  0.641838  0.820920  0.726292  1
  Lu  Lu8  1  0.179080  0.820920  0.726292  1
  Lu  Lu9  1  0.820429  0.640858  0.222729  1
  Lu  Lu10  1  0.359142  0.179571  0.222729  1
  Lu  Lu11  1  0.820429  0.179571  0.222729  1
  Lu  Lu12  1  0.666667  0.333333  0.913858  1
  Lu  Lu13  1  0.333333  0.666667  0.416143  1
  Lu  Lu14  1  0.000000  0.000000  0.505372  1
  Lu  Lu15  1  0.000000  0.000000  0.009603  1
  Tl  Tl16  1  0.837098  0.674196  0.771446  1
  Tl  Tl17  1  0.325804  0.162902  0.771446  1
  Tl  Tl18  1  0.837098  0.162902  0.771446  1
  In  In19  1  0.162554  0.325109  0.273417  1
  In  In20  1  0.674891  0.837446  0.273417  1
  In  In21  1  0.162554  0.837446  0.273417  1
  Co  Co22  1  0.666667  0.333333  0.293723  1
  Co  Co23  1  0.333333  0.666667  0.794332  1
