# generated using pymatgen
data_Sr2Yb2LuPt4
_symmetry_space_group_name_H-M   'P 1'
_cell_length_a   7.65953900
_cell_length_b   7.79408300
_cell_length_c   14.78001600
_cell_angle_alpha   90.00000000
_cell_angle_beta   90.00000000
_cell_angle_gamma   90.00000000
_symmetry_Int_Tables_number   1
_chemical_formula_structural   Sr2Yb2LuPt4
_chemical_formula_sum   'Sr8 Yb8 Lu4 Pt16'
_cell_volume   882.35339761
_cell_formula_units_Z   4
loop_
 _symmetry_equiv_pos_site_id
 _symmetry_equiv_pos_as_xyz
  1  'x, y, z'
loop_
 _atom_site_type_symbol
 _atom_site_label
 _atom_site_symmetry_multiplicity
 _atom_site_fract_x
 _atom_site_fract_y
 _atom_site_fract_z
 _atom_site_occupancy
  Sr  Sr0  1  0.501074  0.325299  0.904350  1
  Sr  Sr1  1  0.001074  0.174701  0.595650  1
  Sr  Sr2  1  0.498926  0.674701  0.404350  1
  Sr  Sr3  1  0.998926  0.825299  0.095650  1
  Sr  Sr4  1  0.498317  0.675727  0.096341  1
  Sr  Sr5  1  0.998317  0.824273  0.403659  1
  Sr  Sr6  1  0.501683  0.324273  0.596341  1
  Sr  Sr7  1  0.001683  0.175727  0.903659  1
  Yb  Yb8  1  0.661211  0.166761  0.122722  1
  Yb  Yb9  1  0.161211  0.333239  0.377278  1
  Yb  Yb10  1  0.338789  0.833239  0.622723  1
  Yb  Yb11  1  0.838789  0.666761  0.877277  1
  Yb  Yb12  1  0.177945  0.496445  0.749992  1
  Yb  Yb13  1  0.677945  0.003555  0.750008  1
  Yb  Yb14  1  0.822055  0.503555  0.249992  1
  Yb  Yb15  1  0.322055  0.996445  0.250008  1
  Lu  Lu16  1  0.339653  0.833536  0.875460  1
  Lu  Lu17  1  0.839653  0.666464  0.624540  1
  Lu  Lu18  1  0.660347  0.166464  0.375461  1
  Lu  Lu19  1  0.160347  0.333536  0.124539  1
  Pt  Pt20  1  0.329245  0.044739  0.041473  1
  Pt  Pt21  1  0.829245  0.455261  0.458527  1
  Pt  Pt22  1  0.670755  0.955261  0.541473  1
  Pt  Pt23  1  0.170755  0.544739  0.958527  1
  Pt  Pt24  1  0.656750  0.957896  0.955377  1
  Pt  Pt25  1  0.156750  0.542104  0.544623  1
  Pt  Pt26  1  0.343250  0.042104  0.455377  1
  Pt  Pt27  1  0.843250  0.457896  0.044623  1
  Pt  Pt28  1  0.545973  0.635743  0.751294  1
  Pt  Pt29  1  0.045973  0.864257  0.748706  1
  Pt  Pt30  1  0.454027  0.364257  0.251294  1
  Pt  Pt31  1  0.954027  0.135743  0.248706  1
  Pt  Pt32  1  0.304090  0.120183  0.753191  1
  Pt  Pt33  1  0.804090  0.379817  0.746809  1
  Pt  Pt34  1  0.695910  0.879817  0.253191  1
  Pt  Pt35  1  0.195910  0.620183  0.246809  1
