# generated using pymatgen
data_Hf6GaFeSe
_symmetry_space_group_name_H-M   'P 1'
_cell_length_a   3.40051600
_cell_length_b   7.65753812
_cell_length_c   7.65753900
_cell_angle_alpha   120.00000812
_cell_angle_beta   90.00000000
_cell_angle_gamma   90.00000000
_symmetry_Int_Tables_number   1
_chemical_formula_structural   Hf6GaFeSe
_chemical_formula_sum   'Hf6 Ga1 Fe1 Se1'
_cell_volume   172.68467740
_cell_formula_units_Z   1
loop_
 _symmetry_equiv_pos_site_id
 _symmetry_equiv_pos_as_xyz
  1  'x, y, z'
loop_
 _atom_site_type_symbol
 _atom_site_label
 _atom_site_symmetry_multiplicity
 _atom_site_fract_x
 _atom_site_fract_y
 _atom_site_fract_z
 _atom_site_occupancy
  Hf  Hf0  1  0.500000  0.750538  0.755642  1
  Hf  Hf1  1  0.500000  0.005104  0.249462  1
  Hf  Hf2  1  0.500000  0.244358  0.994896  1
  Hf  Hf3  1  0.000000  0.407741  0.400130  1
  Hf  Hf4  1  0.000000  0.992389  0.592259  1
  Hf  Hf5  1  0.000000  0.599870  0.007611  1
  Ga  Ga6  1  0.500000  0.333333  0.666667  1
  Fe  Fe7  1  0.000000  0.000000  0.000000  1
  Se  Se8  1  0.500000  0.666667  0.333333  1
