# generated using pymatgen
data_HoPa2(SnOs)3
_symmetry_space_group_name_H-M   'P 1'
_cell_length_a   7.26702600
_cell_length_b   7.49033553
_cell_length_c   4.04294900
_cell_angle_alpha   90.00000000
_cell_angle_beta   90.00000000
_cell_angle_gamma   119.01859778
_symmetry_Int_Tables_number   1
_chemical_formula_structural   HoPa2(SnOs)3
_chemical_formula_sum   'Ho1 Pa2 Sn3 Os3'
_cell_volume   192.44088161
_cell_formula_units_Z   1
loop_
 _symmetry_equiv_pos_site_id
 _symmetry_equiv_pos_as_xyz
  1  'x, y, z'
loop_
 _atom_site_type_symbol
 _atom_site_label
 _atom_site_symmetry_multiplicity
 _atom_site_fract_x
 _atom_site_fract_y
 _atom_site_fract_z
 _atom_site_occupancy
  Ho  Ho0  1  0.406994  0.000000  0.000000  1
  Pa  Pa1  1  0.998028  0.411338  0.000000  1
  Pa  Pa2  1  0.586691  0.588662  0.000000  1
  Sn  Sn3  1  0.253154  0.238770  0.500000  1
  Sn  Sn4  1  0.014383  0.761230  0.500000  1
  Sn  Sn5  1  0.732536  0.000000  0.500000  1
  Os  Os6  1  0.693665  0.363907  0.500000  1
  Os  Os7  1  0.329756  0.636093  0.500000  1
  Os  Os8  1  0.984795  0.000000  0.000000  1
