# generated using pymatgen
data_NdEr9(Bi2Sb)2
_symmetry_space_group_name_H-M   'P 1'
_cell_length_a   8.21891900
_cell_length_b   9.38440100
_cell_length_c   11.98419600
_cell_angle_alpha   90.00000000
_cell_angle_beta   90.00000000
_cell_angle_gamma   90.00000000
_symmetry_Int_Tables_number   1
_chemical_formula_structural   NdEr9(Bi2Sb)2
_chemical_formula_sum   'Nd2 Er18 Bi8 Sb4'
_cell_volume   924.33662349
_cell_formula_units_Z   2
loop_
 _symmetry_equiv_pos_site_id
 _symmetry_equiv_pos_as_xyz
  1  'x, y, z'
loop_
 _atom_site_type_symbol
 _atom_site_label
 _atom_site_symmetry_multiplicity
 _atom_site_fract_x
 _atom_site_fract_y
 _atom_site_fract_z
 _atom_site_occupancy
  Nd  Nd0  1  0.174274  0.750000  0.226105  1
  Nd  Nd1  1  0.325726  0.750000  0.726105  1
  Er  Er2  1  0.814783  0.562439  0.063723  1
  Er  Er3  1  0.685217  0.937561  0.563723  1
  Er  Er4  1  0.187426  0.062534  0.937150  1
  Er  Er5  1  0.312574  0.437466  0.437150  1
  Er  Er6  1  0.187426  0.437466  0.937150  1
  Er  Er7  1  0.312574  0.062534  0.437150  1
  Er  Er8  1  0.814783  0.937561  0.063723  1
  Er  Er9  1  0.685217  0.562439  0.563723  1
  Er  Er10  1  0.826096  0.250000  0.775070  1
  Er  Er11  1  0.673904  0.250000  0.275070  1
  Er  Er12  1  0.476462  0.750000  0.004482  1
  Er  Er13  1  0.023538  0.750000  0.504482  1
  Er  Er14  1  0.526317  0.250000  0.995569  1
  Er  Er15  1  0.973683  0.250000  0.495569  1
  Er  Er16  1  0.658782  0.750000  0.290404  1
  Er  Er17  1  0.841218  0.750000  0.790404  1
  Er  Er18  1  0.344268  0.250000  0.709227  1
  Er  Er19  1  0.155732  0.250000  0.209227  1
  Bi  Bi20  1  0.930850  0.506110  0.326731  1
  Bi  Bi21  1  0.569150  0.993890  0.826731  1
  Bi  Bi22  1  0.060302  0.011492  0.674270  1
  Bi  Bi23  1  0.439698  0.488508  0.174270  1
  Bi  Bi24  1  0.060302  0.488508  0.674270  1
  Bi  Bi25  1  0.439698  0.011492  0.174270  1
  Bi  Bi26  1  0.930850  0.993890  0.326731  1
  Bi  Bi27  1  0.569150  0.506110  0.826731  1
  Sb  Sb28  1  0.401017  0.750000  0.468270  1
  Sb  Sb29  1  0.098983  0.750000  0.968270  1
  Sb  Sb30  1  0.599278  0.250000  0.527126  1
  Sb  Sb31  1  0.900722  0.250000  0.027126  1
