# generated using pymatgen
data_YbCu2RhO4
_symmetry_space_group_name_H-M   'P 1'
_cell_length_a   5.64535100
_cell_length_b   5.64535100
_cell_length_c   5.54404700
_cell_angle_alpha   90.00000000
_cell_angle_beta   90.00000000
_cell_angle_gamma   90.00000000
_symmetry_Int_Tables_number   1
_chemical_formula_structural   YbCu2RhO4
_chemical_formula_sum   'Yb2 Cu4 Rh2 O8'
_cell_volume   176.68871088
_cell_formula_units_Z   2
loop_
 _symmetry_equiv_pos_site_id
 _symmetry_equiv_pos_as_xyz
  1  'x, y, z'
loop_
 _atom_site_type_symbol
 _atom_site_label
 _atom_site_symmetry_multiplicity
 _atom_site_fract_x
 _atom_site_fract_y
 _atom_site_fract_z
 _atom_site_occupancy
  Yb  Yb0  1  0.000000  0.000000  0.000000  1
  Yb  Yb1  1  0.500000  0.500000  0.500000  1
  Cu  Cu2  1  0.249650  0.000000  0.500000  1
  Cu  Cu3  1  0.500000  0.250350  0.000000  1
  Cu  Cu4  1  0.500000  0.749650  0.000000  1
  Cu  Cu5  1  0.750350  0.000000  0.500000  1
  Rh  Rh6  1  0.000000  0.500000  0.250000  1
  Rh  Rh7  1  0.000000  0.500000  0.750000  1
  O  O8  1  0.253985  0.246015  0.250000  1
  O  O9  1  0.253985  0.753985  0.250000  1
  O  O10  1  0.253985  0.246015  0.750000  1
  O  O11  1  0.253985  0.753985  0.750000  1
  O  O12  1  0.746015  0.246015  0.250000  1
  O  O13  1  0.746015  0.246015  0.750000  1
  O  O14  1  0.746015  0.753985  0.250000  1
  O  O15  1  0.746015  0.753985  0.750000  1
