# generated using pymatgen
data_ZrAg7(SO4)6
_symmetry_space_group_name_H-M   'P 1'
_cell_length_a   8.74225533
_cell_length_b   8.74225421
_cell_length_c   8.74225462
_cell_angle_alpha   107.42097027
_cell_angle_beta   107.42097373
_cell_angle_gamma   107.42098435
_symmetry_Int_Tables_number   1
_chemical_formula_structural   ZrAg7(SO4)6
_chemical_formula_sum   'Zr1 Ag7 S6 O24'
_cell_volume   549.92198694
_cell_formula_units_Z   1
loop_
 _symmetry_equiv_pos_site_id
 _symmetry_equiv_pos_as_xyz
  1  'x, y, z'
loop_
 _atom_site_type_symbol
 _atom_site_label
 _atom_site_symmetry_multiplicity
 _atom_site_fract_x
 _atom_site_fract_y
 _atom_site_fract_z
 _atom_site_occupancy
  Zr  Zr0  1  0.000000  0.000000  0.000000  1
  Ag  Ag1  1  0.500000  0.500000  0.500000  1
  Ag  Ag2  1  0.826817  0.338449  0.672819  1
  Ag  Ag3  1  0.338449  0.672819  0.826817  1
  Ag  Ag4  1  0.672819  0.826817  0.338449  1
  Ag  Ag5  1  0.173183  0.661551  0.327181  1
  Ag  Ag6  1  0.661551  0.327181  0.173183  1
  Ag  Ag7  1  0.327181  0.173183  0.661551  1
  S  S8  1  0.967907  0.746250  0.594588  1
  S  S9  1  0.746250  0.594588  0.967907  1
  S  S10  1  0.594588  0.967907  0.746250  1
  S  S11  1  0.032093  0.253750  0.405412  1
  S  S12  1  0.253750  0.405412  0.032093  1
  S  S13  1  0.405412  0.032093  0.253750  1
  O  O14  1  0.482706  0.916846  0.178441  1
  O  O15  1  0.916846  0.178441  0.482706  1
  O  O16  1  0.178441  0.482706  0.916846  1
  O  O17  1  0.517294  0.083154  0.821559  1
  O  O18  1  0.083154  0.821559  0.517294  1
  O  O19  1  0.821559  0.517294  0.083154  1
  O  O20  1  0.333003  0.980657  0.372066  1
  O  O21  1  0.980657  0.372066  0.333003  1
  O  O22  1  0.372066  0.333003  0.980657  1
  O  O23  1  0.666997  0.019343  0.627934  1
  O  O24  1  0.019343  0.627934  0.666997  1
  O  O25  1  0.627934  0.666997  0.019343  1
  O  O26  1  0.743445  0.983695  0.904083  1
  O  O27  1  0.983695  0.904083  0.743445  1
  O  O28  1  0.652498  0.461702  0.776565  1
  O  O29  1  0.776565  0.652498  0.461702  1
  O  O30  1  0.461702  0.776565  0.652498  1
  O  O31  1  0.347502  0.538298  0.223435  1
  O  O32  1  0.223435  0.347502  0.538298  1
  O  O33  1  0.538298  0.223435  0.347502  1
  O  O34  1  0.095917  0.256555  0.016305  1
  O  O35  1  0.016305  0.095917  0.256555  1
  O  O36  1  0.256555  0.016305  0.095917  1
  O  O37  1  0.904083  0.743445  0.983695  1
