# generated using pymatgen
data_CaDyRh4
_symmetry_space_group_name_H-M   'P 1'
_cell_length_a   5.35113401
_cell_length_b   5.35113340
_cell_length_c   5.35113300
_cell_angle_alpha   59.99999631
_cell_angle_beta   60.00000009
_cell_angle_gamma   59.99999985
_symmetry_Int_Tables_number   1
_chemical_formula_structural   CaDyRh4
_chemical_formula_sum   'Ca1 Dy1 Rh4'
_cell_volume   108.34835969
_cell_formula_units_Z   1
loop_
 _symmetry_equiv_pos_site_id
 _symmetry_equiv_pos_as_xyz
  1  'x, y, z'
loop_
 _atom_site_type_symbol
 _atom_site_label
 _atom_site_symmetry_multiplicity
 _atom_site_fract_x
 _atom_site_fract_y
 _atom_site_fract_z
 _atom_site_occupancy
  Ca  Ca0  1  0.750000  0.750000  0.750000  1
  Dy  Dy1  1  0.500000  0.500000  0.500000  1
  Rh  Rh2  1  0.125021  0.125021  0.624936  1
  Rh  Rh3  1  0.125021  0.624936  0.125021  1
  Rh  Rh4  1  0.125021  0.125021  0.125021  1
  Rh  Rh5  1  0.624936  0.125021  0.125021  1
