# generated using pymatgen
data_DyZrReB6
_symmetry_space_group_name_H-M   'P 1'
_cell_length_a   3.61453600
_cell_length_b   9.04419600
_cell_length_c   11.43308700
_cell_angle_alpha   90.00000000
_cell_angle_beta   90.00000000
_cell_angle_gamma   90.00000000
_symmetry_Int_Tables_number   1
_chemical_formula_structural   DyZrReB6
_chemical_formula_sum   'Dy4 Zr4 Re4 B24'
_cell_volume   373.75415413
_cell_formula_units_Z   4
loop_
 _symmetry_equiv_pos_site_id
 _symmetry_equiv_pos_as_xyz
  1  'x, y, z'
loop_
 _atom_site_type_symbol
 _atom_site_label
 _atom_site_symmetry_multiplicity
 _atom_site_fract_x
 _atom_site_fract_y
 _atom_site_fract_z
 _atom_site_occupancy
  Dy  Dy0  1  0.000000  0.322302  0.413867  1
  Dy  Dy1  1  0.000000  0.677698  0.586133  1
  Dy  Dy2  1  0.000000  0.822302  0.086133  1
  Dy  Dy3  1  0.000000  0.177698  0.913867  1
  Zr  Zr4  1  0.000000  0.944801  0.372361  1
  Zr  Zr5  1  0.000000  0.055199  0.627639  1
  Zr  Zr6  1  0.000000  0.444801  0.127639  1
  Zr  Zr7  1  0.000000  0.555199  0.872361  1
  Re  Re8  1  0.000000  0.640357  0.318278  1
  Re  Re9  1  0.000000  0.359643  0.681722  1
  Re  Re10  1  0.000000  0.140357  0.181722  1
  Re  Re11  1  0.000000  0.859643  0.818278  1
  B  B12  1  0.500000  0.554286  0.433255  1
  B  B13  1  0.500000  0.445714  0.566745  1
  B  B14  1  0.500000  0.054286  0.066745  1
  B  B15  1  0.500000  0.945714  0.933255  1
  B  B16  1  0.500000  0.751823  0.418140  1
  B  B17  1  0.500000  0.248177  0.581860  1
  B  B18  1  0.500000  0.251823  0.081860  1
  B  B19  1  0.500000  0.748177  0.918140  1
  B  B20  1  0.500000  0.794415  0.264326  1
  B  B21  1  0.500000  0.205585  0.735674  1
  B  B22  1  0.500000  0.294415  0.235674  1
  B  B23  1  0.500000  0.705585  0.764326  1
  B  B24  1  0.500000  0.630395  0.183646  1
  B  B25  1  0.500000  0.369605  0.816354  1
  B  B26  1  0.500000  0.130395  0.316354  1
  B  B27  1  0.500000  0.869605  0.683646  1
  B  B28  1  0.500000  0.982146  0.213060  1
  B  B29  1  0.500000  0.017854  0.786940  1
  B  B30  1  0.500000  0.482146  0.286940  1
  B  B31  1  0.500000  0.517854  0.713060  1
  B  B32  1  0.500000  0.600526  0.027009  1
  B  B33  1  0.500000  0.399474  0.972991  1
  B  B34  1  0.500000  0.100526  0.472991  1
  B  B35  1  0.500000  0.899474  0.527009  1
