# generated using pymatgen
data_Zr5Ta3(Co4P3)4
_symmetry_space_group_name_H-M   'P 1'
_cell_length_a   11.99054100
_cell_length_b   11.99054015
_cell_length_c   3.65872700
_cell_angle_alpha   90.00000000
_cell_angle_beta   90.00000000
_cell_angle_gamma   119.99999406
_symmetry_Int_Tables_number   1
_chemical_formula_structural   Zr5Ta3(Co4P3)4
_chemical_formula_sum   'Zr5 Ta3 Co16 P12'
_cell_volume   455.55224292
_cell_formula_units_Z   1
loop_
 _symmetry_equiv_pos_site_id
 _symmetry_equiv_pos_as_xyz
  1  'x, y, z'
loop_
 _atom_site_type_symbol
 _atom_site_label
 _atom_site_symmetry_multiplicity
 _atom_site_fract_x
 _atom_site_fract_y
 _atom_site_fract_z
 _atom_site_occupancy
  Zr  Zr0  1  0.666667  0.333333  0.000000  1
  Zr  Zr1  1  0.333333  0.666667  0.000000  1
  Zr  Zr2  1  0.820448  0.820448  0.500000  1
  Zr  Zr3  1  0.179552  0.000000  0.500000  1
  Zr  Zr4  1  0.000000  0.179552  0.500000  1
  Ta  Ta5  1  0.445133  0.445133  0.000000  1
  Ta  Ta6  1  0.554867  0.000000  0.000000  1
  Ta  Ta7  1  0.000000  0.554867  0.000000  1
  Co  Co8  1  0.194798  0.374341  0.000000  1
  Co  Co9  1  0.179542  0.805202  0.000000  1
  Co  Co10  1  0.820458  0.625659  0.000000  1
  Co  Co11  1  0.805202  0.179542  0.000000  1
  Co  Co12  1  0.374341  0.194798  0.000000  1
  Co  Co13  1  0.127493  0.484133  0.500000  1
  Co  Co14  1  0.356641  0.872507  0.500000  1
  Co  Co15  1  0.515867  0.643359  0.500000  1
  Co  Co16  1  0.643359  0.515867  0.500000  1
  Co  Co17  1  0.872507  0.356641  0.500000  1
  Co  Co18  1  0.484133  0.127493  0.500000  1
  Co  Co19  1  0.000000  0.000000  0.000000  1
  Co  Co20  1  0.721468  0.000000  0.500000  1
  Co  Co21  1  0.000000  0.721468  0.500000  1
  Co  Co22  1  0.625659  0.820458  0.000000  1
  Co  Co23  1  0.278532  0.278532  0.500000  1
  P  P24  1  0.648111  0.648111  0.000000  1
  P  P25  1  0.351889  0.000000  0.000000  1
  P  P26  1  0.000000  0.351889  0.000000  1
  P  P27  1  0.480740  0.310502  0.500000  1
  P  P28  1  0.689498  0.170238  0.500000  1
  P  P29  1  0.829762  0.519260  0.500000  1
  P  P30  1  0.519260  0.829762  0.500000  1
  P  P31  1  0.170238  0.689498  0.500000  1
  P  P32  1  0.823764  0.000000  0.000000  1
  P  P33  1  0.000000  0.823764  0.000000  1
  P  P34  1  0.310502  0.480740  0.500000  1
  P  P35  1  0.176236  0.176236  0.000000  1
