# generated using pymatgen
data_Pr5NdAl24Os5Rh3
_symmetry_space_group_name_H-M   'P 1'
_cell_length_a   8.89661105
_cell_length_b   8.91524205
_cell_length_c   9.70627927
_cell_angle_alpha   90.03683386
_cell_angle_beta   89.88803682
_cell_angle_gamma   119.46192296
_symmetry_Int_Tables_number   1
_chemical_formula_structural   Pr5NdAl24Os5Rh3
_chemical_formula_sum   'Pr5 Nd1 Al24 Os5 Rh3'
_cell_volume   670.30060157
_cell_formula_units_Z   1
loop_
 _symmetry_equiv_pos_site_id
 _symmetry_equiv_pos_as_xyz
  1  'x, y, z'
loop_
 _atom_site_type_symbol
 _atom_site_label
 _atom_site_symmetry_multiplicity
 _atom_site_fract_x
 _atom_site_fract_y
 _atom_site_fract_z
 _atom_site_occupancy
  Pr  Pr0  1  0.186347  0.380835  0.250528  1
  Pr  Pr1  1  0.813679  0.619118  0.749545  1
  Pr  Pr2  1  0.617098  0.814244  0.251328  1
  Pr  Pr3  1  0.382949  0.185852  0.748680  1
  Pr  Pr4  1  0.193782  0.809784  0.250506  1
  Nd  Nd5  1  0.805944  0.190285  0.749366  1
  Al  Al6  1  0.334201  0.667906  0.015664  1
  Al  Al7  1  0.666121  0.331946  0.983408  1
  Al  Al8  1  0.668055  0.332805  0.516196  1
  Al  Al9  1  0.332121  0.666930  0.484657  1
  Al  Al10  1  0.161045  0.326003  0.574937  1
  Al  Al11  1  0.838431  0.673641  0.425525  1
  Al  Al12  1  0.673341  0.837919  0.574939  1
  Al  Al13  1  0.836234  0.674000  0.075532  1
  Al  Al14  1  0.326953  0.162500  0.425469  1
  Al  Al15  1  0.163233  0.325724  0.924064  1
  Al  Al16  1  0.163536  0.834882  0.573670  1
  Al  Al17  1  0.326763  0.162142  0.074161  1
  Al  Al18  1  0.836446  0.165091  0.427032  1
  Al  Al19  1  0.673597  0.838371  0.925393  1
  Al  Al20  1  0.833836  0.162157  0.074140  1
  Al  Al21  1  0.166229  0.837918  0.925074  1
  Al  Al22  1  0.562337  0.127969  0.249490  1
  Al  Al23  1  0.438337  0.872523  0.750478  1
  Al  Al24  1  0.873737  0.438511  0.250632  1
  Al  Al25  1  0.125701  0.560748  0.749466  1
  Al  Al26  1  0.562093  0.438584  0.249593  1
  Al  Al27  1  0.437946  0.561422  0.750426  1
  Al  Al28  1  0.998916  0.001632  0.250088  1
  Al  Al29  1  0.000657  0.998780  0.749927  1
  Os  Os30  1  0.500294  0.000134  0.999788  1
  Os  Os31  1  0.500250  0.000079  0.500183  1
  Os  Os32  1  0.999879  0.499739  0.500210  1
  Os  Os33  1  0.999989  0.000036  0.999925  1
  Os  Os34  1  0.999977  0.999997  0.500074  1
  Rh  Rh35  1  0.999943  0.499727  0.999865  1
  Rh  Rh36  1  0.500022  0.500040  0.999917  1
  Rh  Rh37  1  0.499981  0.500024  0.500123  1
