# generated using pymatgen
data_Sr3MnNiO6
_symmetry_space_group_name_H-M   'P 1'
_cell_length_a   6.67701607
_cell_length_b   6.67701592
_cell_length_c   6.67701637
_cell_angle_alpha   93.08031775
_cell_angle_beta   93.08031390
_cell_angle_gamma   93.08031624
_symmetry_Int_Tables_number   1
_chemical_formula_structural   Sr3MnNiO6
_chemical_formula_sum   'Sr6 Mn2 Ni2 O12'
_cell_volume   296.33983479
_cell_formula_units_Z   2
loop_
 _symmetry_equiv_pos_site_id
 _symmetry_equiv_pos_as_xyz
  1  'x, y, z'
loop_
 _atom_site_type_symbol
 _atom_site_label
 _atom_site_symmetry_multiplicity
 _atom_site_fract_x
 _atom_site_fract_y
 _atom_site_fract_z
 _atom_site_occupancy
  Sr  Sr0  1  0.887696  0.612304  0.250000  1
  Sr  Sr1  1  0.250000  0.887696  0.612304  1
  Sr  Sr2  1  0.612304  0.250000  0.887696  1
  Sr  Sr3  1  0.750000  0.112304  0.387696  1
  Sr  Sr4  1  0.387696  0.750000  0.112304  1
  Sr  Sr5  1  0.112304  0.387696  0.750000  1
  Mn  Mn6  1  0.500000  0.500000  0.500000  1
  Mn  Mn7  1  0.000000  0.000000  0.000000  1
  Ni  Ni8  1  0.250000  0.250000  0.250000  1
  Ni  Ni9  1  0.750000  0.750000  0.750000  1
  O  O10  1  0.220091  0.536526  0.415843  1
  O  O11  1  0.415843  0.220091  0.536526  1
  O  O12  1  0.536526  0.415843  0.220091  1
  O  O13  1  0.915843  0.036526  0.720091  1
  O  O14  1  0.720091  0.915843  0.036526  1
  O  O15  1  0.036526  0.720091  0.915843  1
  O  O16  1  0.779909  0.463474  0.584157  1
  O  O17  1  0.584157  0.779909  0.463474  1
  O  O18  1  0.463474  0.584157  0.779909  1
  O  O19  1  0.084157  0.963474  0.279909  1
  O  O20  1  0.279909  0.084157  0.963474  1
  O  O21  1  0.963474  0.279909  0.084157  1
