# generated using pymatgen
data_Pr7Nd3(Si2Pb)2
_symmetry_space_group_name_H-M   'P 1'
_cell_length_a   7.97262604
_cell_length_b   7.97262765
_cell_length_c   9.28226765
_cell_angle_alpha   115.41458110
_cell_angle_beta   115.37971941
_cell_angle_gamma   90.07531240
_symmetry_Int_Tables_number   1
_chemical_formula_structural   Pr7Nd3(Si2Pb)2
_chemical_formula_sum   'Pr7 Nd3 Si4 Pb2'
_cell_volume   468.90539610
_cell_formula_units_Z   1
loop_
 _symmetry_equiv_pos_site_id
 _symmetry_equiv_pos_as_xyz
  1  'x, y, z'
loop_
 _atom_site_type_symbol
 _atom_site_label
 _atom_site_symmetry_multiplicity
 _atom_site_fract_x
 _atom_site_fract_y
 _atom_site_fract_z
 _atom_site_occupancy
  Pr  Pr0  1  0.312493  0.463710  0.276203  1
  Pr  Pr1  1  0.812731  0.312651  0.276214  1
  Pr  Pr2  1  0.463563  0.963484  0.276214  1
  Pr  Pr3  1  0.036439  0.187434  0.723874  1
  Pr  Pr4  1  0.687453  0.536429  0.723882  1
  Pr  Pr5  1  0.187479  0.687511  0.723807  1
  Pr  Pr6  1  0.536295  0.036327  0.723807  1
  Nd  Nd7  1  0.500159  0.500110  0.000170  1
  Nd  Nd8  1  0.000059  0.000011  0.000170  1
  Nd  Nd9  1  0.963108  0.811890  0.274998  1
  Si  Si10  1  0.617945  0.882502  0.000447  1
  Si  Si11  1  0.382654  0.117375  0.000029  1
  Si  Si12  1  0.882725  0.383367  0.000494  1
  Si  Si13  1  0.117128  0.617769  0.000494  1
  Pb  Pb14  1  0.750322  0.750152  0.499599  1
  Pb  Pb15  1  0.249447  0.249277  0.499599  1
