# generated using pymatgen
data_TbLuNb4(B2Ru5)2
_symmetry_space_group_name_H-M   'P 1'
_cell_length_a   9.54412990
_cell_length_b   9.54413024
_cell_length_c   3.09243800
_cell_angle_alpha   90.00000000
_cell_angle_beta   90.00000000
_cell_angle_gamma   90.60051603
_symmetry_Int_Tables_number   1
_chemical_formula_structural   TbLuNb4(B2Ru5)2
_chemical_formula_sum   'Tb1 Lu1 Nb4 B4 Ru10'
_cell_volume   281.67600070
_cell_formula_units_Z   1
loop_
 _symmetry_equiv_pos_site_id
 _symmetry_equiv_pos_as_xyz
  1  'x, y, z'
loop_
 _atom_site_type_symbol
 _atom_site_label
 _atom_site_symmetry_multiplicity
 _atom_site_fract_x
 _atom_site_fract_y
 _atom_site_fract_z
 _atom_site_occupancy
  Tb  Tb0  1  0.824690  0.675310  0.000000  1
  Lu  Lu1  1  0.176306  0.323694  0.000000  1
  Nb  Nb2  1  0.324021  0.824354  0.000000  1
  Nb  Nb3  1  0.675646  0.175979  0.000000  1
  Nb  Nb4  1  0.498750  0.499563  0.000000  1
  Nb  Nb5  1  0.000437  0.001250  0.000000  1
  B  B6  1  0.620369  0.879631  0.000000  1
  B  B7  1  0.378129  0.121871  0.000000  1
  B  B8  1  0.121568  0.620287  0.000000  1
  B  B9  1  0.879713  0.378432  0.000000  1
  Ru  Ru10  1  0.559417  0.723305  0.500000  1
  Ru  Ru11  1  0.438277  0.277871  0.500000  1
  Ru  Ru12  1  0.081773  0.784770  0.500000  1
  Ru  Ru13  1  0.920634  0.215191  0.500000  1
  Ru  Ru14  1  0.284809  0.579366  0.500000  1
  Ru  Ru15  1  0.715230  0.418227  0.500000  1
  Ru  Ru16  1  0.222129  0.061723  0.500000  1
  Ru  Ru17  1  0.776695  0.940583  0.500000  1
  Ru  Ru18  1  0.499338  0.000662  0.500000  1
  Ru  Ru19  1  0.002071  0.497929  0.500000  1
