# generated using pymatgen
data_Y3Er5Re(B8Ir)3
_symmetry_space_group_name_H-M   'P 1'
_cell_length_a   3.64858600
_cell_length_b   9.15595163
_cell_length_c   11.49767300
_cell_angle_alpha   90.13073467
_cell_angle_beta   90.00000000
_cell_angle_gamma   90.00000000
_symmetry_Int_Tables_number   1
_chemical_formula_structural   Y3Er5Re(B8Ir)3
_chemical_formula_sum   'Y3 Er5 Re1 B24 Ir3'
_cell_volume   384.09344832
_cell_formula_units_Z   1
loop_
 _symmetry_equiv_pos_site_id
 _symmetry_equiv_pos_as_xyz
  1  'x, y, z'
loop_
 _atom_site_type_symbol
 _atom_site_label
 _atom_site_symmetry_multiplicity
 _atom_site_fract_x
 _atom_site_fract_y
 _atom_site_fract_z
 _atom_site_occupancy
  Y  Y0  1  0.000000  0.320708  0.413587  1
  Y  Y1  1  0.000000  0.683125  0.590565  1
  Y  Y2  1  0.000000  0.820693  0.082961  1
  Er  Er3  1  0.000000  0.175831  0.912149  1
  Er  Er4  1  0.000000  0.943775  0.373103  1
  Er  Er5  1  0.000000  0.053884  0.626382  1
  Er  Er6  1  0.000000  0.443373  0.125907  1
  Er  Er7  1  0.000000  0.557201  0.875018  1
  Re  Re8  1  0.000000  0.862809  0.821305  1
  B  B9  1  0.500000  0.553707  0.433989  1
  B  B10  1  0.500000  0.447413  0.567034  1
  B  B11  1  0.500000  0.053759  0.066153  1
  B  B12  1  0.500000  0.947229  0.932984  1
  B  B13  1  0.500000  0.750480  0.420343  1
  B  B14  1  0.500000  0.250386  0.579503  1
  B  B15  1  0.500000  0.248936  0.078655  1
  B  B16  1  0.500000  0.751908  0.919658  1
  B  B17  1  0.500000  0.792058  0.265394  1
  B  B18  1  0.500000  0.207645  0.733557  1
  B  B19  1  0.500000  0.292756  0.234364  1
  B  B20  1  0.500000  0.708182  0.766605  1
  B  B21  1  0.500000  0.630775  0.184585  1
  B  B22  1  0.500000  0.368042  0.815901  1
  B  B23  1  0.500000  0.131734  0.315249  1
  B  B24  1  0.500000  0.869346  0.685787  1
  B  B25  1  0.500000  0.981951  0.213088  1
  B  B26  1  0.500000  0.017854  0.786550  1
  B  B27  1  0.500000  0.481348  0.287045  1
  B  B28  1  0.500000  0.517782  0.714533  1
  B  B29  1  0.500000  0.607982  0.031086  1
  B  B30  1  0.500000  0.388772  0.970002  1
  B  B31  1  0.500000  0.109015  0.469390  1
  B  B32  1  0.500000  0.892083  0.528617  1
  Ir  Ir33  1  0.000000  0.637521  0.322133  1
  Ir  Ir34  1  0.000000  0.362125  0.678720  1
  Ir  Ir35  1  0.000000  0.137811  0.178101  1
