# generated using pymatgen
data_TbBi3Pt3RhO14
_symmetry_space_group_name_H-M   'P 1'
_cell_length_a   7.40394916
_cell_length_b   7.40394979
_cell_length_c   7.40395009
_cell_angle_alpha   59.63674125
_cell_angle_beta   59.63673767
_cell_angle_gamma   59.63673833
_symmetry_Int_Tables_number   1
_chemical_formula_structural   TbBi3Pt3RhO14
_chemical_formula_sum   'Tb1 Bi3 Pt3 Rh1 O14'
_cell_volume   284.62664527
_cell_formula_units_Z   1
loop_
 _symmetry_equiv_pos_site_id
 _symmetry_equiv_pos_as_xyz
  1  'x, y, z'
loop_
 _atom_site_type_symbol
 _atom_site_label
 _atom_site_symmetry_multiplicity
 _atom_site_fract_x
 _atom_site_fract_y
 _atom_site_fract_z
 _atom_site_occupancy
  Tb  Tb0  1  0.125000  0.125000  0.125000  1
  Bi  Bi1  1  0.125000  0.625000  0.125000  1
  Bi  Bi2  1  0.625000  0.125000  0.125000  1
  Bi  Bi3  1  0.125000  0.125000  0.625000  1
  Pt  Pt4  1  0.625000  0.625000  0.125000  1
  Pt  Pt5  1  0.125000  0.625000  0.625000  1
  Pt  Pt6  1  0.625000  0.125000  0.625000  1
  Rh  Rh7  1  0.625000  0.625000  0.625000  1
  O  O8  1  0.246261  0.246261  0.246261  1
  O  O9  1  0.289148  0.717078  0.289148  1
  O  O10  1  0.960852  0.960852  0.532922  1
  O  O11  1  0.541741  0.958849  0.541741  1
  O  O12  1  0.708259  0.708259  0.291151  1
  O  O13  1  0.958849  0.541741  0.541741  1
  O  O14  1  0.708259  0.291151  0.708259  1
  O  O15  1  0.289148  0.289148  0.717078  1
  O  O16  1  0.717078  0.289148  0.289148  1
  O  O17  1  0.291151  0.708259  0.708259  1
  O  O18  1  0.960852  0.532922  0.960852  1
  O  O19  1  0.541741  0.541741  0.958849  1
  O  O20  1  0.003739  0.003739  0.003739  1
  O  O21  1  0.532922  0.960852  0.960852  1
