# generated using pymatgen
data_Tb3Th(InPd2)2
_symmetry_space_group_name_H-M   'P 1'
_cell_length_a   7.82801997
_cell_length_b   7.82801997
_cell_length_c   3.75644400
_cell_angle_alpha   90.00000000
_cell_angle_beta   90.00000000
_cell_angle_gamma   91.01151382
_symmetry_Int_Tables_number   1
_chemical_formula_structural   Tb3Th(InPd2)2
_chemical_formula_sum   'Tb3 Th1 In2 Pd4'
_cell_volume   230.15111669
_cell_formula_units_Z   1
loop_
 _symmetry_equiv_pos_site_id
 _symmetry_equiv_pos_as_xyz
  1  'x, y, z'
loop_
 _atom_site_type_symbol
 _atom_site_label
 _atom_site_symmetry_multiplicity
 _atom_site_fract_x
 _atom_site_fract_y
 _atom_site_fract_z
 _atom_site_occupancy
  Tb  Tb0  1  0.825214  0.669707  0.500000  1
  Tb  Tb1  1  0.169707  0.325214  0.500000  1
  Tb  Tb2  1  0.675979  0.175979  0.500000  1
  Th  Th3  1  0.328496  0.828496  0.500000  1
  In  In4  1  0.994657  0.002538  0.000000  1
  In  In5  1  0.502538  0.494657  0.000000  1
  Pd  Pd6  1  0.372412  0.125794  0.000000  1
  Pd  Pd7  1  0.874550  0.374550  0.000000  1
  Pd  Pd8  1  0.130652  0.630652  0.000000  1
  Pd  Pd9  1  0.625794  0.872412  0.000000  1
