# generated using pymatgen
data_Cr3Cd6Fe(GeO4)6
_symmetry_space_group_name_H-M   'P 1'
_cell_length_a   10.77777840
_cell_length_b   10.77777840
_cell_length_c   10.78563432
_cell_angle_alpha   109.48035530
_cell_angle_beta   109.46510797
_cell_angle_gamma   109.43867774
_symmetry_Int_Tables_number   1
_chemical_formula_structural   Cr3Cd6Fe(GeO4)6
_chemical_formula_sum   'Cr6 Cd12 Fe2 Ge12 O48'
_cell_volume   964.80685632
_cell_formula_units_Z   2
loop_
 _symmetry_equiv_pos_site_id
 _symmetry_equiv_pos_as_xyz
  1  'x, y, z'
loop_
 _atom_site_type_symbol
 _atom_site_label
 _atom_site_symmetry_multiplicity
 _atom_site_fract_x
 _atom_site_fract_y
 _atom_site_fract_z
 _atom_site_occupancy
  Cr  Cr0  1  0.000000  0.000000  0.000000  1
  Cr  Cr1  1  0.500001  0.000000  0.000000  1
  Cr  Cr2  1  0.500000  0.500000  0.000000  1
  Cr  Cr3  1  0.500001  0.000000  0.500000  1
  Cr  Cr4  1  0.000000  0.500001  0.500000  1
  Cr  Cr5  1  0.500001  0.500001  0.500001  1
  Cd  Cd6  1  0.250158  0.375083  0.125295  1
  Cd  Cd7  1  0.375304  0.750490  0.125016  1
  Cd  Cd8  1  0.375201  0.125201  0.250000  1
  Cd  Cd9  1  0.875139  0.625138  0.250001  1
  Cd  Cd10  1  0.125474  0.250289  0.374985  1
  Cd  Cd11  1  0.749789  0.124865  0.374706  1
  Cd  Cd12  1  0.250213  0.875136  0.625295  1
  Cd  Cd13  1  0.874527  0.749712  0.625016  1
  Cd  Cd14  1  0.124863  0.374862  0.750001  1
  Cd  Cd15  1  0.624800  0.874800  0.750001  1
  Cd  Cd16  1  0.624696  0.249512  0.874985  1
  Cd  Cd17  1  0.749843  0.624918  0.874706  1
  Fe  Fe18  1  0.000000  0.500001  0.000000  1
  Fe  Fe19  1  0.000000  0.000000  0.500001  1
  Ge  Ge20  1  0.749521  0.874959  0.124149  1
  Ge  Ge21  1  0.874352  0.249485  0.125489  1
  Ge  Ge22  1  0.125425  0.875425  0.249999  1
  Ge  Ge23  1  0.625164  0.375164  0.250001  1
  Ge  Ge24  1  0.623995  0.748863  0.374510  1
  Ge  Ge25  1  0.250812  0.625373  0.375852  1
  Ge  Ge26  1  0.749190  0.374628  0.624149  1
  Ge  Ge27  1  0.376006  0.251139  0.625491  1
  Ge  Ge28  1  0.874574  0.124575  0.750000  1
  Ge  Ge29  1  0.374838  0.624837  0.750000  1
  Ge  Ge30  1  0.125648  0.750514  0.874509  1
  Ge  Ge31  1  0.250478  0.125039  0.875851  1
  O  O32  1  0.201393  0.120066  0.017766  1
  O  O33  1  0.316080  0.898061  0.016929  1
  O  O34  1  0.700561  0.684199  0.081195  1
  O  O35  1  0.880089  0.396896  0.082280  1
  O  O36  1  0.983061  0.685267  0.102456  1
  O  O37  1  0.619599  0.418869  0.102879  1
  O  O38  1  0.602059  0.918277  0.119338  1
  O  O39  1  0.016222  0.200565  0.119359  1
  O  O40  1  0.201917  0.582514  0.185521  1
  O  O41  1  0.482143  0.602166  0.183539  1
  O  O42  1  0.581499  0.184158  0.200711  1
  O  O43  1  0.119898  0.017531  0.201243  1
  O  O44  1  0.316286  0.918653  0.298756  1
  O  O45  1  0.483446  0.380788  0.299289  1
  O  O46  1  0.918626  0.298603  0.316460  1
  O  O47  1  0.896993  0.016397  0.314478  1
  O  O48  1  0.581207  0.896863  0.380641  1
  O  O49  1  0.298939  0.482721  0.380661  1
  O  O50  1  0.815988  0.516720  0.397120  1
  O  O51  1  0.082811  0.880605  0.397543  1
  O  O52  1  0.103004  0.619365  0.418805  1
  O  O53  1  0.814616  0.797809  0.417720  1
  O  O54  1  0.381132  0.299152  0.483071  1
  O  O55  1  0.602299  0.183626  0.482233  1
  O  O56  1  0.397700  0.816374  0.517766  1
  O  O57  1  0.618868  0.700848  0.516929  1
  O  O58  1  0.896995  0.380634  0.581195  1
  O  O59  1  0.185383  0.202191  0.582281  1
  O  O60  1  0.917188  0.119395  0.602456  1
  O  O61  1  0.184011  0.483279  0.602880  1
  O  O62  1  0.418793  0.103136  0.619358  1
  O  O63  1  0.701061  0.517280  0.619338  1
  O  O64  1  0.103007  0.983604  0.685521  1
  O  O65  1  0.081372  0.701397  0.683540  1
  O  O66  1  0.683713  0.081345  0.701244  1
  O  O67  1  0.516555  0.619212  0.700711  1
  O  O68  1  0.880101  0.982469  0.798755  1
  O  O69  1  0.418502  0.815842  0.799289  1
  O  O70  1  0.517857  0.397834  0.816460  1
  O  O71  1  0.798083  0.417487  0.814479  1
  O  O72  1  0.983777  0.799433  0.880641  1
  O  O73  1  0.397940  0.081722  0.880661  1
  O  O74  1  0.380399  0.581131  0.897120  1
  O  O75  1  0.016940  0.314733  0.897544  1
  O  O76  1  0.299439  0.315800  0.918805  1
  O  O77  1  0.119911  0.603103  0.917719  1
  O  O78  1  0.683920  0.101939  0.983072  1
  O  O79  1  0.798606  0.879934  0.982233  1
