# generated using pymatgen
data_Ca6TbPr(Si3Pd)4
_symmetry_space_group_name_H-M   'P 1'
_cell_length_a   8.26244700
_cell_length_b   8.26244638
_cell_length_c   8.37746600
_cell_angle_alpha   90.00000000
_cell_angle_beta   90.00000000
_cell_angle_gamma   120.00000647
_symmetry_Int_Tables_number   1
_chemical_formula_structural   Ca6TbPr(Si3Pd)4
_chemical_formula_sum   'Ca6 Tb1 Pr1 Si12 Pd4'
_cell_volume   495.29120747
_cell_formula_units_Z   1
loop_
 _symmetry_equiv_pos_site_id
 _symmetry_equiv_pos_as_xyz
  1  'x, y, z'
loop_
 _atom_site_type_symbol
 _atom_site_label
 _atom_site_symmetry_multiplicity
 _atom_site_fract_x
 _atom_site_fract_y
 _atom_site_fract_z
 _atom_site_occupancy
  Ca  Ca0  1  0.501264  0.002526  0.250000  1
  Ca  Ca1  1  0.498627  0.997256  0.750000  1
  Ca  Ca2  1  0.997474  0.498736  0.250000  1
  Ca  Ca3  1  0.002744  0.501373  0.750000  1
  Ca  Ca4  1  0.501264  0.498736  0.250000  1
  Ca  Ca5  1  0.498627  0.501373  0.750000  1
  Tb  Tb6  1  0.000000  0.000000  0.750000  1
  Pr  Pr7  1  0.000000  0.000000  0.250000  1
  Si  Si8  1  0.165108  0.330215  0.997304  1
  Si  Si9  1  0.834901  0.669803  0.995770  1
  Si  Si10  1  0.669785  0.834892  0.997304  1
  Si  Si11  1  0.834901  0.669803  0.504230  1
  Si  Si12  1  0.330197  0.165099  0.995770  1
  Si  Si13  1  0.165108  0.330215  0.502696  1
  Si  Si14  1  0.165108  0.834892  0.997304  1
  Si  Si15  1  0.330197  0.165099  0.504230  1
  Si  Si16  1  0.834901  0.165099  0.995770  1
  Si  Si17  1  0.669785  0.834892  0.502696  1
  Si  Si18  1  0.834901  0.165099  0.504230  1
  Si  Si19  1  0.165108  0.834892  0.502696  1
  Pd  Pd20  1  0.333333  0.666667  0.002881  1
  Pd  Pd21  1  0.666667  0.333333  0.996688  1
  Pd  Pd22  1  0.666667  0.333333  0.503312  1
  Pd  Pd23  1  0.333333  0.666667  0.497119  1
