# generated using pymatgen
data_Tb7TmMg2(SiB4)4
_symmetry_space_group_name_H-M   'P 1'
_cell_length_a   7.18124705
_cell_length_b   7.18124105
_cell_length_c   7.87858201
_cell_angle_alpha   89.99659866
_cell_angle_beta   89.99662916
_cell_angle_gamma   89.98725026
_symmetry_Int_Tables_number   1
_chemical_formula_structural   Tb7TmMg2(SiB4)4
_chemical_formula_sum   'Tb7 Tm1 Mg2 Si4 B16'
_cell_volume   406.30055888
_cell_formula_units_Z   1
loop_
 _symmetry_equiv_pos_site_id
 _symmetry_equiv_pos_as_xyz
  1  'x, y, z'
loop_
 _atom_site_type_symbol
 _atom_site_label
 _atom_site_symmetry_multiplicity
 _atom_site_fract_x
 _atom_site_fract_y
 _atom_site_fract_z
 _atom_site_occupancy
  Tb  Tb0  1  0.316813  0.816814  0.765999  1
  Tb  Tb1  1  0.316912  0.816911  0.233932  1
  Tb  Tb2  1  0.816569  0.683360  0.233787  1
  Tb  Tb3  1  0.816532  0.683242  0.766049  1
  Tb  Tb4  1  0.683438  0.183437  0.766240  1
  Tb  Tb5  1  0.183243  0.316531  0.766049  1
  Tb  Tb6  1  0.183360  0.316569  0.233787  1
  Tm  Tm7  1  0.683039  0.183039  0.230374  1
  Mg  Mg8  1  0.999342  0.000385  0.499391  1
  Mg  Mg9  1  0.500384  0.499342  0.499393  1
  Si  Si10  1  0.114548  0.614548  0.499698  1
  Si  Si11  1  0.883665  0.383665  0.498247  1
  Si  Si12  1  0.386316  0.115919  0.498665  1
  Si  Si13  1  0.615918  0.886316  0.498664  1
  B  B14  1  0.173198  0.040227  0.000537  1
  B  B15  1  0.826157  0.960727  0.000746  1
  B  B16  1  0.959464  0.173799  0.000518  1
  B  B17  1  0.326800  0.539655  0.000493  1
  B  B18  1  0.039656  0.826800  0.000492  1
  B  B19  1  0.673799  0.459464  0.000519  1
  B  B20  1  0.540228  0.673198  0.000537  1
  B  B21  1  0.460727  0.326157  0.000746  1
  B  B22  1  0.089821  0.589821  0.000315  1
  B  B23  1  0.910088  0.410088  0.000229  1
  B  B24  1  0.410450  0.089917  0.001039  1
  B  B25  1  0.589917  0.910450  0.001039  1
  B  B26  1  0.998880  0.000594  0.162042  1
  B  B27  1  0.999910  0.000233  0.839215  1
  B  B28  1  0.500233  0.499910  0.839215  1
  B  B29  1  0.500595  0.498881  0.162042  1
