# generated using pymatgen
data_La4DyIr2Ru
_symmetry_space_group_name_H-M   'P 1'
_cell_length_a   11.29381000
_cell_length_b   11.29381000
_cell_length_c   6.60049000
_cell_angle_alpha   90.00000000
_cell_angle_beta   90.00000000
_cell_angle_gamma   90.00000000
_symmetry_Int_Tables_number   1
_chemical_formula_structural   La4DyIr2Ru
_chemical_formula_sum   'La16 Dy4 Ir8 Ru4'
_cell_volume   841.89345206
_cell_formula_units_Z   4
loop_
 _symmetry_equiv_pos_site_id
 _symmetry_equiv_pos_as_xyz
  1  'x, y, z'
loop_
 _atom_site_type_symbol
 _atom_site_label
 _atom_site_symmetry_multiplicity
 _atom_site_fract_x
 _atom_site_fract_y
 _atom_site_fract_z
 _atom_site_occupancy
  La  La0  1  0.291510  0.086933  0.384093  1
  La  La1  1  0.291510  0.913067  0.884093  1
  La  La2  1  0.708490  0.086933  0.884093  1
  La  La3  1  0.708490  0.913067  0.384093  1
  La  La4  1  0.586933  0.791510  0.884093  1
  La  La5  1  0.586933  0.208490  0.384093  1
  La  La6  1  0.413067  0.791510  0.384093  1
  La  La7  1  0.413067  0.208490  0.884093  1
  La  La8  1  0.208490  0.413067  0.615907  1
  La  La9  1  0.208490  0.586933  0.115907  1
  La  La10  1  0.791510  0.413067  0.115907  1
  La  La11  1  0.791510  0.586933  0.615907  1
  La  La12  1  0.913067  0.708490  0.115907  1
  La  La13  1  0.913067  0.291510  0.615907  1
  La  La14  1  0.086933  0.708490  0.615907  1
  La  La15  1  0.086933  0.291510  0.115907  1
  Dy  Dy16  1  0.000000  0.000000  0.500000  1
  Dy  Dy17  1  0.000000  0.000000  0.000000  1
  Dy  Dy18  1  0.500000  0.500000  0.000000  1
  Dy  Dy19  1  0.500000  0.500000  0.500000  1
  Ir  Ir20  1  0.852028  0.147972  0.250000  1
  Ir  Ir21  1  0.852028  0.852028  0.750000  1
  Ir  Ir22  1  0.147972  0.147972  0.750000  1
  Ir  Ir23  1  0.147972  0.852028  0.250000  1
  Ir  Ir24  1  0.647972  0.352028  0.750000  1
  Ir  Ir25  1  0.647972  0.647972  0.250000  1
  Ir  Ir26  1  0.352028  0.352028  0.250000  1
  Ir  Ir27  1  0.352028  0.647972  0.750000  1
  Ru  Ru28  1  0.500000  0.000000  0.120531  1
  Ru  Ru29  1  0.500000  0.000000  0.620531  1
  Ru  Ru30  1  0.000000  0.500000  0.879469  1
  Ru  Ru31  1  0.000000  0.500000  0.379469  1
