# generated using pymatgen
data_Nd2Y2Zn10SiSn
_symmetry_space_group_name_H-M   'P 1'
_cell_length_a   8.38267547
_cell_length_b   8.38267537
_cell_length_c   8.91940800
_cell_angle_alpha   90.00000000
_cell_angle_beta   90.00000000
_cell_angle_gamma   149.65460375
_symmetry_Int_Tables_number   1
_chemical_formula_structural   Nd2Y2Zn10SiSn
_chemical_formula_sum   'Nd2 Y2 Zn10 Si1 Sn1'
_cell_volume   316.64643153
_cell_formula_units_Z   1
loop_
 _symmetry_equiv_pos_site_id
 _symmetry_equiv_pos_as_xyz
  1  'x, y, z'
loop_
 _atom_site_type_symbol
 _atom_site_label
 _atom_site_symmetry_multiplicity
 _atom_site_fract_x
 _atom_site_fract_y
 _atom_site_fract_z
 _atom_site_occupancy
  Nd  Nd0  1  0.000755  0.999245  0.486248  1
  Nd  Nd1  1  0.000755  0.999245  0.013752  1
  Y  Y2  1  0.201493  0.798507  0.250000  1
  Y  Y3  1  0.795545  0.204455  0.750000  1
  Zn  Zn4  1  0.811924  0.188076  0.390861  1
  Zn  Zn5  1  0.186850  0.813150  0.606700  1
  Zn  Zn6  1  0.811924  0.188076  0.109139  1
  Zn  Zn7  1  0.186850  0.813150  0.893300  1
  Zn  Zn8  1  0.650832  0.349168  0.473091  1
  Zn  Zn9  1  0.343494  0.656506  0.515759  1
  Zn  Zn10  1  0.650832  0.349168  0.026909  1
  Zn  Zn11  1  0.343494  0.656506  0.984241  1
  Zn  Zn12  1  0.404520  0.595480  0.250000  1
  Zn  Zn13  1  0.606847  0.393153  0.750000  1
  Si  Si14  1  0.558853  0.441147  0.250000  1
  Sn  Sn15  1  0.445029  0.554971  0.750000  1
