# generated using pymatgen
data_Ca9Yb(Si3H)2
_symmetry_space_group_name_H-M   'P 1'
_cell_length_a   9.04246861
_cell_length_b   9.04246762
_cell_length_c   9.04246807
_cell_angle_alpha   129.95588390
_cell_angle_beta   129.95588626
_cell_angle_gamma   73.47730242
_symmetry_Int_Tables_number   1
_chemical_formula_structural   Ca9Yb(Si3H)2
_chemical_formula_sum   'Ca9 Yb1 Si6 H2'
_cell_volume   424.00260952
_cell_formula_units_Z   1
loop_
 _symmetry_equiv_pos_site_id
 _symmetry_equiv_pos_as_xyz
  1  'x, y, z'
loop_
 _atom_site_type_symbol
 _atom_site_label
 _atom_site_symmetry_multiplicity
 _atom_site_fract_x
 _atom_site_fract_y
 _atom_site_fract_z
 _atom_site_occupancy
  Ca  Ca0  1  0.500000  0.500000  0.000000  1
  Ca  Ca1  1  0.519491  0.019312  0.838069  1
  Ca  Ca2  1  0.181243  0.681422  0.161931  1
  Ca  Ca3  1  0.019312  0.181243  0.499821  1
  Ca  Ca4  1  0.681422  0.519491  0.500179  1
  Ca  Ca5  1  0.480509  0.980688  0.161931  1
  Ca  Ca6  1  0.818757  0.318578  0.838069  1
  Ca  Ca7  1  0.980688  0.818757  0.500179  1
  Ca  Ca8  1  0.318578  0.480509  0.499821  1
  Yb  Yb9  1  0.000000  0.000000  0.000000  1
  Si  Si10  1  0.249961  0.249961  0.000000  1
  Si  Si11  1  0.750039  0.750039  0.000000  1
  Si  Si12  1  0.888710  0.388617  0.277327  1
  Si  Si13  1  0.111290  0.611383  0.722673  1
  Si  Si14  1  0.388617  0.111290  0.499906  1
  Si  Si15  1  0.611383  0.888710  0.500094  1
  H  H16  1  0.250000  0.750000  0.500000  1
  H  H17  1  0.750000  0.250000  0.500000  1
