# generated using pymatgen
data_SmCo2SiC
_symmetry_space_group_name_H-M   'P 1'
_cell_length_a   5.59619443
_cell_length_b   5.59619505
_cell_length_c   6.76838700
_cell_angle_alpha   90.00000000
_cell_angle_beta   90.00000000
_cell_angle_gamma   140.31861884
_symmetry_Int_Tables_number   1
_chemical_formula_structural   SmCo2SiC
_chemical_formula_sum   'Sm2 Co4 Si2 C2'
_cell_volume   135.34549418
_cell_formula_units_Z   2
loop_
 _symmetry_equiv_pos_site_id
 _symmetry_equiv_pos_as_xyz
  1  'x, y, z'
loop_
 _atom_site_type_symbol
 _atom_site_label
 _atom_site_symmetry_multiplicity
 _atom_site_fract_x
 _atom_site_fract_y
 _atom_site_fract_z
 _atom_site_occupancy
  Sm  Sm0  1  0.553368  0.446632  0.250000  1
  Sm  Sm1  1  0.446632  0.553368  0.750000  1
  Co  Co2  1  0.836259  0.163741  0.057071  1
  Co  Co3  1  0.163741  0.836259  0.942929  1
  Co  Co4  1  0.163741  0.836259  0.557071  1
  Co  Co5  1  0.836259  0.163741  0.442929  1
  Si  Si6  1  0.273185  0.726815  0.250000  1
  Si  Si7  1  0.726815  0.273185  0.750000  1
  C  C8  1  0.000000  0.000000  0.000000  1
  C  C9  1  0.000000  0.000000  0.500000  1
