# generated using pymatgen
data_GdDy3(B6Ru)2
_symmetry_space_group_name_H-M   'P 1'
_cell_length_a   3.67457200
_cell_length_b   9.16849600
_cell_length_c   11.54682200
_cell_angle_alpha   90.00021818
_cell_angle_beta   90.00000000
_cell_angle_gamma   90.00000000
_symmetry_Int_Tables_number   1
_chemical_formula_structural   GdDy3(B6Ru)2
_chemical_formula_sum   'Gd2 Dy6 B24 Ru4'
_cell_volume   389.01588203
_cell_formula_units_Z   2
loop_
 _symmetry_equiv_pos_site_id
 _symmetry_equiv_pos_as_xyz
  1  'x, y, z'
loop_
 _atom_site_type_symbol
 _atom_site_label
 _atom_site_symmetry_multiplicity
 _atom_site_fract_x
 _atom_site_fract_y
 _atom_site_fract_z
 _atom_site_occupancy
  Gd  Gd0  1  0.000000  0.323280  0.413836  1
  Gd  Gd1  1  0.000000  0.676720  0.586164  1
  Dy  Dy2  1  0.000000  0.823307  0.085902  1
  Dy  Dy3  1  0.000000  0.176693  0.914098  1
  Dy  Dy4  1  0.000000  0.944108  0.371963  1
  Dy  Dy5  1  0.000000  0.055892  0.628037  1
  Dy  Dy6  1  0.000000  0.444002  0.127658  1
  Dy  Dy7  1  0.000000  0.555998  0.872342  1
  B  B8  1  0.500000  0.554794  0.432293  1
  B  B9  1  0.500000  0.445206  0.567707  1
  B  B10  1  0.500000  0.054296  0.067021  1
  B  B11  1  0.500000  0.945704  0.932979  1
  B  B12  1  0.500000  0.748172  0.419237  1
  B  B13  1  0.500000  0.251828  0.580763  1
  B  B14  1  0.500000  0.247880  0.080175  1
  B  B15  1  0.500000  0.752120  0.919825  1
  B  B16  1  0.500000  0.791498  0.266097  1
  B  B17  1  0.500000  0.208502  0.733903  1
  B  B18  1  0.500000  0.290967  0.233159  1
  B  B19  1  0.500000  0.709033  0.766841  1
  B  B20  1  0.500000  0.632676  0.185197  1
  B  B21  1  0.500000  0.367324  0.814803  1
  B  B22  1  0.500000  0.132217  0.314245  1
  B  B23  1  0.500000  0.867783  0.685755  1
  B  B24  1  0.500000  0.984331  0.212526  1
  B  B25  1  0.500000  0.015669  0.787474  1
  B  B26  1  0.500000  0.484979  0.286950  1
  B  B27  1  0.500000  0.515021  0.713050  1
  B  B28  1  0.500000  0.608986  0.030081  1
  B  B29  1  0.500000  0.391014  0.969919  1
  B  B30  1  0.500000  0.107933  0.470164  1
  B  B31  1  0.500000  0.892067  0.529836  1
  Ru  Ru32  1  0.000000  0.638840  0.320592  1
  Ru  Ru33  1  0.000000  0.361160  0.679408  1
  Ru  Ru34  1  0.000000  0.137860  0.178406  1
  Ru  Ru35  1  0.000000  0.862140  0.821594  1
