# generated using pymatgen
data_Y8SnPdPt23
_symmetry_space_group_name_H-M   'P 1'
_cell_length_a   8.43993300
_cell_length_b   8.43993300
_cell_length_c   8.45371200
_cell_angle_alpha   90.00000000
_cell_angle_beta   90.00000000
_cell_angle_gamma   90.00000000
_symmetry_Int_Tables_number   1
_chemical_formula_structural   Y8SnPdPt23
_chemical_formula_sum   'Y8 Sn1 Pd1 Pt23'
_cell_volume   602.17877835
_cell_formula_units_Z   1
loop_
 _symmetry_equiv_pos_site_id
 _symmetry_equiv_pos_as_xyz
  1  'x, y, z'
loop_
 _atom_site_type_symbol
 _atom_site_label
 _atom_site_symmetry_multiplicity
 _atom_site_fract_x
 _atom_site_fract_y
 _atom_site_fract_z
 _atom_site_occupancy
  Y  Y0  1  0.250932  0.250932  0.250929  1
  Y  Y1  1  0.748960  0.748960  0.749086  1
  Y  Y2  1  0.749068  0.749068  0.250929  1
  Y  Y3  1  0.748960  0.251040  0.749086  1
  Y  Y4  1  0.251040  0.251040  0.749086  1
  Y  Y5  1  0.250932  0.749068  0.250929  1
  Y  Y6  1  0.251040  0.748960  0.749086  1
  Y  Y7  1  0.749068  0.250932  0.250929  1
  Sn  Sn8  1  0.000000  0.000000  0.000343  1
  Pd  Pd9  1  0.500000  0.500000  0.744283  1
  Pt  Pt10  1  0.267377  0.500000  0.000380  1
  Pt  Pt11  1  0.732623  0.500000  0.000380  1
  Pt  Pt12  1  0.000000  0.267038  0.500051  1
  Pt  Pt13  1  0.500000  0.267377  0.000380  1
  Pt  Pt14  1  0.000000  0.732962  0.500051  1
  Pt  Pt15  1  0.500000  0.732623  0.000380  1
  Pt  Pt16  1  0.500000  0.000000  0.266854  1
  Pt  Pt17  1  0.267038  0.000000  0.500051  1
  Pt  Pt18  1  0.500000  0.000000  0.732631  1
  Pt  Pt19  1  0.732962  0.000000  0.500051  1
  Pt  Pt20  1  0.000000  0.500000  0.266854  1
  Pt  Pt21  1  0.000000  0.500000  0.732631  1
  Pt  Pt22  1  0.255743  0.500000  0.499689  1
  Pt  Pt23  1  0.744257  0.500000  0.499689  1
  Pt  Pt24  1  0.500000  0.255743  0.499689  1
  Pt  Pt25  1  0.500000  0.744257  0.499689  1
  Pt  Pt26  1  0.500000  0.500000  0.255461  1
  Pt  Pt27  1  0.313785  0.000000  0.999887  1
  Pt  Pt28  1  0.686215  0.000000  0.999887  1
  Pt  Pt29  1  0.000000  0.313785  0.999887  1
  Pt  Pt30  1  0.000000  0.686215  0.999887  1
  Pt  Pt31  1  0.000000  0.000000  0.313460  1
  Pt  Pt32  1  0.000000  0.000000  0.687390  1
