# generated using pymatgen
data_YPa3(AlOs)4
_symmetry_space_group_name_H-M   'P 1'
_cell_length_a   4.20022000
_cell_length_b   6.79453906
_cell_length_c   8.10186821
_cell_angle_alpha   90.39841720
_cell_angle_beta   90.00000000
_cell_angle_gamma   90.00000000
_symmetry_Int_Tables_number   1
_chemical_formula_structural   YPa3(AlOs)4
_chemical_formula_sum   'Y1 Pa3 Al4 Os4'
_cell_volume   231.21005292
_cell_formula_units_Z   1
loop_
 _symmetry_equiv_pos_site_id
 _symmetry_equiv_pos_as_xyz
  1  'x, y, z'
loop_
 _atom_site_type_symbol
 _atom_site_label
 _atom_site_symmetry_multiplicity
 _atom_site_fract_x
 _atom_site_fract_y
 _atom_site_fract_z
 _atom_site_occupancy
  Y  Y0  1  0.750000  0.464261  0.182329  1
  Pa  Pa1  1  0.250000  0.033723  0.685963  1
  Pa  Pa2  1  0.250000  0.536644  0.819571  1
  Pa  Pa3  1  0.750000  0.960897  0.316059  1
  Al  Al4  1  0.250000  0.144414  0.060028  1
  Al  Al5  1  0.250000  0.626657  0.438090  1
  Al  Al6  1  0.750000  0.867974  0.944729  1
  Al  Al7  1  0.750000  0.364503  0.552848  1
  Os  Os8  1  0.250000  0.235536  0.385159  1
  Os  Os9  1  0.250000  0.767350  0.124204  1
  Os  Os10  1  0.750000  0.748221  0.627876  1
  Os  Os11  1  0.750000  0.249821  0.863145  1
