# generated using pymatgen
data_Zr6V7Re4Os
_symmetry_space_group_name_H-M   'P 1'
_cell_length_a   5.22396172
_cell_length_b   5.22912051
_cell_length_c   12.89836152
_cell_angle_alpha   89.84817956
_cell_angle_beta   90.09889807
_cell_angle_gamma   119.78308263
_symmetry_Int_Tables_number   1
_chemical_formula_structural   Zr6V7Re4Os
_chemical_formula_sum   'Zr6 V7 Re4 Os1'
_cell_volume   305.79992834
_cell_formula_units_Z   1
loop_
 _symmetry_equiv_pos_site_id
 _symmetry_equiv_pos_as_xyz
  1  'x, y, z'
loop_
 _atom_site_type_symbol
 _atom_site_label
 _atom_site_symmetry_multiplicity
 _atom_site_fract_x
 _atom_site_fract_y
 _atom_site_fract_z
 _atom_site_occupancy
  Zr  Zr0  1  0.333886  0.666026  0.916058  1
  Zr  Zr1  1  0.001400  0.000369  0.249764  1
  Zr  Zr2  1  0.667073  0.333075  0.584083  1
  Zr  Zr3  1  0.332927  0.666925  0.665917  1
  Zr  Zr4  1  0.998600  0.999631  0.000235  1
  Zr  Zr5  1  0.666114  0.333974  0.333942  1
  V  V6  1  0.167787  0.333935  0.458530  1
  V  V7  1  0.832213  0.666065  0.791470  1
  V  V8  1  0.334274  0.667927  0.293199  1
  V  V9  1  0.665726  0.332073  0.956801  1
  V  V10  1  0.000000  0.500000  0.125000  1
  V  V11  1  0.666740  0.832821  0.458857  1
  V  V12  1  0.333260  0.167179  0.791143  1
  Re  Re13  1  0.500000  0.500000  0.125000  1
  Re  Re14  1  0.169153  0.830987  0.456226  1
  Re  Re15  1  0.830847  0.169013  0.793774  1
  Re  Re16  1  0.500000  0.000000  0.125000  1
  Os  Os17  1  0.000000  0.000000  0.625000  1
