# generated using pymatgen
data_EuCd3(SeO4)4
_symmetry_space_group_name_H-M   'P 1'
_cell_length_a   5.15515235
_cell_length_b   7.62919997
_cell_length_c   9.76502008
_cell_angle_alpha   90.09335464
_cell_angle_beta   90.96821866
_cell_angle_gamma   89.21801726
_symmetry_Int_Tables_number   1
_chemical_formula_structural   EuCd3(SeO4)4
_chemical_formula_sum   'Eu1 Cd3 Se4 O16'
_cell_volume   383.96422056
_cell_formula_units_Z   1
loop_
 _symmetry_equiv_pos_site_id
 _symmetry_equiv_pos_as_xyz
  1  'x, y, z'
loop_
 _atom_site_type_symbol
 _atom_site_label
 _atom_site_symmetry_multiplicity
 _atom_site_fract_x
 _atom_site_fract_y
 _atom_site_fract_z
 _atom_site_occupancy
  Eu  Eu0  1  0.000000  0.000000  0.000000  1
  Cd  Cd1  1  0.000000  0.500000  0.000000  1
  Cd  Cd2  1  0.500000  0.000000  0.500000  1
  Cd  Cd3  1  0.500000  0.500000  0.500000  1
  Se  Se4  1  0.992813  0.744193  0.677815  1
  Se  Se5  1  0.503500  0.741296  0.186906  1
  Se  Se6  1  0.496500  0.258704  0.813094  1
  Se  Se7  1  0.007187  0.255807  0.322185  1
  O  O8  1  0.982522  0.742618  0.852487  1
  O  O9  1  0.847587  0.933101  0.631878  1
  O  O10  1  0.856088  0.559293  0.624747  1
  O  O11  1  0.809167  0.261425  0.870259  1
  O  O12  1  0.698624  0.251549  0.377788  1
  O  O13  1  0.626711  0.928037  0.130228  1
  O  O14  1  0.651089  0.559281  0.132873  1
  O  O15  1  0.527878  0.746900  0.360601  1
  O  O16  1  0.472122  0.253100  0.639399  1
  O  O17  1  0.348911  0.440719  0.867127  1
  O  O18  1  0.373289  0.071963  0.869772  1
  O  O19  1  0.301376  0.748451  0.622212  1
  O  O20  1  0.190833  0.738575  0.129741  1
  O  O21  1  0.143912  0.440707  0.375253  1
  O  O22  1  0.152413  0.066899  0.368122  1
  O  O23  1  0.017478  0.257382  0.147513  1
