# generated using pymatgen
data_DyEr3Al4OsPt3
_symmetry_space_group_name_H-M   'P 1'
_cell_length_a   4.34531800
_cell_length_b   6.81333873
_cell_length_c   7.85836603
_cell_angle_alpha   89.89832711
_cell_angle_beta   90.00000000
_cell_angle_gamma   90.00000000
_symmetry_Int_Tables_number   1
_chemical_formula_structural   DyEr3Al4OsPt3
_chemical_formula_sum   'Dy1 Er3 Al4 Os1 Pt3'
_cell_volume   232.65538804
_cell_formula_units_Z   1
loop_
 _symmetry_equiv_pos_site_id
 _symmetry_equiv_pos_as_xyz
  1  'x, y, z'
loop_
 _atom_site_type_symbol
 _atom_site_label
 _atom_site_symmetry_multiplicity
 _atom_site_fract_x
 _atom_site_fract_y
 _atom_site_fract_z
 _atom_site_occupancy
  Dy  Dy0  1  0.250000  0.471454  0.181053  1
  Er  Er1  1  0.750000  0.533200  0.814347  1
  Er  Er2  1  0.750000  0.021572  0.678740  1
  Er  Er3  1  0.250000  0.967438  0.322286  1
  Al  Al4  1  0.250000  0.856286  0.936182  1
  Al  Al5  1  0.750000  0.142288  0.061379  1
  Al  Al6  1  0.750000  0.645995  0.440664  1
  Al  Al7  1  0.250000  0.359589  0.563136  1
  Os  Os8  1  0.250000  0.733896  0.621088  1
  Pt  Pt9  1  0.750000  0.267850  0.379832  1
  Pt  Pt10  1  0.750000  0.769949  0.119514  1
  Pt  Pt11  1  0.250000  0.230483  0.881780  1
