# generated using pymatgen
data_TbY11(CoPd)2
_symmetry_space_group_name_H-M   'P 1'
_cell_length_a   6.45417280
_cell_length_b   7.07562941
_cell_length_c   9.51931700
_cell_angle_alpha   90.00000000
_cell_angle_beta   90.00000000
_cell_angle_gamma   90.17137275
_symmetry_Int_Tables_number   1
_chemical_formula_structural   TbY11(CoPd)2
_chemical_formula_sum   'Tb1 Y11 Co2 Pd2'
_cell_volume   434.71989260
_cell_formula_units_Z   1
loop_
 _symmetry_equiv_pos_site_id
 _symmetry_equiv_pos_as_xyz
  1  'x, y, z'
loop_
 _atom_site_type_symbol
 _atom_site_label
 _atom_site_symmetry_multiplicity
 _atom_site_fract_x
 _atom_site_fract_y
 _atom_site_fract_z
 _atom_site_occupancy
  Tb  Tb0  1  0.623270  0.048438  0.250000  1
  Y  Y1  1  0.376627  0.953687  0.750000  1
  Y  Y2  1  0.148529  0.478496  0.750000  1
  Y  Y3  1  0.852812  0.520960  0.250000  1
  Y  Y4  1  0.180768  0.184801  0.062992  1
  Y  Y5  1  0.819201  0.814697  0.936774  1
  Y  Y6  1  0.671793  0.329791  0.934626  1
  Y  Y7  1  0.819201  0.814697  0.563226  1
  Y  Y8  1  0.328394  0.670501  0.065706  1
  Y  Y9  1  0.180768  0.184801  0.437008  1
  Y  Y10  1  0.328394  0.670501  0.434294  1
  Y  Y11  1  0.671793  0.329791  0.565374  1
  Co  Co12  1  0.447221  0.384011  0.250000  1
  Co  Co13  1  0.553524  0.614813  0.750000  1
  Pd  Pd14  1  0.952133  0.110946  0.750000  1
  Pd  Pd15  1  0.045575  0.889070  0.250000  1
