# generated using pymatgen
data_Ho7TmCd2IrRu
_symmetry_space_group_name_H-M   'P 1'
_cell_length_a   9.59008956
_cell_length_b   9.59009089
_cell_length_c   9.62915200
_cell_angle_alpha   59.86517221
_cell_angle_beta   59.86516761
_cell_angle_gamma   59.71721085
_symmetry_Int_Tables_number   1
_chemical_formula_structural   Ho7TmCd2IrRu
_chemical_formula_sum   'Ho14 Tm2 Cd4 Ir2 Ru2'
_cell_volume   623.58743919
_cell_formula_units_Z   2
loop_
 _symmetry_equiv_pos_site_id
 _symmetry_equiv_pos_as_xyz
  1  'x, y, z'
loop_
 _atom_site_type_symbol
 _atom_site_label
 _atom_site_symmetry_multiplicity
 _atom_site_fract_x
 _atom_site_fract_y
 _atom_site_fract_z
 _atom_site_occupancy
  Ho  Ho0  1  0.596956  0.209188  0.596928  1
  Ho  Ho1  1  0.209188  0.596956  0.596928  1
  Ho  Ho2  1  0.061489  0.438129  0.440285  1
  Ho  Ho3  1  0.438129  0.061489  0.060097  1
  Ho  Ho4  1  0.438129  0.061489  0.440285  1
  Ho  Ho5  1  0.061489  0.438129  0.060097  1
  Ho  Ho6  1  0.438427  0.438427  0.061573  1
  Ho  Ho7  1  0.059576  0.059576  0.440424  1
  Ho  Ho8  1  0.188282  0.810008  0.813095  1
  Ho  Ho9  1  0.810008  0.188282  0.188616  1
  Ho  Ho10  1  0.810008  0.188282  0.813095  1
  Ho  Ho11  1  0.188282  0.810008  0.188616  1
  Ho  Ho12  1  0.811204  0.811204  0.188796  1
  Ho  Ho13  1  0.188346  0.188346  0.811654  1
  Tm  Tm14  1  0.597944  0.597944  0.597708  1
  Tm  Tm15  1  0.597944  0.597944  0.206407  1
  Cd  Cd16  1  0.830349  0.830349  0.830948  1
  Cd  Cd17  1  0.830349  0.830349  0.508355  1
  Cd  Cd18  1  0.830383  0.507487  0.831064  1
  Cd  Cd19  1  0.507487  0.830383  0.831064  1
  Ir  Ir20  1  0.395177  0.826169  0.389327  1
  Ir  Ir21  1  0.826169  0.395177  0.389327  1
  Ru  Ru22  1  0.392343  0.392343  0.386881  1
  Ru  Ru23  1  0.392343  0.392343  0.828434  1
