# generated using pymatgen
data_DyYEr6(Si3Rh)4
_symmetry_space_group_name_H-M   'P 1'
_cell_length_a   8.15515500
_cell_length_b   8.15515577
_cell_length_c   7.84659000
_cell_angle_alpha   90.00000000
_cell_angle_beta   90.00000000
_cell_angle_gamma   120.00000094
_symmetry_Int_Tables_number   1
_chemical_formula_structural   DyYEr6(Si3Rh)4
_chemical_formula_sum   'Dy1 Y1 Er6 Si12 Rh4'
_cell_volume   451.93509585
_cell_formula_units_Z   1
loop_
 _symmetry_equiv_pos_site_id
 _symmetry_equiv_pos_as_xyz
  1  'x, y, z'
loop_
 _atom_site_type_symbol
 _atom_site_label
 _atom_site_symmetry_multiplicity
 _atom_site_fract_x
 _atom_site_fract_y
 _atom_site_fract_z
 _atom_site_occupancy
  Dy  Dy0  1  0.000000  0.000000  0.750000  1
  Y  Y1  1  0.000000  0.000000  0.250000  1
  Er  Er2  1  0.491566  0.508434  0.250000  1
  Er  Er3  1  0.491566  0.983132  0.250000  1
  Er  Er4  1  0.016868  0.508434  0.250000  1
  Er  Er5  1  0.508399  0.491601  0.750000  1
  Er  Er6  1  0.983202  0.491601  0.750000  1
  Er  Er7  1  0.508399  0.016798  0.750000  1
  Si  Si8  1  0.832785  0.167215  0.501250  1
  Si  Si9  1  0.832785  0.665571  0.501250  1
  Si  Si10  1  0.334429  0.167215  0.501250  1
  Si  Si11  1  0.832785  0.167215  0.998750  1
  Si  Si12  1  0.832785  0.665571  0.998750  1
  Si  Si13  1  0.334429  0.167215  0.998750  1
  Si  Si14  1  0.167194  0.832806  0.000807  1
  Si  Si15  1  0.665612  0.832806  0.000807  1
  Si  Si16  1  0.167194  0.334388  0.000807  1
  Si  Si17  1  0.167194  0.832806  0.499193  1
  Si  Si18  1  0.665612  0.832806  0.499193  1
  Si  Si19  1  0.167194  0.334388  0.499193  1
  Rh  Rh20  1  0.666667  0.333333  0.464438  1
  Rh  Rh21  1  0.666667  0.333333  0.035562  1
  Rh  Rh22  1  0.333333  0.666667  0.965002  1
  Rh  Rh23  1  0.333333  0.666667  0.534998  1
