# generated using pymatgen
data_Ce2SiRuRh2
_symmetry_space_group_name_H-M   'P 1'
_cell_length_a   5.04989090
_cell_length_b   5.65634211
_cell_length_c   5.04988998
_cell_angle_alpha   123.86716315
_cell_angle_beta   112.59546314
_cell_angle_gamma   89.56953088
_symmetry_Int_Tables_number   1
_chemical_formula_structural   Ce2SiRuRh2
_chemical_formula_sum   'Ce2 Si1 Ru1 Rh2'
_cell_volume   106.48584301
_cell_formula_units_Z   1
loop_
 _symmetry_equiv_pos_site_id
 _symmetry_equiv_pos_as_xyz
  1  'x, y, z'
loop_
 _atom_site_type_symbol
 _atom_site_label
 _atom_site_symmetry_multiplicity
 _atom_site_fract_x
 _atom_site_fract_y
 _atom_site_fract_z
 _atom_site_occupancy
  Ce  Ce0  1  0.370980  0.119760  0.248779  1
  Ce  Ce1  1  0.629020  0.880240  0.751221  1
  Si  Si2  1  0.000000  0.500000  0.000000  1
  Ru  Ru3  1  0.000000  0.000000  0.500000  1
  Rh  Rh4  1  0.500000  0.500000  0.000000  1
  Rh  Rh5  1  0.000000  0.500000  0.500000  1
