# generated using pymatgen
data_Ho9Lu9(MgPb8)2
_symmetry_space_group_name_H-M   'P 1'
_cell_length_a   8.03089479
_cell_length_b   15.52167900
_cell_length_c   8.12032917
_cell_angle_alpha   90.00000000
_cell_angle_beta   89.58943927
_cell_angle_gamma   90.00000000
_symmetry_Int_Tables_number   1
_chemical_formula_structural   Ho9Lu9(MgPb8)2
_chemical_formula_sum   'Ho9 Lu9 Mg2 Pb16'
_cell_volume   1012.19716959
_cell_formula_units_Z   1
loop_
 _symmetry_equiv_pos_site_id
 _symmetry_equiv_pos_as_xyz
  1  'x, y, z'
loop_
 _atom_site_type_symbol
 _atom_site_label
 _atom_site_symmetry_multiplicity
 _atom_site_fract_x
 _atom_site_fract_y
 _atom_site_fract_z
 _atom_site_occupancy
  Ho  Ho0  1  0.472358  0.596230  0.674455  1
  Ho  Ho1  1  0.968146  0.904114  0.816614  1
  Ho  Ho2  1  0.526874  0.095796  0.325444  1
  Ho  Ho3  1  0.031486  0.404845  0.183630  1
  Ho  Ho4  1  0.526874  0.404204  0.325444  1
  Ho  Ho5  1  0.031486  0.095155  0.183630  1
  Ho  Ho6  1  0.472358  0.903770  0.674455  1
  Ho  Ho7  1  0.968146  0.595886  0.816614  1
  Ho  Ho8  1  0.700534  0.250000  0.992257  1
  Lu  Lu9  1  0.629489  0.621600  0.158229  1
  Lu  Lu10  1  0.123618  0.876411  0.341170  1
  Lu  Lu11  1  0.370503  0.120866  0.841255  1
  Lu  Lu12  1  0.876760  0.376817  0.658842  1
  Lu  Lu13  1  0.370503  0.379134  0.841255  1
  Lu  Lu14  1  0.876760  0.123183  0.658842  1
  Lu  Lu15  1  0.629489  0.878400  0.158229  1
  Lu  Lu16  1  0.123618  0.623589  0.341170  1
  Lu  Lu17  1  0.299699  0.750000  0.008193  1
  Mg  Mg18  1  0.799453  0.750000  0.496019  1
  Mg  Mg19  1  0.201874  0.250000  0.505854  1
  Pb  Pb20  1  0.713670  0.456809  0.964648  1
  Pb  Pb21  1  0.211160  0.039432  0.541594  1
  Pb  Pb22  1  0.286334  0.955838  0.035085  1
  Pb  Pb23  1  0.788145  0.539719  0.458144  1
  Pb  Pb24  1  0.286334  0.544162  0.035085  1
  Pb  Pb25  1  0.788145  0.960281  0.458144  1
  Pb  Pb26  1  0.713670  0.043191  0.964648  1
  Pb  Pb27  1  0.211160  0.460568  0.541594  1
  Pb  Pb28  1  0.438598  0.750000  0.378777  1
  Pb  Pb29  1  0.933348  0.750000  0.118605  1
  Pb  Pb30  1  0.561239  0.250000  0.619752  1
  Pb  Pb31  1  0.069232  0.250000  0.880071  1
  Pb  Pb32  1  0.655321  0.750000  0.843326  1
  Pb  Pb33  1  0.162750  0.750000  0.655609  1
  Pb  Pb34  1  0.342033  0.250000  0.156867  1
  Pb  Pb35  1  0.838836  0.250000  0.346450  1
