# generated using pymatgen
data_Tm8Tc(B8Ir)3
_symmetry_space_group_name_H-M   'P 1'
_cell_length_a   3.62471800
_cell_length_b   9.10935266
_cell_length_c   11.44067516
_cell_angle_alpha   89.89128600
_cell_angle_beta   90.00000000
_cell_angle_gamma   90.00000000
_symmetry_Int_Tables_number   1
_chemical_formula_structural   Tm8Tc(B8Ir)3
_chemical_formula_sum   'Tm8 Tc1 B24 Ir3'
_cell_volume   377.75708004
_cell_formula_units_Z   1
loop_
 _symmetry_equiv_pos_site_id
 _symmetry_equiv_pos_as_xyz
  1  'x, y, z'
loop_
 _atom_site_type_symbol
 _atom_site_label
 _atom_site_symmetry_multiplicity
 _atom_site_fract_x
 _atom_site_fract_y
 _atom_site_fract_z
 _atom_site_occupancy
  Tm  Tm0  1  0.000000  0.324123  0.412375  1
  Tm  Tm1  1  0.000000  0.679842  0.582278  1
  Tm  Tm2  1  0.000000  0.816161  0.090261  1
  Tm  Tm3  1  0.000000  0.180132  0.913853  1
  Tm  Tm4  1  0.000000  0.941800  0.374557  1
  Tm  Tm5  1  0.000000  0.056461  0.625922  1
  Tm  Tm6  1  0.000000  0.446791  0.127012  1
  Tm  Tm7  1  0.000000  0.556340  0.873524  1
  Tc  Tc8  1  0.000000  0.637703  0.321225  1
  B  B9  1  0.500000  0.553183  0.433783  1
  B  B10  1  0.500000  0.446477  0.565854  1
  B  B11  1  0.500000  0.052528  0.065989  1
  B  B12  1  0.500000  0.946519  0.934617  1
  B  B13  1  0.500000  0.748399  0.420029  1
  B  B14  1  0.500000  0.250573  0.578715  1
  B  B15  1  0.500000  0.250227  0.079064  1
  B  B16  1  0.500000  0.749443  0.920800  1
  B  B17  1  0.500000  0.792161  0.265522  1
  B  B18  1  0.500000  0.206516  0.735705  1
  B  B19  1  0.500000  0.292604  0.234170  1
  B  B20  1  0.500000  0.707260  0.764401  1
  B  B21  1  0.500000  0.631128  0.185005  1
  B  B22  1  0.500000  0.367909  0.816273  1
  B  B23  1  0.500000  0.131470  0.316084  1
  B  B24  1  0.500000  0.868926  0.683808  1
  B  B25  1  0.500000  0.981198  0.213778  1
  B  B26  1  0.500000  0.019353  0.787272  1
  B  B27  1  0.500000  0.482234  0.286851  1
  B  B28  1  0.500000  0.518862  0.712904  1
  B  B29  1  0.500000  0.607976  0.028668  1
  B  B30  1  0.500000  0.391535  0.969903  1
  B  B31  1  0.500000  0.109362  0.470433  1
  B  B32  1  0.500000  0.892526  0.530558  1
  Ir  Ir33  1  0.000000  0.362442  0.678518  1
  Ir  Ir34  1  0.000000  0.137190  0.177628  1
  Ir  Ir35  1  0.000000  0.862647  0.822663  1
