# generated using pymatgen
data_Dy3Sc17Bi11Pb
_symmetry_space_group_name_H-M   'P 1'
_cell_length_a   7.86728718
_cell_length_b   9.05733806
_cell_length_c   11.52790209
_cell_angle_alpha   90.00396870
_cell_angle_beta   90.00387861
_cell_angle_gamma   89.98747284
_symmetry_Int_Tables_number   1
_chemical_formula_structural   Dy3Sc17Bi11Pb
_chemical_formula_sum   'Dy3 Sc17 Bi11 Pb1'
_cell_volume   821.44000226
_cell_formula_units_Z   1
loop_
 _symmetry_equiv_pos_site_id
 _symmetry_equiv_pos_as_xyz
  1  'x, y, z'
loop_
 _atom_site_type_symbol
 _atom_site_label
 _atom_site_symmetry_multiplicity
 _atom_site_fract_x
 _atom_site_fract_y
 _atom_site_fract_z
 _atom_site_occupancy
  Dy  Dy0  1  0.814601  0.249170  0.281272  1
  Dy  Dy1  1  0.684730  0.750007  0.781077  1
  Dy  Dy2  1  0.183893  0.750125  0.718817  1
  Sc  Sc3  1  0.349347  0.750849  0.221080  1
  Sc  Sc4  1  0.849885  0.750702  0.278246  1
  Sc  Sc5  1  0.650431  0.249966  0.781712  1
  Sc  Sc6  1  0.151363  0.249878  0.720049  1
  Sc  Sc7  1  0.694981  0.566318  0.061668  1
  Sc  Sc8  1  0.194093  0.932868  0.437335  1
  Sc  Sc9  1  0.306066  0.067353  0.939315  1
  Sc  Sc10  1  0.807422  0.432277  0.561515  1
  Sc  Sc11  1  0.306231  0.432690  0.939294  1
  Sc  Sc12  1  0.806574  0.068042  0.561316  1
  Sc  Sc13  1  0.695050  0.933386  0.062377  1
  Sc  Sc14  1  0.192705  0.566836  0.437659  1
  Sc  Sc15  1  0.481455  0.248982  0.486630  1
  Sc  Sc16  1  0.981041  0.250052  0.012088  1
  Sc  Sc17  1  0.517271  0.750456  0.509093  1
  Sc  Sc18  1  0.019643  0.749910  0.990621  1
  Sc  Sc19  1  0.314353  0.249847  0.217976  1
  Bi  Bi20  1  0.403141  0.749918  0.966946  1
  Bi  Bi21  1  0.901214  0.750048  0.532516  1
  Bi  Bi22  1  0.592213  0.250036  0.037796  1
  Bi  Bi23  1  0.099451  0.250073  0.464681  1
  Bi  Bi24  1  0.069368  0.506080  0.172810  1
  Bi  Bi25  1  0.436299  0.489771  0.671562  1
  Bi  Bi26  1  0.935927  0.010421  0.828990  1
  Bi  Bi27  1  0.436471  0.010234  0.671706  1
  Bi  Bi28  1  0.935815  0.489587  0.829035  1
  Bi  Bi29  1  0.560090  0.507352  0.326101  1
  Bi  Bi30  1  0.069209  0.993883  0.172712  1
  Pb  Pb31  1  0.559663  0.992886  0.326005  1
