# generated using pymatgen
data_Yb3Pa(ZnRh)4
_symmetry_space_group_name_H-M   'P 1'
_cell_length_a   4.00156500
_cell_length_b   6.95608907
_cell_length_c   8.11776614
_cell_angle_alpha   89.56951538
_cell_angle_beta   90.00000000
_cell_angle_gamma   90.00000000
_symmetry_Int_Tables_number   1
_chemical_formula_structural   Yb3Pa(ZnRh)4
_chemical_formula_sum   'Yb3 Pa1 Zn4 Rh4'
_cell_volume   225.95361185
_cell_formula_units_Z   1
loop_
 _symmetry_equiv_pos_site_id
 _symmetry_equiv_pos_as_xyz
  1  'x, y, z'
loop_
 _atom_site_type_symbol
 _atom_site_label
 _atom_site_symmetry_multiplicity
 _atom_site_fract_x
 _atom_site_fract_y
 _atom_site_fract_z
 _atom_site_occupancy
  Yb  Yb0  1  0.750000  0.461268  0.809649  1
  Yb  Yb1  1  0.750000  0.962924  0.681801  1
  Yb  Yb2  1  0.250000  0.034992  0.319792  1
  Pa  Pa3  1  0.250000  0.540759  0.174808  1
  Zn  Zn4  1  0.250000  0.633942  0.567657  1
  Zn  Zn5  1  0.750000  0.347830  0.445492  1
  Zn  Zn6  1  0.750000  0.888604  0.061730  1
  Zn  Zn7  1  0.250000  0.135465  0.933707  1
  Rh  Rh8  1  0.250000  0.749197  0.895939  1
  Rh  Rh9  1  0.750000  0.270495  0.126393  1
  Rh  Rh10  1  0.750000  0.717820  0.355120  1
  Rh  Rh11  1  0.250000  0.256702  0.627912  1
