# generated using pymatgen
data_Sc24CuRh3Se8
_symmetry_space_group_name_H-M   'P 1'
_cell_length_a   3.68415800
_cell_length_b   10.34524116
_cell_length_c   19.72543287
_cell_angle_alpha   90.20264149
_cell_angle_beta   90.00000000
_cell_angle_gamma   90.00000000
_symmetry_Int_Tables_number   1
_chemical_formula_structural   Sc24CuRh3Se8
_chemical_formula_sum   'Sc24 Cu1 Rh3 Se8'
_cell_volume   751.80064255
_cell_formula_units_Z   1
loop_
 _symmetry_equiv_pos_site_id
 _symmetry_equiv_pos_as_xyz
  1  'x, y, z'
loop_
 _atom_site_type_symbol
 _atom_site_label
 _atom_site_symmetry_multiplicity
 _atom_site_fract_x
 _atom_site_fract_y
 _atom_site_fract_z
 _atom_site_occupancy
  Sc  Sc0  1  0.250000  0.383247  0.989143  1
  Sc  Sc1  1  0.750000  0.616900  0.010855  1
  Sc  Sc2  1  0.750000  0.880520  0.512034  1
  Sc  Sc3  1  0.250000  0.110876  0.488671  1
  Sc  Sc4  1  0.250000  0.925815  0.645563  1
  Sc  Sc5  1  0.750000  0.074622  0.353812  1
  Sc  Sc6  1  0.750000  0.426795  0.854036  1
  Sc  Sc7  1  0.250000  0.572909  0.145947  1
  Sc  Sc8  1  0.250000  0.880688  0.029111  1
  Sc  Sc9  1  0.750000  0.119494  0.970968  1
  Sc  Sc10  1  0.750000  0.381913  0.468948  1
  Sc  Sc11  1  0.250000  0.623305  0.527621  1
  Sc  Sc12  1  0.250000  0.822147  0.389761  1
  Sc  Sc13  1  0.750000  0.179932  0.609558  1
  Sc  Sc14  1  0.750000  0.319243  0.110273  1
  Sc  Sc15  1  0.250000  0.680783  0.889831  1
  Sc  Sc16  1  0.250000  0.531481  0.339491  1
  Sc  Sc17  1  0.750000  0.470252  0.662715  1
  Sc  Sc18  1  0.750000  0.030175  0.160339  1
  Sc  Sc19  1  0.250000  0.969864  0.839860  1
  Sc  Sc20  1  0.250000  0.248627  0.236550  1
  Sc  Sc21  1  0.750000  0.751430  0.764115  1
  Sc  Sc22  1  0.750000  0.749196  0.264089  1
  Sc  Sc23  1  0.250000  0.248572  0.735132  1
  Cu  Cu24  1  0.250000  0.360659  0.576197  1
  Rh  Rh25  1  0.250000  0.142128  0.075656  1
  Rh  Rh26  1  0.750000  0.858029  0.924430  1
  Rh  Rh27  1  0.750000  0.642753  0.424190  1
  Se  Se28  1  0.250000  0.230274  0.872933  1
  Se  Se29  1  0.750000  0.769589  0.126839  1
  Se  Se30  1  0.750000  0.727468  0.626729  1
  Se  Se31  1  0.250000  0.271407  0.375219  1
  Se  Se32  1  0.250000  0.536556  0.764330  1
  Se  Se33  1  0.750000  0.462638  0.235563  1
  Se  Se34  1  0.750000  0.036372  0.734813  1
  Se  Se35  1  0.250000  0.963343  0.264678  1
