# generated using pymatgen
data_Hf6Ti7AlGa8Ir7
_symmetry_space_group_name_H-M   'P 1'
_cell_length_a   8.84216484
_cell_length_b   8.78542947
_cell_length_c   8.78543000
_cell_angle_alpha   60.00001308
_cell_angle_beta   60.21204163
_cell_angle_gamma   60.21204541
_symmetry_Int_Tables_number   1
_chemical_formula_structural   Hf6Ti7AlGa8Ir7
_chemical_formula_sum   'Hf6 Ti7 Al1 Ga8 Ir7'
_cell_volume   484.12130089
_cell_formula_units_Z   1
loop_
 _symmetry_equiv_pos_site_id
 _symmetry_equiv_pos_as_xyz
  1  'x, y, z'
loop_
 _atom_site_type_symbol
 _atom_site_label
 _atom_site_symmetry_multiplicity
 _atom_site_fract_x
 _atom_site_fract_y
 _atom_site_fract_z
 _atom_site_occupancy
  Hf  Hf0  1  0.690381  0.310677  0.310677  1
  Hf  Hf1  1  0.312957  0.690233  0.690233  1
  Hf  Hf2  1  0.312957  0.690233  0.306576  1
  Hf  Hf3  1  0.690381  0.310677  0.688267  1
  Hf  Hf4  1  0.312957  0.306576  0.690233  1
  Hf  Hf5  1  0.690381  0.688267  0.310677  1
  Ti  Ti6  1  0.124789  0.120655  0.120655  1
  Ti  Ti7  1  0.877105  0.875747  0.875747  1
  Ti  Ti8  1  0.124789  0.120655  0.633902  1
  Ti  Ti9  1  0.124789  0.633902  0.120655  1
  Ti  Ti10  1  0.877105  0.875747  0.371402  1
  Ti  Ti11  1  0.877105  0.371402  0.875747  1
  Ti  Ti12  1  0.626361  0.124547  0.124547  1
  Al  Al13  1  0.355879  0.881374  0.881374  1
  Ga  Ga14  1  0.341090  0.343679  0.343679  1
  Ga  Ga15  1  0.658032  0.658616  0.658616  1
  Ga  Ga16  1  0.341090  0.343679  0.971551  1
  Ga  Ga17  1  0.341090  0.971551  0.343679  1
  Ga  Ga18  1  0.658032  0.658616  0.024737  1
  Ga  Ga19  1  0.658032  0.024737  0.658616  1
  Ga  Ga20  1  0.974683  0.341772  0.341772  1
  Ga  Ga21  1  0.036933  0.654355  0.654355  1
  Ir  Ir22  1  0.502456  0.000166  0.000166  1
  Ir  Ir23  1  0.999975  0.499805  0.499805  1
  Ir  Ir24  1  0.999975  0.499805  0.000415  1
  Ir  Ir25  1  0.502456  0.000166  0.497212  1
  Ir  Ir26  1  0.999975  0.000415  0.499805  1
  Ir  Ir27  1  0.502456  0.497212  0.000166  1
  Ir  Ir28  1  0.985792  0.004736  0.004736  1
