# generated using pymatgen
data_Y2Fe12P7
_symmetry_space_group_name_H-M   'P 1'
_cell_length_a   8.94047711
_cell_length_b   8.94094442
_cell_length_c   3.64712200
_cell_angle_alpha   90.00000000
_cell_angle_beta   90.00000000
_cell_angle_gamma   120.01647531
_symmetry_Int_Tables_number   1
_chemical_formula_structural   Y2Fe12P7
_chemical_formula_sum   'Y2 Fe12 P7'
_cell_volume   252.43693011
_cell_formula_units_Z   1
loop_
 _symmetry_equiv_pos_site_id
 _symmetry_equiv_pos_as_xyz
  1  'x, y, z'
loop_
 _atom_site_type_symbol
 _atom_site_label
 _atom_site_symmetry_multiplicity
 _atom_site_fract_x
 _atom_site_fract_y
 _atom_site_fract_z
 _atom_site_occupancy
  Y  Y0  1  0.333324  0.666656  0.000000  1
  Y  Y1  1  0.666686  0.333338  0.500000  1
  Fe  Fe2  1  0.425111  0.368477  0.000000  1
  Fe  Fe3  1  0.631492  0.056617  0.000000  1
  Fe  Fe4  1  0.943361  0.574863  0.000000  1
  Fe  Fe5  1  0.153179  0.880169  0.000000  1
  Fe  Fe6  1  0.119866  0.273086  0.000000  1
  Fe  Fe7  1  0.726917  0.846783  0.000000  1
  Fe  Fe8  1  0.383404  0.951064  0.500000  1
  Fe  Fe9  1  0.048949  0.432347  0.500000  1
  Fe  Fe10  1  0.567671  0.616620  0.500000  1
  Fe  Fe11  1  0.211126  0.115505  0.500000  1
  Fe  Fe12  1  0.884517  0.095661  0.500000  1
  Fe  Fe13  1  0.904385  0.788867  0.500000  1
  P  P14  1  0.410080  0.110862  0.000000  1
  P  P15  1  0.889153  0.299224  0.000000  1
  P  P16  1  0.700800  0.589909  0.000000  1
  P  P17  1  0.109722  0.710507  0.500000  1
  P  P18  1  0.289475  0.399215  0.500000  1
  P  P19  1  0.600765  0.890263  0.500000  1
  P  P20  1  0.000016  0.999966  0.000000  1
