# generated using pymatgen
data_YGa2NiRh2
_symmetry_space_group_name_H-M   'P 1'
_cell_length_a   9.46524600
_cell_length_b   9.46524558
_cell_length_c   3.89321200
_cell_angle_alpha   90.00000000
_cell_angle_beta   90.00000000
_cell_angle_gamma   120.00000148
_symmetry_Int_Tables_number   1
_chemical_formula_structural   YGa2NiRh2
_chemical_formula_sum   'Y3 Ga6 Ni3 Rh6'
_cell_volume   302.06643530
_cell_formula_units_Z   3
loop_
 _symmetry_equiv_pos_site_id
 _symmetry_equiv_pos_as_xyz
  1  'x, y, z'
loop_
 _atom_site_type_symbol
 _atom_site_label
 _atom_site_symmetry_multiplicity
 _atom_site_fract_x
 _atom_site_fract_y
 _atom_site_fract_z
 _atom_site_occupancy
  Y  Y0  1  0.000000  0.000000  0.000000  1
  Y  Y1  1  0.333333  0.666667  0.500000  1
  Y  Y2  1  0.666667  0.333333  0.500000  1
  Ga  Ga3  1  0.330878  0.330878  0.500000  1
  Ga  Ga4  1  0.669122  0.000000  0.500000  1
  Ga  Ga5  1  0.669122  0.669122  0.500000  1
  Ga  Ga6  1  0.000000  0.330878  0.500000  1
  Ga  Ga7  1  0.000000  0.669122  0.500000  1
  Ga  Ga8  1  0.330878  0.000000  0.500000  1
  Ni  Ni9  1  0.500000  0.000000  0.000000  1
  Ni  Ni10  1  0.000000  0.500000  0.000000  1
  Ni  Ni11  1  0.500000  0.500000  0.000000  1
  Rh  Rh12  1  0.181213  0.362425  0.000000  1
  Rh  Rh13  1  0.818787  0.637575  0.000000  1
  Rh  Rh14  1  0.181213  0.818787  0.000000  1
  Rh  Rh15  1  0.637575  0.818787  0.000000  1
  Rh  Rh16  1  0.362425  0.181213  0.000000  1
  Rh  Rh17  1  0.818787  0.181213  0.000000  1
