# generated using pymatgen
data_Ca3ZrAl15(SiIr2)3
_symmetry_space_group_name_H-M   'P 1'
_cell_length_a   7.51417695
_cell_length_b   7.53870463
_cell_length_c   9.32646000
_cell_angle_alpha   90.00000000
_cell_angle_beta   90.00000000
_cell_angle_gamma   119.80520768
_symmetry_Int_Tables_number   1
_chemical_formula_structural   Ca3ZrAl15(SiIr2)3
_chemical_formula_sum   'Ca3 Zr1 Al15 Si3 Ir6'
_cell_volume   458.43178902
_cell_formula_units_Z   1
loop_
 _symmetry_equiv_pos_site_id
 _symmetry_equiv_pos_as_xyz
  1  'x, y, z'
loop_
 _atom_site_type_symbol
 _atom_site_label
 _atom_site_symmetry_multiplicity
 _atom_site_fract_x
 _atom_site_fract_y
 _atom_site_fract_z
 _atom_site_occupancy
  Ca  Ca0  1  0.001234  0.673894  0.250000  1
  Ca  Ca1  1  0.004610  0.324992  0.750000  1
  Ca  Ca2  1  0.324944  0.005828  0.750000  1
  Zr  Zr3  1  0.667659  0.992506  0.250000  1
  Al  Al4  1  0.997535  0.332582  0.079033  1
  Al  Al5  1  0.001423  0.664815  0.925987  1
  Al  Al6  1  0.001423  0.664815  0.574013  1
  Al  Al7  1  0.337813  0.003329  0.422296  1
  Al  Al8  1  0.997535  0.332582  0.420967  1
  Al  Al9  1  0.663703  0.999856  0.571919  1
  Al  Al10  1  0.663703  0.999856  0.928081  1
  Al  Al11  1  0.337813  0.003329  0.077704  1
  Al  Al12  1  0.335903  0.335540  0.556604  1
  Al  Al13  1  0.667556  0.665737  0.440206  1
  Al  Al14  1  0.667556  0.665737  0.059794  1
  Al  Al15  1  0.335903  0.335540  0.943396  1
  Al  Al16  1  0.665943  0.453985  0.750000  1
  Al  Al17  1  0.548049  0.335574  0.250000  1
  Al  Al18  1  0.451384  0.665399  0.750000  1
  Si  Si19  1  0.115988  0.124009  0.250000  1
  Si  Si20  1  0.867564  0.867527  0.750000  1
  Si  Si21  1  0.339606  0.548825  0.250000  1
  Ir  Ir22  1  0.671445  0.329982  0.002932  1
  Ir  Ir23  1  0.332694  0.671182  0.009849  1
  Ir  Ir24  1  0.332694  0.671182  0.490151  1
  Ir  Ir25  1  0.671445  0.329982  0.497068  1
  Ir  Ir26  1  0.998437  0.000709  0.003742  1
  Ir  Ir27  1  0.998437  0.000709  0.496258  1
