# generated using pymatgen
data_Sc18Re7P2W
_symmetry_space_group_name_H-M   'P 1'
_cell_length_a   8.65310900
_cell_length_b   8.65310856
_cell_length_c   8.58522800
_cell_angle_alpha   90.00000000
_cell_angle_beta   90.00000000
_cell_angle_gamma   119.99999785
_symmetry_Int_Tables_number   1
_chemical_formula_structural   Sc18Re7P2W
_chemical_formula_sum   'Sc18 Re7 P2 W1'
_cell_volume   556.70715276
_cell_formula_units_Z   1
loop_
 _symmetry_equiv_pos_site_id
 _symmetry_equiv_pos_as_xyz
  1  'x, y, z'
loop_
 _atom_site_type_symbol
 _atom_site_label
 _atom_site_symmetry_multiplicity
 _atom_site_fract_x
 _atom_site_fract_y
 _atom_site_fract_z
 _atom_site_occupancy
  Sc  Sc0  1  0.198118  0.801882  0.450452  1
  Sc  Sc1  1  0.198118  0.396235  0.450452  1
  Sc  Sc2  1  0.603765  0.801882  0.450452  1
  Sc  Sc3  1  0.801882  0.198118  0.549548  1
  Sc  Sc4  1  0.801882  0.603765  0.549548  1
  Sc  Sc5  1  0.396235  0.198118  0.549548  1
  Sc  Sc6  1  0.803087  0.196913  0.949971  1
  Sc  Sc7  1  0.803087  0.606174  0.949971  1
  Sc  Sc8  1  0.393826  0.196913  0.949971  1
  Sc  Sc9  1  0.196913  0.803087  0.050029  1
  Sc  Sc10  1  0.196913  0.393826  0.050029  1
  Sc  Sc11  1  0.606174  0.803087  0.050029  1
  Sc  Sc12  1  0.538156  0.461844  0.249815  1
  Sc  Sc13  1  0.538156  0.076312  0.249815  1
  Sc  Sc14  1  0.923688  0.461844  0.249815  1
  Sc  Sc15  1  0.461844  0.538156  0.750185  1
  Sc  Sc16  1  0.461844  0.923688  0.750185  1
  Sc  Sc17  1  0.076312  0.538156  0.750185  1
  Re  Re18  1  0.892185  0.107815  0.249937  1
  Re  Re19  1  0.892185  0.784370  0.249937  1
  Re  Re20  1  0.215630  0.107815  0.249937  1
  Re  Re21  1  0.107815  0.892185  0.750063  1
  Re  Re22  1  0.107815  0.215630  0.750063  1
  Re  Re23  1  0.784370  0.892185  0.750063  1
  Re  Re24  1  0.000000  0.000000  0.000000  1
  P  P25  1  0.333333  0.666667  0.249003  1
  P  P26  1  0.666667  0.333333  0.750997  1
  W  W27  1  0.000000  0.000000  0.500000  1
