# generated using pymatgen
data_Nd3Eu5Pt8
_symmetry_space_group_name_H-M   'P 1'
_cell_length_a   4.46179200
_cell_length_b   5.95720734
_cell_length_c   14.89595500
_cell_angle_alpha   89.66251582
_cell_angle_beta   90.00000000
_cell_angle_gamma   90.00000000
_symmetry_Int_Tables_number   1
_chemical_formula_structural   Nd3Eu5Pt8
_chemical_formula_sum   'Nd3 Eu5 Pt8'
_cell_volume   395.92493515
_cell_formula_units_Z   1
loop_
 _symmetry_equiv_pos_site_id
 _symmetry_equiv_pos_as_xyz
  1  'x, y, z'
loop_
 _atom_site_type_symbol
 _atom_site_label
 _atom_site_symmetry_multiplicity
 _atom_site_fract_x
 _atom_site_fract_y
 _atom_site_fract_z
 _atom_site_occupancy
  Nd  Nd0  1  0.250000  0.522650  0.284373  1
  Nd  Nd1  1  0.750000  0.476272  0.715259  1
  Nd  Nd2  1  0.250000  0.976120  0.785339  1
  Eu  Eu3  1  0.250000  0.754362  0.534315  1
  Eu  Eu4  1  0.250000  0.748229  0.035009  1
  Eu  Eu5  1  0.750000  0.255483  0.965848  1
  Eu  Eu6  1  0.750000  0.024533  0.214367  1
  Eu  Eu7  1  0.750000  0.245623  0.465494  1
  Pt  Pt8  1  0.250000  0.039831  0.353312  1
  Pt  Pt9  1  0.750000  0.534171  0.148850  1
  Pt  Pt10  1  0.750000  0.736902  0.392707  1
  Pt  Pt11  1  0.250000  0.461096  0.849197  1
  Pt  Pt12  1  0.750000  0.960894  0.651076  1
  Pt  Pt13  1  0.750000  0.759361  0.892290  1
  Pt  Pt14  1  0.250000  0.246114  0.104260  1
  Pt  Pt15  1  0.250000  0.258361  0.608305  1
