# generated using pymatgen
data_Mg4AgGe2Pt9
_symmetry_space_group_name_H-M   'P 1'
_cell_length_a   4.05508800
_cell_length_b   5.59815289
_cell_length_c   10.91915100
_cell_angle_alpha   89.75330046
_cell_angle_beta   90.00000000
_cell_angle_gamma   90.00000000
_symmetry_Int_Tables_number   1
_chemical_formula_structural   Mg4AgGe2Pt9
_chemical_formula_sum   'Mg4 Ag1 Ge2 Pt9'
_cell_volume   247.87337772
_cell_formula_units_Z   1
loop_
 _symmetry_equiv_pos_site_id
 _symmetry_equiv_pos_as_xyz
  1  'x, y, z'
loop_
 _atom_site_type_symbol
 _atom_site_label
 _atom_site_symmetry_multiplicity
 _atom_site_fract_x
 _atom_site_fract_y
 _atom_site_fract_z
 _atom_site_occupancy
  Mg  Mg0  1  0.500000  0.180136  0.140394  1
  Mg  Mg1  1  0.500000  0.819864  0.859606  1
  Mg  Mg2  1  0.500000  0.316399  0.645210  1
  Mg  Mg3  1  0.500000  0.683601  0.354790  1
  Ag  Ag4  1  0.000000  0.500000  0.500000  1
  Ge  Ge5  1  0.000000  0.000000  0.500000  1
  Ge  Ge6  1  0.000000  0.500000  0.000000  1
  Pt  Pt7  1  0.500000  0.193252  0.393979  1
  Pt  Pt8  1  0.500000  0.806748  0.606021  1
  Pt  Pt9  1  0.500000  0.306315  0.893270  1
  Pt  Pt10  1  0.500000  0.693685  0.106730  1
  Pt  Pt11  1  0.000000  0.435344  0.241459  1
  Pt  Pt12  1  0.000000  0.564656  0.758541  1
  Pt  Pt13  1  0.000000  0.063505  0.741791  1
  Pt  Pt14  1  0.000000  0.936495  0.258209  1
  Pt  Pt15  1  0.000000  0.000000  0.000000  1
