# generated using pymatgen
data_Pu(Si2Ir3)2
_symmetry_space_group_name_H-M   'P 1'
_cell_length_a   7.05002100
_cell_length_b   7.05001927
_cell_length_c   3.85222600
_cell_angle_alpha   90.00000000
_cell_angle_beta   90.00000000
_cell_angle_gamma   120.00001280
_symmetry_Int_Tables_number   1
_chemical_formula_structural   Pu(Si2Ir3)2
_chemical_formula_sum   'Pu1 Si4 Ir6'
_cell_volume   165.81470732
_cell_formula_units_Z   1
loop_
 _symmetry_equiv_pos_site_id
 _symmetry_equiv_pos_as_xyz
  1  'x, y, z'
loop_
 _atom_site_type_symbol
 _atom_site_label
 _atom_site_symmetry_multiplicity
 _atom_site_fract_x
 _atom_site_fract_y
 _atom_site_fract_z
 _atom_site_occupancy
  Pu  Pu0  1  0.000000  0.000000  0.000000  1
  Si  Si1  1  0.333333  0.666667  0.000000  1
  Si  Si2  1  0.802562  0.605125  0.500000  1
  Si  Si3  1  0.394875  0.197438  0.500000  1
  Si  Si4  1  0.802562  0.197438  0.500000  1
  Ir  Ir5  1  0.532965  0.065927  0.000000  1
  Ir  Ir6  1  0.934073  0.467035  0.000000  1
  Ir  Ir7  1  0.532965  0.467035  0.000000  1
  Ir  Ir8  1  0.197867  0.395733  0.500000  1
  Ir  Ir9  1  0.604267  0.802133  0.500000  1
  Ir  Ir10  1  0.197867  0.802133  0.500000  1
