# generated using pymatgen
data_PrNd5(CoSn6)2
_symmetry_space_group_name_H-M   'P 1'
_cell_length_a   8.68919487
_cell_length_b   8.68919497
_cell_length_c   13.39200711
_cell_angle_alpha   90.01414817
_cell_angle_beta   89.98585149
_cell_angle_gamma   148.87477725
_symmetry_Int_Tables_number   1
_chemical_formula_structural   PrNd5(CoSn6)2
_chemical_formula_sum   'Pr1 Nd5 Co2 Sn12'
_cell_volume   522.66071597
_cell_formula_units_Z   1
loop_
 _symmetry_equiv_pos_site_id
 _symmetry_equiv_pos_as_xyz
  1  'x, y, z'
loop_
 _atom_site_type_symbol
 _atom_site_label
 _atom_site_symmetry_multiplicity
 _atom_site_fract_x
 _atom_site_fract_y
 _atom_site_fract_z
 _atom_site_occupancy
  Pr  Pr0  1  0.899710  0.100290  0.091797  1
  Nd  Nd1  1  0.100463  0.899537  0.591769  1
  Nd  Nd2  1  0.898779  0.101221  0.749918  1
  Nd  Nd3  1  0.100491  0.899509  0.908113  1
  Nd  Nd4  1  0.101257  0.898743  0.250080  1
  Nd  Nd5  1  0.899517  0.100483  0.408340  1
  Co  Co6  1  0.299089  0.700911  0.250126  1
  Co  Co7  1  0.700782  0.299218  0.749879  1
  Sn  Sn8  1  0.753484  0.246516  0.571585  1
  Sn  Sn9  1  0.430202  0.569798  0.577724  1
  Sn  Sn10  1  0.569848  0.430152  0.422361  1
  Sn  Sn11  1  0.737127  0.262873  0.250176  1
  Sn  Sn12  1  0.262727  0.737273  0.749976  1
  Sn  Sn13  1  0.246305  0.753695  0.071612  1
  Sn  Sn14  1  0.246535  0.753465  0.428479  1
  Sn  Sn15  1  0.570014  0.429986  0.077698  1
  Sn  Sn16  1  0.452484  0.547516  0.250502  1
  Sn  Sn17  1  0.547643  0.452357  0.749946  1
  Sn  Sn18  1  0.753246  0.246754  0.928183  1
  Sn  Sn19  1  0.430297  0.569703  0.921738  1
