# generated using pymatgen
data_Y3MgIn2Ga2Pt
_symmetry_space_group_name_H-M   'P 1'
_cell_length_a   7.22928700
_cell_length_b   7.26039004
_cell_length_c   4.45676000
_cell_angle_alpha   90.00000000
_cell_angle_beta   90.00000000
_cell_angle_gamma   119.85839400
_symmetry_Int_Tables_number   1
_chemical_formula_structural   Y3MgIn2Ga2Pt
_chemical_formula_sum   'Y3 Mg1 In2 Ga2 Pt1'
_cell_volume   202.87252432
_cell_formula_units_Z   1
loop_
 _symmetry_equiv_pos_site_id
 _symmetry_equiv_pos_as_xyz
  1  'x, y, z'
loop_
 _atom_site_type_symbol
 _atom_site_label
 _atom_site_symmetry_multiplicity
 _atom_site_fract_x
 _atom_site_fract_y
 _atom_site_fract_z
 _atom_site_occupancy
  Y  Y0  1  0.409627  0.000000  0.500000  1
  Y  Y1  1  0.999737  0.409750  0.500000  1
  Y  Y2  1  0.589987  0.590250  0.500000  1
  Mg  Mg3  1  0.763361  0.000000  0.000000  1
  In  In4  1  0.244788  0.248913  0.000000  1
  In  In5  1  0.995875  0.751087  0.000000  1
  Ga  Ga6  1  0.665111  0.327228  0.000000  1
  Ga  Ga7  1  0.337883  0.672772  0.000000  1
  Pt  Pt8  1  0.993631  0.000000  0.500000  1
