# generated using pymatgen
data_Sr20Si11Ag
_symmetry_space_group_name_H-M   'P 1'
_cell_length_a   8.18132200
_cell_length_b   8.18132200
_cell_length_c   15.71870800
_cell_angle_alpha   90.00000000
_cell_angle_beta   90.00000000
_cell_angle_gamma   90.00000000
_symmetry_Int_Tables_number   1
_chemical_formula_structural   Sr20Si11Ag
_chemical_formula_sum   'Sr20 Si11 Ag1'
_cell_volume   1052.11646761
_cell_formula_units_Z   1
loop_
 _symmetry_equiv_pos_site_id
 _symmetry_equiv_pos_as_xyz
  1  'x, y, z'
loop_
 _atom_site_type_symbol
 _atom_site_label
 _atom_site_symmetry_multiplicity
 _atom_site_fract_x
 _atom_site_fract_y
 _atom_site_fract_z
 _atom_site_occupancy
  Sr  Sr0  1  0.329081  0.682184  0.111282  1
  Sr  Sr1  1  0.182184  0.170919  0.111282  1
  Sr  Sr2  1  0.500000  0.000000  0.726556  1
  Sr  Sr3  1  0.322803  0.682727  0.392603  1
  Sr  Sr4  1  0.661581  0.691533  0.888944  1
  Sr  Sr5  1  0.182727  0.177197  0.392603  1
  Sr  Sr6  1  0.677197  0.317273  0.392603  1
  Sr  Sr7  1  0.171942  0.812490  0.607632  1
  Sr  Sr8  1  0.338419  0.308467  0.888944  1
  Sr  Sr9  1  0.191533  0.838419  0.888944  1
  Sr  Sr10  1  0.500000  0.000000  0.252620  1
  Sr  Sr11  1  0.828058  0.187510  0.607632  1
  Sr  Sr12  1  0.312490  0.328058  0.607632  1
  Sr  Sr13  1  0.817273  0.822803  0.392603  1
  Sr  Sr14  1  0.808467  0.161581  0.888944  1
  Sr  Sr15  1  0.817816  0.829081  0.111282  1
  Sr  Sr16  1  0.000000  0.500000  0.260928  1
  Sr  Sr17  1  0.000000  0.500000  0.757522  1
  Sr  Sr18  1  0.670919  0.317816  0.111282  1
  Sr  Sr19  1  0.687510  0.671942  0.607632  1
  Si  Si20  1  0.106610  0.108938  0.748384  1
  Si  Si21  1  0.391062  0.606610  0.748384  1
  Si  Si22  1  0.609102  0.606203  0.251916  1
  Si  Si23  1  0.500000  0.000000  0.006479  1
  Si  Si24  1  0.106203  0.890898  0.251916  1
  Si  Si25  1  0.608938  0.393390  0.748384  1
  Si  Si26  1  0.893390  0.891062  0.748384  1
  Si  Si27  1  0.390898  0.393797  0.251916  1
  Si  Si28  1  0.893797  0.109102  0.251916  1
  Si  Si29  1  0.500000  0.000000  0.502871  1
  Si  Si30  1  0.000000  0.500000  0.496636  1
  Ag  Ag31  1  0.000000  0.500000  0.993344  1
