# generated using pymatgen
data_Tb4Ga16TcRh2
_symmetry_space_group_name_H-M   'P 1'
_cell_length_a   6.14867100
_cell_length_b   6.14867100
_cell_length_c   11.30385100
_cell_angle_alpha   90.00000000
_cell_angle_beta   90.00000000
_cell_angle_gamma   90.00000000
_symmetry_Int_Tables_number   1
_chemical_formula_structural   Tb4Ga16TcRh2
_chemical_formula_sum   'Tb4 Ga16 Tc1 Rh2'
_cell_volume   427.35514375
_cell_formula_units_Z   1
loop_
 _symmetry_equiv_pos_site_id
 _symmetry_equiv_pos_as_xyz
  1  'x, y, z'
loop_
 _atom_site_type_symbol
 _atom_site_label
 _atom_site_symmetry_multiplicity
 _atom_site_fract_x
 _atom_site_fract_y
 _atom_site_fract_z
 _atom_site_occupancy
  Tb  Tb0  1  0.500000  0.000000  0.808242  1
  Tb  Tb1  1  0.000000  0.500000  0.808242  1
  Tb  Tb2  1  0.500000  0.000000  0.191758  1
  Tb  Tb3  1  0.000000  0.500000  0.191758  1
  Ga  Ga4  1  0.249487  0.249487  0.619614  1
  Ga  Ga5  1  0.750513  0.750513  0.619614  1
  Ga  Ga6  1  0.750513  0.249487  0.619614  1
  Ga  Ga7  1  0.249487  0.750513  0.619614  1
  Ga  Ga8  1  0.750513  0.750513  0.380386  1
  Ga  Ga9  1  0.249487  0.249487  0.380386  1
  Ga  Ga10  1  0.249487  0.750513  0.380386  1
  Ga  Ga11  1  0.750513  0.249487  0.380386  1
  Ga  Ga12  1  0.286813  0.286813  0.000000  1
  Ga  Ga13  1  0.713187  0.713187  0.000000  1
  Ga  Ga14  1  0.713187  0.286813  0.000000  1
  Ga  Ga15  1  0.286813  0.713187  0.000000  1
  Ga  Ga16  1  0.500000  0.500000  0.803130  1
  Ga  Ga17  1  0.500000  0.500000  0.196870  1
  Ga  Ga18  1  0.000000  0.000000  0.776653  1
  Ga  Ga19  1  0.000000  0.000000  0.223347  1
  Tc  Tc20  1  0.000000  0.000000  0.000000  1
  Rh  Rh21  1  0.500000  0.000000  0.500000  1
  Rh  Rh22  1  0.000000  0.500000  0.500000  1
