# generated using pymatgen
data_HoEr(Pa2Ga5)2
_symmetry_space_group_name_H-M   'P 1'
_cell_length_a   6.07479500
_cell_length_b   9.51564700
_cell_length_c   11.64571400
_cell_angle_alpha   90.00000000
_cell_angle_beta   90.00000000
_cell_angle_gamma   90.00000000
_symmetry_Int_Tables_number   1
_chemical_formula_structural   HoEr(Pa2Ga5)2
_chemical_formula_sum   'Ho2 Er2 Pa8 Ga20'
_cell_volume   673.18754130
_cell_formula_units_Z   2
loop_
 _symmetry_equiv_pos_site_id
 _symmetry_equiv_pos_as_xyz
  1  'x, y, z'
loop_
 _atom_site_type_symbol
 _atom_site_label
 _atom_site_symmetry_multiplicity
 _atom_site_fract_x
 _atom_site_fract_y
 _atom_site_fract_z
 _atom_site_occupancy
  Ho  Ho0  1  0.856818  0.750000  0.072403  1
  Ho  Ho1  1  0.643182  0.750000  0.572403  1
  Er  Er2  1  0.143214  0.250000  0.927467  1
  Er  Er3  1  0.356786  0.250000  0.427467  1
  Pa  Pa4  1  0.881124  0.503426  0.352241  1
  Pa  Pa5  1  0.618876  0.996574  0.852241  1
  Pa  Pa6  1  0.118893  0.003634  0.647791  1
  Pa  Pa7  1  0.381107  0.496366  0.147791  1
  Pa  Pa8  1  0.118893  0.496366  0.647791  1
  Pa  Pa9  1  0.381107  0.003634  0.147791  1
  Pa  Pa10  1  0.881124  0.996574  0.352241  1
  Pa  Pa11  1  0.618876  0.503426  0.852241  1
  Ga  Ga12  1  0.871980  0.052444  0.090527  1
  Ga  Ga13  1  0.628020  0.447556  0.590527  1
  Ga  Ga14  1  0.128108  0.551859  0.909377  1
  Ga  Ga15  1  0.371892  0.948141  0.409377  1
  Ga  Ga16  1  0.128108  0.948141  0.909377  1
  Ga  Ga17  1  0.371892  0.551859  0.409377  1
  Ga  Ga18  1  0.871980  0.447556  0.090527  1
  Ga  Ga19  1  0.628020  0.052444  0.590527  1
  Ga  Ga20  1  0.157055  0.750000  0.263561  1
  Ga  Ga21  1  0.342945  0.750000  0.763561  1
  Ga  Ga22  1  0.843145  0.250000  0.736835  1
  Ga  Ga23  1  0.656855  0.250000  0.236835  1
  Ga  Ga24  1  0.390115  0.750000  0.995008  1
  Ga  Ga25  1  0.109885  0.750000  0.495008  1
  Ga  Ga26  1  0.609323  0.250000  0.004641  1
  Ga  Ga27  1  0.890677  0.250000  0.504641  1
  Ga  Ga28  1  0.595693  0.750000  0.292559  1
  Ga  Ga29  1  0.904307  0.750000  0.792559  1
  Ga  Ga30  1  0.404339  0.250000  0.707654  1
  Ga  Ga31  1  0.095661  0.250000  0.207654  1
