# generated using pymatgen
data_Nd3DyCrMo5O24
_symmetry_space_group_name_H-M   'P 1'
_cell_length_a   7.55245848
_cell_length_b   7.55245862
_cell_length_c   10.86742818
_cell_angle_alpha   89.71413607
_cell_angle_beta   89.71413624
_cell_angle_gamma   90.38956559
_symmetry_Int_Tables_number   1
_chemical_formula_structural   Nd3DyCrMo5O24
_chemical_formula_sum   'Nd3 Dy1 Cr1 Mo5 O24'
_cell_volume   619.84422024
_cell_formula_units_Z   1
loop_
 _symmetry_equiv_pos_site_id
 _symmetry_equiv_pos_as_xyz
  1  'x, y, z'
loop_
 _atom_site_type_symbol
 _atom_site_label
 _atom_site_symmetry_multiplicity
 _atom_site_fract_x
 _atom_site_fract_y
 _atom_site_fract_z
 _atom_site_occupancy
  Nd  Nd0  1  0.185801  0.685801  0.734316  1
  Nd  Nd1  1  0.686418  0.807849  0.263329  1
  Nd  Nd2  1  0.307849  0.186418  0.263329  1
  Dy  Dy3  1  0.809699  0.309699  0.737970  1
  Cr  Cr4  1  0.208532  0.708532  0.355335  1
  Mo  Mo5  1  0.790088  0.290088  0.360734  1
  Mo  Mo6  1  0.710253  0.794116  0.646105  1
  Mo  Mo7  1  0.294116  0.210253  0.646105  1
  Mo  Mo8  1  0.999846  0.001408  0.996599  1
  Mo  Mo9  1  0.501408  0.499846  0.996599  1
  O  O10  1  0.998410  0.223862  0.299429  1
  O  O11  1  0.013082  0.767993  0.301376  1
  O  O12  1  0.228668  0.998232  0.702370  1
  O  O13  1  0.498232  0.728668  0.702370  1
  O  O14  1  0.777097  0.004511  0.705476  1
  O  O15  1  0.504511  0.277097  0.705476  1
  O  O16  1  0.267993  0.513082  0.301376  1
  O  O17  1  0.723862  0.498410  0.299429  1
  O  O18  1  0.190221  0.046096  0.089196  1
  O  O19  1  0.816066  0.957618  0.097329  1
  O  O20  1  0.039891  0.811528  0.902691  1
  O  O21  1  0.311528  0.539891  0.902691  1
  O  O22  1  0.952017  0.188309  0.899734  1
  O  O23  1  0.688309  0.452017  0.899734  1
  O  O24  1  0.457618  0.316066  0.097329  1
  O  O25  1  0.546096  0.690221  0.089196  1
  O  O26  1  0.625054  0.125054  0.314056  1
  O  O27  1  0.363816  0.863816  0.310752  1
  O  O28  1  0.122146  0.368578  0.690832  1
  O  O29  1  0.868578  0.622146  0.690832  1
  O  O30  1  0.198555  0.698555  0.507750  1
  O  O31  1  0.802744  0.302744  0.524325  1
  O  O32  1  0.702630  0.808867  0.482914  1
  O  O33  1  0.308867  0.202630  0.482914  1
