# generated using pymatgen
data_Ho16Cd4Os3Au
_symmetry_space_group_name_H-M   'P 1'
_cell_length_a   9.57224428
_cell_length_b   9.72997922
_cell_length_c   9.73025800
_cell_angle_alpha   59.99982898
_cell_angle_beta   59.45216804
_cell_angle_gamma   59.45192642
_symmetry_Int_Tables_number   1
_chemical_formula_structural   Ho16Cd4Os3Au
_chemical_formula_sum   'Ho16 Cd4 Os3 Au1'
_cell_volume   635.45885641
_cell_formula_units_Z   1
loop_
 _symmetry_equiv_pos_site_id
 _symmetry_equiv_pos_as_xyz
  1  'x, y, z'
loop_
 _atom_site_type_symbol
 _atom_site_label
 _atom_site_symmetry_multiplicity
 _atom_site_fract_x
 _atom_site_fract_y
 _atom_site_fract_z
 _atom_site_occupancy
  Ho  Ho0  1  0.344554  0.355145  0.355151  1
  Ho  Ho1  1  0.344550  0.355127  0.945150  1
  Ho  Ho2  1  0.344529  0.945152  0.355148  1
  Ho  Ho3  1  0.974058  0.341957  0.341979  1
  Ho  Ho4  1  0.819577  0.190502  0.190512  1
  Ho  Ho5  1  0.184126  0.811538  0.811510  1
  Ho  Ho6  1  0.184126  0.811562  0.192823  1
  Ho  Ho7  1  0.819541  0.190511  0.799435  1
  Ho  Ho8  1  0.184122  0.192813  0.811555  1
  Ho  Ho9  1  0.819523  0.799437  0.190519  1
  Ho  Ho10  1  0.932847  0.564275  0.564276  1
  Ho  Ho11  1  0.550788  0.940353  0.940350  1
  Ho  Ho12  1  0.550805  0.940344  0.568512  1
  Ho  Ho13  1  0.932860  0.564263  0.938599  1
  Ho  Ho14  1  0.550811  0.568527  0.940331  1
  Ho  Ho15  1  0.932862  0.938599  0.564267  1
  Cd  Cd16  1  0.581648  0.578882  0.578890  1
  Cd  Cd17  1  0.581646  0.578882  0.260578  1
  Cd  Cd18  1  0.581640  0.260584  0.578885  1
  Cd  Cd19  1  0.253380  0.582201  0.582207  1
  Os  Os20  1  0.153395  0.135257  0.135262  1
  Os  Os21  1  0.153386  0.135263  0.576090  1
  Os  Os22  1  0.153383  0.576114  0.135249  1
  Au  Au23  1  0.571839  0.142714  0.142724  1
