# generated using pymatgen
data_LiTb2ThIn3Pt2
_symmetry_space_group_name_H-M   'P 1'
_cell_length_a   7.86595400
_cell_length_b   7.72987093
_cell_length_c   3.89997300
_cell_angle_alpha   90.00000000
_cell_angle_beta   90.00000000
_cell_angle_gamma   120.58409212
_symmetry_Int_Tables_number   1
_chemical_formula_structural   LiTb2ThIn3Pt2
_chemical_formula_sum   'Li1 Tb2 Th1 In3 Pt2'
_cell_volume   204.14067270
_cell_formula_units_Z   1
loop_
 _symmetry_equiv_pos_site_id
 _symmetry_equiv_pos_as_xyz
  1  'x, y, z'
loop_
 _atom_site_type_symbol
 _atom_site_label
 _atom_site_symmetry_multiplicity
 _atom_site_fract_x
 _atom_site_fract_y
 _atom_site_fract_z
 _atom_site_occupancy
  Li  Li0  1  0.004296  0.000000  0.000000  1
  Tb  Tb1  1  0.997152  0.415985  0.000000  1
  Tb  Tb2  1  0.581168  0.584015  0.000000  1
  Th  Th3  1  0.423040  0.000000  0.000000  1
  In  In4  1  0.248759  0.256001  0.500000  1
  In  In5  1  0.992758  0.743999  0.500000  1
  In  In6  1  0.760790  0.000000  0.500000  1
  Pt  Pt7  1  0.659165  0.326292  0.500000  1
  Pt  Pt8  1  0.332872  0.673708  0.500000  1
