# generated using pymatgen
data_Tb4(Ga8Pd3)3
_symmetry_space_group_name_H-M   'P 1'
_cell_length_a   7.50449061
_cell_length_b   7.57250258
_cell_length_c   13.43700019
_cell_angle_alpha   85.05296966
_cell_angle_beta   100.22292056
_cell_angle_gamma   119.67764191
_symmetry_Int_Tables_number   1
_chemical_formula_structural   Tb4(Ga8Pd3)3
_chemical_formula_sum   'Tb4 Ga24 Pd9'
_cell_volume   652.89674634
_cell_formula_units_Z   1
loop_
 _symmetry_equiv_pos_site_id
 _symmetry_equiv_pos_as_xyz
  1  'x, y, z'
loop_
 _atom_site_type_symbol
 _atom_site_label
 _atom_site_symmetry_multiplicity
 _atom_site_fract_x
 _atom_site_fract_y
 _atom_site_fract_z
 _atom_site_occupancy
  Tb  Tb0  1  0.436942  0.830903  0.811208  1
  Tb  Tb1  1  0.563058  0.169097  0.188792  1
  Tb  Tb2  1  0.770881  0.503230  0.811356  1
  Tb  Tb3  1  0.229119  0.496770  0.188644  1
  Ga  Ga4  1  0.479652  0.166561  0.939283  1
  Ga  Ga5  1  0.520348  0.833439  0.060717  1
  Ga  Ga6  1  0.020822  0.165264  0.557849  1
  Ga  Ga7  1  0.979178  0.834736  0.442151  1
  Ga  Ga8  1  0.355306  0.832974  0.555947  1
  Ga  Ga9  1  0.644694  0.167026  0.444053  1
  Ga  Ga10  1  0.615147  0.834919  0.325489  1
  Ga  Ga11  1  0.384853  0.165081  0.674511  1
  Ga  Ga12  1  0.059151  0.495506  0.673536  1
  Ga  Ga13  1  0.940849  0.504494  0.326464  1
  Ga  Ga14  1  0.730494  0.837829  0.672443  1
  Ga  Ga15  1  0.269506  0.162171  0.327557  1
  Ga  Ga16  1  0.144657  0.500420  0.940313  1
  Ga  Ga17  1  0.855343  0.499580  0.059687  1
  Ga  Ga18  1  0.813222  0.832390  0.945587  1
  Ga  Ga19  1  0.186778  0.167610  0.054413  1
  Ga  Ga20  1  0.312583  0.500371  0.443337  1
  Ga  Ga21  1  0.687417  0.499629  0.556663  1
  Ga  Ga22  1  0.102535  0.836358  0.182316  1
  Ga  Ga23  1  0.897465  0.163642  0.817684  1
  Ga  Ga24  1  0.308309  0.369465  0.816722  1
  Ga  Ga25  1  0.691691  0.630535  0.183278  1
  Ga  Ga26  1  0.102943  0.960007  0.816696  1
  Ga  Ga27  1  0.897057  0.039993  0.183304  1
  Pd  Pd28  1  0.387049  0.503280  0.638522  1
  Pd  Pd29  1  0.612951  0.496720  0.361478  1
  Pd  Pd30  1  0.170950  0.830356  0.998886  1
  Pd  Pd31  1  0.829050  0.169644  0.001114  1
  Pd  Pd32  1  0.290959  0.833096  0.360703  1
  Pd  Pd33  1  0.709041  0.166904  0.639297  1
  Pd  Pd34  1  0.049796  0.827907  0.637893  1
  Pd  Pd35  1  0.950204  0.172093  0.362107  1
  Pd  Pd36  1  0.500000  0.500000  0.000000  1
