# generated using pymatgen
data_Rb4CeTcI12
_symmetry_space_group_name_H-M   'P 1'
_cell_length_a   8.14957900
_cell_length_b   8.14957900
_cell_length_c   12.22072700
_cell_angle_alpha   90.00000000
_cell_angle_beta   90.00000000
_cell_angle_gamma   90.00000000
_symmetry_Int_Tables_number   1
_chemical_formula_structural   Rb4CeTcI12
_chemical_formula_sum   'Rb4 Ce1 Tc1 I12'
_cell_volume   811.64737903
_cell_formula_units_Z   1
loop_
 _symmetry_equiv_pos_site_id
 _symmetry_equiv_pos_as_xyz
  1  'x, y, z'
loop_
 _atom_site_type_symbol
 _atom_site_label
 _atom_site_symmetry_multiplicity
 _atom_site_fract_x
 _atom_site_fract_y
 _atom_site_fract_z
 _atom_site_occupancy
  Rb  Rb0  1  0.000000  0.500000  0.252822  1
  Rb  Rb1  1  0.500000  0.000000  0.252822  1
  Rb  Rb2  1  0.000000  0.500000  0.747178  1
  Rb  Rb3  1  0.500000  0.000000  0.747178  1
  Ce  Ce4  1  0.000000  0.000000  0.000000  1
  Tc  Tc5  1  0.500000  0.500000  0.500000  1
  I  I6  1  0.000000  0.000000  0.249823  1
  I  I7  1  0.500000  0.500000  0.273970  1
  I  I8  1  0.000000  0.000000  0.750176  1
  I  I9  1  0.500000  0.500000  0.726030  1
  I  I10  1  0.205469  0.308422  0.000000  1
  I  I11  1  0.691578  0.205469  0.000000  1
  I  I12  1  0.308422  0.794531  0.000000  1
  I  I13  1  0.690003  0.220114  0.500000  1
  I  I14  1  0.309997  0.779886  0.500000  1
  I  I15  1  0.794531  0.691578  0.000000  1
  I  I16  1  0.779886  0.690003  0.500000  1
  I  I17  1  0.220114  0.309997  0.500000  1
