# generated using pymatgen
data_Tm5Mg(P2Ru3)6
_symmetry_space_group_name_H-M   'P 1'
_cell_length_a   12.60679771
_cell_length_b   12.44077441
_cell_length_c   3.96568400
_cell_angle_alpha   90.00000000
_cell_angle_beta   90.00000000
_cell_angle_gamma   119.56530531
_symmetry_Int_Tables_number   1
_chemical_formula_structural   Tm5Mg(P2Ru3)6
_chemical_formula_sum   'Tm5 Mg1 P12 Ru18'
_cell_volume   540.98677301
_cell_formula_units_Z   1
loop_
 _symmetry_equiv_pos_site_id
 _symmetry_equiv_pos_as_xyz
  1  'x, y, z'
loop_
 _atom_site_type_symbol
 _atom_site_label
 _atom_site_symmetry_multiplicity
 _atom_site_fract_x
 _atom_site_fract_y
 _atom_site_fract_z
 _atom_site_occupancy
  Tm  Tm0  1  0.000000  0.181010  0.500000  1
  Tm  Tm1  1  0.816240  0.818199  0.500000  1
  Tm  Tm2  1  0.183760  0.001959  0.500000  1
  Tm  Tm3  1  0.660463  0.328737  0.000000  1
  Tm  Tm4  1  0.339537  0.668275  0.000000  1
  Mg  Mg5  1  0.000000  0.561313  0.000000  1
  P  P6  1  0.000000  0.812865  0.000000  1
  P  P7  1  0.182366  0.182916  0.000000  1
  P  P8  1  0.817634  0.000550  0.000000  1
  P  P9  1  0.691135  0.172527  0.500000  1
  P  P10  1  0.818642  0.518003  0.500000  1
  P  P11  1  0.475509  0.307441  0.500000  1
  P  P12  1  0.181358  0.699361  0.500000  1
  P  P13  1  0.524491  0.831930  0.500000  1
  P  P14  1  0.308865  0.481392  0.500000  1
  P  P15  1  0.000000  0.359292  0.000000  1
  P  P16  1  0.626237  0.625948  0.000000  1
  P  P17  1  0.373763  0.999711  0.000000  1
  Ru  Ru18  1  0.444658  0.444591  0.000000  1
  Ru  Ru19  1  0.555342  0.999933  0.000000  1
  Ru  Ru20  1  0.000000  0.717743  0.500000  1
  Ru  Ru21  1  0.281126  0.282575  0.500000  1
  Ru  Ru22  1  0.718874  0.001449  0.500000  1
  Ru  Ru23  1  0.805578  0.184315  0.000000  1
  Ru  Ru24  1  0.813352  0.620461  0.000000  1
  Ru  Ru25  1  0.372871  0.188487  0.000000  1
  Ru  Ru26  1  0.186648  0.807109  0.000000  1
  Ru  Ru27  1  0.627129  0.815616  0.000000  1
  Ru  Ru28  1  0.194422  0.378737  0.000000  1
  Ru  Ru29  1  0.874255  0.365263  0.500000  1
  Ru  Ru30  1  0.631360  0.509322  0.500000  1
  Ru  Ru31  1  0.492944  0.129375  0.500000  1
  Ru  Ru32  1  0.368640  0.877962  0.500000  1
  Ru  Ru33  1  0.507056  0.636432  0.500000  1
  Ru  Ru34  1  0.125745  0.491008  0.500000  1
  Ru  Ru35  1  0.000000  0.998197  0.000000  1
