# generated using pymatgen
data_Pr4ZrTc3F28
_symmetry_space_group_name_H-M   'P 1'
_cell_length_a   5.78558869
_cell_length_b   9.29866402
_cell_length_c   12.48115728
_cell_angle_alpha   62.00676039
_cell_angle_beta   89.99375015
_cell_angle_gamma   90.04807964
_symmetry_Int_Tables_number   1
_chemical_formula_structural   Pr4ZrTc3F28
_chemical_formula_sum   'Pr4 Zr1 Tc3 F28'
_cell_volume   592.90472792
_cell_formula_units_Z   1
loop_
 _symmetry_equiv_pos_site_id
 _symmetry_equiv_pos_as_xyz
  1  'x, y, z'
loop_
 _atom_site_type_symbol
 _atom_site_label
 _atom_site_symmetry_multiplicity
 _atom_site_fract_x
 _atom_site_fract_y
 _atom_site_fract_z
 _atom_site_occupancy
  Pr  Pr0  1  0.758403  0.809296  0.765460  1
  Pr  Pr1  1  0.258274  0.187953  0.737907  1
  Pr  Pr2  1  0.242252  0.189127  0.232765  1
  Pr  Pr3  1  0.741254  0.814140  0.263290  1
  Zr  Zr4  1  0.745803  0.273381  0.458118  1
  Tc  Tc5  1  0.756385  0.274400  0.957208  1
  Tc  Tc6  1  0.256608  0.725860  0.542815  1
  Tc  Tc7  1  0.243905  0.726534  0.042575  1
  F  F8  1  0.443298  0.710591  0.921402  1
  F  F9  1  0.948159  0.289561  0.585025  1
  F  F10  1  0.556011  0.291086  0.077537  1
  F  F11  1  0.056718  0.710436  0.421139  1
  F  F12  1  0.448594  0.280893  0.544736  1
  F  F13  1  0.964094  0.717064  0.955926  1
  F  F14  1  0.537028  0.719032  0.454962  1
  F  F15  1  0.036749  0.284035  0.043547  1
  F  F16  1  0.764550  0.512877  0.861989  1
  F  F17  1  0.268149  0.486883  0.638316  1
  F  F18  1  0.235099  0.487781  0.137207  1
  F  F19  1  0.730424  0.520720  0.360783  1
  F  F20  1  0.759711  0.036241  0.051456  1
  F  F21  1  0.260023  0.964161  0.447937  1
  F  F22  1  0.241736  0.964723  0.949135  1
  F  F23  1  0.737586  0.026602  0.555885  1
  F  F24  1  0.984087  0.729483  0.635795  1
  F  F25  1  0.483427  0.268460  0.866079  1
  F  F26  1  0.030053  0.268714  0.363078  1
  F  F27  1  0.516721  0.732734  0.134052  1
  F  F28  1  0.047480  0.743233  0.165647  1
  F  F29  1  0.551156  0.253629  0.328518  1
  F  F30  1  0.951856  0.257493  0.834522  1
  F  F31  1  0.451491  0.741444  0.666762  1
  F  F32  1  0.409119  0.967746  0.229288  1
  F  F33  1  0.909460  0.033703  0.269457  1
  F  F34  1  0.587848  0.031328  0.767918  1
  F  F35  1  0.086489  0.968655  0.731765  1
