# generated using pymatgen
data_ZrSc5(CoSi3)2
_symmetry_space_group_name_H-M   'P 1'
_cell_length_a   5.33496377
_cell_length_b   5.33496356
_cell_length_c   12.83895871
_cell_angle_alpha   109.11106996
_cell_angle_beta   109.11107036
_cell_angle_gamma   43.49159180
_symmetry_Int_Tables_number   1
_chemical_formula_structural   ZrSc5(CoSi3)2
_chemical_formula_sum   'Zr1 Sc5 Co2 Si6'
_cell_volume   235.35802785
_cell_formula_units_Z   1
loop_
 _symmetry_equiv_pos_site_id
 _symmetry_equiv_pos_as_xyz
  1  'x, y, z'
loop_
 _atom_site_type_symbol
 _atom_site_label
 _atom_site_symmetry_multiplicity
 _atom_site_fract_x
 _atom_site_fract_y
 _atom_site_fract_z
 _atom_site_occupancy
  Zr  Zr0  1  0.400497  0.400497  0.079751  1
  Sc  Sc1  1  0.745823  0.745823  0.227869  1
  Sc  Sc2  1  0.524175  0.524175  0.380019  1
  Sc  Sc3  1  0.475330  0.475330  0.620357  1
  Sc  Sc4  1  0.255283  0.255283  0.771505  1
  Sc  Sc5  1  0.601543  0.601543  0.920312  1
  Co  Co6  1  0.244276  0.244276  0.413772  1
  Co  Co7  1  0.754975  0.754975  0.586242  1
  Si  Si8  1  0.118334  0.118334  0.076088  1
  Si  Si9  1  0.044459  0.044459  0.240631  1
  Si  Si10  1  0.865307  0.865307  0.453748  1
  Si  Si11  1  0.134071  0.134071  0.546525  1
  Si  Si12  1  0.954610  0.954610  0.759289  1
  Si  Si13  1  0.881318  0.881318  0.923893  1
