# generated using pymatgen
data_TbDyFe3Re14C3
_symmetry_space_group_name_H-M   'P 1'
_cell_length_a   6.92926954
_cell_length_b   6.92927032
_cell_length_c   6.92926930
_cell_angle_alpha   82.53960401
_cell_angle_beta   82.53959713
_cell_angle_gamma   82.53960076
_symmetry_Int_Tables_number   1
_chemical_formula_structural   TbDyFe3Re14C3
_chemical_formula_sum   'Tb1 Dy1 Fe3 Re14 C3'
_cell_volume   324.93125720
_cell_formula_units_Z   1
loop_
 _symmetry_equiv_pos_site_id
 _symmetry_equiv_pos_as_xyz
  1  'x, y, z'
loop_
 _atom_site_type_symbol
 _atom_site_label
 _atom_site_symmetry_multiplicity
 _atom_site_fract_x
 _atom_site_fract_y
 _atom_site_fract_z
 _atom_site_occupancy
  Tb  Tb0  1  0.648912  0.648912  0.648912  1
  Dy  Dy1  1  0.351046  0.351046  0.351046  1
  Fe  Fe2  1  0.000010  0.000010  0.500004  1
  Fe  Fe3  1  0.500004  0.000010  0.000010  1
  Fe  Fe4  1  0.000010  0.500004  0.000010  1
  Re  Re5  1  0.722195  0.277758  0.000053  1
  Re  Re6  1  0.000053  0.722195  0.277758  1
  Re  Re7  1  0.277758  0.000053  0.722195  1
  Re  Re8  1  0.000053  0.277758  0.722195  1
  Re  Re9  1  0.722195  0.000053  0.277758  1
  Re  Re10  1  0.277758  0.722195  0.000053  1
  Re  Re11  1  0.346346  0.346346  0.861087  1
  Re  Re12  1  0.861087  0.346346  0.346346  1
  Re  Re13  1  0.346346  0.861087  0.346346  1
  Re  Re14  1  0.653543  0.653543  0.139016  1
  Re  Re15  1  0.139016  0.653543  0.653543  1
  Re  Re16  1  0.653543  0.139016  0.653543  1
  Re  Re17  1  0.897905  0.897905  0.897905  1
  Re  Re18  1  0.102172  0.102172  0.102172  1
  C  C19  1  0.499870  0.499870  0.000310  1
  C  C20  1  0.000310  0.499870  0.499870  1
  C  C21  1  0.499870  0.000310  0.499870  1
