# generated using pymatgen
data_Tb5Dy5(SnBi)4
_symmetry_space_group_name_H-M   'P 1'
_cell_length_a   8.19811200
_cell_length_b   8.23749001
_cell_length_c   15.67656002
_cell_angle_alpha   90.00550649
_cell_angle_beta   90.00000000
_cell_angle_gamma   90.00000000
_symmetry_Int_Tables_number   1
_chemical_formula_structural   Tb5Dy5(SnBi)4
_chemical_formula_sum   'Tb10 Dy10 Sn8 Bi8'
_cell_volume   1058.66734084
_cell_formula_units_Z   2
loop_
 _symmetry_equiv_pos_site_id
 _symmetry_equiv_pos_as_xyz
  1  'x, y, z'
loop_
 _atom_site_type_symbol
 _atom_site_label
 _atom_site_symmetry_multiplicity
 _atom_site_fract_x
 _atom_site_fract_y
 _atom_site_fract_z
 _atom_site_occupancy
  Tb  Tb0  1  0.386255  0.838224  0.623420  1
  Tb  Tb1  1  0.886255  0.661776  0.876580  1
  Tb  Tb2  1  0.552897  0.327989  0.889904  1
  Tb  Tb3  1  0.052897  0.172011  0.610096  1
  Tb  Tb4  1  0.447062  0.671951  0.389836  1
  Tb  Tb5  1  0.947062  0.828049  0.110164  1
  Tb  Tb6  1  0.447072  0.671944  0.110129  1
  Tb  Tb7  1  0.947072  0.828056  0.389871  1
  Tb  Tb8  1  0.552913  0.328027  0.610122  1
  Tb  Tb9  1  0.052913  0.171973  0.889878  1
  Dy  Dy10  1  0.386142  0.838256  0.876434  1
  Dy  Dy11  1  0.886142  0.661744  0.623566  1
  Dy  Dy12  1  0.613834  0.161724  0.376432  1
  Dy  Dy13  1  0.113834  0.338276  0.123568  1
  Dy  Dy14  1  0.613848  0.161732  0.123592  1
  Dy  Dy15  1  0.113848  0.338268  0.376408  1
  Dy  Dy16  1  0.217476  0.498120  0.749992  1
  Dy  Dy17  1  0.717476  0.001880  0.750008  1
  Dy  Dy18  1  0.782568  0.501766  0.250006  1
  Dy  Dy19  1  0.282568  0.998234  0.249994  1
  Sn  Sn20  1  0.582651  0.626404  0.750045  1
  Sn  Sn21  1  0.082651  0.873596  0.749955  1
  Sn  Sn22  1  0.417352  0.373386  0.250008  1
  Sn  Sn23  1  0.917352  0.126614  0.249992  1
  Sn  Sn24  1  0.356402  0.143704  0.750054  1
  Sn  Sn25  1  0.856402  0.356296  0.749946  1
  Sn  Sn26  1  0.643542  0.856419  0.250000  1
  Sn  Sn27  1  0.143542  0.643581  0.250000  1
  Bi  Bi28  1  0.270606  0.020978  0.044245  1
  Bi  Bi29  1  0.770606  0.479022  0.455755  1
  Bi  Bi30  1  0.729608  0.979123  0.544198  1
  Bi  Bi31  1  0.229608  0.520877  0.955802  1
  Bi  Bi32  1  0.729243  0.979298  0.955817  1
  Bi  Bi33  1  0.229243  0.520702  0.544183  1
  Bi  Bi34  1  0.270529  0.021121  0.455616  1
  Bi  Bi35  1  0.770529  0.478879  0.044384  1
