# generated using pymatgen
data_Nd4Er11Lu5Sb12
_symmetry_space_group_name_H-M   'P 1'
_cell_length_a   8.10114441
_cell_length_b   9.23200668
_cell_length_c   11.79937900
_cell_angle_alpha   90.03076419
_cell_angle_beta   89.94742263
_cell_angle_gamma   89.98417757
_symmetry_Int_Tables_number   1
_chemical_formula_structural   Nd4Er11Lu5Sb12
_chemical_formula_sum   'Nd4 Er11 Lu5 Sb12'
_cell_volume   882.47289132
_cell_formula_units_Z   1
loop_
 _symmetry_equiv_pos_site_id
 _symmetry_equiv_pos_as_xyz
  1  'x, y, z'
loop_
 _atom_site_type_symbol
 _atom_site_label
 _atom_site_symmetry_multiplicity
 _atom_site_fract_x
 _atom_site_fract_y
 _atom_site_fract_z
 _atom_site_occupancy
  Nd  Nd0  1  0.173308  0.749837  0.224770  1
  Nd  Nd1  1  0.327109  0.749776  0.724747  1
  Nd  Nd2  1  0.827362  0.249888  0.775179  1
  Nd  Nd3  1  0.672946  0.250308  0.275161  1
  Er  Er4  1  0.690015  0.939275  0.564470  1
  Er  Er5  1  0.188825  0.061052  0.935847  1
  Er  Er6  1  0.310065  0.439346  0.435509  1
  Er  Er7  1  0.189942  0.439796  0.935545  1
  Er  Er8  1  0.310037  0.059991  0.435672  1
  Er  Er9  1  0.810370  0.940145  0.064326  1
  Er  Er10  1  0.690181  0.559991  0.564237  1
  Er  Er11  1  0.664345  0.749273  0.288279  1
  Er  Er12  1  0.835403  0.749275  0.789311  1
  Er  Er13  1  0.335415  0.249546  0.711255  1
  Er  Er14  1  0.164254  0.249324  0.211142  1
  Lu  Lu15  1  0.810672  0.562671  0.064535  1
  Lu  Lu16  1  0.474775  0.749699  0.003361  1
  Lu  Lu17  1  0.026008  0.749903  0.502935  1
  Lu  Lu18  1  0.525550  0.250022  0.996719  1
  Lu  Lu19  1  0.974242  0.249947  0.496726  1
  Sb  Sb20  1  0.405586  0.749754  0.466838  1
  Sb  Sb21  1  0.094952  0.750049  0.966954  1
  Sb  Sb22  1  0.594715  0.249697  0.533171  1
  Sb  Sb23  1  0.903959  0.252776  0.033685  1
  Sb  Sb24  1  0.936210  0.507657  0.329772  1
  Sb  Sb25  1  0.563775  0.992013  0.830139  1
  Sb  Sb26  1  0.063536  0.007476  0.670021  1
  Sb  Sb27  1  0.436681  0.492183  0.169831  1
  Sb  Sb28  1  0.063625  0.492231  0.670003  1
  Sb  Sb29  1  0.436670  0.007622  0.169997  1
  Sb  Sb30  1  0.936097  0.992048  0.329878  1
  Sb  Sb31  1  0.563373  0.507430  0.829982  1
