# generated using pymatgen
data_SrU2SnBr12
_symmetry_space_group_name_H-M   'P 1'
_cell_length_a   7.61814320
_cell_length_b   7.54029479
_cell_length_c   14.07504700
_cell_angle_alpha   95.45874686
_cell_angle_beta   96.10713337
_cell_angle_gamma   120.17079589
_symmetry_Int_Tables_number   1
_chemical_formula_structural   SrU2SnBr12
_chemical_formula_sum   'Sr1 U2 Sn1 Br12'
_cell_volume   684.55526105
_cell_formula_units_Z   1
loop_
 _symmetry_equiv_pos_site_id
 _symmetry_equiv_pos_as_xyz
  1  'x, y, z'
loop_
 _atom_site_type_symbol
 _atom_site_label
 _atom_site_symmetry_multiplicity
 _atom_site_fract_x
 _atom_site_fract_y
 _atom_site_fract_z
 _atom_site_occupancy
  Sr  Sr0  1  0.166620  0.828235  0.996502  1
  U  U1  1  0.832671  0.158795  0.999993  1
  U  U2  1  0.660143  0.334884  0.499508  1
  Sn  Sn3  1  0.322068  0.666686  0.498023  1
  Br  Br4  1  0.173473  0.511739  0.115950  1
  Br  Br5  1  0.572011  0.194578  0.115667  1
  Br  Br6  1  0.894499  0.909595  0.117748  1
  Br  Br7  1  0.596381  0.581715  0.382433  1
  Br  Br8  1  0.924612  0.302848  0.385460  1
  Br  Br9  1  0.315976  0.974939  0.384463  1
  Br  Br10  1  0.023740  0.674401  0.614188  1
  Br  Br11  1  0.681516  0.059632  0.613544  1
  Br  Br12  1  0.419981  0.401241  0.617124  1
  Br  Br13  1  0.080797  0.107876  0.880381  1
  Br  Br14  1  0.791358  0.421628  0.883907  1
  Br  Br15  1  0.484158  0.811211  0.884310  1
