# generated using pymatgen
data_Hf6O
_symmetry_space_group_name_H-M   'P 1'
_cell_length_a   5.55848900
_cell_length_b   5.55848903
_cell_length_c   10.24754200
_cell_angle_alpha   90.00000000
_cell_angle_beta   90.00000000
_cell_angle_gamma   119.99999389
_symmetry_Int_Tables_number   1
_chemical_formula_structural   Hf6O
_chemical_formula_sum   'Hf12 O2'
_cell_volume   274.19773852
_cell_formula_units_Z   2
loop_
 _symmetry_equiv_pos_site_id
 _symmetry_equiv_pos_as_xyz
  1  'x, y, z'
loop_
 _atom_site_type_symbol
 _atom_site_label
 _atom_site_symmetry_multiplicity
 _atom_site_fract_x
 _atom_site_fract_y
 _atom_site_fract_z
 _atom_site_occupancy
  Hf  Hf0  1  0.667381  0.665082  0.379281  1
  Hf  Hf1  1  0.332619  0.997701  0.879281  1
  Hf  Hf2  1  0.665082  0.997701  0.620719  1
  Hf  Hf3  1  0.665082  0.667381  0.879281  1
  Hf  Hf4  1  0.334918  0.332619  0.120719  1
  Hf  Hf5  1  0.997701  0.332619  0.379281  1
  Hf  Hf6  1  0.334918  0.002299  0.379281  1
  Hf  Hf7  1  0.667381  0.002299  0.120719  1
  Hf  Hf8  1  0.002299  0.334918  0.879281  1
  Hf  Hf9  1  0.332619  0.334918  0.620719  1
  Hf  Hf10  1  0.002299  0.667381  0.620719  1
  Hf  Hf11  1  0.997701  0.665082  0.120719  1
  O  O12  1  0.666667  0.333333  0.250000  1
  O  O13  1  0.333333  0.666667  0.750000  1
