# generated using pymatgen
data_Y8V5Si16W7
_symmetry_space_group_name_H-M   'P 1'
_cell_length_a   6.71701337
_cell_length_b   6.91206893
_cell_length_c   12.95555437
_cell_angle_alpha   90.02185431
_cell_angle_beta   89.99638246
_cell_angle_gamma   90.02538382
_symmetry_Int_Tables_number   1
_chemical_formula_structural   Y8V5Si16W7
_chemical_formula_sum   'Y8 V5 Si16 W7'
_cell_volume   601.50632695
_cell_formula_units_Z   1
loop_
 _symmetry_equiv_pos_site_id
 _symmetry_equiv_pos_as_xyz
  1  'x, y, z'
loop_
 _atom_site_type_symbol
 _atom_site_label
 _atom_site_symmetry_multiplicity
 _atom_site_fract_x
 _atom_site_fract_y
 _atom_site_fract_z
 _atom_site_occupancy
  Y  Y0  1  0.499400  0.330366  0.094770  1
  Y  Y1  1  0.000051  0.169197  0.406193  1
  Y  Y2  1  0.502082  0.669413  0.593697  1
  Y  Y3  1  0.001135  0.830604  0.906130  1
  Y  Y4  1  0.503501  0.666426  0.905649  1
  Y  Y5  1  0.003567  0.833522  0.593660  1
  Y  Y6  1  0.497846  0.332240  0.405871  1
  Y  Y7  1  0.998142  0.167290  0.095147  1
  V  V8  1  0.835811  0.333934  0.626173  1
  V  V9  1  0.334391  0.164608  0.873917  1
  V  V10  1  0.164426  0.667489  0.126042  1
  V  V11  1  0.667234  0.833914  0.373321  1
  V  V12  1  0.164485  0.666988  0.373626  1
  Si  Si13  1  0.662984  0.045291  0.543460  1
  Si  Si14  1  0.164328  0.454753  0.956361  1
  Si  Si15  1  0.336077  0.954044  0.043171  1
  Si  Si16  1  0.838779  0.546816  0.455699  1
  Si  Si17  1  0.341106  0.951152  0.453955  1
  Si  Si18  1  0.842234  0.544201  0.044945  1
  Si  Si19  1  0.657328  0.043823  0.955090  1
  Si  Si20  1  0.158347  0.458936  0.543387  1
  Si  Si21  1  0.535874  0.369853  0.749707  1
  Si  Si22  1  0.036096  0.129680  0.750092  1
  Si  Si23  1  0.460131  0.631068  0.251820  1
  Si  Si24  1  0.965400  0.867724  0.251674  1
  Si  Si25  1  0.801452  0.626674  0.747707  1
  Si  Si26  1  0.301460  0.873211  0.751642  1
  Si  Si27  1  0.197902  0.378413  0.249899  1
  Si  Si28  1  0.698396  0.125182  0.252083  1
  W  W29  1  0.666664  0.833442  0.125607  1
  W  W30  1  0.833236  0.334505  0.875052  1
  W  W31  1  0.331996  0.165583  0.624752  1
  W  W32  1  0.662171  0.009623  0.749767  1
  W  W33  1  0.162186  0.490492  0.749703  1
  W  W34  1  0.336660  0.989086  0.249825  1
  W  W35  1  0.837127  0.510452  0.250406  1
