# generated using pymatgen
data_Sm6Cd15SiAg8
_symmetry_space_group_name_H-M   'P 1'
_cell_length_a   9.86969423
_cell_length_b   9.86969441
_cell_length_c   9.87793372
_cell_angle_alpha   60.02758992
_cell_angle_beta   60.02758931
_cell_angle_gamma   60.00000307
_symmetry_Int_Tables_number   1
_chemical_formula_structural   Sm6Cd15SiAg8
_chemical_formula_sum   'Sm6 Cd15 Si1 Ag8'
_cell_volume   680.67454027
_cell_formula_units_Z   1
loop_
 _symmetry_equiv_pos_site_id
 _symmetry_equiv_pos_as_xyz
  1  'x, y, z'
loop_
 _atom_site_type_symbol
 _atom_site_label
 _atom_site_symmetry_multiplicity
 _atom_site_fract_x
 _atom_site_fract_y
 _atom_site_fract_z
 _atom_site_occupancy
  Sm  Sm0  1  0.795733  0.795733  0.208862  1
  Sm  Sm1  1  0.199671  0.795733  0.208862  1
  Sm  Sm2  1  0.795733  0.199671  0.208862  1
  Sm  Sm3  1  0.206571  0.206571  0.794230  1
  Sm  Sm4  1  0.792629  0.206571  0.794230  1
  Sm  Sm5  1  0.206571  0.792629  0.794230  1
  Cd  Cd6  1  0.833350  0.500730  0.832571  1
  Cd  Cd7  1  0.500730  0.833350  0.832571  1
  Cd  Cd8  1  0.833350  0.833350  0.832571  1
  Cd  Cd9  1  0.167298  0.167298  0.498107  1
  Cd  Cd10  1  0.167152  0.498808  0.166888  1
  Cd  Cd11  1  0.498808  0.167152  0.166888  1
  Cd  Cd12  1  0.167152  0.167152  0.166888  1
  Cd  Cd13  1  0.619529  0.619529  0.141414  1
  Cd  Cd14  1  0.623689  0.134624  0.617999  1
  Cd  Cd15  1  0.134624  0.623689  0.617999  1
  Cd  Cd16  1  0.623689  0.623689  0.617999  1
  Cd  Cd17  1  0.379392  0.379392  0.861822  1
  Cd  Cd18  1  0.381352  0.858969  0.378327  1
  Cd  Cd19  1  0.858969  0.381352  0.378327  1
  Cd  Cd20  1  0.381352  0.381352  0.378327  1
  Si  Si21  1  0.001018  0.001018  0.996947  1
  Ag  Ag22  1  0.831427  0.831427  0.505720  1
  Ag  Ag23  1  0.999925  0.999925  0.498926  1
  Ag  Ag24  1  0.501225  0.999925  0.498926  1
  Ag  Ag25  1  0.999925  0.501225  0.498926  1
  Ag  Ag26  1  0.500463  0.500463  0.999582  1
  Ag  Ag27  1  0.999491  0.500463  0.999582  1
  Ag  Ag28  1  0.500463  0.999491  0.999582  1
  Ag  Ag29  1  0.498723  0.498723  0.503831  1
