# generated using pymatgen
data_YSc(B3W)2
_symmetry_space_group_name_H-M   'P 1'
_cell_length_a   3.13227000
_cell_length_b   5.39657610
_cell_length_c   6.73265671
_cell_angle_alpha   78.80252482
_cell_angle_beta   90.00000000
_cell_angle_gamma   90.00000000
_symmetry_Int_Tables_number   1
_chemical_formula_structural   YSc(B3W)2
_chemical_formula_sum   'Y1 Sc1 B6 W2'
_cell_volume   111.63924998
_cell_formula_units_Z   1
loop_
 _symmetry_equiv_pos_site_id
 _symmetry_equiv_pos_as_xyz
  1  'x, y, z'
loop_
 _atom_site_type_symbol
 _atom_site_label
 _atom_site_symmetry_multiplicity
 _atom_site_fract_x
 _atom_site_fract_y
 _atom_site_fract_z
 _atom_site_occupancy
  Y  Y0  1  0.250000  0.171604  0.299647  1
  Sc  Sc1  1  0.750000  0.809448  0.720576  1
  B  B2  1  0.250000  0.598995  0.478971  1
  B  B3  1  0.750000  0.432620  0.525073  1
  B  B4  1  0.250000  0.586028  0.989081  1
  B  B5  1  0.750000  0.410595  0.003112  1
  B  B6  1  0.250000  0.913988  0.985497  1
  B  B7  1  0.750000  0.079665  0.003448  1
  W  W8  1  0.750000  0.689748  0.218874  1
  W  W9  1  0.250000  0.307310  0.775720  1
