# generated using pymatgen
data_Nd5Ta3(Co4P3)4
_symmetry_space_group_name_H-M   'P 1'
_cell_length_a   12.29389000
_cell_length_b   12.29388996
_cell_length_c   3.75263800
_cell_angle_alpha   90.00000000
_cell_angle_beta   90.00000000
_cell_angle_gamma   120.00000012
_symmetry_Int_Tables_number   1
_chemical_formula_structural   Nd5Ta3(Co4P3)4
_chemical_formula_sum   'Nd5 Ta3 Co16 P12'
_cell_volume   491.18596339
_cell_formula_units_Z   1
loop_
 _symmetry_equiv_pos_site_id
 _symmetry_equiv_pos_as_xyz
  1  'x, y, z'
loop_
 _atom_site_type_symbol
 _atom_site_label
 _atom_site_symmetry_multiplicity
 _atom_site_fract_x
 _atom_site_fract_y
 _atom_site_fract_z
 _atom_site_occupancy
  Nd  Nd0  1  0.815250  0.000000  0.500000  1
  Nd  Nd1  1  0.000000  0.815250  0.500000  1
  Nd  Nd2  1  0.184750  0.184750  0.500000  1
  Nd  Nd3  1  0.333333  0.666667  0.000000  1
  Nd  Nd4  1  0.666667  0.333333  0.000000  1
  Ta  Ta5  1  0.441321  0.000000  0.000000  1
  Ta  Ta6  1  0.000000  0.441321  0.000000  1
  Ta  Ta7  1  0.558679  0.558679  0.000000  1
  Co  Co8  1  0.281853  0.000000  0.500000  1
  Co  Co9  1  0.000000  0.281853  0.500000  1
  Co  Co10  1  0.718147  0.718147  0.500000  1
  Co  Co11  1  0.624102  0.800650  0.000000  1
  Co  Co12  1  0.199350  0.823452  0.000000  1
  Co  Co13  1  0.176548  0.375898  0.000000  1
  Co  Co14  1  0.375898  0.176548  0.000000  1
  Co  Co15  1  0.800650  0.624102  0.000000  1
  Co  Co16  1  0.823452  0.199350  0.000000  1
  Co  Co17  1  0.519164  0.875467  0.500000  1
  Co  Co18  1  0.124533  0.643696  0.500000  1
  Co  Co19  1  0.356304  0.480836  0.500000  1
  Co  Co20  1  0.480836  0.356304  0.500000  1
  Co  Co21  1  0.875467  0.519164  0.500000  1
  Co  Co22  1  0.643696  0.124533  0.500000  1
  Co  Co23  1  0.000000  0.000000  0.000000  1
  P  P24  1  0.180807  0.000000  0.000000  1
  P  P25  1  0.000000  0.180807  0.000000  1
  P  P26  1  0.819193  0.819193  0.000000  1
  P  P27  1  0.523176  0.689600  0.500000  1
  P  P28  1  0.310400  0.833576  0.500000  1
  P  P29  1  0.166424  0.476824  0.500000  1
  P  P30  1  0.476824  0.166424  0.500000  1
  P  P31  1  0.689600  0.523176  0.500000  1
  P  P32  1  0.833576  0.310400  0.500000  1
  P  P33  1  0.639950  0.000000  0.000000  1
  P  P34  1  0.000000  0.639950  0.000000  1
  P  P35  1  0.360050  0.360050  0.000000  1
