# generated using pymatgen
data_Sr5Ce(BiO6)2
_symmetry_space_group_name_H-M   'P 1'
_cell_length_a   6.03524530
_cell_length_b   6.22339963
_cell_length_c   8.61494850
_cell_angle_alpha   89.69312116
_cell_angle_beta   90.02725678
_cell_angle_gamma   89.90984010
_symmetry_Int_Tables_number   1
_chemical_formula_structural   Sr5Ce(BiO6)2
_chemical_formula_sum   'Sr5 Ce1 Bi2 O12'
_cell_volume   323.57017472
_cell_formula_units_Z   1
loop_
 _symmetry_equiv_pos_site_id
 _symmetry_equiv_pos_as_xyz
  1  'x, y, z'
loop_
 _atom_site_type_symbol
 _atom_site_label
 _atom_site_symmetry_multiplicity
 _atom_site_fract_x
 _atom_site_fract_y
 _atom_site_fract_z
 _atom_site_occupancy
  Sr  Sr0  1  0.000000  0.000000  0.000000  1
  Sr  Sr1  1  0.984361  0.448700  0.241463  1
  Sr  Sr2  1  0.514250  0.952537  0.244044  1
  Sr  Sr3  1  0.485750  0.047463  0.755956  1
  Sr  Sr4  1  0.015639  0.551300  0.758537  1
  Ce  Ce5  1  0.500000  0.500000  0.500000  1
  Bi  Bi6  1  0.500000  0.500000  0.000000  1
  Bi  Bi7  1  0.000000  0.000000  0.500000  1
  O  O8  1  0.888796  0.952457  0.727118  1
  O  O9  1  0.794121  0.718646  0.435171  1
  O  O10  1  0.786141  0.679938  0.048366  1
  O  O11  1  0.715545  0.210283  0.443378  1
  O  O12  1  0.675313  0.216267  0.056723  1
  O  O13  1  0.602619  0.457901  0.748965  1
  O  O14  1  0.397381  0.542099  0.251035  1
  O  O15  1  0.324687  0.783733  0.943277  1
  O  O16  1  0.284455  0.789717  0.556622  1
  O  O17  1  0.213859  0.320062  0.951634  1
  O  O18  1  0.205879  0.281354  0.564829  1
  O  O19  1  0.111204  0.047543  0.272882  1
