# generated using pymatgen
data_Cs6Rb3InBi4
_symmetry_space_group_name_H-M   'P 1'
_cell_length_a   11.66142000
_cell_length_b   11.66142040
_cell_length_c   12.22850800
_cell_angle_alpha   90.00000000
_cell_angle_beta   90.00000000
_cell_angle_gamma   119.99999320
_symmetry_Int_Tables_number   1
_chemical_formula_structural   Cs6Rb3InBi4
_chemical_formula_sum   'Cs12 Rb6 In2 Bi8'
_cell_volume   1440.14765898
_cell_formula_units_Z   2
loop_
 _symmetry_equiv_pos_site_id
 _symmetry_equiv_pos_as_xyz
  1  'x, y, z'
loop_
 _atom_site_type_symbol
 _atom_site_label
 _atom_site_symmetry_multiplicity
 _atom_site_fract_x
 _atom_site_fract_y
 _atom_site_fract_z
 _atom_site_occupancy
  Cs  Cs0  1  0.208669  0.417335  0.541762  1
  Cs  Cs1  1  0.791331  0.208669  0.041762  1
  Cs  Cs2  1  0.417335  0.208669  0.041762  1
  Cs  Cs3  1  0.582665  0.791331  0.541762  1
  Cs  Cs4  1  0.208669  0.791331  0.541762  1
  Cs  Cs5  1  0.791331  0.582665  0.458238  1
  Cs  Cs6  1  0.791331  0.208669  0.458238  1
  Cs  Cs7  1  0.791331  0.582665  0.041762  1
  Cs  Cs8  1  0.417335  0.208669  0.458238  1
  Cs  Cs9  1  0.582665  0.791331  0.958238  1
  Cs  Cs10  1  0.208669  0.417335  0.958238  1
  Cs  Cs11  1  0.208669  0.791331  0.958238  1
  Rb  Rb12  1  0.119133  0.238265  0.250000  1
  Rb  Rb13  1  0.880867  0.119133  0.750000  1
  Rb  Rb14  1  0.238265  0.119133  0.750000  1
  Rb  Rb15  1  0.761735  0.880867  0.250000  1
  Rb  Rb16  1  0.119133  0.880867  0.250000  1
  Rb  Rb17  1  0.880867  0.761735  0.750000  1
  In  In18  1  0.333333  0.666667  0.250000  1
  In  In19  1  0.666667  0.333333  0.750000  1
  Bi  Bi20  1  0.479871  0.520129  0.250000  1
  Bi  Bi21  1  0.959739  0.479871  0.750000  1
  Bi  Bi22  1  0.520129  0.040261  0.750000  1
  Bi  Bi23  1  0.479871  0.959739  0.250000  1
  Bi  Bi24  1  0.040261  0.520129  0.250000  1
  Bi  Bi25  1  0.520129  0.479871  0.750000  1
  Bi  Bi26  1  0.000000  0.000000  0.000000  1
  Bi  Bi27  1  0.000000  0.000000  0.500000  1
