# generated using pymatgen
data_HoErIn2(SbO4)4
_symmetry_space_group_name_H-M   'P 1'
_cell_length_a   5.34803218
_cell_length_b   7.54276547
_cell_length_c   7.61602947
_cell_angle_alpha   80.48027326
_cell_angle_beta   92.50998373
_cell_angle_gamma   88.40700366
_symmetry_Int_Tables_number   1
_chemical_formula_structural   HoErIn2(SbO4)4
_chemical_formula_sum   'Ho1 Er1 In2 Sb4 O16'
_cell_volume   302.50960491
_cell_formula_units_Z   1
loop_
 _symmetry_equiv_pos_site_id
 _symmetry_equiv_pos_as_xyz
  1  'x, y, z'
loop_
 _atom_site_type_symbol
 _atom_site_label
 _atom_site_symmetry_multiplicity
 _atom_site_fract_x
 _atom_site_fract_y
 _atom_site_fract_z
 _atom_site_occupancy
  Ho  Ho0  1  0.255063  0.619867  0.128502  1
  Er  Er1  1  0.744834  0.379707  0.871493  1
  In  In2  1  0.777109  0.870844  0.830356  1
  In  In3  1  0.222649  0.129393  0.169354  1
  Sb  Sb4  1  0.747752  0.811374  0.326004  1
  Sb  Sb5  1  0.252226  0.188841  0.674255  1
  Sb  Sb6  1  0.272803  0.689017  0.659446  1
  Sb  Sb7  1  0.727146  0.310701  0.340686  1
  O  O8  1  0.430852  0.886951  0.188112  1
  O  O9  1  0.569414  0.113579  0.812049  1
  O  O10  1  0.005428  0.612970  0.826472  1
  O  O11  1  0.993857  0.386386  0.173285  1
  O  O12  1  0.924443  0.812405  0.101076  1
  O  O13  1  0.074588  0.188187  0.898857  1
  O  O14  1  0.490505  0.672946  0.886549  1
  O  O15  1  0.510321  0.326878  0.112785  1
  O  O16  1  0.597781  0.565147  0.326321  1
  O  O17  1  0.403183  0.434734  0.674201  1
  O  O18  1  0.122227  0.938508  0.678911  1
  O  O19  1  0.877850  0.061436  0.321221  1
  O  O20  1  0.591732  0.807427  0.563208  1
  O  O21  1  0.408287  0.192650  0.436703  1
  O  O22  1  0.080110  0.689724  0.429304  1
  O  O23  1  0.919839  0.310327  0.570849  1
