# generated using pymatgen
data_Gd10FeNiSb4
_symmetry_space_group_name_H-M   'P 1'
_cell_length_a   7.90985300
_cell_length_b   8.77359800
_cell_length_c   12.19044100
_cell_angle_alpha   90.00000000
_cell_angle_beta   90.00000000
_cell_angle_gamma   90.00000000
_symmetry_Int_Tables_number   1
_chemical_formula_structural   Gd10FeNiSb4
_chemical_formula_sum   'Gd20 Fe2 Ni2 Sb8'
_cell_volume   845.99064538
_cell_formula_units_Z   2
loop_
 _symmetry_equiv_pos_site_id
 _symmetry_equiv_pos_as_xyz
  1  'x, y, z'
loop_
 _atom_site_type_symbol
 _atom_site_label
 _atom_site_symmetry_multiplicity
 _atom_site_fract_x
 _atom_site_fract_y
 _atom_site_fract_z
 _atom_site_occupancy
  Gd  Gd0  1  0.154542  0.750000  0.206819  1
  Gd  Gd1  1  0.345458  0.750000  0.706819  1
  Gd  Gd2  1  0.846747  0.250000  0.795337  1
  Gd  Gd3  1  0.653253  0.250000  0.295337  1
  Gd  Gd4  1  0.456620  0.750000  0.997755  1
  Gd  Gd5  1  0.043380  0.750000  0.497755  1
  Gd  Gd6  1  0.546700  0.250000  0.003574  1
  Gd  Gd7  1  0.953300  0.250000  0.503574  1
  Gd  Gd8  1  0.627247  0.750000  0.301444  1
  Gd  Gd9  1  0.872753  0.750000  0.801444  1
  Gd  Gd10  1  0.376602  0.250000  0.694885  1
  Gd  Gd11  1  0.123398  0.250000  0.194885  1
  Gd  Gd12  1  0.819009  0.531665  0.065116  1
  Gd  Gd13  1  0.680991  0.968335  0.565116  1
  Gd  Gd14  1  0.183761  0.040570  0.934718  1
  Gd  Gd15  1  0.316239  0.459430  0.434718  1
  Gd  Gd16  1  0.183761  0.459430  0.934718  1
  Gd  Gd17  1  0.316239  0.040570  0.434718  1
  Gd  Gd18  1  0.819009  0.968335  0.065116  1
  Gd  Gd19  1  0.680991  0.531665  0.565116  1
  Fe  Fe20  1  0.570008  0.250000  0.510697  1
  Fe  Fe21  1  0.929992  0.250000  0.010697  1
  Ni  Ni22  1  0.431331  0.750000  0.488159  1
  Ni  Ni23  1  0.068669  0.750000  0.988159  1
  Sb  Sb24  1  0.926195  0.507243  0.327660  1
  Sb  Sb25  1  0.573805  0.992757  0.827660  1
  Sb  Sb26  1  0.074185  0.006786  0.673170  1
  Sb  Sb27  1  0.425815  0.493214  0.173170  1
  Sb  Sb28  1  0.074185  0.493214  0.673170  1
  Sb  Sb29  1  0.425815  0.006786  0.173170  1
  Sb  Sb30  1  0.926195  0.992757  0.327660  1
  Sb  Sb31  1  0.573805  0.507243  0.827660  1
