# generated using pymatgen
data_YEr15(In3Fe)2
_symmetry_space_group_name_H-M   'P 1'
_cell_length_a   10.24128274
_cell_length_b   10.25860476
_cell_length_c   6.99628150
_cell_angle_alpha   89.97272298
_cell_angle_beta   90.04258549
_cell_angle_gamma   119.95366562
_symmetry_Int_Tables_number   1
_chemical_formula_structural   YEr15(In3Fe)2
_chemical_formula_sum   'Y1 Er15 In6 Fe2'
_cell_volume   636.85860126
_cell_formula_units_Z   1
loop_
 _symmetry_equiv_pos_site_id
 _symmetry_equiv_pos_as_xyz
  1  'x, y, z'
loop_
 _atom_site_type_symbol
 _atom_site_label
 _atom_site_symmetry_multiplicity
 _atom_site_fract_x
 _atom_site_fract_y
 _atom_site_fract_z
 _atom_site_occupancy
  Y  Y0  1  0.534707  0.069382  0.791653  1
  Er  Er1  1  0.929215  0.464553  0.792299  1
  Er  Er2  1  0.535367  0.464576  0.792206  1
  Er  Er3  1  0.463958  0.927870  0.292049  1
  Er  Er4  1  0.071140  0.535858  0.292672  1
  Er  Er5  1  0.464712  0.535839  0.292598  1
  Er  Er6  1  0.821483  0.642901  0.497559  1
  Er  Er7  1  0.357680  0.179301  0.496011  1
  Er  Er8  1  0.821647  0.179289  0.496036  1
  Er  Er9  1  0.179037  0.358168  0.997512  1
  Er  Er10  1  0.642485  0.820507  0.997554  1
  Er  Er11  1  0.177993  0.820471  0.997615  1
  Er  Er12  1  0.666961  0.333970  0.181709  1
  Er  Er13  1  0.332711  0.665396  0.680583  1
  Er  Er14  1  0.999927  0.999929  0.778444  1
  Er  Er15  1  0.999841  0.999699  0.278588  1
  In  In16  1  0.836489  0.672897  0.040810  1
  In  In17  1  0.326011  0.162863  0.040856  1
  In  In18  1  0.836887  0.162907  0.041117  1
  In  In19  1  0.163147  0.326522  0.541326  1
  In  In20  1  0.673155  0.837215  0.541366  1
  In  In21  1  0.163953  0.837351  0.541563  1
  Fe  Fe22  1  0.667831  0.335515  0.566246  1
  Fe  Fe23  1  0.333662  0.667019  0.067535  1
