# generated using pymatgen
data_Sr2Ga6PdPt
_symmetry_space_group_name_H-M   'P 1'
_cell_length_a   6.21032626
_cell_length_b   6.21032522
_cell_length_c   6.07102200
_cell_angle_alpha   90.00000000
_cell_angle_beta   90.00000000
_cell_angle_gamma   117.28888161
_symmetry_Int_Tables_number   1
_chemical_formula_structural   Sr2Ga6PdPt
_chemical_formula_sum   'Sr2 Ga6 Pd1 Pt1'
_cell_volume   208.08883823
_cell_formula_units_Z   1
loop_
 _symmetry_equiv_pos_site_id
 _symmetry_equiv_pos_as_xyz
  1  'x, y, z'
loop_
 _atom_site_type_symbol
 _atom_site_label
 _atom_site_symmetry_multiplicity
 _atom_site_fract_x
 _atom_site_fract_y
 _atom_site_fract_z
 _atom_site_occupancy
  Sr  Sr0  1  0.234692  0.765308  0.750000  1
  Sr  Sr1  1  0.765350  0.234650  0.250000  1
  Ga  Ga2  1  0.662700  0.337300  0.750000  1
  Ga  Ga3  1  0.338420  0.661580  0.250000  1
  Ga  Ga4  1  0.720165  0.720766  0.000071  1
  Ga  Ga5  1  0.720165  0.720766  0.499929  1
  Ga  Ga6  1  0.279234  0.279835  0.000071  1
  Ga  Ga7  1  0.279234  0.279835  0.499929  1
  Pd  Pd8  1  0.100019  0.899981  0.250000  1
  Pt  Pt9  1  0.900020  0.099980  0.750000  1
