# generated using pymatgen
data_Tb10Co3Rh
_symmetry_space_group_name_H-M   'P 1'
_cell_length_a   6.31913831
_cell_length_b   6.95776243
_cell_length_c   8.60898837
_cell_angle_alpha   96.29822876
_cell_angle_beta   111.65201017
_cell_angle_gamma   90.11985404
_symmetry_Int_Tables_number   1
_chemical_formula_structural   Tb10Co3Rh
_chemical_formula_sum   'Tb10 Co3 Rh1'
_cell_volume   349.31006725
_cell_formula_units_Z   1
loop_
 _symmetry_equiv_pos_site_id
 _symmetry_equiv_pos_as_xyz
  1  'x, y, z'
loop_
 _atom_site_type_symbol
 _atom_site_label
 _atom_site_symmetry_multiplicity
 _atom_site_fract_x
 _atom_site_fract_y
 _atom_site_fract_z
 _atom_site_occupancy
  Tb  Tb0  1  0.988625  0.921258  0.187608  1
  Tb  Tb1  1  0.797666  0.589124  0.811662  1
  Tb  Tb2  1  0.013921  0.087933  0.811319  1
  Tb  Tb3  1  0.215021  0.410613  0.189100  1
  Tb  Tb4  1  0.643543  0.818233  0.434439  1
  Tb  Tb5  1  0.216799  0.685400  0.568920  1
  Tb  Tb6  1  0.350292  0.185380  0.568380  1
  Tb  Tb7  1  0.783208  0.309167  0.437508  1
  Tb  Tb8  1  0.424129  0.752761  0.997128  1
  Tb  Tb9  1  0.569240  0.243425  0.995804  1
  Co  Co10  1  0.598763  0.926693  0.776592  1
  Co  Co11  1  0.176859  0.428483  0.778037  1
  Co  Co12  1  0.402415  0.072544  0.222438  1
  Rh  Rh13  1  0.819519  0.568985  0.221065  1
