# generated using pymatgen
data_Dy4Er8InCo4Rh
_symmetry_space_group_name_H-M   'P 1'
_cell_length_a   8.24124313
_cell_length_b   8.24156972
_cell_length_c   8.24124518
_cell_angle_alpha   110.81733312
_cell_angle_beta   110.88925008
_cell_angle_gamma   106.73957409
_symmetry_Int_Tables_number   1
_chemical_formula_structural   Dy4Er8InCo4Rh
_chemical_formula_sum   'Dy4 Er8 In1 Co4 Rh1'
_cell_volume   430.17532257
_cell_formula_units_Z   1
loop_
 _symmetry_equiv_pos_site_id
 _symmetry_equiv_pos_as_xyz
  1  'x, y, z'
loop_
 _atom_site_type_symbol
 _atom_site_label
 _atom_site_symmetry_multiplicity
 _atom_site_fract_x
 _atom_site_fract_y
 _atom_site_fract_z
 _atom_site_occupancy
  Dy  Dy0  1  0.186736  0.289429  0.476169  1
  Dy  Dy1  1  0.813264  0.710571  0.523831  1
  Dy  Dy2  1  0.186741  0.710571  0.897307  1
  Dy  Dy3  1  0.813259  0.289429  0.102693  1
  Er  Er4  1  0.314309  0.619692  0.305383  1
  Er  Er5  1  0.685691  0.380308  0.694617  1
  Er  Er6  1  0.314307  0.008932  0.694624  1
  Er  Er7  1  0.685693  0.991068  0.305376  1
  Er  Er8  1  0.409550  0.214828  0.194735  1
  Er  Er9  1  0.590450  0.785172  0.805265  1
  Er  Er10  1  0.020093  0.214828  0.805278  1
  Er  Er11  1  0.979907  0.785172  0.194722  1
  In  In12  1  0.500000  0.500000  0.000000  1
  Co  Co13  1  0.112468  0.612472  0.500003  1
  Co  Co14  1  0.887532  0.387528  0.499997  1
  Co  Co15  1  0.378603  0.000000  0.378603  1
  Co  Co16  1  0.621397  0.000000  0.621397  1
  Rh  Rh17  1  0.000000  0.000000  0.000000  1
