# generated using pymatgen
data_Cs2CrCuSe4
_symmetry_space_group_name_H-M   'P 1'
_cell_length_a   14.69663629
_cell_length_b   13.08370806
_cell_length_c   7.81914259
_cell_angle_alpha   85.42189542
_cell_angle_beta   62.54975655
_cell_angle_gamma   32.02834275
_symmetry_Int_Tables_number   1
_chemical_formula_structural   Cs2CrCuSe4
_chemical_formula_sum   'Cs4 Cr2 Cu2 Se8'
_cell_volume   531.09406451
_cell_formula_units_Z   2
loop_
 _symmetry_equiv_pos_site_id
 _symmetry_equiv_pos_as_xyz
  1  'x, y, z'
loop_
 _atom_site_type_symbol
 _atom_site_label
 _atom_site_symmetry_multiplicity
 _atom_site_fract_x
 _atom_site_fract_y
 _atom_site_fract_z
 _atom_site_occupancy
  Cs  Cs0  1  0.571786  0.571786  0.928214  1
  Cs  Cs1  1  0.928214  0.928214  0.571786  1
  Cs  Cs2  1  0.321786  0.321786  0.678214  1
  Cs  Cs3  1  0.678214  0.678214  0.321786  1
  Cr  Cr4  1  0.750000  0.750000  0.750000  1
  Cr  Cr5  1  0.500000  0.500000  0.500000  1
  Cu  Cu6  1  0.000000  0.000000  0.000000  1
  Cu  Cu7  1  0.250000  0.250000  0.250000  1
  Se  Se8  1  0.228420  0.874865  0.589497  1
  Se  Se9  1  0.307218  0.589497  0.874865  1
  Se  Se10  1  0.589497  0.307218  0.228420  1
  Se  Se11  1  0.874865  0.228420  0.307218  1
  Se  Se12  1  0.375135  0.021580  0.942782  1
  Se  Se13  1  0.942782  0.660503  0.375135  1
  Se  Se14  1  0.660503  0.942782  0.021580  1
  Se  Se15  1  0.021580  0.375135  0.660503  1
