# generated using pymatgen
data_Li2ZnSiS4
_symmetry_space_group_name_H-M   'P 1'
_cell_length_a   6.49940500
_cell_length_b   6.23444189
_cell_length_c   9.96994049
_cell_angle_alpha   51.71536802
_cell_angle_beta   90.00000000
_cell_angle_gamma   90.00000000
_symmetry_Int_Tables_number   1
_chemical_formula_structural   Li2ZnSiS4
_chemical_formula_sum   'Li4 Zn2 Si2 S8'
_cell_volume   317.10393906
_cell_formula_units_Z   2
loop_
 _symmetry_equiv_pos_site_id
 _symmetry_equiv_pos_as_xyz
  1  'x, y, z'
loop_
 _atom_site_type_symbol
 _atom_site_label
 _atom_site_symmetry_multiplicity
 _atom_site_fract_x
 _atom_site_fract_y
 _atom_site_fract_z
 _atom_site_occupancy
  Li  Li0  1  0.677119  0.102368  0.171774  1
  Li  Li1  1  0.322881  0.102368  0.671774  1
  Li  Li2  1  0.848113  0.860019  0.923412  1
  Li  Li3  1  0.151887  0.860019  0.423412  1
  Zn  Zn4  1  0.683606  0.599209  0.679319  1
  Zn  Zn5  1  0.316394  0.599209  0.179319  1
  Si  Si6  1  0.818647  0.353814  0.425150  1
  Si  Si7  1  0.181353  0.353814  0.925150  1
  S  S8  1  0.868305  0.468052  0.922270  1
  S  S9  1  0.131695  0.468052  0.422270  1
  S  S10  1  0.677537  0.245202  0.653622  1
  S  S11  1  0.322463  0.245202  0.153622  1
  S  S12  1  0.808323  0.005953  0.428275  1
  S  S13  1  0.191677  0.005953  0.928275  1
  S  S14  1  0.666846  0.688723  0.198130  1
  S  S15  1  0.333154  0.688723  0.698130  1
