# generated using pymatgen
data_HoTh3(MgNi2)2
_symmetry_space_group_name_H-M   'P 1'
_cell_length_a   7.56293072
_cell_length_b   7.56293072
_cell_length_c   3.67667400
_cell_angle_alpha   90.00000000
_cell_angle_beta   90.00000000
_cell_angle_gamma   90.87746098
_symmetry_Int_Tables_number   1
_chemical_formula_structural   HoTh3(MgNi2)2
_chemical_formula_sum   'Ho1 Th3 Mg2 Ni4'
_cell_volume   210.27344857
_cell_formula_units_Z   1
loop_
 _symmetry_equiv_pos_site_id
 _symmetry_equiv_pos_as_xyz
  1  'x, y, z'
loop_
 _atom_site_type_symbol
 _atom_site_label
 _atom_site_symmetry_multiplicity
 _atom_site_fract_x
 _atom_site_fract_y
 _atom_site_fract_z
 _atom_site_occupancy
  Ho  Ho0  1  0.829171  0.670829  0.500000  1
  Th  Th1  1  0.673118  0.169901  0.500000  1
  Th  Th2  1  0.330099  0.826882  0.500000  1
  Th  Th3  1  0.167656  0.332344  0.500000  1
  Mg  Mg4  1  0.997717  0.991952  0.000000  1
  Mg  Mg5  1  0.508048  0.502283  0.000000  1
  Ni  Ni6  1  0.128378  0.624769  0.000000  1
  Ni  Ni7  1  0.875231  0.371622  0.000000  1
  Ni  Ni8  1  0.619688  0.880312  0.000000  1
  Ni  Ni9  1  0.370895  0.129105  0.000000  1
