# generated using pymatgen
data_Ba(MoSe)6
_symmetry_space_group_name_H-M   'P 1'
_cell_length_a   9.07413200
_cell_length_b   9.07413128
_cell_length_c   4.53411100
_cell_angle_alpha   90.00000000
_cell_angle_beta   90.00000000
_cell_angle_gamma   120.00000262
_symmetry_Int_Tables_number   1
_chemical_formula_structural   Ba(MoSe)6
_chemical_formula_sum   'Ba1 Mo6 Se6'
_cell_volume   323.32025971
_cell_formula_units_Z   1
loop_
 _symmetry_equiv_pos_site_id
 _symmetry_equiv_pos_as_xyz
  1  'x, y, z'
loop_
 _atom_site_type_symbol
 _atom_site_label
 _atom_site_symmetry_multiplicity
 _atom_site_fract_x
 _atom_site_fract_y
 _atom_site_fract_z
 _atom_site_occupancy
  Ba  Ba0  1  0.666667  0.333333  0.500000  1
  Mo  Mo1  1  0.181438  0.481922  0.000000  1
  Mo  Mo2  1  0.518078  0.699517  0.000000  1
  Mo  Mo3  1  0.300483  0.818562  0.000000  1
  Mo  Mo4  1  0.483348  0.849573  0.500000  1
  Mo  Mo5  1  0.150427  0.633775  0.500000  1
  Mo  Mo6  1  0.366225  0.516652  0.500000  1
  Se  Se7  1  0.400715  0.368953  0.000000  1
  Se  Se8  1  0.631047  0.031761  0.000000  1
  Se  Se9  1  0.968239  0.599285  0.000000  1
  Se  Se10  1  0.267937  0.963745  0.500000  1
  Se  Se11  1  0.036255  0.304192  0.500000  1
  Se  Se12  1  0.695808  0.732063  0.500000  1
