# generated using pymatgen
data_Hf8Ta9Nb3Si15Ge
_symmetry_space_group_name_H-M   'P 1'
_cell_length_a   6.66564225
_cell_length_b   6.85407107
_cell_length_c   13.07104022
_cell_angle_alpha   89.98706760
_cell_angle_beta   90.01627303
_cell_angle_gamma   90.01814018
_symmetry_Int_Tables_number   1
_chemical_formula_structural   Hf8Ta9Nb3Si15Ge
_chemical_formula_sum   'Hf8 Ta9 Nb3 Si15 Ge1'
_cell_volume   597.17374371
_cell_formula_units_Z   1
loop_
 _symmetry_equiv_pos_site_id
 _symmetry_equiv_pos_as_xyz
  1  'x, y, z'
loop_
 _atom_site_type_symbol
 _atom_site_label
 _atom_site_symmetry_multiplicity
 _atom_site_fract_x
 _atom_site_fract_y
 _atom_site_fract_z
 _atom_site_occupancy
  Hf  Hf0  1  0.496134  0.673753  0.593894  1
  Hf  Hf1  1  0.996223  0.826062  0.906352  1
  Hf  Hf2  1  0.501646  0.326686  0.092723  1
  Hf  Hf3  1  0.006950  0.170352  0.408755  1
  Hf  Hf4  1  0.502061  0.326990  0.407519  1
  Hf  Hf5  1  0.006896  0.170237  0.091073  1
  Hf  Hf6  1  0.495944  0.673381  0.906058  1
  Hf  Hf7  1  0.995863  0.826356  0.593339  1
  Ta  Ta8  1  0.662040  0.170820  0.623802  1
  Ta  Ta9  1  0.162197  0.329522  0.876224  1
  Ta  Ta10  1  0.336926  0.830132  0.123441  1
  Ta  Ta11  1  0.838057  0.673093  0.377040  1
  Ta  Ta12  1  0.336885  0.830055  0.376692  1
  Ta  Ta13  1  0.837130  0.498352  0.750008  1
  Ta  Ta14  1  0.337118  0.002308  0.749964  1
  Ta  Ta15  1  0.165796  0.503890  0.250234  1
  Ta  Ta16  1  0.660544  0.994117  0.250152  1
  Nb  Nb17  1  0.838124  0.672783  0.122741  1
  Nb  Nb18  1  0.662294  0.170819  0.876484  1
  Nb  Nb19  1  0.162245  0.329736  0.623510  1
  Si  Si20  1  0.672127  0.963609  0.461702  1
  Si  Si21  1  0.172432  0.537147  0.038562  1
  Si  Si22  1  0.327230  0.036704  0.960771  1
  Si  Si23  1  0.826730  0.463221  0.538642  1
  Si  Si24  1  0.327662  0.036649  0.539361  1
  Si  Si25  1  0.827242  0.463362  0.961159  1
  Si  Si26  1  0.671686  0.963773  0.038498  1
  Si  Si27  1  0.172112  0.536883  0.461290  1
  Si  Si28  1  0.461459  0.387840  0.750061  1
  Si  Si29  1  0.961329  0.112907  0.749910  1
  Si  Si30  1  0.537882  0.614682  0.250049  1
  Si  Si31  1  0.038295  0.887866  0.249925  1
  Si  Si32  1  0.703216  0.860777  0.749954  1
  Si  Si33  1  0.202585  0.639655  0.750063  1
  Si  Si34  1  0.297074  0.140174  0.250005  1
  Ge  Ge35  1  0.799864  0.355300  0.250043  1
