# generated using pymatgen
data_Lu3MnCo3
_symmetry_space_group_name_H-M   'P 1'
_cell_length_a   5.31128800
_cell_length_b   5.31128888
_cell_length_c   12.80256600
_cell_angle_alpha   90.00000000
_cell_angle_beta   90.00000000
_cell_angle_gamma   136.01679779
_symmetry_Int_Tables_number   1
_chemical_formula_structural   Lu3MnCo3
_chemical_formula_sum   'Lu6 Mn2 Co6'
_cell_volume   250.80499595
_cell_formula_units_Z   2
loop_
 _symmetry_equiv_pos_site_id
 _symmetry_equiv_pos_as_xyz
  1  'x, y, z'
loop_
 _atom_site_type_symbol
 _atom_site_label
 _atom_site_symmetry_multiplicity
 _atom_site_fract_x
 _atom_site_fract_y
 _atom_site_fract_z
 _atom_site_occupancy
  Lu  Lu0  1  0.294366  0.705635  0.104133  1
  Lu  Lu1  1  0.007555  0.992446  0.250000  1
  Lu  Lu2  1  0.294366  0.705635  0.395867  1
  Lu  Lu3  1  0.705635  0.294366  0.604133  1
  Lu  Lu4  1  0.992446  0.007555  0.750000  1
  Lu  Lu5  1  0.705635  0.294366  0.895867  1
  Mn  Mn6  1  0.000000  0.000000  0.000000  1
  Mn  Mn7  1  0.000000  0.000000  0.500000  1
  Co  Co8  1  0.583909  0.416092  0.093792  1
  Co  Co9  1  0.709218  0.290783  0.250000  1
  Co  Co10  1  0.583909  0.416092  0.406209  1
  Co  Co11  1  0.416092  0.583909  0.593792  1
  Co  Co12  1  0.290783  0.709218  0.750000  1
  Co  Co13  1  0.416092  0.583909  0.906208  1
