# generated using pymatgen
data_Hf3Ga3NiOsPd
_symmetry_space_group_name_H-M   'P 1'
_cell_length_a   7.29303500
_cell_length_b   7.29303425
_cell_length_c   6.52236400
_cell_angle_alpha   90.00000000
_cell_angle_beta   90.00000000
_cell_angle_gamma   119.99999888
_symmetry_Int_Tables_number   1
_chemical_formula_structural   Hf3Ga3NiOsPd
_chemical_formula_sum   'Hf6 Ga6 Ni2 Os2 Pd2'
_cell_volume   300.43617186
_cell_formula_units_Z   2
loop_
 _symmetry_equiv_pos_site_id
 _symmetry_equiv_pos_as_xyz
  1  'x, y, z'
loop_
 _atom_site_type_symbol
 _atom_site_label
 _atom_site_symmetry_multiplicity
 _atom_site_fract_x
 _atom_site_fract_y
 _atom_site_fract_z
 _atom_site_occupancy
  Hf  Hf0  1  0.605622  0.617458  0.250000  1
  Hf  Hf1  1  0.013421  0.391437  0.750000  1
  Hf  Hf2  1  0.382542  0.988164  0.250000  1
  Hf  Hf3  1  0.011836  0.394378  0.250000  1
  Hf  Hf4  1  0.378015  0.986579  0.750000  1
  Hf  Hf5  1  0.608563  0.621985  0.750000  1
  Ga  Ga6  1  0.265531  0.260927  0.500489  1
  Ga  Ga7  1  0.739073  0.004604  0.500489  1
  Ga  Ga8  1  0.995396  0.734469  0.500489  1
  Ga  Ga9  1  0.739073  0.004604  0.999511  1
  Ga  Ga10  1  0.265531  0.260927  0.999511  1
  Ga  Ga11  1  0.995396  0.734469  0.999511  1
  Ni  Ni12  1  0.000000  0.000000  0.750000  1
  Ni  Ni13  1  0.000000  0.000000  0.250000  1
  Os  Os14  1  0.333333  0.666667  0.499786  1
  Os  Os15  1  0.333333  0.666667  0.000214  1
  Pd  Pd16  1  0.666667  0.333333  0.502225  1
  Pd  Pd17  1  0.666667  0.333333  0.997775  1
