# generated using pymatgen
data_Dy7Er(Tm3Pt4)4
_symmetry_space_group_name_H-M   'P 1'
_cell_length_a   7.42907301
_cell_length_b   7.52211501
_cell_length_c   14.63251800
_cell_angle_alpha   89.99869097
_cell_angle_beta   90.00207114
_cell_angle_gamma   90.00649175
_symmetry_Int_Tables_number   1
_chemical_formula_structural   Dy7Er(Tm3Pt4)4
_chemical_formula_sum   'Dy7 Er1 Tm12 Pt16'
_cell_volume   817.69936414
_cell_formula_units_Z   1
loop_
 _symmetry_equiv_pos_site_id
 _symmetry_equiv_pos_as_xyz
  1  'x, y, z'
loop_
 _atom_site_type_symbol
 _atom_site_label
 _atom_site_symmetry_multiplicity
 _atom_site_fract_x
 _atom_site_fract_y
 _atom_site_fract_z
 _atom_site_occupancy
  Dy  Dy0  1  0.501145  0.679931  0.592573  1
  Dy  Dy1  1  0.001105  0.820131  0.907410  1
  Dy  Dy2  1  0.498851  0.320142  0.092592  1
  Dy  Dy3  1  0.998900  0.179744  0.407475  1
  Dy  Dy4  1  0.498859  0.320122  0.407417  1
  Dy  Dy5  1  0.998875  0.179865  0.092586  1
  Dy  Dy6  1  0.501116  0.679854  0.907400  1
  Er  Er7  1  0.001334  0.819995  0.592641  1
  Tm  Tm8  1  0.657027  0.167637  0.622675  1
  Tm  Tm9  1  0.156861  0.332219  0.877278  1
  Tm  Tm10  1  0.343125  0.832228  0.122703  1
  Tm  Tm11  1  0.843239  0.667853  0.377386  1
  Tm  Tm12  1  0.343056  0.832267  0.377334  1
  Tm  Tm13  1  0.843117  0.667754  0.122710  1
  Tm  Tm14  1  0.656893  0.167736  0.877278  1
  Tm  Tm15  1  0.156826  0.332243  0.622688  1
  Tm  Tm16  1  0.819270  0.511135  0.749937  1
  Tm  Tm17  1  0.319072  0.988895  0.749922  1
  Tm  Tm18  1  0.180821  0.488955  0.250012  1
  Tm  Tm19  1  0.680797  0.011031  0.250009  1
  Pt  Pt20  1  0.683207  0.966578  0.458403  1
  Pt  Pt21  1  0.183102  0.533308  0.041704  1
  Pt  Pt22  1  0.316913  0.033323  0.958311  1
  Pt  Pt23  1  0.817042  0.467067  0.541775  1
  Pt  Pt24  1  0.316466  0.033003  0.541764  1
  Pt  Pt25  1  0.816948  0.466710  0.958315  1
  Pt  Pt26  1  0.683084  0.966707  0.041701  1
  Pt  Pt27  1  0.183011  0.533485  0.458368  1
  Pt  Pt28  1  0.454354  0.386629  0.749996  1
  Pt  Pt29  1  0.954421  0.113256  0.749899  1
  Pt  Pt30  1  0.545622  0.613402  0.250001  1
  Pt  Pt31  1  0.045624  0.886585  0.250003  1
  Pt  Pt32  1  0.682984  0.856799  0.749911  1
  Pt  Pt33  1  0.182608  0.643410  0.749808  1
  Pt  Pt34  1  0.317159  0.143190  0.250008  1
  Pt  Pt35  1  0.817165  0.356810  0.250004  1
