# generated using pymatgen
data_La5Pr13(BiO)10
_symmetry_space_group_name_H-M   'P 1'
_cell_length_a   10.47125331
_cell_length_b   10.46513163
_cell_length_c   9.43482440
_cell_angle_alpha   89.96670453
_cell_angle_beta   89.94702720
_cell_angle_gamma   89.97844384
_symmetry_Int_Tables_number   1
_chemical_formula_structural   La5Pr13(BiO)10
_chemical_formula_sum   'La5 Pr13 Bi10 O10'
_cell_volume   1033.89608975
_cell_formula_units_Z   1
loop_
 _symmetry_equiv_pos_site_id
 _symmetry_equiv_pos_as_xyz
  1  'x, y, z'
loop_
 _atom_site_type_symbol
 _atom_site_label
 _atom_site_symmetry_multiplicity
 _atom_site_fract_x
 _atom_site_fract_y
 _atom_site_fract_z
 _atom_site_occupancy
  La  La0  1  0.918987  0.273246  0.997627  1
  La  La1  1  0.418484  0.771829  0.002093  1
  La  La2  1  0.272095  0.081237  0.002141  1
  La  La3  1  0.727813  0.918463  0.002032  1
  La  La4  1  0.580682  0.228021  0.001995  1
  Pr  Pr5  1  0.000410  0.500692  0.329015  1
  Pr  Pr6  1  0.500009  0.999960  0.670763  1
  Pr  Pr7  1  0.795365  0.104195  0.343214  1
  Pr  Pr8  1  0.604865  0.704016  0.342399  1
  Pr  Pr9  1  0.395076  0.295954  0.342681  1
  Pr  Pr10  1  0.204001  0.895204  0.342522  1
  Pr  Pr11  1  0.704928  0.396994  0.657734  1
  Pr  Pr12  1  0.896856  0.794535  0.657855  1
  Pr  Pr13  1  0.104226  0.205173  0.656602  1
  Pr  Pr14  1  0.294376  0.603330  0.657756  1
  Pr  Pr15  1  0.081290  0.725609  0.998523  1
  Pr  Pr16  1  0.226194  0.419056  0.998633  1
  Pr  Pr17  1  0.774230  0.581613  0.998275  1
  Bi  Bi18  1  0.999973  0.499784  0.687787  1
  Bi  Bi19  1  0.499922  0.999928  0.312904  1
  Bi  Bi20  1  0.696265  0.403495  0.300784  1
  Bi  Bi21  1  0.903533  0.803877  0.300664  1
  Bi  Bi22  1  0.096683  0.196003  0.301581  1
  Bi  Bi23  1  0.304042  0.596412  0.300794  1
  Bi  Bi24  1  0.804308  0.096852  0.698179  1
  Bi  Bi25  1  0.597074  0.695512  0.699063  1
  Bi  Bi26  1  0.402724  0.304502  0.699223  1
  Bi  Bi27  1  0.195590  0.902859  0.699015  1
  O  O28  1  0.000933  0.501757  0.067038  1
  O  O29  1  0.500000  0.000067  0.929581  1
  O  O30  1  0.878597  0.774902  0.912278  1
  O  O31  1  0.275062  0.621345  0.912247  1
  O  O32  1  0.724473  0.378658  0.911777  1
  O  O33  1  0.120951  0.224875  0.912224  1
  O  O34  1  0.620957  0.724143  0.088152  1
  O  O35  1  0.224304  0.878984  0.088180  1
  O  O36  1  0.775901  0.121098  0.088335  1
  O  O37  1  0.378823  0.275818  0.088334  1
