# generated using pymatgen
data_Tb8Ho11ScPb16
_symmetry_space_group_name_H-M   'P 1'
_cell_length_a   8.17444712
_cell_length_b   8.25907213
_cell_length_c   15.60411200
_cell_angle_alpha   90.00000000
_cell_angle_beta   90.00000000
_cell_angle_gamma   89.93997607
_symmetry_Int_Tables_number   1
_chemical_formula_structural   Tb8Ho11ScPb16
_chemical_formula_sum   'Tb8 Ho11 Sc1 Pb16'
_cell_volume   1053.48527220
_cell_formula_units_Z   1
loop_
 _symmetry_equiv_pos_site_id
 _symmetry_equiv_pos_as_xyz
  1  'x, y, z'
loop_
 _atom_site_type_symbol
 _atom_site_label
 _atom_site_symmetry_multiplicity
 _atom_site_fract_x
 _atom_site_fract_y
 _atom_site_fract_z
 _atom_site_occupancy
  Tb  Tb0  1  0.533721  0.323585  0.899915  1
  Tb  Tb1  1  0.034750  0.177720  0.600084  1
  Tb  Tb2  1  0.465806  0.677023  0.400193  1
  Tb  Tb3  1  0.965649  0.823065  0.099960  1
  Tb  Tb4  1  0.465806  0.677023  0.099807  1
  Tb  Tb5  1  0.965649  0.823065  0.400040  1
  Tb  Tb6  1  0.533721  0.323585  0.600085  1
  Tb  Tb7  1  0.034750  0.177720  0.899916  1
  Ho  Ho8  1  0.376010  0.840296  0.879071  1
  Ho  Ho9  1  0.877724  0.658408  0.621067  1
  Ho  Ho10  1  0.623391  0.159102  0.379237  1
  Ho  Ho11  1  0.123338  0.340717  0.120637  1
  Ho  Ho12  1  0.623391  0.159102  0.120763  1
  Ho  Ho13  1  0.123338  0.340717  0.379363  1
  Ho  Ho14  1  0.376010  0.840296  0.620929  1
  Ho  Ho15  1  0.877724  0.658408  0.878933  1
  Ho  Ho16  1  0.707949  0.995680  0.750000  1
  Ho  Ho17  1  0.791858  0.495787  0.250000  1
  Ho  Ho18  1  0.291878  0.004394  0.250000  1
  Sc  Sc19  1  0.208894  0.504623  0.750000  1
  Pb  Pb20  1  0.282072  0.033558  0.042701  1
  Pb  Pb21  1  0.782110  0.466323  0.457310  1
  Pb  Pb22  1  0.717987  0.966377  0.542825  1
  Pb  Pb23  1  0.217905  0.533339  0.956040  1
  Pb  Pb24  1  0.717987  0.966377  0.957175  1
  Pb  Pb25  1  0.217905  0.533339  0.543960  1
  Pb  Pb26  1  0.282072  0.033558  0.457299  1
  Pb  Pb27  1  0.782110  0.466323  0.042690  1
  Pb  Pb28  1  0.568432  0.625295  0.750000  1
  Pb  Pb29  1  0.072690  0.870966  0.750000  1
  Pb  Pb30  1  0.428254  0.373107  0.250000  1
  Pb  Pb31  1  0.928277  0.127023  0.250000  1
  Pb  Pb32  1  0.343918  0.155333  0.750000  1
  Pb  Pb33  1  0.847106  0.349095  0.750000  1
  Pb  Pb34  1  0.654805  0.848002  0.250000  1
  Pb  Pb35  1  0.155010  0.651668  0.250000  1
