# generated using pymatgen
data_Tb4InCo
_symmetry_space_group_name_H-M   'P 1'
_cell_length_a   9.58713288
_cell_length_b   9.56096856
_cell_length_c   9.58725829
_cell_angle_alpha   60.08919158
_cell_angle_beta   60.18512465
_cell_angle_gamma   60.08865661
_symmetry_Int_Tables_number   1
_chemical_formula_structural   Tb4InCo
_chemical_formula_sum   'Tb16 In4 Co4'
_cell_volume   623.10043592
_cell_formula_units_Z   4
loop_
 _symmetry_equiv_pos_site_id
 _symmetry_equiv_pos_as_xyz
  1  'x, y, z'
loop_
 _atom_site_type_symbol
 _atom_site_label
 _atom_site_symmetry_multiplicity
 _atom_site_fract_x
 _atom_site_fract_y
 _atom_site_fract_z
 _atom_site_occupancy
  Tb  Tb0  1  0.438105  0.439981  0.060186  1
  Tb  Tb1  1  0.596686  0.594762  0.596706  1
  Tb  Tb2  1  0.189697  0.810542  0.810914  1
  Tb  Tb3  1  0.060195  0.061718  0.438110  1
  Tb  Tb4  1  0.438098  0.061723  0.060203  1
  Tb  Tb5  1  0.811308  0.188687  0.811322  1
  Tb  Tb6  1  0.438627  0.061357  0.438636  1
  Tb  Tb7  1  0.596691  0.211845  0.596712  1
  Tb  Tb8  1  0.810895  0.810535  0.189711  1
  Tb  Tb9  1  0.208775  0.596399  0.598440  1
  Tb  Tb10  1  0.810913  0.188851  0.189700  1
  Tb  Tb11  1  0.060178  0.439983  0.438118  1
  Tb  Tb12  1  0.189816  0.810193  0.189819  1
  Tb  Tb13  1  0.598423  0.596409  0.208772  1
  Tb  Tb14  1  0.189687  0.188839  0.810932  1
  Tb  Tb15  1  0.060611  0.439387  0.060615  1
  In  In16  1  0.831867  0.832095  0.503931  1
  In  In17  1  0.832007  0.832173  0.832008  1
  In  In18  1  0.504071  0.832066  0.831795  1
  In  In19  1  0.832006  0.503813  0.832005  1
  Co  Co20  1  0.390888  0.390210  0.390890  1
  Co  Co21  1  0.828628  0.390211  0.390946  1
  Co  Co22  1  0.390885  0.828015  0.390888  1
  Co  Co23  1  0.390944  0.390205  0.828641  1
