# generated using pymatgen
data_Er8Ta11Ge16Mo
_symmetry_space_group_name_H-M   'P 1'
_cell_length_a   6.96397322
_cell_length_b   7.13110922
_cell_length_c   13.49923200
_cell_angle_alpha   90.00000000
_cell_angle_beta   90.00000000
_cell_angle_gamma   89.97139905
_symmetry_Int_Tables_number   1
_chemical_formula_structural   Er8Ta11Ge16Mo
_chemical_formula_sum   'Er8 Ta11 Ge16 Mo1'
_cell_volume   670.38330094
_cell_formula_units_Z   1
loop_
 _symmetry_equiv_pos_site_id
 _symmetry_equiv_pos_as_xyz
  1  'x, y, z'
loop_
 _atom_site_type_symbol
 _atom_site_label
 _atom_site_symmetry_multiplicity
 _atom_site_fract_x
 _atom_site_fract_y
 _atom_site_fract_z
 _atom_site_occupancy
  Er  Er0  1  0.496057  0.326281  0.094465  1
  Er  Er1  1  0.996006  0.173884  0.405606  1
  Er  Er2  1  0.504374  0.673852  0.594352  1
  Er  Er3  1  0.004116  0.826247  0.905621  1
  Er  Er4  1  0.504374  0.673852  0.905648  1
  Er  Er5  1  0.004116  0.826247  0.594379  1
  Er  Er6  1  0.496057  0.326281  0.405535  1
  Er  Er7  1  0.996006  0.173884  0.094394  1
  Ta  Ta8  1  0.164346  0.486428  0.750000  1
  Ta  Ta9  1  0.336405  0.986684  0.250000  1
  Ta  Ta10  1  0.836082  0.513041  0.250000  1
  Ta  Ta11  1  0.839550  0.329602  0.626097  1
  Ta  Ta12  1  0.340143  0.169682  0.873722  1
  Ta  Ta13  1  0.160218  0.670351  0.125937  1
  Ta  Ta14  1  0.660320  0.829656  0.374178  1
  Ta  Ta15  1  0.160218  0.670351  0.374063  1
  Ta  Ta16  1  0.660320  0.829656  0.125822  1
  Ta  Ta17  1  0.839550  0.329602  0.873903  1
  Ta  Ta18  1  0.340143  0.169682  0.626278  1
  Ge  Ge19  1  0.805069  0.642454  0.750000  1
  Ge  Ge20  1  0.306131  0.859550  0.750000  1
  Ge  Ge21  1  0.195148  0.358495  0.250000  1
  Ge  Ge22  1  0.695341  0.141310  0.250000  1
  Ge  Ge23  1  0.540217  0.378563  0.750000  1
  Ge  Ge24  1  0.037176  0.120171  0.750000  1
  Ge  Ge25  1  0.460599  0.620158  0.250000  1
  Ge  Ge26  1  0.960156  0.879414  0.250000  1
  Ge  Ge27  1  0.676071  0.038449  0.541883  1
  Ge  Ge28  1  0.176140  0.462209  0.958328  1
  Ge  Ge29  1  0.323450  0.962341  0.041587  1
  Ge  Ge30  1  0.823489  0.537549  0.458298  1
  Ge  Ge31  1  0.323450  0.962341  0.458413  1
  Ge  Ge32  1  0.823489  0.537549  0.041702  1
  Ge  Ge33  1  0.676071  0.038449  0.958117  1
  Ge  Ge34  1  0.176140  0.462209  0.541672  1
  Mo  Mo35  1  0.663462  0.013527  0.750000  1
