# generated using pymatgen
data_Nb2SiIrRu4
_symmetry_space_group_name_H-M   'P 1'
_cell_length_a   4.04234400
_cell_length_b   5.44661737
_cell_length_c   10.73771046
_cell_angle_alpha   89.37966465
_cell_angle_beta   90.00000000
_cell_angle_gamma   90.00000000
_symmetry_Int_Tables_number   1
_chemical_formula_structural   Nb2SiIrRu4
_chemical_formula_sum   'Nb4 Si2 Ir2 Ru8'
_cell_volume   236.39940010
_cell_formula_units_Z   2
loop_
 _symmetry_equiv_pos_site_id
 _symmetry_equiv_pos_as_xyz
  1  'x, y, z'
loop_
 _atom_site_type_symbol
 _atom_site_label
 _atom_site_symmetry_multiplicity
 _atom_site_fract_x
 _atom_site_fract_y
 _atom_site_fract_z
 _atom_site_occupancy
  Nb  Nb0  1  0.500000  0.831121  0.361395  1
  Nb  Nb1  1  0.500000  0.168879  0.638605  1
  Nb  Nb2  1  0.500000  0.321768  0.139050  1
  Nb  Nb3  1  0.500000  0.678232  0.860950  1
  Si  Si4  1  0.000000  0.500000  0.500000  1
  Si  Si5  1  0.000000  0.000000  0.000000  1
  Ir  Ir6  1  0.000000  0.576092  0.248432  1
  Ir  Ir7  1  0.000000  0.423908  0.751568  1
  Ru  Ru8  1  0.000000  0.500000  0.000000  1
  Ru  Ru9  1  0.000000  0.000000  0.500000  1
  Ru  Ru10  1  0.000000  0.076569  0.250246  1
  Ru  Ru11  1  0.000000  0.923431  0.749754  1
  Ru  Ru12  1  0.500000  0.819832  0.105795  1
  Ru  Ru13  1  0.500000  0.180168  0.894205  1
  Ru  Ru14  1  0.500000  0.323174  0.394023  1
  Ru  Ru15  1  0.500000  0.676826  0.605977  1
