# generated using pymatgen
data_Sr18CaIn8N7
_symmetry_space_group_name_H-M   'P 1'
_cell_length_a   11.08076649
_cell_length_b   11.08158645
_cell_length_c   11.08285404
_cell_angle_alpha   60.05143549
_cell_angle_beta   60.05201308
_cell_angle_gamma   60.04895258
_symmetry_Int_Tables_number   1
_chemical_formula_structural   Sr18CaIn8N7
_chemical_formula_sum   'Sr18 Ca1 In8 N7'
_cell_volume   963.40327152
_cell_formula_units_Z   1
loop_
 _symmetry_equiv_pos_site_id
 _symmetry_equiv_pos_as_xyz
  1  'x, y, z'
loop_
 _atom_site_type_symbol
 _atom_site_label
 _atom_site_symmetry_multiplicity
 _atom_site_fract_x
 _atom_site_fract_y
 _atom_site_fract_z
 _atom_site_occupancy
  Sr  Sr0  1  0.167273  0.832718  0.167120  1
  Sr  Sr1  1  0.827612  0.499967  0.172427  1
  Sr  Sr2  1  0.827715  0.499949  0.499958  1
  Sr  Sr3  1  0.832648  0.167240  0.167192  1
  Sr  Sr4  1  0.827559  0.172460  0.499980  1
  Sr  Sr5  1  0.832727  0.167282  0.832880  1
  Sr  Sr6  1  0.172388  0.500033  0.827573  1
  Sr  Sr7  1  0.499968  0.499988  0.827743  1
  Sr  Sr8  1  0.167246  0.167141  0.832746  1
  Sr  Sr9  1  0.500032  0.500012  0.172257  1
  Sr  Sr10  1  0.500048  0.172269  0.500019  1
  Sr  Sr11  1  0.499952  0.827731  0.499981  1
  Sr  Sr12  1  0.172441  0.827540  0.500020  1
  Sr  Sr13  1  0.172285  0.500051  0.500042  1
  Sr  Sr14  1  0.167352  0.832760  0.832808  1
  Sr  Sr15  1  0.500013  0.172334  0.827646  1
  Sr  Sr16  1  0.499987  0.827666  0.172354  1
  Sr  Sr17  1  0.832754  0.832859  0.167254  1
  Ca  Ca18  1  0.500000  0.500000  0.500000  1
  In  In19  1  0.178030  0.178036  0.465838  1
  In  In20  1  0.821970  0.821964  0.534162  1
  In  In21  1  0.821986  0.534118  0.821974  1
  In  In22  1  0.178014  0.465882  0.178026  1
  In  In23  1  0.178110  0.178095  0.178090  1
  In  In24  1  0.466008  0.177978  0.177985  1
  In  In25  1  0.821890  0.821905  0.821910  1
  In  In26  1  0.533992  0.822022  0.822015  1
  N  N27  1  0.328601  0.328581  0.671443  1
  N  N28  1  0.671399  0.671419  0.328557  1
  N  N29  1  0.671402  0.328556  0.671417  1
  N  N30  1  0.328598  0.671444  0.328583  1
  N  N31  1  0.671420  0.328591  0.328595  1
  N  N32  1  0.328580  0.671409  0.671405  1
  N  N33  1  0.000000  0.000000  0.000000  1
