# generated using pymatgen
data_Li4TcSnCl12
_symmetry_space_group_name_H-M   'P 1'
_cell_length_a   6.23246600
_cell_length_b   6.23246523
_cell_length_c   25.48011400
_cell_angle_alpha   90.00000000
_cell_angle_beta   90.00000000
_cell_angle_gamma   120.00000406
_symmetry_Int_Tables_number   1
_chemical_formula_structural   Li4TcSnCl12
_chemical_formula_sum   'Li8 Tc2 Sn2 Cl24'
_cell_volume   857.14000101
_cell_formula_units_Z   2
loop_
 _symmetry_equiv_pos_site_id
 _symmetry_equiv_pos_as_xyz
  1  'x, y, z'
loop_
 _atom_site_type_symbol
 _atom_site_label
 _atom_site_symmetry_multiplicity
 _atom_site_fract_x
 _atom_site_fract_y
 _atom_site_fract_z
 _atom_site_occupancy
  Li  Li0  1  0.000000  0.000000  0.250000  1
  Li  Li1  1  0.000000  0.000000  0.750000  1
  Li  Li2  1  0.333333  0.666667  0.999992  1
  Li  Li3  1  0.333333  0.666667  0.500008  1
  Li  Li4  1  0.333333  0.666667  0.250000  1
  Li  Li5  1  0.666667  0.333333  0.750000  1
  Li  Li6  1  0.666667  0.333333  0.000008  1
  Li  Li7  1  0.666667  0.333333  0.499992  1
  Tc  Tc8  1  0.000000  0.000000  0.000000  1
  Tc  Tc9  1  0.000000  0.000000  0.500000  1
  Sn  Sn10  1  0.333333  0.666667  0.750000  1
  Sn  Sn11  1  0.666667  0.333333  0.250000  1
  Cl  Cl12  1  0.343935  0.010176  0.305805  1
  Cl  Cl13  1  0.333759  0.989824  0.805805  1
  Cl  Cl14  1  0.000812  0.312137  0.053843  1
  Cl  Cl15  1  0.999188  0.311325  0.553843  1
  Cl  Cl16  1  0.989824  0.333759  0.305805  1
  Cl  Cl17  1  0.010176  0.343935  0.805805  1
  Cl  Cl18  1  0.343935  0.333759  0.194195  1
  Cl  Cl19  1  0.333759  0.343935  0.694195  1
  Cl  Cl20  1  0.311325  0.312137  0.446157  1
  Cl  Cl21  1  0.312137  0.311325  0.946157  1
  Cl  Cl22  1  0.687863  0.999188  0.446157  1
  Cl  Cl23  1  0.311325  0.999188  0.053843  1
  Cl  Cl24  1  0.312137  0.000812  0.553843  1
  Cl  Cl25  1  0.687863  0.688675  0.053843  1
  Cl  Cl26  1  0.688675  0.687863  0.553843  1
  Cl  Cl27  1  0.666241  0.656065  0.305805  1
  Cl  Cl28  1  0.656065  0.666241  0.805805  1
  Cl  Cl29  1  0.989824  0.656065  0.194195  1
  Cl  Cl30  1  0.010176  0.666241  0.694195  1
  Cl  Cl31  1  0.000812  0.688675  0.446157  1
  Cl  Cl32  1  0.999188  0.687863  0.946157  1
  Cl  Cl33  1  0.688675  0.000812  0.946157  1
  Cl  Cl34  1  0.666241  0.010176  0.194195  1
  Cl  Cl35  1  0.656065  0.989824  0.694195  1
