# generated using pymatgen
data_Tm4Co16Si3P9Ru4
_symmetry_space_group_name_H-M   'P 1'
_cell_length_a   3.69487400
_cell_length_b   10.37676116
_cell_length_c   11.78482018
_cell_angle_alpha   89.97996014
_cell_angle_beta   90.00000000
_cell_angle_gamma   90.00000000
_symmetry_Int_Tables_number   1
_chemical_formula_structural   Tm4Co16Si3P9Ru4
_chemical_formula_sum   'Tm4 Co16 Si3 P9 Ru4'
_cell_volume   451.83970066
_cell_formula_units_Z   1
loop_
 _symmetry_equiv_pos_site_id
 _symmetry_equiv_pos_as_xyz
  1  'x, y, z'
loop_
 _atom_site_type_symbol
 _atom_site_label
 _atom_site_symmetry_multiplicity
 _atom_site_fract_x
 _atom_site_fract_y
 _atom_site_fract_z
 _atom_site_occupancy
  Tm  Tm0  1  0.250000  0.585495  0.701747  1
  Tm  Tm1  1  0.250000  0.913522  0.203216  1
  Tm  Tm2  1  0.750000  0.414406  0.298330  1
  Tm  Tm3  1  0.750000  0.085776  0.797720  1
  Co  Co4  1  0.250000  0.409112  0.488788  1
  Co  Co5  1  0.250000  0.090791  0.989023  1
  Co  Co6  1  0.750000  0.590862  0.510801  1
  Co  Co7  1  0.750000  0.908731  0.011818  1
  Co  Co8  1  0.250000  0.213607  0.178256  1
  Co  Co9  1  0.250000  0.285467  0.677268  1
  Co  Co10  1  0.750000  0.786054  0.822476  1
  Co  Co11  1  0.750000  0.721779  0.324362  1
  Co  Co12  1  0.250000  0.886653  0.702058  1
  Co  Co13  1  0.250000  0.616097  0.203576  1
  Co  Co14  1  0.750000  0.112029  0.298014  1
  Co  Co15  1  0.750000  0.385414  0.797548  1
  Co  Co16  1  0.250000  0.463556  0.929354  1
  Co  Co17  1  0.250000  0.032785  0.426390  1
  Co  Co18  1  0.750000  0.536502  0.071485  1
  Co  Co19  1  0.750000  0.961873  0.565793  1
  Si  Si20  1  0.250000  0.416582  0.112717  1
  Si  Si21  1  0.250000  0.083275  0.610860  1
  Si  Si22  1  0.750000  0.583412  0.887839  1
  P  P23  1  0.750000  0.919833  0.385857  1
  P  P24  1  0.250000  0.270950  0.865812  1
  P  P25  1  0.250000  0.228739  0.366878  1
  P  P26  1  0.750000  0.729262  0.134289  1
  P  P27  1  0.750000  0.771105  0.634245  1
  P  P28  1  0.250000  0.595273  0.389272  1
  P  P29  1  0.250000  0.904409  0.889130  1
  P  P30  1  0.750000  0.404376  0.611089  1
  P  P31  1  0.750000  0.095235  0.110641  1
  Ru  Ru32  1  0.250000  0.715384  0.990317  1
  Ru  Ru33  1  0.250000  0.781071  0.493276  1
  Ru  Ru34  1  0.750000  0.284363  0.010192  1
  Ru  Ru35  1  0.750000  0.216222  0.509563  1
