# generated using pymatgen
data_Li4Yb3PrPt4
_symmetry_space_group_name_H-M   'P 1'
_cell_length_a   3.99452300
_cell_length_b   7.08508433
_cell_length_c   8.46587500
_cell_angle_alpha   89.90702583
_cell_angle_beta   90.00000000
_cell_angle_gamma   90.00000000
_symmetry_Int_Tables_number   1
_chemical_formula_structural   Li4Yb3PrPt4
_chemical_formula_sum   'Li4 Yb3 Pr1 Pt4'
_cell_volume   239.59691936
_cell_formula_units_Z   1
loop_
 _symmetry_equiv_pos_site_id
 _symmetry_equiv_pos_as_xyz
  1  'x, y, z'
loop_
 _atom_site_type_symbol
 _atom_site_label
 _atom_site_symmetry_multiplicity
 _atom_site_fract_x
 _atom_site_fract_y
 _atom_site_fract_z
 _atom_site_occupancy
  Li  Li0  1  0.250000  0.126075  0.060686  1
  Li  Li1  1  0.250000  0.626439  0.439703  1
  Li  Li2  1  0.750000  0.868787  0.948568  1
  Li  Li3  1  0.750000  0.376767  0.554036  1
  Yb  Yb4  1  0.250000  0.546444  0.822983  1
  Yb  Yb5  1  0.750000  0.953639  0.315148  1
  Yb  Yb6  1  0.750000  0.457433  0.179769  1
  Pr  Pr7  1  0.250000  0.045470  0.678956  1
  Pt  Pt8  1  0.250000  0.250992  0.376574  1
  Pt  Pt9  1  0.250000  0.749485  0.123013  1
  Pt  Pt10  1  0.750000  0.747327  0.623470  1
  Pt  Pt11  1  0.750000  0.251139  0.877091  1
