# generated using pymatgen
data_Tb8Nb12Si15Ni
_symmetry_space_group_name_H-M   'P 1'
_cell_length_a   6.90497376
_cell_length_b   7.07491699
_cell_length_c   13.50238729
_cell_angle_alpha   89.91016216
_cell_angle_beta   90.02599550
_cell_angle_gamma   90.02250855
_symmetry_Int_Tables_number   1
_chemical_formula_structural   Tb8Nb12Si15Ni
_chemical_formula_sum   'Tb8 Nb12 Si15 Ni1'
_cell_volume   659.61926303
_cell_formula_units_Z   1
loop_
 _symmetry_equiv_pos_site_id
 _symmetry_equiv_pos_as_xyz
  1  'x, y, z'
loop_
 _atom_site_type_symbol
 _atom_site_label
 _atom_site_symmetry_multiplicity
 _atom_site_fract_x
 _atom_site_fract_y
 _atom_site_fract_z
 _atom_site_occupancy
  Tb  Tb0  1  0.503725  0.327976  0.096226  1
  Tb  Tb1  1  0.004690  0.171178  0.403139  1
  Tb  Tb2  1  0.490566  0.667873  0.595741  1
  Tb  Tb3  1  0.997002  0.829433  0.904832  1
  Tb  Tb4  1  0.497340  0.671507  0.904574  1
  Tb  Tb5  1  0.998098  0.826415  0.596942  1
  Tb  Tb6  1  0.505112  0.329306  0.401914  1
  Tb  Tb7  1  0.004027  0.170254  0.096114  1
  Nb  Nb8  1  0.662028  0.010917  0.749491  1
  Nb  Nb9  1  0.163811  0.490741  0.754137  1
  Nb  Nb10  1  0.337400  0.990533  0.249805  1
  Nb  Nb11  1  0.837312  0.510152  0.248778  1
  Nb  Nb12  1  0.836314  0.326624  0.625793  1
  Nb  Nb13  1  0.337774  0.176090  0.873896  1
  Nb  Nb14  1  0.160198  0.676141  0.126489  1
  Nb  Nb15  1  0.660910  0.823802  0.373212  1
  Nb  Nb16  1  0.165119  0.673140  0.375723  1
  Nb  Nb17  1  0.662974  0.823405  0.126208  1
  Nb  Nb18  1  0.839488  0.322586  0.874317  1
  Nb  Nb19  1  0.338237  0.185168  0.625816  1
  Si  Si20  1  0.795188  0.625532  0.749866  1
  Si  Si21  1  0.294128  0.875571  0.750223  1
  Si  Si22  1  0.204603  0.374710  0.249560  1
  Si  Si23  1  0.705440  0.124761  0.250003  1
  Si  Si24  1  0.542536  0.378617  0.751132  1
  Si  Si25  1  0.041965  0.124949  0.749496  1
  Si  Si26  1  0.458494  0.622960  0.249661  1
  Si  Si27  1  0.959451  0.876373  0.250879  1
  Si  Si28  1  0.661963  0.038151  0.540505  1
  Si  Si29  1  0.161564  0.463522  0.959484  1
  Si  Si30  1  0.338154  0.962365  0.041112  1
  Si  Si31  1  0.841089  0.538609  0.459763  1
  Si  Si32  1  0.338843  0.963115  0.458568  1
  Si  Si33  1  0.838676  0.536297  0.040916  1
  Si  Si34  1  0.661697  0.037180  0.959168  1
  Ni  Ni35  1  0.154087  0.454051  0.536517  1
