# generated using pymatgen
data_Ho2Tm6CdInNi2
_symmetry_space_group_name_H-M   'P 1'
_cell_length_a   9.42501562
_cell_length_b   9.42526675
_cell_length_c   9.42453688
_cell_angle_alpha   60.21121011
_cell_angle_beta   60.21071157
_cell_angle_gamma   60.06957756
_symmetry_Int_Tables_number   1
_chemical_formula_structural   Ho2Tm6CdInNi2
_chemical_formula_sum   'Ho4 Tm12 Cd2 In2 Ni4'
_cell_volume   594.19299750
_cell_formula_units_Z   2
loop_
 _symmetry_equiv_pos_site_id
 _symmetry_equiv_pos_as_xyz
  1  'x, y, z'
loop_
 _atom_site_type_symbol
 _atom_site_label
 _atom_site_symmetry_multiplicity
 _atom_site_fract_x
 _atom_site_fract_y
 _atom_site_fract_z
 _atom_site_occupancy
  Ho  Ho0  1  0.346391  0.346428  0.348989  1
  Ho  Ho1  1  0.350624  0.350681  0.951876  1
  Ho  Ho2  1  0.350602  0.950826  0.349626  1
  Ho  Ho3  1  0.950856  0.350626  0.349598  1
  Tm  Tm4  1  0.811297  0.189621  0.188639  1
  Tm  Tm5  1  0.188475  0.812514  0.811479  1
  Tm  Tm6  1  0.189623  0.811304  0.188648  1
  Tm  Tm7  1  0.812492  0.188473  0.811500  1
  Tm  Tm8  1  0.187578  0.187584  0.813864  1
  Tm  Tm9  1  0.810446  0.810466  0.190764  1
  Tm  Tm10  1  0.937333  0.565213  0.564562  1
  Tm  Tm11  1  0.563232  0.938175  0.934804  1
  Tm  Tm12  1  0.565209  0.937338  0.564554  1
  Tm  Tm13  1  0.938186  0.563219  0.934801  1
  Tm  Tm14  1  0.565167  0.565170  0.934471  1
  Tm  Tm15  1  0.937961  0.937951  0.560707  1
  Cd  Cd16  1  0.580567  0.252548  0.582540  1
  Cd  Cd17  1  0.252561  0.580549  0.582551  1
  In  In18  1  0.582056  0.582045  0.583328  1
  In  In19  1  0.582074  0.582056  0.252402  1
  Ni  Ni20  1  0.142196  0.142195  0.142920  1
  Ni  Ni21  1  0.140604  0.140607  0.574392  1
  Ni  Ni22  1  0.139864  0.574574  0.141501  1
  Ni  Ni23  1  0.574610  0.139839  0.141486  1
