# generated using pymatgen
data_Cs6Rb3AlSb4
_symmetry_space_group_name_H-M   'P 1'
_cell_length_a   11.33107700
_cell_length_b   11.33107802
_cell_length_c   11.96450800
_cell_angle_alpha   90.00000000
_cell_angle_beta   90.00000000
_cell_angle_gamma   119.99999410
_symmetry_Int_Tables_number   1
_chemical_formula_structural   Cs6Rb3AlSb4
_chemical_formula_sum   'Cs12 Rb6 Al2 Sb8'
_cell_volume   1330.35615291
_cell_formula_units_Z   2
loop_
 _symmetry_equiv_pos_site_id
 _symmetry_equiv_pos_as_xyz
  1  'x, y, z'
loop_
 _atom_site_type_symbol
 _atom_site_label
 _atom_site_symmetry_multiplicity
 _atom_site_fract_x
 _atom_site_fract_y
 _atom_site_fract_z
 _atom_site_occupancy
  Cs  Cs0  1  0.209206  0.418410  0.541983  1
  Cs  Cs1  1  0.790794  0.209206  0.041983  1
  Cs  Cs2  1  0.418410  0.209206  0.041983  1
  Cs  Cs3  1  0.581590  0.790794  0.541983  1
  Cs  Cs4  1  0.209206  0.790794  0.541983  1
  Cs  Cs5  1  0.790794  0.581590  0.458017  1
  Cs  Cs6  1  0.790794  0.209206  0.458017  1
  Cs  Cs7  1  0.790794  0.581590  0.041983  1
  Cs  Cs8  1  0.418410  0.209206  0.458017  1
  Cs  Cs9  1  0.581590  0.790794  0.958017  1
  Cs  Cs10  1  0.209206  0.418410  0.958017  1
  Cs  Cs11  1  0.209206  0.790794  0.958017  1
  Rb  Rb12  1  0.118859  0.237716  0.250000  1
  Rb  Rb13  1  0.881141  0.118859  0.750000  1
  Rb  Rb14  1  0.237716  0.118859  0.750000  1
  Rb  Rb15  1  0.762284  0.881141  0.250000  1
  Rb  Rb16  1  0.118859  0.881141  0.250000  1
  Rb  Rb17  1  0.881141  0.762284  0.750000  1
  Al  Al18  1  0.333333  0.666667  0.250000  1
  Al  Al19  1  0.666667  0.333333  0.750000  1
  Sb  Sb20  1  0.471716  0.528284  0.250000  1
  Sb  Sb21  1  0.943432  0.471716  0.750000  1
  Sb  Sb22  1  0.528284  0.056568  0.750000  1
  Sb  Sb23  1  0.471716  0.943432  0.250000  1
  Sb  Sb24  1  0.056568  0.528284  0.250000  1
  Sb  Sb25  1  0.528284  0.471716  0.750000  1
  Sb  Sb26  1  0.000000  0.000000  0.000000  1
  Sb  Sb27  1  0.000000  0.000000  0.500000  1
