# generated using pymatgen
data_Tb6TiAl23Ru8
_symmetry_space_group_name_H-M   'P 1'
_cell_length_a   8.85148118
_cell_length_b   8.85148135
_cell_length_c   9.59742958
_cell_angle_alpha   90.03459218
_cell_angle_beta   89.96540917
_cell_angle_gamma   120.16143046
_symmetry_Int_Tables_number   1
_chemical_formula_structural   Tb6TiAl23Ru8
_chemical_formula_sum   'Tb6 Ti1 Al23 Ru8'
_cell_volume   650.14258069
_cell_formula_units_Z   1
loop_
 _symmetry_equiv_pos_site_id
 _symmetry_equiv_pos_as_xyz
  1  'x, y, z'
loop_
 _atom_site_type_symbol
 _atom_site_label
 _atom_site_symmetry_multiplicity
 _atom_site_fract_x
 _atom_site_fract_y
 _atom_site_fract_z
 _atom_site_occupancy
  Tb  Tb0  1  0.388897  0.196919  0.247934  1
  Tb  Tb1  1  0.807675  0.192325  0.250658  1
  Tb  Tb2  1  0.803081  0.611103  0.247934  1
  Tb  Tb3  1  0.614398  0.808520  0.750585  1
  Tb  Tb4  1  0.193460  0.806540  0.756863  1
  Tb  Tb5  1  0.191480  0.385602  0.750585  1
  Ti  Ti6  1  0.165285  0.834715  0.427053  1
  Al  Al7  1  0.438112  0.877523  0.247993  1
  Al  Al8  1  0.122477  0.561888  0.247993  1
  Al  Al9  1  0.439189  0.560811  0.249807  1
  Al  Al10  1  0.561406  0.123129  0.749209  1
  Al  Al11  1  0.876871  0.438594  0.749209  1
  Al  Al12  1  0.560975  0.439025  0.749896  1
  Al  Al13  1  0.162783  0.325032  0.422945  1
  Al  Al14  1  0.674968  0.837217  0.422945  1
  Al  Al15  1  0.837604  0.162396  0.578323  1
  Al  Al16  1  0.834993  0.674363  0.575841  1
  Al  Al17  1  0.325637  0.165007  0.575841  1
  Al  Al18  1  0.838039  0.161961  0.922546  1
  Al  Al19  1  0.837765  0.675777  0.922198  1
  Al  Al20  1  0.324223  0.162235  0.922198  1
  Al  Al21  1  0.161083  0.838917  0.084075  1
  Al  Al22  1  0.161323  0.324274  0.077480  1
  Al  Al23  1  0.675726  0.838677  0.077480  1
  Al  Al24  1  0.334815  0.665185  0.516954  1
  Al  Al25  1  0.665906  0.334094  0.485333  1
  Al  Al26  1  0.667299  0.332701  0.010453  1
  Al  Al27  1  0.334528  0.665472  0.988490  1
  Al  Al28  1  0.001120  0.998880  0.248526  1
  Al  Al29  1  0.000510  0.999490  0.749471  1
  Ru  Ru30  1  0.000942  0.999058  0.499912  1
  Ru  Ru31  1  0.999453  0.000547  0.997854  1
  Ru  Ru32  1  0.496766  0.998987  0.498539  1
  Ru  Ru33  1  0.001013  0.503234  0.498539  1
  Ru  Ru34  1  0.498643  0.501357  0.500749  1
  Ru  Ru35  1  0.499665  0.999154  0.998335  1
  Ru  Ru36  1  0.000846  0.500335  0.998335  1
  Ru  Ru37  1  0.501044  0.498956  0.000915  1
