# generated using pymatgen
data_Dy9Ho2ThCo4
_symmetry_space_group_name_H-M   'P 1'
_cell_length_a   6.24423067
_cell_length_b   6.91899624
_cell_length_c   9.51101422
_cell_angle_alpha   89.99740771
_cell_angle_beta   89.94211830
_cell_angle_gamma   91.18246818
_symmetry_Int_Tables_number   1
_chemical_formula_structural   Dy9Ho2ThCo4
_chemical_formula_sum   'Dy9 Ho2 Th1 Co4'
_cell_volume   410.82432104
_cell_formula_units_Z   1
loop_
 _symmetry_equiv_pos_site_id
 _symmetry_equiv_pos_as_xyz
  1  'x, y, z'
loop_
 _atom_site_type_symbol
 _atom_site_label
 _atom_site_symmetry_multiplicity
 _atom_site_fract_x
 _atom_site_fract_y
 _atom_site_fract_z
 _atom_site_occupancy
  Dy  Dy0  1  0.359838  0.957253  0.749900  1
  Dy  Dy1  1  0.855176  0.544039  0.249804  1
  Dy  Dy2  1  0.642204  0.044004  0.250056  1
  Dy  Dy3  1  0.827408  0.824425  0.568970  1
  Dy  Dy4  1  0.175966  0.173044  0.069880  1
  Dy  Dy5  1  0.827139  0.824349  0.930854  1
  Dy  Dy6  1  0.673131  0.324928  0.566577  1
  Dy  Dy7  1  0.324034  0.674861  0.068487  1
  Dy  Dy8  1  0.323686  0.674956  0.431308  1
  Ho  Ho9  1  0.672774  0.324870  0.933032  1
  Ho  Ho10  1  0.175646  0.172989  0.430176  1
  Th  Th11  1  0.152142  0.446468  0.750106  1
  Co  Co12  1  0.533015  0.609733  0.750545  1
  Co  Co13  1  0.955905  0.130673  0.749758  1
  Co  Co14  1  0.049240  0.886132  0.250536  1
  Co  Co15  1  0.452697  0.387274  0.250011  1
