# generated using pymatgen
data_NdAuI6
_symmetry_space_group_name_H-M   'P 1'
_cell_length_a   8.86440351
_cell_length_b   11.38809819
_cell_length_c   16.32537359
_cell_angle_alpha   103.12932321
_cell_angle_beta   95.83252086
_cell_angle_gamma   112.28293791
_symmetry_Int_Tables_number   1
_chemical_formula_structural   NdAuI6
_chemical_formula_sum   'Nd4 Au4 I24'
_cell_volume   1452.50104875
_cell_formula_units_Z   4
loop_
 _symmetry_equiv_pos_site_id
 _symmetry_equiv_pos_as_xyz
  1  'x, y, z'
loop_
 _atom_site_type_symbol
 _atom_site_label
 _atom_site_symmetry_multiplicity
 _atom_site_fract_x
 _atom_site_fract_y
 _atom_site_fract_z
 _atom_site_occupancy
  Nd  Nd0  1  0.577462  0.917317  0.621857  1
  Nd  Nd1  1  0.422538  0.082683  0.378143  1
  Nd  Nd2  1  0.977946  0.311505  0.870745  1
  Nd  Nd3  1  0.022054  0.688495  0.129255  1
  Au  Au4  1  0.295474  0.631235  0.762812  1
  Au  Au5  1  0.704526  0.368765  0.237188  1
  Au  Au6  1  0.500000  0.500000  0.500000  1
  Au  Au7  1  0.000000  0.000000  0.000000  1
  I  I8  1  0.612931  0.733569  0.747613  1
  I  I9  1  0.387069  0.266431  0.252387  1
  I  I10  1  0.275624  0.847186  0.735298  1
  I  I11  1  0.724376  0.152814  0.264702  1
  I  I12  1  0.975819  0.532327  0.774059  1
  I  I13  1  0.024181  0.467673  0.225941  1
  I  I14  1  0.315245  0.411896  0.785663  1
  I  I15  1  0.684755  0.588104  0.214337  1
  I  I16  1  0.691871  0.367164  0.506875  1
  I  I17  1  0.308129  0.632836  0.493125  1
  I  I18  1  0.764791  0.728178  0.524627  1
  I  I19  1  0.235209  0.271822  0.475373  1
  I  I20  1  0.784135  0.107524  0.975698  1
  I  I21  1  0.215865  0.892476  0.024302  1
  I  I22  1  0.765172  0.793593  0.030779  1
  I  I23  1  0.234828  0.206407  0.969221  1
  I  I24  1  0.613662  0.192590  0.745677  1
  I  I25  1  0.386338  0.807410  0.254323  1
  I  I26  1  0.955301  0.053508  0.726669  1
  I  I27  1  0.044699  0.946492  0.273331  1
  I  I28  1  0.732627  0.050473  0.480539  1
  I  I29  1  0.267373  0.949527  0.519461  1
  I  I30  1  0.757281  0.434351  0.977521  1
  I  I31  1  0.242719  0.565649  0.022479  1
