# generated using pymatgen
data_Y4ErMg(P2Ru3)6
_symmetry_space_group_name_H-M   'P 1'
_cell_length_a   12.63890200
_cell_length_b   12.48259068
_cell_length_c   3.98142500
_cell_angle_alpha   90.00000000
_cell_angle_beta   90.00000000
_cell_angle_gamma   119.59877412
_symmetry_Int_Tables_number   1
_chemical_formula_structural   Y4ErMg(P2Ru3)6
_chemical_formula_sum   'Y4 Er1 Mg1 P12 Ru18'
_cell_volume   546.16636052
_cell_formula_units_Z   1
loop_
 _symmetry_equiv_pos_site_id
 _symmetry_equiv_pos_as_xyz
  1  'x, y, z'
loop_
 _atom_site_type_symbol
 _atom_site_label
 _atom_site_symmetry_multiplicity
 _atom_site_fract_x
 _atom_site_fract_y
 _atom_site_fract_z
 _atom_site_occupancy
  Y  Y0  1  0.000017  0.181210  0.500000  1
  Y  Y1  1  0.816131  0.817090  0.500000  1
  Y  Y2  1  0.183923  0.001016  0.500000  1
  Y  Y3  1  0.339964  0.668776  0.000000  1
  Er  Er4  1  0.659771  0.328626  0.000000  1
  Mg  Mg5  1  0.999822  0.561357  0.000000  1
  P  P6  1  0.999844  0.811164  0.000000  1
  P  P7  1  0.183002  0.183733  0.000000  1
  P  P8  1  0.817160  0.001059  0.000000  1
  P  P9  1  0.691266  0.172762  0.500000  1
  P  P10  1  0.817750  0.517590  0.500000  1
  P  P11  1  0.475074  0.306939  0.500000  1
  P  P12  1  0.181541  0.700107  0.500000  1
  P  P13  1  0.525659  0.832520  0.500000  1
  P  P14  1  0.308709  0.480660  0.500000  1
  P  P15  1  0.000090  0.360418  0.000000  1
  P  P16  1  0.625149  0.625373  0.000000  1
  P  P17  1  0.374771  0.000149  0.000000  1
  Ru  Ru18  1  0.444389  0.444792  0.000000  1
  Ru  Ru19  1  0.555732  0.000601  0.000000  1
  Ru  Ru20  1  0.999786  0.715690  0.500000  1
  Ru  Ru21  1  0.281777  0.283305  0.500000  1
  Ru  Ru22  1  0.718533  0.002178  0.500000  1
  Ru  Ru23  1  0.804870  0.185010  0.000000  1
  Ru  Ru24  1  0.812761  0.618760  0.000000  1
  Ru  Ru25  1  0.374062  0.189968  0.000000  1
  Ru  Ru26  1  0.186694  0.806274  0.000000  1
  Ru  Ru27  1  0.626708  0.816399  0.000000  1
  Ru  Ru28  1  0.194829  0.379304  0.000000  1
  Ru  Ru29  1  0.874012  0.365610  0.500000  1
  Ru  Ru30  1  0.630618  0.508557  0.500000  1
  Ru  Ru31  1  0.493038  0.129487  0.500000  1
  Ru  Ru32  1  0.369406  0.878990  0.500000  1
  Ru  Ru33  1  0.508096  0.636365  0.500000  1
  Ru  Ru34  1  0.125019  0.490671  0.500000  1
  Ru  Ru35  1  0.000028  0.997489  0.000000  1
