# generated using pymatgen
data_Tm20Ir5Au7
_symmetry_space_group_name_H-M   'P 1'
_cell_length_a   11.16366231
_cell_length_b   11.16366231
_cell_length_c   6.21817331
_cell_angle_alpha   89.81190976
_cell_angle_beta   89.81190976
_cell_angle_gamma   90.50769593
_symmetry_Int_Tables_number   1
_chemical_formula_structural   Tm20Ir5Au7
_chemical_formula_sum   'Tm20 Ir5 Au7'
_cell_volume   774.91565112
_cell_formula_units_Z   1
loop_
 _symmetry_equiv_pos_site_id
 _symmetry_equiv_pos_as_xyz
  1  'x, y, z'
loop_
 _atom_site_type_symbol
 _atom_site_label
 _atom_site_symmetry_multiplicity
 _atom_site_fract_x
 _atom_site_fract_y
 _atom_site_fract_z
 _atom_site_occupancy
  Tm  Tm0  1  0.297331  0.079050  0.356889  1
  Tm  Tm1  1  0.298579  0.906115  0.858739  1
  Tm  Tm2  1  0.700697  0.082218  0.854050  1
  Tm  Tm3  1  0.699809  0.915064  0.352085  1
  Tm  Tm4  1  0.575285  0.792668  0.854650  1
  Tm  Tm5  1  0.582495  0.201954  0.356182  1
  Tm  Tm6  1  0.411373  0.791754  0.367706  1
  Tm  Tm7  1  0.415485  0.198855  0.854799  1
  Tm  Tm8  1  0.207332  0.424715  0.645350  1
  Tm  Tm9  1  0.208246  0.588627  0.132294  1
  Tm  Tm10  1  0.798046  0.417505  0.143818  1
  Tm  Tm11  1  0.801145  0.584515  0.645201  1
  Tm  Tm12  1  0.920950  0.702669  0.143111  1
  Tm  Tm13  1  0.917782  0.299303  0.645950  1
  Tm  Tm14  1  0.093885  0.701421  0.641261  1
  Tm  Tm15  1  0.084936  0.300191  0.147915  1
  Tm  Tm16  1  0.997832  0.000008  0.501141  1
  Tm  Tm17  1  0.999992  0.002168  0.998859  1
  Tm  Tm18  1  0.493881  0.502929  0.998960  1
  Tm  Tm19  1  0.497071  0.506119  0.501040  1
  Ir  Ir20  1  0.347667  0.652333  0.750000  1
  Ir  Ir21  1  0.498972  0.998872  0.104191  1
  Ir  Ir22  1  0.498913  0.999029  0.601625  1
  Ir  Ir23  1  0.000971  0.501087  0.898375  1
  Ir  Ir24  1  0.001128  0.501028  0.395809  1
  Au  Au25  1  0.843168  0.156832  0.250000  1
  Au  Au26  1  0.839940  0.844480  0.752487  1
  Au  Au27  1  0.155520  0.160060  0.747513  1
  Au  Au28  1  0.154250  0.845750  0.250000  1
  Au  Au29  1  0.653766  0.346234  0.750000  1
  Au  Au30  1  0.659366  0.655812  0.245890  1
  Au  Au31  1  0.344188  0.340634  0.254110  1
