# generated using pymatgen
data_CsTm3Se5
_symmetry_space_group_name_H-M   'P 1'
_cell_length_a   4.10738100
_cell_length_b   12.38657200
_cell_length_c   22.03899400
_cell_angle_alpha   90.00000000
_cell_angle_beta   90.00000000
_cell_angle_gamma   90.00000000
_symmetry_Int_Tables_number   1
_chemical_formula_structural   CsTm3Se5
_chemical_formula_sum   'Cs4 Tm12 Se20'
_cell_volume   1121.26402393
_cell_formula_units_Z   4
loop_
 _symmetry_equiv_pos_site_id
 _symmetry_equiv_pos_as_xyz
  1  'x, y, z'
loop_
 _atom_site_type_symbol
 _atom_site_label
 _atom_site_symmetry_multiplicity
 _atom_site_fract_x
 _atom_site_fract_y
 _atom_site_fract_z
 _atom_site_occupancy
  Cs  Cs0  1  0.250000  0.853433  0.092345  1
  Cs  Cs1  1  0.750000  0.146567  0.907655  1
  Cs  Cs2  1  0.750000  0.353433  0.407655  1
  Cs  Cs3  1  0.250000  0.646567  0.592345  1
  Tm  Tm4  1  0.750000  0.797120  0.825240  1
  Tm  Tm5  1  0.250000  0.202880  0.174760  1
  Tm  Tm6  1  0.250000  0.297120  0.674760  1
  Tm  Tm7  1  0.750000  0.702880  0.325240  1
  Tm  Tm8  1  0.250000  0.956981  0.697864  1
  Tm  Tm9  1  0.750000  0.043019  0.302136  1
  Tm  Tm10  1  0.750000  0.456981  0.802136  1
  Tm  Tm11  1  0.250000  0.543019  0.197864  1
  Tm  Tm12  1  0.750000  0.391859  0.054058  1
  Tm  Tm13  1  0.250000  0.608141  0.945942  1
  Tm  Tm14  1  0.250000  0.891859  0.445942  1
  Tm  Tm15  1  0.750000  0.108141  0.554058  1
  Se  Se16  1  0.250000  0.948603  0.568937  1
  Se  Se17  1  0.750000  0.051397  0.431063  1
  Se  Se18  1  0.750000  0.448603  0.931063  1
  Se  Se19  1  0.250000  0.551397  0.068937  1
  Se  Se20  1  0.750000  0.763859  0.952076  1
  Se  Se21  1  0.250000  0.236141  0.047924  1
  Se  Se22  1  0.250000  0.263859  0.547924  1
  Se  Se23  1  0.750000  0.736141  0.452076  1
  Se  Se24  1  0.250000  0.948910  0.825265  1
  Se  Se25  1  0.750000  0.051090  0.174735  1
  Se  Se26  1  0.750000  0.448910  0.674735  1
  Se  Se27  1  0.250000  0.551090  0.325265  1
  Se  Se28  1  0.750000  0.125980  0.684560  1
  Se  Se29  1  0.250000  0.874020  0.315440  1
  Se  Se30  1  0.250000  0.625980  0.815440  1
  Se  Se31  1  0.750000  0.374020  0.184560  1
  Se  Se32  1  0.750000  0.693255  0.197871  1
  Se  Se33  1  0.250000  0.306745  0.802129  1
  Se  Se34  1  0.250000  0.193255  0.302129  1
  Se  Se35  1  0.750000  0.806745  0.697871  1
