# generated using pymatgen
data_Ca8TaNbN8
_symmetry_space_group_name_H-M   'P 1'
_cell_length_a   6.07506078
_cell_length_b   6.08353582
_cell_length_c   9.22579403
_cell_angle_alpha   72.06618733
_cell_angle_beta   82.13144736
_cell_angle_gamma   69.26987941
_symmetry_Int_Tables_number   1
_chemical_formula_structural   Ca8TaNbN8
_chemical_formula_sum   'Ca8 Ta1 Nb1 N8'
_cell_volume   303.24749524
_cell_formula_units_Z   1
loop_
 _symmetry_equiv_pos_site_id
 _symmetry_equiv_pos_as_xyz
  1  'x, y, z'
loop_
 _atom_site_type_symbol
 _atom_site_label
 _atom_site_symmetry_multiplicity
 _atom_site_fract_x
 _atom_site_fract_y
 _atom_site_fract_z
 _atom_site_occupancy
  Ca  Ca0  1  0.240518  0.953319  0.600865  1
  Ca  Ca1  1  0.744536  0.616204  0.195845  1
  Ca  Ca2  1  0.760492  0.236676  0.987731  1
  Ca  Ca3  1  0.256967  0.530816  0.419579  1
  Ca  Ca4  1  0.758998  0.046700  0.398569  1
  Ca  Ca5  1  0.255493  0.384311  0.803788  1
  Ca  Ca6  1  0.743260  0.468579  0.580290  1
  Ca  Ca7  1  0.239079  0.762976  0.012063  1
  Ta  Ta8  1  0.718521  0.849976  0.761840  1
  Nb  Nb9  1  0.281001  0.149772  0.237801  1
  N  N10  1  0.973442  0.713143  0.623672  1
  N  N11  1  0.525692  0.173405  0.629314  1
  N  N12  1  0.025709  0.287978  0.377190  1
  N  N13  1  0.517371  0.637438  0.798642  1
  N  N14  1  0.163912  0.158780  0.047618  1
  N  N15  1  0.475763  0.824748  0.372067  1
  N  N16  1  0.483679  0.363877  0.201473  1
  N  N17  1  0.835567  0.841303  0.951654  1
