# generated using pymatgen
data_Sm5Lu3Sc12Si15Ag
_symmetry_space_group_name_H-M   'P 1'
_cell_length_a   7.16095694
_cell_length_b   7.39198686
_cell_length_c   14.13974072
_cell_angle_alpha   89.85625192
_cell_angle_beta   89.53393375
_cell_angle_gamma   90.16931924
_symmetry_Int_Tables_number   1
_chemical_formula_structural   Sm5Lu3Sc12Si15Ag
_chemical_formula_sum   'Sm5 Lu3 Sc12 Si15 Ag1'
_cell_volume   748.43835659
_cell_formula_units_Z   1
loop_
 _symmetry_equiv_pos_site_id
 _symmetry_equiv_pos_as_xyz
  1  'x, y, z'
loop_
 _atom_site_type_symbol
 _atom_site_label
 _atom_site_symmetry_multiplicity
 _atom_site_fract_x
 _atom_site_fract_y
 _atom_site_fract_z
 _atom_site_occupancy
  Sm  Sm0  1  0.991089  0.832858  0.598020  1
  Sm  Sm1  1  0.511968  0.325611  0.093073  1
  Sm  Sm2  1  0.007737  0.170737  0.399135  1
  Sm  Sm3  1  0.510886  0.324008  0.398462  1
  Sm  Sm4  1  0.494580  0.676102  0.602207  1
  Lu  Lu5  1  0.012356  0.175997  0.096219  1
  Lu  Lu6  1  0.988771  0.824965  0.903981  1
  Lu  Lu7  1  0.486650  0.678442  0.903114  1
  Sc  Sc8  1  0.163916  0.500504  0.756558  1
  Sc  Sc9  1  0.835968  0.498919  0.248454  1
  Sc  Sc10  1  0.336195  0.999862  0.246240  1
  Sc  Sc11  1  0.666585  0.995712  0.754286  1
  Sc  Sc12  1  0.344026  0.171571  0.630305  1
  Sc  Sc13  1  0.664662  0.825168  0.372717  1
  Sc  Sc14  1  0.163966  0.676152  0.369978  1
  Sc  Sc15  1  0.669245  0.824826  0.121777  1
  Sc  Sc16  1  0.825449  0.326191  0.628046  1
  Sc  Sc17  1  0.328537  0.173863  0.877539  1
  Sc  Sc18  1  0.833899  0.321000  0.877692  1
  Sc  Sc19  1  0.166903  0.678255  0.123399  1
  Si  Si20  1  0.037172  0.121658  0.752234  1
  Si  Si21  1  0.963505  0.883400  0.246088  1
  Si  Si22  1  0.463998  0.620376  0.246236  1
  Si  Si23  1  0.536065  0.384788  0.756119  1
  Si  Si24  1  0.286139  0.873434  0.755621  1
  Si  Si25  1  0.713601  0.124961  0.244688  1
  Si  Si26  1  0.210418  0.373317  0.245597  1
  Si  Si27  1  0.790455  0.626564  0.757001  1
  Si  Si28  1  0.835676  0.541047  0.459481  1
  Si  Si29  1  0.340392  0.959518  0.461910  1
  Si  Si30  1  0.847259  0.536612  0.037882  1
  Si  Si31  1  0.656496  0.037754  0.538390  1
  Si  Si32  1  0.157531  0.466632  0.961207  1
  Si  Si33  1  0.660077  0.029350  0.958228  1
  Si  Si34  1  0.338113  0.962374  0.038353  1
  Ag  Ag35  1  0.159712  0.457471  0.539762  1
