# generated using pymatgen
data_Th2CdHgRh
_symmetry_space_group_name_H-M   'P 1'
_cell_length_a   8.14078700
_cell_length_b   8.14078636
_cell_length_c   3.87800100
_cell_angle_alpha   90.00000000
_cell_angle_beta   90.00000000
_cell_angle_gamma   88.24231438
_symmetry_Int_Tables_number   1
_chemical_formula_structural   Th2CdHgRh
_chemical_formula_sum   'Th4 Cd2 Hg2 Rh2'
_cell_volume   256.88353921
_cell_formula_units_Z   2
loop_
 _symmetry_equiv_pos_site_id
 _symmetry_equiv_pos_as_xyz
  1  'x, y, z'
loop_
 _atom_site_type_symbol
 _atom_site_label
 _atom_site_symmetry_multiplicity
 _atom_site_fract_x
 _atom_site_fract_y
 _atom_site_fract_z
 _atom_site_occupancy
  Th  Th0  1  0.654633  0.154633  0.500000  1
  Th  Th1  1  0.345367  0.845367  0.500000  1
  Th  Th2  1  0.194391  0.305609  0.500000  1
  Th  Th3  1  0.805609  0.694391  0.500000  1
  Cd  Cd4  1  0.000000  0.000000  0.000000  1
  Cd  Cd5  1  0.500000  0.500000  0.000000  1
  Hg  Hg6  1  0.128987  0.628987  0.000000  1
  Hg  Hg7  1  0.871013  0.371013  0.000000  1
  Rh  Rh8  1  0.630420  0.869580  0.000000  1
  Rh  Rh9  1  0.369580  0.130420  0.000000  1
