# generated using pymatgen
data_V12Fe4Co8Si7P5
_symmetry_space_group_name_H-M   'P 1'
_cell_length_a   3.52458700
_cell_length_b   5.94710944
_cell_length_c   20.36316324
_cell_angle_alpha   89.84467408
_cell_angle_beta   90.00000000
_cell_angle_gamma   90.00000000
_symmetry_Int_Tables_number   1
_chemical_formula_structural   V12Fe4Co8Si7P5
_chemical_formula_sum   'V12 Fe4 Co8 Si7 P5'
_cell_volume   426.83282681
_cell_formula_units_Z   1
loop_
 _symmetry_equiv_pos_site_id
 _symmetry_equiv_pos_as_xyz
  1  'x, y, z'
loop_
 _atom_site_type_symbol
 _atom_site_label
 _atom_site_symmetry_multiplicity
 _atom_site_fract_x
 _atom_site_fract_y
 _atom_site_fract_z
 _atom_site_occupancy
  V  V0  1  0.500000  0.477802  0.940965  1
  V  V1  1  0.500000  0.475749  0.607074  1
  V  V2  1  0.500000  0.476582  0.274031  1
  V  V3  1  0.500000  0.972948  0.892251  1
  V  V4  1  0.500000  0.976124  0.558604  1
  V  V5  1  0.500000  0.975892  0.224751  1
  V  V6  1  0.000000  0.524484  0.724669  1
  V  V7  1  0.000000  0.526243  0.391243  1
  V  V8  1  0.000000  0.526012  0.057997  1
  V  V9  1  0.000000  0.026091  0.774952  1
  V  V10  1  0.000000  0.030488  0.443356  1
  V  V11  1  0.000000  0.028996  0.110600  1
  Fe  Fe12  1  0.500000  0.358166  0.813017  1
  Fe  Fe13  1  0.500000  0.356288  0.482040  1
  Fe  Fe14  1  0.500000  0.355564  0.149430  1
  Fe  Fe15  1  0.500000  0.853670  0.683270  1
  Co  Co16  1  0.500000  0.856291  0.351325  1
  Co  Co17  1  0.500000  0.854066  0.019004  1
  Co  Co18  1  0.000000  0.647738  0.855755  1
  Co  Co19  1  0.000000  0.642785  0.522287  1
  Co  Co20  1  0.000000  0.641810  0.189525  1
  Co  Co21  1  0.000000  0.137234  0.980101  1
  Co  Co22  1  0.000000  0.141702  0.643195  1
  Co  Co23  1  0.000000  0.141064  0.310919  1
  Si  Si24  1  0.500000  0.732141  0.790653  1
  Si  Si25  1  0.500000  0.732543  0.457925  1
  Si  Si26  1  0.500000  0.731069  0.124880  1
  Si  Si27  1  0.500000  0.229157  0.707758  1
  Si  Si28  1  0.500000  0.232595  0.375385  1
  Si  Si29  1  0.500000  0.232032  0.042544  1
  Si  Si30  1  0.000000  0.268142  0.875102  1
  P  P31  1  0.000000  0.268649  0.541132  1
  P  P32  1  0.000000  0.268083  0.208141  1
  P  P33  1  0.000000  0.767279  0.958693  1
  P  P34  1  0.000000  0.766954  0.625386  1
  P  P35  1  0.000000  0.767568  0.292038  1
