# generated using pymatgen
data_Ca3TbSn6Rh7
_symmetry_space_group_name_H-M   'P 1'
_cell_length_a   7.63756798
_cell_length_b   7.63756889
_cell_length_c   7.63756823
_cell_angle_alpha   109.36440087
_cell_angle_beta   109.36439970
_cell_angle_gamma   109.36440943
_symmetry_Int_Tables_number   1
_chemical_formula_structural   Ca3TbSn6Rh7
_chemical_formula_sum   'Ca3 Tb1 Sn6 Rh7'
_cell_volume   344.30963771
_cell_formula_units_Z   1
loop_
 _symmetry_equiv_pos_site_id
 _symmetry_equiv_pos_as_xyz
  1  'x, y, z'
loop_
 _atom_site_type_symbol
 _atom_site_label
 _atom_site_symmetry_multiplicity
 _atom_site_fract_x
 _atom_site_fract_y
 _atom_site_fract_z
 _atom_site_occupancy
  Ca  Ca0  1  0.500000  0.000000  0.000000  1
  Ca  Ca1  1  0.000000  0.500000  0.000000  1
  Ca  Ca2  1  0.000000  0.000000  0.500000  1
  Tb  Tb3  1  0.500000  0.500000  0.500000  1
  Sn  Sn4  1  0.996269  0.316764  0.316764  1
  Sn  Sn5  1  0.683236  0.003731  0.683236  1
  Sn  Sn6  1  0.683236  0.683236  0.003731  1
  Sn  Sn7  1  0.003731  0.683236  0.683236  1
  Sn  Sn8  1  0.316764  0.996269  0.316764  1
  Sn  Sn9  1  0.316764  0.316764  0.996269  1
  Rh  Rh10  1  0.000000  0.000000  0.000000  1
  Rh  Rh11  1  0.500000  0.747206  0.252794  1
  Rh  Rh12  1  0.747206  0.500000  0.252794  1
  Rh  Rh13  1  0.252794  0.747206  0.500000  1
  Rh  Rh14  1  0.252794  0.500000  0.747206  1
  Rh  Rh15  1  0.500000  0.252794  0.747206  1
  Rh  Rh16  1  0.747206  0.252794  0.500000  1
