# generated using pymatgen
data_La2Tb3Y(RuO7)2
_symmetry_space_group_name_H-M   'P 1'
_cell_length_a   6.49046277
_cell_length_b   6.50464440
_cell_length_c   7.55816000
_cell_angle_alpha   90.00000000
_cell_angle_beta   90.00000000
_cell_angle_gamma   110.05430189
_symmetry_Int_Tables_number   1
_chemical_formula_structural   La2Tb3Y(RuO7)2
_chemical_formula_sum   'La2 Tb3 Y1 Ru2 O14'
_cell_volume   299.74440732
_cell_formula_units_Z   1
loop_
 _symmetry_equiv_pos_site_id
 _symmetry_equiv_pos_as_xyz
  1  'x, y, z'
loop_
 _atom_site_type_symbol
 _atom_site_label
 _atom_site_symmetry_multiplicity
 _atom_site_fract_x
 _atom_site_fract_y
 _atom_site_fract_z
 _atom_site_occupancy
  La  La0  1  0.000242  0.000463  0.499975  1
  La  La1  1  0.000242  0.000463  0.000025  1
  Tb  Tb2  1  0.927830  0.480932  0.750000  1
  Tb  Tb3  1  0.480903  0.927870  0.750000  1
  Tb  Tb4  1  0.071839  0.519204  0.250000  1
  Y  Y5  1  0.518728  0.070088  0.250000  1
  Ru  Ru6  1  0.500150  0.499887  0.499880  1
  Ru  Ru7  1  0.500150  0.499887  0.000120  1
  O  O8  1  0.443909  0.184122  0.536726  1
  O  O9  1  0.816130  0.557058  0.462874  1
  O  O10  1  0.443909  0.184122  0.963274  1
  O  O11  1  0.816130  0.557058  0.037126  1
  O  O12  1  0.556617  0.815696  0.463061  1
  O  O13  1  0.184068  0.443325  0.537059  1
  O  O14  1  0.556617  0.815696  0.036939  1
  O  O15  1  0.184068  0.443325  0.962941  1
  O  O16  1  0.162903  0.884096  0.250000  1
  O  O17  1  0.116451  0.837795  0.750000  1
  O  O18  1  0.837662  0.116566  0.750000  1
  O  O19  1  0.881708  0.162762  0.250000  1
  O  O20  1  0.411764  0.411792  0.250000  1
  O  O21  1  0.587981  0.587793  0.750000  1
