# generated using pymatgen
data_Na3Mn(NO3)8
_symmetry_space_group_name_H-M   'P 1'
_cell_length_a   7.93360004
_cell_length_b   7.93360027
_cell_length_c   7.93360000
_cell_angle_alpha   90.46121808
_cell_angle_beta   90.46121809
_cell_angle_gamma   90.46122412
_symmetry_Int_Tables_number   1
_chemical_formula_structural   Na3Mn(NO3)8
_chemical_formula_sum   'Na3 Mn1 N8 O24'
_cell_volume   499.30794328
_cell_formula_units_Z   1
loop_
 _symmetry_equiv_pos_site_id
 _symmetry_equiv_pos_as_xyz
  1  'x, y, z'
loop_
 _atom_site_type_symbol
 _atom_site_label
 _atom_site_symmetry_multiplicity
 _atom_site_fract_x
 _atom_site_fract_y
 _atom_site_fract_z
 _atom_site_occupancy
  Na  Na0  1  0.500000  0.500000  0.000000  1
  Na  Na1  1  0.000000  0.500000  0.500000  1
  Na  Na2  1  0.500000  0.000000  0.500000  1
  Mn  Mn3  1  0.000000  0.000000  0.000000  1
  N  N4  1  0.307459  0.148357  0.828591  1
  N  N5  1  0.828591  0.307459  0.148357  1
  N  N6  1  0.148357  0.828591  0.307459  1
  N  N7  1  0.668507  0.668507  0.668507  1
  N  N8  1  0.692541  0.851643  0.171409  1
  N  N9  1  0.171409  0.692541  0.851643  1
  N  N10  1  0.851643  0.171409  0.692541  1
  N  N11  1  0.331493  0.331493  0.331493  1
  O  O12  1  0.416222  0.261542  0.827805  1
  O  O13  1  0.827805  0.416222  0.261542  1
  O  O14  1  0.261542  0.827805  0.416222  1
  O  O15  1  0.197977  0.156239  0.952007  1
  O  O16  1  0.297374  0.033130  0.722838  1
  O  O17  1  0.722838  0.297374  0.033130  1
  O  O18  1  0.691828  0.546995  0.766518  1
  O  O19  1  0.156239  0.952007  0.197977  1
  O  O20  1  0.766518  0.691828  0.546995  1
  O  O21  1  0.952007  0.197977  0.156239  1
  O  O22  1  0.546995  0.766518  0.691828  1
  O  O23  1  0.033130  0.722838  0.297374  1
  O  O24  1  0.583778  0.738458  0.172195  1
  O  O25  1  0.172195  0.583778  0.738458  1
  O  O26  1  0.738458  0.172195  0.583778  1
  O  O27  1  0.802023  0.843761  0.047993  1
  O  O28  1  0.702626  0.966870  0.277162  1
  O  O29  1  0.277162  0.702626  0.966870  1
  O  O30  1  0.308172  0.453005  0.233482  1
  O  O31  1  0.843761  0.047993  0.802023  1
  O  O32  1  0.233482  0.308172  0.453005  1
  O  O33  1  0.047993  0.802023  0.843761  1
  O  O34  1  0.453005  0.233482  0.308172  1
  O  O35  1  0.966870  0.277162  0.702626  1
