# generated using pymatgen
data_KIn(AsO3)2
_symmetry_space_group_name_H-M   'P 1'
_cell_length_a   7.43394533
_cell_length_b   6.90984979
_cell_length_c   7.06588301
_cell_angle_alpha   86.93216735
_cell_angle_beta   115.92201888
_cell_angle_gamma   85.69450749
_symmetry_Int_Tables_number   1
_chemical_formula_structural   KIn(AsO3)2
_chemical_formula_sum   'K2 In2 As4 O12'
_cell_volume   324.00619916
_cell_formula_units_Z   2
loop_
 _symmetry_equiv_pos_site_id
 _symmetry_equiv_pos_as_xyz
  1  'x, y, z'
loop_
 _atom_site_type_symbol
 _atom_site_label
 _atom_site_symmetry_multiplicity
 _atom_site_fract_x
 _atom_site_fract_y
 _atom_site_fract_z
 _atom_site_occupancy
  K  K0  1  0.286881  0.346982  0.260750  1
  K  K1  1  0.712634  0.653229  0.738901  1
  In  In2  1  0.700699  0.143052  0.091483  1
  In  In3  1  0.299299  0.856958  0.908477  1
  As  As4  1  0.763593  0.629622  0.257262  1
  As  As5  1  0.175001  0.859067  0.344461  1
  As  As6  1  0.824981  0.140959  0.655570  1
  As  As7  1  0.236282  0.370038  0.742724  1
  O  O8  1  0.636813  0.833648  0.055687  1
  O  O9  1  0.736304  0.447840  0.088635  1
  O  O10  1  0.026298  0.076268  0.238221  1
  O  O11  1  0.336970  0.808307  0.236388  1
  O  O12  1  0.030018  0.659615  0.293254  1
  O  O13  1  0.676752  0.144136  0.390371  1
  O  O14  1  0.323319  0.856924  0.609549  1
  O  O15  1  0.970203  0.340293  0.707989  1
  O  O16  1  0.662820  0.191171  0.763538  1
  O  O17  1  0.973568  0.923569  0.760977  1
  O  O18  1  0.264295  0.552082  0.911189  1
  O  O19  1  0.363271  0.166237  0.944570  1
