# generated using pymatgen
data_Y8Cu3Si12Ni
_symmetry_space_group_name_H-M   'P 1'
_cell_length_a   7.99924900
_cell_length_b   7.99924852
_cell_length_c   8.17040500
_cell_angle_alpha   90.00000000
_cell_angle_beta   90.00000000
_cell_angle_gamma   120.00000613
_symmetry_Int_Tables_number   1
_chemical_formula_structural   Y8Cu3Si12Ni
_chemical_formula_sum   'Y8 Cu3 Si12 Ni1'
_cell_volume   452.76473671
_cell_formula_units_Z   1
loop_
 _symmetry_equiv_pos_site_id
 _symmetry_equiv_pos_as_xyz
  1  'x, y, z'
loop_
 _atom_site_type_symbol
 _atom_site_label
 _atom_site_symmetry_multiplicity
 _atom_site_fract_x
 _atom_site_fract_y
 _atom_site_fract_z
 _atom_site_occupancy
  Y  Y0  1  0.498975  0.997947  0.251254  1
  Y  Y1  1  0.499068  0.998136  0.748720  1
  Y  Y2  1  0.002053  0.501025  0.251254  1
  Y  Y3  1  0.001864  0.500932  0.748720  1
  Y  Y4  1  0.498975  0.501025  0.251254  1
  Y  Y5  1  0.499068  0.500932  0.748720  1
  Y  Y6  1  0.000000  0.000000  0.250244  1
  Y  Y7  1  0.000000  0.000000  0.749768  1
  Cu  Cu8  1  0.333333  0.666667  0.000195  1
  Cu  Cu9  1  0.666667  0.333333  0.000045  1
  Cu  Cu10  1  0.666667  0.333333  0.499444  1
  Si  Si11  1  0.169219  0.338438  0.999515  1
  Si  Si12  1  0.830769  0.661538  0.000523  1
  Si  Si13  1  0.661562  0.830781  0.999515  1
  Si  Si14  1  0.832070  0.664138  0.500373  1
  Si  Si15  1  0.338462  0.169231  0.000523  1
  Si  Si16  1  0.172605  0.345210  0.499610  1
  Si  Si17  1  0.169219  0.830781  0.999515  1
  Si  Si18  1  0.335862  0.167930  0.500373  1
  Si  Si19  1  0.830769  0.169231  0.000523  1
  Si  Si20  1  0.654790  0.827395  0.499610  1
  Si  Si21  1  0.832070  0.167930  0.500373  1
  Si  Si22  1  0.172605  0.827395  0.499610  1
  Ni  Ni23  1  0.333333  0.666667  0.500316  1
