# generated using pymatgen
data_Nd2Al2IrPt
_symmetry_space_group_name_H-M   'P 1'
_cell_length_a   4.45297900
_cell_length_b   7.06907900
_cell_length_c   7.95391500
_cell_angle_alpha   90.00000000
_cell_angle_beta   90.00000000
_cell_angle_gamma   90.00000000
_symmetry_Int_Tables_number   1
_chemical_formula_structural   Nd2Al2IrPt
_chemical_formula_sum   'Nd4 Al4 Ir2 Pt2'
_cell_volume   250.37699785
_cell_formula_units_Z   2
loop_
 _symmetry_equiv_pos_site_id
 _symmetry_equiv_pos_as_xyz
  1  'x, y, z'
loop_
 _atom_site_type_symbol
 _atom_site_label
 _atom_site_symmetry_multiplicity
 _atom_site_fract_x
 _atom_site_fract_y
 _atom_site_fract_z
 _atom_site_occupancy
  Nd  Nd0  1  0.750000  0.467136  0.179641  1
  Nd  Nd1  1  0.250000  0.026075  0.685234  1
  Nd  Nd2  1  0.750000  0.967136  0.320359  1
  Nd  Nd3  1  0.250000  0.526075  0.814766  1
  Al  Al4  1  0.750000  0.858637  0.932402  1
  Al  Al5  1  0.250000  0.645277  0.437424  1
  Al  Al6  1  0.750000  0.358637  0.567598  1
  Al  Al7  1  0.250000  0.145277  0.062576  1
  Ir  Ir8  1  0.750000  0.722559  0.613890  1
  Ir  Ir9  1  0.750000  0.222559  0.886110  1
  Pt  Pt10  1  0.250000  0.280316  0.385541  1
  Pt  Pt11  1  0.250000  0.780316  0.114459  1
