# generated using pymatgen
data_Ho5(OsO6)2
_symmetry_space_group_name_H-M   'P 1'
_cell_length_a   6.85592896
_cell_length_b   6.85593011
_cell_length_c   7.46278320
_cell_angle_alpha   73.99679286
_cell_angle_beta   73.99678804
_cell_angle_gamma   48.55809529
_symmetry_Int_Tables_number   1
_chemical_formula_structural   Ho5(OsO6)2
_chemical_formula_sum   'Ho5 Os2 O12'
_cell_volume   250.63883179
_cell_formula_units_Z   1
loop_
 _symmetry_equiv_pos_site_id
 _symmetry_equiv_pos_as_xyz
  1  'x, y, z'
loop_
 _atom_site_type_symbol
 _atom_site_label
 _atom_site_symmetry_multiplicity
 _atom_site_fract_x
 _atom_site_fract_y
 _atom_site_fract_z
 _atom_site_occupancy
  Ho  Ho0  1  0.311938  0.311938  0.828200  1
  Ho  Ho1  1  0.688062  0.688062  0.171800  1
  Ho  Ho2  1  0.000000  0.000000  0.500000  1
  Ho  Ho3  1  0.699186  0.699186  0.641479  1
  Ho  Ho4  1  0.300814  0.300814  0.358521  1
  Os  Os5  1  0.219532  0.780468  0.000000  1
  Os  Os6  1  0.780468  0.219532  0.000000  1
  O  O7  1  0.499204  0.499204  0.175434  1
  O  O8  1  0.500796  0.500796  0.824566  1
  O  O9  1  0.001229  0.001229  0.204247  1
  O  O10  1  0.998771  0.998771  0.795753  1
  O  O11  1  0.913141  0.420232  0.913865  1
  O  O12  1  0.579768  0.086859  0.086135  1
  O  O13  1  0.086859  0.579768  0.086135  1
  O  O14  1  0.595685  0.098586  0.572704  1
  O  O15  1  0.901414  0.404315  0.427296  1
  O  O16  1  0.404315  0.901414  0.427296  1
  O  O17  1  0.098586  0.595685  0.572704  1
  O  O18  1  0.420232  0.913141  0.913865  1
