# generated using pymatgen
data_Nb12Al11Zn2Cu11
_symmetry_space_group_name_H-M   'P 1'
_cell_length_a   8.72397799
_cell_length_b   8.71469652
_cell_length_c   8.09396400
_cell_angle_alpha   90.00000000
_cell_angle_beta   90.00000000
_cell_angle_gamma   120.24439790
_symmetry_Int_Tables_number   1
_chemical_formula_structural   Nb12Al11Zn2Cu11
_chemical_formula_sum   'Nb12 Al11 Zn2 Cu11'
_cell_volume   531.59869876
_cell_formula_units_Z   1
loop_
 _symmetry_equiv_pos_site_id
 _symmetry_equiv_pos_as_xyz
  1  'x, y, z'
loop_
 _atom_site_type_symbol
 _atom_site_label
 _atom_site_symmetry_multiplicity
 _atom_site_fract_x
 _atom_site_fract_y
 _atom_site_fract_z
 _atom_site_occupancy
  Nb  Nb0  1  0.331021  0.996930  0.068762  1
  Nb  Nb1  1  0.667287  0.001174  0.931632  1
  Nb  Nb2  1  0.998882  0.334059  0.066660  1
  Nb  Nb3  1  0.667287  0.001174  0.568368  1
  Nb  Nb4  1  0.998882  0.334059  0.433340  1
  Nb  Nb5  1  0.003077  0.667023  0.932537  1
  Nb  Nb6  1  0.331021  0.996930  0.431238  1
  Nb  Nb7  1  0.003077  0.667023  0.567463  1
  Nb  Nb8  1  0.664849  0.664925  0.067853  1
  Nb  Nb9  1  0.334891  0.333899  0.932049  1
  Nb  Nb10  1  0.334891  0.333899  0.567951  1
  Nb  Nb11  1  0.664849  0.664925  0.432147  1
  Al  Al12  1  0.157829  0.656502  0.250000  1
  Al  Al13  1  0.339919  0.666289  0.506946  1
  Al  Al14  1  0.666356  0.332727  0.499705  1
  Al  Al15  1  0.666356  0.332727  0.000295  1
  Al  Al16  1  0.339919  0.666289  0.993054  1
  Al  Al17  1  0.186147  0.000940  0.750000  1
  Al  Al18  1  0.813330  0.001213  0.250000  1
  Al  Al19  1  0.000871  0.185985  0.750000  1
  Al  Al20  1  0.991810  0.820151  0.250000  1
  Al  Al21  1  0.816702  0.814633  0.750000  1
  Al  Al22  1  0.184096  0.186051  0.250000  1
  Zn  Zn23  1  0.000020  0.001804  0.500681  1
  Zn  Zn24  1  0.000020  0.001804  0.999319  1
  Cu  Cu25  1  0.163059  0.500226  0.750000  1
  Cu  Cu26  1  0.835244  0.501766  0.250000  1
  Cu  Cu27  1  0.503316  0.662957  0.750000  1
  Cu  Cu28  1  0.500864  0.163167  0.750000  1
  Cu  Cu29  1  0.498316  0.335001  0.250000  1
  Cu  Cu30  1  0.497016  0.834576  0.250000  1
  Cu  Cu31  1  0.338794  0.838801  0.750000  1
  Cu  Cu32  1  0.663976  0.499571  0.750000  1
  Cu  Cu33  1  0.660921  0.162138  0.250000  1
  Cu  Cu34  1  0.337646  0.501233  0.250000  1
  Cu  Cu35  1  0.837461  0.337426  0.750000  1
