# generated using pymatgen
data_Y5P12Ir8Ru11
_symmetry_space_group_name_H-M   'P 1'
_cell_length_a   12.62910700
_cell_length_b   12.53795026
_cell_length_c   3.96972400
_cell_angle_alpha   90.00000000
_cell_angle_beta   90.00000000
_cell_angle_gamma   119.70126578
_symmetry_Int_Tables_number   1
_chemical_formula_structural   Y5P12Ir8Ru11
_chemical_formula_sum   'Y5 P12 Ir8 Ru11'
_cell_volume   545.99618415
_cell_formula_units_Z   1
loop_
 _symmetry_equiv_pos_site_id
 _symmetry_equiv_pos_as_xyz
  1  'x, y, z'
loop_
 _atom_site_type_symbol
 _atom_site_label
 _atom_site_symmetry_multiplicity
 _atom_site_fract_x
 _atom_site_fract_y
 _atom_site_fract_z
 _atom_site_occupancy
  Y  Y0  1  0.666776  0.330874  0.000000  1
  Y  Y1  1  0.333473  0.667353  0.000000  1
  Y  Y2  1  0.812911  0.001166  0.500000  1
  Y  Y3  1  0.185607  0.187579  0.500000  1
  Y  Y4  1  0.000326  0.814336  0.500000  1
  P  P5  1  0.630866  0.002065  0.000000  1
  P  P6  1  0.365737  0.371310  0.000000  1
  P  P7  1  0.005737  0.634798  0.000000  1
  P  P8  1  0.689934  0.518664  0.500000  1
  P  P9  1  0.826995  0.303492  0.500000  1
  P  P10  1  0.312774  0.830952  0.500000  1
  P  P11  1  0.517745  0.686800  0.500000  1
  P  P12  1  0.181254  0.002611  0.000000  1
  P  P13  1  0.817444  0.818523  0.000000  1
  P  P14  1  0.997079  0.183029  0.000000  1
  P  P15  1  0.482148  0.164888  0.500000  1
  P  P16  1  0.170886  0.483805  0.500000  1
  Ir  Ir17  1  0.623942  0.805771  0.000000  1
  Ir  Ir18  1  0.181791  0.377564  0.000000  1
  Ir  Ir19  1  0.373888  0.185175  0.000000  1
  Ir  Ir20  1  0.194517  0.821008  0.000000  1
  Ir  Ir21  1  0.809531  0.624553  0.000000  1
  Ir  Ir22  1  0.869197  0.504769  0.500000  1
  Ir  Ir23  1  0.494714  0.360305  0.500000  1
  Ir  Ir24  1  0.998613  0.000294  0.000000  1
  Ru  Ru25  1  0.637012  0.123384  0.500000  1
  Ru  Ru26  1  0.127212  0.640209  0.500000  1
  Ru  Ru27  1  0.362343  0.487451  0.500000  1
  Ru  Ru28  1  0.509055  0.870008  0.500000  1
  Ru  Ru29  1  0.714964  0.713428  0.500000  1
  Ru  Ru30  1  0.002121  0.287261  0.500000  1
  Ru  Ru31  1  0.447778  0.000546  0.000000  1
  Ru  Ru32  1  0.551757  0.547424  0.000000  1
  Ru  Ru33  1  0.999803  0.450439  0.000000  1
  Ru  Ru34  1  0.818715  0.195758  0.000000  1
  Ru  Ru35  1  0.285355  0.002411  0.500000  1
