# generated using pymatgen
data_Tm2Lu3GePb3
_symmetry_space_group_name_H-M   'P 1'
_cell_length_a   9.19819419
_cell_length_b   9.19819336
_cell_length_c   6.43224000
_cell_angle_alpha   90.00000000
_cell_angle_beta   90.00000000
_cell_angle_gamma   120.09537709
_symmetry_Int_Tables_number   1
_chemical_formula_structural   Tm2Lu3GePb3
_chemical_formula_sum   'Tm4 Lu6 Ge2 Pb6'
_cell_volume   470.84697554
_cell_formula_units_Z   2
loop_
 _symmetry_equiv_pos_site_id
 _symmetry_equiv_pos_as_xyz
  1  'x, y, z'
loop_
 _atom_site_type_symbol
 _atom_site_label
 _atom_site_symmetry_multiplicity
 _atom_site_fract_x
 _atom_site_fract_y
 _atom_site_fract_z
 _atom_site_occupancy
  Tm  Tm0  1  0.251966  0.000009  0.750000  1
  Tm  Tm1  1  0.748034  0.999991  0.250000  1
  Tm  Tm2  1  0.000009  0.251966  0.750000  1
  Tm  Tm3  1  0.999991  0.748034  0.250000  1
  Lu  Lu4  1  0.748508  0.748508  0.750000  1
  Lu  Lu5  1  0.251492  0.251492  0.250000  1
  Lu  Lu6  1  0.333360  0.666640  0.500000  1
  Lu  Lu7  1  0.666640  0.333360  0.500000  1
  Lu  Lu8  1  0.666640  0.333360  0.000000  1
  Lu  Lu9  1  0.333360  0.666640  0.000000  1
  Ge  Ge10  1  0.000000  0.000000  0.500000  1
  Ge  Ge11  1  0.000000  0.000000  0.000000  1
  Pb  Pb12  1  0.606518  0.999709  0.750000  1
  Pb  Pb13  1  0.393482  0.000291  0.250000  1
  Pb  Pb14  1  0.999709  0.606518  0.750000  1
  Pb  Pb15  1  0.000291  0.393482  0.250000  1
  Pb  Pb16  1  0.394039  0.394039  0.750000  1
  Pb  Pb17  1  0.605961  0.605961  0.250000  1
