# generated using pymatgen
data_TbDy2SbO7
_symmetry_space_group_name_H-M   'P 1'
_cell_length_a   6.47920414
_cell_length_b   6.47920453
_cell_length_c   7.55099500
_cell_angle_alpha   90.00000000
_cell_angle_beta   90.00000000
_cell_angle_gamma   109.46384840
_symmetry_Int_Tables_number   1
_chemical_formula_structural   TbDy2SbO7
_chemical_formula_sum   'Tb2 Dy4 Sb2 O14'
_cell_volume   298.87598981
_cell_formula_units_Z   2
loop_
 _symmetry_equiv_pos_site_id
 _symmetry_equiv_pos_as_xyz
  1  'x, y, z'
loop_
 _atom_site_type_symbol
 _atom_site_label
 _atom_site_symmetry_multiplicity
 _atom_site_fract_x
 _atom_site_fract_y
 _atom_site_fract_z
 _atom_site_occupancy
  Tb  Tb0  1  0.500000  0.500000  0.500000  1
  Tb  Tb1  1  0.500000  0.500000  0.000000  1
  Dy  Dy2  1  0.532121  0.000279  0.750000  1
  Dy  Dy3  1  0.000279  0.532121  0.250000  1
  Dy  Dy4  1  0.467879  0.999721  0.250000  1
  Dy  Dy5  1  0.999721  0.467879  0.750000  1
  Sb  Sb6  1  0.000000  0.000000  0.500000  1
  Sb  Sb7  1  0.000000  0.000000  0.000000  1
  O  O8  1  0.678060  0.927757  0.470334  1
  O  O9  1  0.927757  0.678060  0.529666  1
  O  O10  1  0.678060  0.927757  0.029666  1
  O  O11  1  0.927757  0.678060  0.970334  1
  O  O12  1  0.321940  0.072243  0.529666  1
  O  O13  1  0.072243  0.321940  0.470334  1
  O  O14  1  0.321940  0.072243  0.970334  1
  O  O15  1  0.072243  0.321940  0.029666  1
  O  O16  1  0.930106  0.069894  0.750000  1
  O  O17  1  0.069894  0.930106  0.250000  1
  O  O18  1  0.369121  0.630879  0.750000  1
  O  O19  1  0.630879  0.369121  0.250000  1
  O  O20  1  0.637378  0.362622  0.750000  1
  O  O21  1  0.362622  0.637378  0.250000  1
