# generated using pymatgen
data_Li2PrAs2Pt
_symmetry_space_group_name_H-M   'P 1'
_cell_length_a   4.26914900
_cell_length_b   4.26914796
_cell_length_c   6.99710200
_cell_angle_alpha   90.00000000
_cell_angle_beta   90.00000000
_cell_angle_gamma   120.00001579
_symmetry_Int_Tables_number   1
_chemical_formula_structural   Li2PrAs2Pt
_chemical_formula_sum   'Li2 Pr1 As2 Pt1'
_cell_volume   110.44124333
_cell_formula_units_Z   1
loop_
 _symmetry_equiv_pos_site_id
 _symmetry_equiv_pos_as_xyz
  1  'x, y, z'
loop_
 _atom_site_type_symbol
 _atom_site_label
 _atom_site_symmetry_multiplicity
 _atom_site_fract_x
 _atom_site_fract_y
 _atom_site_fract_z
 _atom_site_occupancy
  Li  Li0  1  0.000000  0.000000  0.503915  1
  Li  Li1  1  0.333333  0.666667  0.643819  1
  Pr  Pr2  1  0.000000  0.000000  0.007019  1
  As  As3  1  0.333333  0.666667  0.261830  1
  As  As4  1  0.666667  0.333333  0.733206  1
  Pt  Pt5  1  0.666667  0.333333  0.350211  1
