# generated using pymatgen
data_Ce8ScNb2Si16Mo9
_symmetry_space_group_name_H-M   'P 1'
_cell_length_a   6.93122764
_cell_length_b   7.07221029
_cell_length_c   13.13680700
_cell_angle_alpha   90.00000000
_cell_angle_beta   90.00000000
_cell_angle_gamma   90.05183827
_symmetry_Int_Tables_number   1
_chemical_formula_structural   Ce8ScNb2Si16Mo9
_chemical_formula_sum   'Ce8 Sc1 Nb2 Si16 Mo9'
_cell_volume   643.95418449
_cell_formula_units_Z   1
loop_
 _symmetry_equiv_pos_site_id
 _symmetry_equiv_pos_as_xyz
  1  'x, y, z'
loop_
 _atom_site_type_symbol
 _atom_site_label
 _atom_site_symmetry_multiplicity
 _atom_site_fract_x
 _atom_site_fract_y
 _atom_site_fract_z
 _atom_site_occupancy
  Ce  Ce0  1  0.002796  0.164078  0.092540  1
  Ce  Ce1  1  0.502599  0.336306  0.407259  1
  Ce  Ce2  1  0.497430  0.664362  0.906018  1
  Ce  Ce3  1  0.998554  0.835319  0.592710  1
  Ce  Ce4  1  0.998554  0.835319  0.907290  1
  Ce  Ce5  1  0.497430  0.664362  0.593982  1
  Ce  Ce6  1  0.502599  0.336306  0.092741  1
  Ce  Ce7  1  0.002796  0.164078  0.407460  1
  Sc  Sc8  1  0.332026  0.001173  0.750000  1
  Nb  Nb9  1  0.667375  0.998154  0.250000  1
  Nb  Nb10  1  0.167576  0.503192  0.250000  1
  Si  Si11  1  0.803816  0.378559  0.250000  1
  Si  Si12  1  0.303094  0.121816  0.250000  1
  Si  Si13  1  0.702295  0.876856  0.750000  1
  Si  Si14  1  0.190974  0.612205  0.750000  1
  Si  Si15  1  0.041238  0.867720  0.250000  1
  Si  Si16  1  0.544019  0.633872  0.250000  1
  Si  Si17  1  0.461915  0.368151  0.750000  1
  Si  Si18  1  0.952063  0.138591  0.750000  1
  Si  Si19  1  0.841877  0.456002  0.953033  1
  Si  Si20  1  0.343292  0.043347  0.542391  1
  Si  Si21  1  0.656586  0.956695  0.044939  1
  Si  Si22  1  0.157279  0.543412  0.455415  1
  Si  Si23  1  0.157279  0.543412  0.044585  1
  Si  Si24  1  0.656586  0.956695  0.455061  1
  Si  Si25  1  0.343292  0.043347  0.957609  1
  Si  Si26  1  0.841877  0.456002  0.546967  1
  Mo  Mo27  1  0.830564  0.496924  0.750000  1
  Mo  Mo28  1  0.836093  0.668141  0.124748  1
  Mo  Mo29  1  0.335219  0.831092  0.372951  1
  Mo  Mo30  1  0.667104  0.170967  0.875845  1
  Mo  Mo31  1  0.162694  0.331673  0.624535  1
  Mo  Mo32  1  0.162694  0.331673  0.875465  1
  Mo  Mo33  1  0.667104  0.170967  0.624155  1
  Mo  Mo34  1  0.335219  0.831092  0.127049  1
  Mo  Mo35  1  0.836093  0.668141  0.375252  1
