# generated using pymatgen
data_Lu2Hf2Al17GaIr6
_symmetry_space_group_name_H-M   'P 1'
_cell_length_a   7.48884698
_cell_length_b   7.48138997
_cell_length_c   9.31552700
_cell_angle_alpha   90.00000000
_cell_angle_beta   90.00000000
_cell_angle_gamma   119.64883471
_symmetry_Int_Tables_number   1
_chemical_formula_structural   Lu2Hf2Al17GaIr6
_chemical_formula_sum   'Lu2 Hf2 Al17 Ga1 Ir6'
_cell_volume   453.58767228
_cell_formula_units_Z   1
loop_
 _symmetry_equiv_pos_site_id
 _symmetry_equiv_pos_as_xyz
  1  'x, y, z'
loop_
 _atom_site_type_symbol
 _atom_site_label
 _atom_site_symmetry_multiplicity
 _atom_site_fract_x
 _atom_site_fract_y
 _atom_site_fract_z
 _atom_site_occupancy
  Lu  Lu0  1  0.674201  0.993809  0.250000  1
  Lu  Lu1  1  0.328279  0.005635  0.750000  1
  Hf  Hf2  1  0.994939  0.674084  0.250000  1
  Hf  Hf3  1  0.004396  0.327679  0.750000  1
  Al  Al4  1  0.872330  0.874081  0.750000  1
  Al  Al5  1  0.999440  0.336860  0.075353  1
  Al  Al6  1  0.000264  0.662892  0.922936  1
  Al  Al7  1  0.000264  0.662892  0.577064  1
  Al  Al8  1  0.333476  0.998908  0.421595  1
  Al  Al9  1  0.999440  0.336860  0.424647  1
  Al  Al10  1  0.666372  0.001045  0.578914  1
  Al  Al11  1  0.666372  0.001045  0.921086  1
  Al  Al12  1  0.333476  0.998908  0.078405  1
  Al  Al13  1  0.331214  0.333119  0.560405  1
  Al  Al14  1  0.668080  0.666030  0.442080  1
  Al  Al15  1  0.668080  0.666030  0.057920  1
  Al  Al16  1  0.331214  0.333119  0.939595  1
  Al  Al17  1  0.334092  0.550047  0.250000  1
  Al  Al18  1  0.664894  0.450784  0.750000  1
  Al  Al19  1  0.556068  0.342328  0.250000  1
  Al  Al20  1  0.445116  0.657142  0.750000  1
  Ga  Ga21  1  0.131762  0.131107  0.250000  1
  Ir  Ir22  1  0.671947  0.326791  0.999627  1
  Ir  Ir23  1  0.326863  0.672024  0.000719  1
  Ir  Ir24  1  0.326863  0.672024  0.499281  1
  Ir  Ir25  1  0.671947  0.326791  0.500373  1
  Ir  Ir26  1  0.999306  0.998983  0.998271  1
  Ir  Ir27  1  0.999306  0.998983  0.501729  1
