# generated using pymatgen
data_La4SmP12Ir11Ru8
_symmetry_space_group_name_H-M   'P 1'
_cell_length_a   12.77342002
_cell_length_b   12.73483799
_cell_length_c   4.02864400
_cell_angle_alpha   90.00000000
_cell_angle_beta   90.00000000
_cell_angle_gamma   120.03428347
_symmetry_Int_Tables_number   1
_chemical_formula_structural   La4SmP12Ir11Ru8
_chemical_formula_sum   'La4 Sm1 P12 Ir11 Ru8'
_cell_volume   567.33555858
_cell_formula_units_Z   1
loop_
 _symmetry_equiv_pos_site_id
 _symmetry_equiv_pos_as_xyz
  1  'x, y, z'
loop_
 _atom_site_type_symbol
 _atom_site_label
 _atom_site_symmetry_multiplicity
 _atom_site_fract_x
 _atom_site_fract_y
 _atom_site_fract_z
 _atom_site_occupancy
  La  La0  1  0.667984  0.332230  0.000000  1
  La  La1  1  0.334768  0.668405  0.000000  1
  La  La2  1  0.183588  0.185538  0.500000  1
  La  La3  1  0.998839  0.814615  0.500000  1
  Sm  Sm4  1  0.811590  0.000763  0.500000  1
  P  P5  1  0.631634  0.998397  0.000000  1
  P  P6  1  0.367319  0.367691  0.000000  1
  P  P7  1  0.000579  0.632092  0.000000  1
  P  P8  1  0.690269  0.520852  0.500000  1
  P  P9  1  0.830775  0.306354  0.500000  1
  P  P10  1  0.316900  0.835853  0.500000  1
  P  P11  1  0.521337  0.691943  0.500000  1
  P  P12  1  0.182340  0.000389  0.000000  1
  P  P13  1  0.816156  0.818384  0.000000  1
  P  P14  1  0.994756  0.181902  0.000000  1
  P  P15  1  0.478910  0.166756  0.500000  1
  P  P16  1  0.168350  0.479008  0.500000  1
  Ir  Ir17  1  0.624106  0.803446  0.000000  1
  Ir  Ir18  1  0.181637  0.378759  0.000000  1
  Ir  Ir19  1  0.377694  0.181389  0.000000  1
  Ir  Ir20  1  0.195378  0.819004  0.000000  1
  Ir  Ir21  1  0.802407  0.621131  0.000000  1
  Ir  Ir22  1  0.873700  0.509335  0.500000  1
  Ir  Ir23  1  0.491222  0.362504  0.500000  1
  Ir  Ir24  1  0.636489  0.126770  0.500000  1
  Ir  Ir25  1  0.129531  0.638859  0.500000  1
  Ir  Ir26  1  0.363422  0.489664  0.500000  1
  Ir  Ir27  1  0.997940  0.000173  0.000000  1
  Ru  Ru28  1  0.513460  0.874039  0.500000  1
  Ru  Ru29  1  0.710354  0.710294  0.500000  1
  Ru  Ru30  1  0.000708  0.289170  0.500000  1
  Ru  Ru31  1  0.450459  0.998818  0.000000  1
  Ru  Ru32  1  0.547756  0.547027  0.000000  1
  Ru  Ru33  1  0.000971  0.452570  0.000000  1
  Ru  Ru34  1  0.818016  0.195678  0.000000  1
  Ru  Ru35  1  0.288660  0.000196  0.500000  1
