# generated using pymatgen
data_Yb6Si24NiRu7
_symmetry_space_group_name_H-M   'P 1'
_cell_length_a   10.12859618
_cell_length_b   10.12859528
_cell_length_c   8.13548788
_cell_angle_alpha   89.97863033
_cell_angle_beta   89.97862973
_cell_angle_gamma   132.62447469
_symmetry_Int_Tables_number   1
_chemical_formula_structural   Yb6Si24NiRu7
_chemical_formula_sum   'Yb6 Si24 Ni1 Ru7'
_cell_volume   614.11022115
_cell_formula_units_Z   1
loop_
 _symmetry_equiv_pos_site_id
 _symmetry_equiv_pos_as_xyz
  1  'x, y, z'
loop_
 _atom_site_type_symbol
 _atom_site_label
 _atom_site_symmetry_multiplicity
 _atom_site_fract_x
 _atom_site_fract_y
 _atom_site_fract_z
 _atom_site_occupancy
  Yb  Yb0  1  0.999378  0.000622  0.000000  1
  Yb  Yb1  1  0.500563  0.499437  0.500000  1
  Yb  Yb2  1  0.002841  0.502584  0.250400  1
  Yb  Yb3  1  0.998407  0.497432  0.749723  1
  Yb  Yb4  1  0.497416  0.997159  0.749600  1
  Yb  Yb5  1  0.502568  0.001593  0.250277  1
  Si  Si6  1  0.705367  0.294633  0.000000  1
  Si  Si7  1  0.294544  0.705456  0.000000  1
  Si  Si8  1  0.793991  0.206009  0.500000  1
  Si  Si9  1  0.204395  0.795605  0.500000  1
  Si  Si10  1  0.336918  0.331802  0.167661  1
  Si  Si11  1  0.668198  0.663082  0.832339  1
  Si  Si12  1  0.167195  0.164375  0.667225  1
  Si  Si13  1  0.835625  0.832805  0.332775  1
  Si  Si14  1  0.846814  0.613386  0.003404  1
  Si  Si15  1  0.154452  0.388517  0.995843  1
  Si  Si16  1  0.651402  0.884665  0.507851  1
  Si  Si17  1  0.115335  0.348598  0.492149  1
  Si  Si18  1  0.346198  0.113973  0.492416  1
  Si  Si19  1  0.886027  0.653802  0.507584  1
  Si  Si20  1  0.386614  0.153186  0.996596  1
  Si  Si21  1  0.611483  0.845548  0.004157  1
  Si  Si22  1  0.888073  0.122482  0.271013  1
  Si  Si23  1  0.107630  0.875699  0.730789  1
  Si  Si24  1  0.611627  0.377839  0.770829  1
  Si  Si25  1  0.622161  0.388373  0.229171  1
  Si  Si26  1  0.393918  0.625970  0.232039  1
  Si  Si27  1  0.374030  0.606082  0.767961  1
  Si  Si28  1  0.877518  0.111927  0.728987  1
  Si  Si29  1  0.124301  0.892370  0.269211  1
  Ni  Ni30  1  0.831568  0.168432  0.000000  1
  Ru  Ru31  1  0.169864  0.830136  0.000000  1
  Ru  Ru32  1  0.669198  0.330802  0.500000  1
  Ru  Ru33  1  0.329828  0.670172  0.500000  1
  Ru  Ru34  1  0.125033  0.128554  0.373957  1
  Ru  Ru35  1  0.871446  0.874967  0.626043  1
  Ru  Ru36  1  0.371192  0.373120  0.874829  1
  Ru  Ru37  1  0.626880  0.628808  0.125171  1
