# generated using pymatgen
data_TbNdTh2(Al8Pt3)3
_symmetry_space_group_name_H-M   'P 1'
_cell_length_a   7.60431017
_cell_length_b   7.61834760
_cell_length_c   13.24297324
_cell_angle_alpha   84.50265925
_cell_angle_beta   78.95665590
_cell_angle_gamma   59.94923937
_symmetry_Int_Tables_number   1
_chemical_formula_structural   TbNdTh2(Al8Pt3)3
_chemical_formula_sum   'Tb1 Nd1 Th2 Al24 Pt9'
_cell_volume   651.77388090
_cell_formula_units_Z   1
loop_
 _symmetry_equiv_pos_site_id
 _symmetry_equiv_pos_as_xyz
  1  'x, y, z'
loop_
 _atom_site_type_symbol
 _atom_site_label
 _atom_site_symmetry_multiplicity
 _atom_site_fract_x
 _atom_site_fract_y
 _atom_site_fract_z
 _atom_site_occupancy
  Tb  Tb0  1  0.266353  0.501516  0.193099  1
  Nd  Nd1  1  0.733042  0.498265  0.808529  1
  Th  Th2  1  0.395178  0.168011  0.806306  1
  Th  Th3  1  0.604748  0.832066  0.193795  1
  Al  Al4  1  0.687494  0.832475  0.945306  1
  Al  Al5  1  0.312307  0.169239  0.055970  1
  Al  Al6  1  0.145933  0.832919  0.561022  1
  Al  Al7  1  0.854272  0.166852  0.438438  1
  Al  Al8  1  0.481102  0.167185  0.557296  1
  Al  Al9  1  0.518908  0.832910  0.442169  1
  Al  Al10  1  0.212604  0.168771  0.333649  1
  Al  Al11  1  0.788001  0.831922  0.665062  1
  Al  Al12  1  0.438084  0.510372  0.665418  1
  Al  Al13  1  0.561380  0.489810  0.333377  1
  Al  Al14  1  0.109331  0.158967  0.663708  1
  Al  Al15  1  0.891941  0.840103  0.334975  1
  Al  Al16  1  0.349643  0.502422  0.947134  1
  Al  Al17  1  0.647742  0.497732  0.055244  1
  Al  Al18  1  0.013789  0.165931  0.955823  1
  Al  Al19  1  0.987072  0.832651  0.045732  1
  Al  Al20  1  0.186352  0.500037  0.440741  1
  Al  Al21  1  0.814022  0.500000  0.558400  1
  Al  Al22  1  0.734916  0.166944  0.183852  1
  Al  Al23  1  0.263419  0.834719  0.816222  1
  Al  Al24  1  0.061435  0.634221  0.814617  1
  Al  Al25  1  0.940600  0.365582  0.185400  1
  Al  Al26  1  0.860048  0.038489  0.815612  1
  Al  Al27  1  0.139767  0.959484  0.184390  1
  Pt  Pt28  1  0.122551  0.491790  0.637498  1
  Pt  Pt29  1  0.878892  0.508370  0.361589  1
  Pt  Pt30  1  0.656628  0.170698  0.000315  1
  Pt  Pt31  1  0.342597  0.829479  0.000633  1
  Pt  Pt32  1  0.537904  0.165915  0.361342  1
  Pt  Pt33  1  0.461225  0.835177  0.637741  1
  Pt  Pt34  1  0.779081  0.173645  0.636661  1
  Pt  Pt35  1  0.221504  0.825113  0.362353  1
  Pt  Pt36  1  0.000135  0.500215  0.000582  1
