# generated using pymatgen
data_Ce3Th(HgPt2)2
_symmetry_space_group_name_H-M   'P 1'
_cell_length_a   7.94213003
_cell_length_b   7.94213003
_cell_length_c   3.73851300
_cell_angle_alpha   90.00000000
_cell_angle_beta   90.00000000
_cell_angle_gamma   89.53627267
_symmetry_Int_Tables_number   1
_chemical_formula_structural   Ce3Th(HgPt2)2
_chemical_formula_sum   'Ce3 Th1 Hg2 Pt4'
_cell_volume   235.80806637
_cell_formula_units_Z   1
loop_
 _symmetry_equiv_pos_site_id
 _symmetry_equiv_pos_as_xyz
  1  'x, y, z'
loop_
 _atom_site_type_symbol
 _atom_site_label
 _atom_site_symmetry_multiplicity
 _atom_site_fract_x
 _atom_site_fract_y
 _atom_site_fract_z
 _atom_site_occupancy
  Ce  Ce0  1  0.826977  0.329103  0.499999  1
  Ce  Ce1  1  0.170898  0.673023  0.499999  1
  Ce  Ce2  1  0.673797  0.826203  0.499999  1
  Th  Th3  1  0.329112  0.170889  0.499999  1
  Hg  Hg4  1  0.997481  0.998655  0.000000  1
  Hg  Hg5  1  0.501345  0.502519  0.000000  1
  Pt  Pt6  1  0.628618  0.129053  0.000000  1
  Pt  Pt7  1  0.128737  0.371263  0.000000  1
  Pt  Pt8  1  0.872090  0.627911  0.000000  1
  Pt  Pt9  1  0.370947  0.871383  0.000000  1
