# generated using pymatgen
data_DyPa2(AlNi)3
_symmetry_space_group_name_H-M   'P 1'
_cell_length_a   6.73875900
_cell_length_b   6.84289656
_cell_length_c   4.00954000
_cell_angle_alpha   90.00000000
_cell_angle_beta   90.00000000
_cell_angle_gamma   119.49784042
_symmetry_Int_Tables_number   1
_chemical_formula_structural   DyPa2(AlNi)3
_chemical_formula_sum   'Dy1 Pa2 Al3 Ni3'
_cell_volume   160.92387702
_cell_formula_units_Z   1
loop_
 _symmetry_equiv_pos_site_id
 _symmetry_equiv_pos_as_xyz
  1  'x, y, z'
loop_
 _atom_site_type_symbol
 _atom_site_label
 _atom_site_symmetry_multiplicity
 _atom_site_fract_x
 _atom_site_fract_y
 _atom_site_fract_z
 _atom_site_occupancy
  Dy  Dy0  1  0.580579  0.000000  0.500000  1
  Pa  Pa1  1  0.998628  0.575513  0.500000  1
  Pa  Pa2  1  0.423115  0.424487  0.500000  1
  Al  Al3  1  0.765296  0.768997  0.000000  1
  Al  Al4  1  0.239966  0.000000  0.000000  1
  Al  Al5  1  0.996299  0.231003  0.000000  1
  Ni  Ni6  1  0.316133  0.647713  0.000000  1
  Ni  Ni7  1  0.668420  0.352287  0.000000  1
  Ni  Ni8  1  0.011564  0.000000  0.500000  1
