# generated using pymatgen
data_Rb3In2P3
_symmetry_space_group_name_H-M   'P 1'
_cell_length_a   10.45474227
_cell_length_b   10.45474244
_cell_length_c   15.28091100
_cell_angle_alpha   90.00000000
_cell_angle_beta   90.00000000
_cell_angle_gamma   141.73280128
_symmetry_Int_Tables_number   1
_chemical_formula_structural   Rb3In2P3
_chemical_formula_sum   'Rb12 In8 P12'
_cell_volume   1034.42209886
_cell_formula_units_Z   4
loop_
 _symmetry_equiv_pos_site_id
 _symmetry_equiv_pos_as_xyz
  1  'x, y, z'
loop_
 _atom_site_type_symbol
 _atom_site_label
 _atom_site_symmetry_multiplicity
 _atom_site_fract_x
 _atom_site_fract_y
 _atom_site_fract_z
 _atom_site_occupancy
  Rb  Rb0  1  0.611260  0.926402  0.678608  1
  Rb  Rb1  1  0.573598  0.888740  0.178608  1
  Rb  Rb2  1  0.073598  0.388740  0.321392  1
  Rb  Rb3  1  0.111260  0.426402  0.821392  1
  Rb  Rb4  1  0.645741  0.645741  0.861149  1
  Rb  Rb5  1  0.426402  0.111260  0.821392  1
  Rb  Rb6  1  0.354259  0.354259  0.138851  1
  Rb  Rb7  1  0.926402  0.611260  0.678608  1
  Rb  Rb8  1  0.145741  0.145741  0.638851  1
  Rb  Rb9  1  0.888740  0.573598  0.178608  1
  Rb  Rb10  1  0.854259  0.854259  0.361149  1
  Rb  Rb11  1  0.388740  0.073598  0.321392  1
  In  In12  1  0.238361  0.761639  0.500000  1
  In  In13  1  0.261639  0.738361  0.000000  1
  In  In14  1  0.738361  0.261639  0.000000  1
  In  In15  1  0.915772  0.084228  0.000000  1
  In  In16  1  0.761639  0.238361  0.500000  1
  In  In17  1  0.084228  0.915772  0.000000  1
  In  In18  1  0.415772  0.584228  0.500000  1
  In  In19  1  0.584228  0.415772  0.500000  1
  P  P20  1  0.046689  0.398674  0.090015  1
  P  P21  1  0.652541  0.652541  0.610931  1
  P  P22  1  0.398674  0.046689  0.090015  1
  P  P23  1  0.601326  0.953311  0.909985  1
  P  P24  1  0.953311  0.601326  0.909985  1
  P  P25  1  0.453311  0.101326  0.590015  1
  P  P26  1  0.546689  0.898674  0.409985  1
  P  P27  1  0.152541  0.152541  0.889069  1
  P  P28  1  0.101326  0.453311  0.590015  1
  P  P29  1  0.847459  0.847459  0.110931  1
  P  P30  1  0.347459  0.347459  0.389069  1
  P  P31  1  0.898674  0.546689  0.409985  1
