# generated using pymatgen
data_DyCdCuPt3
_symmetry_space_group_name_H-M   'P 1'
_cell_length_a   5.46109574
_cell_length_b   5.46109652
_cell_length_c   5.19485763
_cell_angle_alpha   58.28966915
_cell_angle_beta   58.28966228
_cell_angle_gamma   59.99999829
_symmetry_Int_Tables_number   1
_chemical_formula_structural   DyCdCuPt3
_chemical_formula_sum   'Dy1 Cd1 Cu1 Pt3'
_cell_volume   106.63342209
_cell_formula_units_Z   1
loop_
 _symmetry_equiv_pos_site_id
 _symmetry_equiv_pos_as_xyz
  1  'x, y, z'
loop_
 _atom_site_type_symbol
 _atom_site_label
 _atom_site_symmetry_multiplicity
 _atom_site_fract_x
 _atom_site_fract_y
 _atom_site_fract_z
 _atom_site_occupancy
  Dy  Dy0  1  0.750883  0.750883  0.747352  1
  Cd  Cd1  1  0.001791  0.001791  0.994628  1
  Cu  Cu2  1  0.374250  0.374250  0.877248  1
  Pt  Pt3  1  0.373608  0.875859  0.376924  1
  Pt  Pt4  1  0.373608  0.373608  0.376924  1
  Pt  Pt5  1  0.875859  0.373608  0.376924  1
