# generated using pymatgen
data_Dy2Y6Si12Ir3Rh
_symmetry_space_group_name_H-M   'P 1'
_cell_length_a   8.17094720
_cell_length_b   8.17094940
_cell_length_c   7.95027700
_cell_angle_alpha   90.00141956
_cell_angle_beta   89.99870618
_cell_angle_gamma   120.02521684
_symmetry_Int_Tables_number   1
_chemical_formula_structural   Dy2Y6Si12Ir3Rh
_chemical_formula_sum   'Dy2 Y6 Si12 Ir3 Rh1'
_cell_volume   459.56548729
_cell_formula_units_Z   1
loop_
 _symmetry_equiv_pos_site_id
 _symmetry_equiv_pos_as_xyz
  1  'x, y, z'
loop_
 _atom_site_type_symbol
 _atom_site_label
 _atom_site_symmetry_multiplicity
 _atom_site_fract_x
 _atom_site_fract_y
 _atom_site_fract_z
 _atom_site_occupancy
  Dy  Dy0  1  0.491007  0.981997  0.749899  1
  Dy  Dy1  1  0.018003  0.508994  0.749899  1
  Y  Y2  1  0.000027  0.999976  0.249082  1
  Y  Y3  1  0.999988  0.000010  0.750357  1
  Y  Y4  1  0.509563  0.490436  0.250130  1
  Y  Y5  1  0.509550  0.019139  0.250131  1
  Y  Y6  1  0.980861  0.490451  0.250131  1
  Y  Y7  1  0.490875  0.509126  0.749925  1
  Si  Si8  1  0.166964  0.833037  0.499084  1
  Si  Si9  1  0.166921  0.333932  0.499009  1
  Si  Si10  1  0.666067  0.833078  0.499009  1
  Si  Si11  1  0.833126  0.166874  0.500863  1
  Si  Si12  1  0.833183  0.666248  0.500745  1
  Si  Si13  1  0.333752  0.166818  0.500745  1
  Si  Si14  1  0.833269  0.166731  0.999198  1
  Si  Si15  1  0.833317  0.666527  0.999310  1
  Si  Si16  1  0.333473  0.166682  0.999310  1
  Si  Si17  1  0.167284  0.832717  0.999962  1
  Si  Si18  1  0.167232  0.334555  0.000043  1
  Si  Si19  1  0.665445  0.832768  0.000042  1
  Ir  Ir20  1  0.333243  0.666756  0.469177  1
  Ir  Ir21  1  0.666800  0.333200  0.532927  1
  Ir  Ir22  1  0.666796  0.333204  0.966229  1
  Rh  Rh23  1  0.333258  0.666743  0.034792  1
