# generated using pymatgen
data_HoTh2Tl5
_symmetry_space_group_name_H-M   'P 1'
_cell_length_a   6.68050657
_cell_length_b   6.68050620
_cell_length_c   10.36992800
_cell_angle_alpha   90.00000000
_cell_angle_beta   90.00000000
_cell_angle_gamma   101.57795215
_symmetry_Int_Tables_number   1
_chemical_formula_structural   HoTh2Tl5
_chemical_formula_sum   'Ho2 Th4 Tl10'
_cell_volume   453.38441007
_cell_formula_units_Z   2
loop_
 _symmetry_equiv_pos_site_id
 _symmetry_equiv_pos_as_xyz
  1  'x, y, z'
loop_
 _atom_site_type_symbol
 _atom_site_label
 _atom_site_symmetry_multiplicity
 _atom_site_fract_x
 _atom_site_fract_y
 _atom_site_fract_z
 _atom_site_occupancy
  Ho  Ho0  1  0.611705  0.611705  0.250000  1
  Ho  Ho1  1  0.388295  0.388295  0.750000  1
  Th  Th2  1  0.210119  0.789881  0.500000  1
  Th  Th3  1  0.210119  0.789881  0.000000  1
  Th  Th4  1  0.789881  0.210119  0.500000  1
  Th  Th5  1  0.789881  0.210119  0.000000  1
  Tl  Tl6  1  0.995093  0.995093  0.250000  1
  Tl  Tl7  1  0.004907  0.004907  0.750000  1
  Tl  Tl8  1  0.302308  0.302308  0.039774  1
  Tl  Tl9  1  0.697692  0.697692  0.960226  1
  Tl  Tl10  1  0.302308  0.302308  0.460226  1
  Tl  Tl11  1  0.697692  0.697692  0.539774  1
  Tl  Tl12  1  0.493062  0.053953  0.250000  1
  Tl  Tl13  1  0.946047  0.506938  0.750000  1
  Tl  Tl14  1  0.506938  0.946047  0.750000  1
  Tl  Tl15  1  0.053953  0.493062  0.250000  1
