# generated using pymatgen
data_Tb4DyTc6P12Ir13
_symmetry_space_group_name_H-M   'P 1'
_cell_length_a   12.67092200
_cell_length_b   12.67092120
_cell_length_c   3.99517600
_cell_angle_alpha   90.00000000
_cell_angle_beta   90.00000000
_cell_angle_gamma   119.99999686
_symmetry_Int_Tables_number   1
_chemical_formula_structural   Tb4DyTc6P12Ir13
_chemical_formula_sum   'Tb4 Dy1 Tc6 P12 Ir13'
_cell_volume   555.49860065
_cell_formula_units_Z   1
loop_
 _symmetry_equiv_pos_site_id
 _symmetry_equiv_pos_as_xyz
  1  'x, y, z'
loop_
 _atom_site_type_symbol
 _atom_site_label
 _atom_site_symmetry_multiplicity
 _atom_site_fract_x
 _atom_site_fract_y
 _atom_site_fract_z
 _atom_site_occupancy
  Tb  Tb0  1  0.333333  0.666667  0.500000  1
  Tb  Tb1  1  0.000335  0.812197  0.000000  1
  Tb  Tb2  1  0.187803  0.188138  0.000000  1
  Tb  Tb3  1  0.811862  0.999665  0.000000  1
  Dy  Dy4  1  0.666667  0.333333  0.500000  1
  Tc  Tc5  1  0.990402  0.446573  0.500000  1
  Tc  Tc6  1  0.553427  0.543829  0.500000  1
  Tc  Tc7  1  0.456171  0.009598  0.500000  1
  Tc  Tc8  1  0.620299  0.799015  0.500000  1
  Tc  Tc9  1  0.200985  0.821284  0.500000  1
  Tc  Tc10  1  0.178716  0.379701  0.500000  1
  P  P11  1  0.007006  0.638312  0.500000  1
  P  P12  1  0.361688  0.368695  0.500000  1
  P  P13  1  0.631305  0.992994  0.500000  1
  P  P14  1  0.521506  0.694072  0.000000  1
  P  P15  1  0.305928  0.827434  0.000000  1
  P  P16  1  0.172566  0.478494  0.000000  1
  P  P17  1  0.482267  0.168105  0.000000  1
  P  P18  1  0.685838  0.517733  0.000000  1
  P  P19  1  0.831895  0.314162  0.000000  1
  P  P20  1  0.003759  0.182695  0.500000  1
  P  P21  1  0.817305  0.821063  0.500000  1
  P  P22  1  0.178937  0.996241  0.500000  1
  Ir  Ir23  1  0.506907  0.874849  0.000000  1
  Ir  Ir24  1  0.125151  0.632059  0.000000  1
  Ir  Ir25  1  0.367941  0.493093  0.000000  1
  Ir  Ir26  1  0.493775  0.357973  0.000000  1
  Ir  Ir27  1  0.864199  0.506225  0.000000  1
  Ir  Ir28  1  0.642027  0.135801  0.000000  1
  Ir  Ir29  1  0.995157  0.281802  0.000000  1
  Ir  Ir30  1  0.718198  0.713355  0.000000  1
  Ir  Ir31  1  0.286645  0.004843  0.000000  1
  Ir  Ir32  1  0.374258  0.185052  0.500000  1
  Ir  Ir33  1  0.810794  0.625742  0.500000  1
  Ir  Ir34  1  0.814948  0.189206  0.500000  1
  Ir  Ir35  1  0.000000  0.000000  0.500000  1
