# generated using pymatgen
data_TaNi15Sn4
_symmetry_space_group_name_H-M   'P 1'
_cell_length_a   3.71127100
_cell_length_b   3.71127100
_cell_length_c   18.50472700
_cell_angle_alpha   90.00000000
_cell_angle_beta   90.00000000
_cell_angle_gamma   90.00000000
_symmetry_Int_Tables_number   1
_chemical_formula_structural   TaNi15Sn4
_chemical_formula_sum   'Ta1 Ni15 Sn4'
_cell_volume   254.87545754
_cell_formula_units_Z   1
loop_
 _symmetry_equiv_pos_site_id
 _symmetry_equiv_pos_as_xyz
  1  'x, y, z'
loop_
 _atom_site_type_symbol
 _atom_site_label
 _atom_site_symmetry_multiplicity
 _atom_site_fract_x
 _atom_site_fract_y
 _atom_site_fract_z
 _atom_site_occupancy
  Ta  Ta0  1  0.000000  0.000000  0.000000  1
  Ni  Ni1  1  0.500000  0.500000  0.000000  1
  Ni  Ni2  1  0.500000  0.500000  0.197847  1
  Ni  Ni3  1  0.500000  0.500000  0.399717  1
  Ni  Ni4  1  0.500000  0.500000  0.600283  1
  Ni  Ni5  1  0.500000  0.500000  0.802153  1
  Ni  Ni6  1  0.500000  0.000000  0.095714  1
  Ni  Ni7  1  0.500000  0.000000  0.299435  1
  Ni  Ni8  1  0.500000  0.000000  0.500000  1
  Ni  Ni9  1  0.500000  0.000000  0.700565  1
  Ni  Ni10  1  0.500000  0.000000  0.904286  1
  Ni  Ni11  1  0.000000  0.500000  0.095714  1
  Ni  Ni12  1  0.000000  0.500000  0.299435  1
  Ni  Ni13  1  0.000000  0.500000  0.500000  1
  Ni  Ni14  1  0.000000  0.500000  0.700565  1
  Ni  Ni15  1  0.000000  0.500000  0.904286  1
  Sn  Sn16  1  0.000000  0.000000  0.200035  1
  Sn  Sn17  1  0.000000  0.000000  0.400269  1
  Sn  Sn18  1  0.000000  0.000000  0.599731  1
  Sn  Sn19  1  0.000000  0.000000  0.799965  1
