# generated using pymatgen
data_Dy8Tl3Pt
_symmetry_space_group_name_H-M   'P 1'
_cell_length_a   10.53019900
_cell_length_b   10.53019329
_cell_length_c   7.01879000
_cell_angle_alpha   90.00000000
_cell_angle_beta   90.00000000
_cell_angle_gamma   119.99997710
_symmetry_Int_Tables_number   1
_chemical_formula_structural   Dy8Tl3Pt
_chemical_formula_sum   'Dy16 Tl6 Pt2'
_cell_volume   674.00932051
_cell_formula_units_Z   2
loop_
 _symmetry_equiv_pos_site_id
 _symmetry_equiv_pos_as_xyz
  1  'x, y, z'
loop_
 _atom_site_type_symbol
 _atom_site_label
 _atom_site_symmetry_multiplicity
 _atom_site_fract_x
 _atom_site_fract_y
 _atom_site_fract_z
 _atom_site_occupancy
  Dy  Dy0  1  0.531881  0.063762  0.516597  1
  Dy  Dy1  1  0.936238  0.468118  0.516597  1
  Dy  Dy2  1  0.531882  0.468119  0.516597  1
  Dy  Dy3  1  0.468119  0.936238  0.016597  1
  Dy  Dy4  1  0.063762  0.531882  0.016597  1
  Dy  Dy5  1  0.468118  0.531881  0.016597  1
  Dy  Dy6  1  0.175000  0.350001  0.722084  1
  Dy  Dy7  1  0.649999  0.825000  0.722084  1
  Dy  Dy8  1  0.175000  0.825000  0.722084  1
  Dy  Dy9  1  0.825000  0.649999  0.222084  1
  Dy  Dy10  1  0.350001  0.175000  0.222084  1
  Dy  Dy11  1  0.825000  0.175000  0.222084  1
  Dy  Dy12  1  0.666667  0.333333  0.890866  1
  Dy  Dy13  1  0.333333  0.666667  0.390866  1
  Dy  Dy14  1  0.000000  0.000000  0.497128  1
  Dy  Dy15  1  0.000000  0.000000  0.997128  1
  Tl  Tl16  1  0.837078  0.674157  0.759972  1
  Tl  Tl17  1  0.325842  0.162921  0.759972  1
  Tl  Tl18  1  0.837078  0.162921  0.759972  1
  Tl  Tl19  1  0.162922  0.325843  0.259972  1
  Tl  Tl20  1  0.674158  0.837079  0.259972  1
  Tl  Tl21  1  0.162922  0.837079  0.259972  1
  Pt  Pt22  1  0.666667  0.333333  0.288147  1
  Pt  Pt23  1  0.333333  0.666667  0.788147  1
