# generated using pymatgen
data_NdSm5RuCl10
_symmetry_space_group_name_H-M   'P 1'
_cell_length_a   7.33907624
_cell_length_b   8.95035884
_cell_length_c   9.22870416
_cell_angle_alpha   109.46536992
_cell_angle_beta   96.72814894
_cell_angle_gamma   106.45591917
_symmetry_Int_Tables_number   1
_chemical_formula_structural   NdSm5RuCl10
_chemical_formula_sum   'Nd1 Sm5 Ru1 Cl10'
_cell_volume   532.93397374
_cell_formula_units_Z   1
loop_
 _symmetry_equiv_pos_site_id
 _symmetry_equiv_pos_as_xyz
  1  'x, y, z'
loop_
 _atom_site_type_symbol
 _atom_site_label
 _atom_site_symmetry_multiplicity
 _atom_site_fract_x
 _atom_site_fract_y
 _atom_site_fract_z
 _atom_site_occupancy
  Nd  Nd0  1  0.971956  0.299936  0.094556  1
  Sm  Sm1  1  0.136801  0.054937  0.745362  1
  Sm  Sm2  1  0.619582  0.847106  0.803442  1
  Sm  Sm3  1  0.862001  0.945308  0.254504  1
  Sm  Sm4  1  0.029182  0.704127  0.907008  1
  Sm  Sm5  1  0.379857  0.150551  0.195754  1
  Ru  Ru6  1  0.999257  0.001285  0.000316  1
  Cl  Cl7  1  0.200492  0.746314  0.655155  1
  Cl  Cl8  1  0.649379  0.541473  0.728051  1
  Cl  Cl9  1  0.244746  0.080144  0.449116  1
  Cl  Cl10  1  0.795830  0.251603  0.347857  1
  Cl  Cl11  1  0.548892  0.169008  0.920562  1
  Cl  Cl12  1  0.753809  0.918109  0.550386  1
  Cl  Cl13  1  0.910746  0.634387  0.166186  1
  Cl  Cl14  1  0.359544  0.459353  0.274722  1
  Cl  Cl15  1  0.091084  0.368538  0.830186  1
  Cl  Cl16  1  0.446839  0.827823  0.076833  1
