# generated using pymatgen
data_Sc6Al16Ni2Os5
_symmetry_space_group_name_H-M   'P 1'
_cell_length_a   8.69169863
_cell_length_b   8.69169854
_cell_length_c   8.77153500
_cell_angle_alpha   59.69568623
_cell_angle_beta   59.69568658
_cell_angle_gamma   60.52919915
_symmetry_Int_Tables_number   1
_chemical_formula_structural   Sc6Al16Ni2Os5
_chemical_formula_sum   'Sc6 Al16 Ni2 Os5'
_cell_volume   468.21726668
_cell_formula_units_Z   1
loop_
 _symmetry_equiv_pos_site_id
 _symmetry_equiv_pos_as_xyz
  1  'x, y, z'
loop_
 _atom_site_type_symbol
 _atom_site_label
 _atom_site_symmetry_multiplicity
 _atom_site_fract_x
 _atom_site_fract_y
 _atom_site_fract_z
 _atom_site_occupancy
  Sc  Sc0  1  0.704388  0.704388  0.295612  1
  Sc  Sc1  1  0.284039  0.715961  0.294249  1
  Sc  Sc2  1  0.715961  0.284039  0.294249  1
  Sc  Sc3  1  0.295612  0.295612  0.704388  1
  Sc  Sc4  1  0.715961  0.284039  0.705751  1
  Sc  Sc5  1  0.284039  0.715961  0.705751  1
  Al  Al6  1  0.878062  0.878062  0.360051  1
  Al  Al7  1  0.881671  0.356283  0.881024  1
  Al  Al8  1  0.356283  0.881671  0.881024  1
  Al  Al9  1  0.878062  0.878062  0.883826  1
  Al  Al10  1  0.121938  0.121938  0.639949  1
  Al  Al11  1  0.118329  0.643717  0.118976  1
  Al  Al12  1  0.643717  0.118329  0.118976  1
  Al  Al13  1  0.121938  0.121938  0.116174  1
  Al  Al14  1  0.659023  0.659023  0.011927  1
  Al  Al15  1  0.663598  0.003079  0.666661  1
  Al  Al16  1  0.003079  0.663598  0.666661  1
  Al  Al17  1  0.659023  0.659023  0.670026  1
  Al  Al18  1  0.340977  0.340977  0.988073  1
  Al  Al19  1  0.336402  0.996921  0.333339  1
  Al  Al20  1  0.996921  0.336402  0.333339  1
  Al  Al21  1  0.340977  0.340977  0.329974  1
  Ni  Ni22  1  0.000000  0.000000  0.000000  1
  Ni  Ni23  1  0.500000  0.500000  0.000000  1
  Os  Os24  1  0.000000  0.000000  0.500000  1
  Os  Os25  1  0.500000  0.000000  0.500000  1
  Os  Os26  1  0.000000  0.500000  0.500000  1
  Os  Os27  1  0.000000  0.500000  0.000000  1
  Os  Os28  1  0.500000  0.000000  0.000000  1
