# generated using pymatgen
data_DyYLu4(Al3Os)8
_symmetry_space_group_name_H-M   'P 1'
_cell_length_a   8.78031905
_cell_length_b   8.77521078
_cell_length_c   9.59344500
_cell_angle_alpha   90.00000000
_cell_angle_beta   90.00000000
_cell_angle_gamma   119.95868664
_symmetry_Int_Tables_number   1
_chemical_formula_structural   DyYLu4(Al3Os)8
_chemical_formula_sum   'Dy1 Y1 Lu4 Al24 Os8'
_cell_volume   640.40353811
_cell_formula_units_Z   1
loop_
 _symmetry_equiv_pos_site_id
 _symmetry_equiv_pos_as_xyz
  1  'x, y, z'
loop_
 _atom_site_type_symbol
 _atom_site_label
 _atom_site_symmetry_multiplicity
 _atom_site_fract_x
 _atom_site_fract_y
 _atom_site_fract_z
 _atom_site_occupancy
  Dy  Dy0  1  0.805531  0.611428  0.750000  1
  Y  Y1  1  0.806745  0.192962  0.750000  1
  Lu  Lu2  1  0.195501  0.391703  0.250000  1
  Lu  Lu3  1  0.608249  0.804369  0.250000  1
  Lu  Lu4  1  0.391998  0.196085  0.750000  1
  Lu  Lu5  1  0.195656  0.804132  0.250000  1
  Al  Al6  1  0.333193  0.666670  0.021599  1
  Al  Al7  1  0.666358  0.332948  0.980402  1
  Al  Al8  1  0.666358  0.332948  0.519598  1
  Al  Al9  1  0.333193  0.666670  0.478401  1
  Al  Al10  1  0.164122  0.327311  0.575335  1
  Al  Al11  1  0.836587  0.673452  0.422744  1
  Al  Al12  1  0.672231  0.836023  0.575233  1
  Al  Al13  1  0.836587  0.673452  0.077256  1
  Al  Al14  1  0.326282  0.163227  0.423279  1
  Al  Al15  1  0.164122  0.327311  0.924665  1
  Al  Al16  1  0.163810  0.836962  0.575484  1
  Al  Al17  1  0.326282  0.163227  0.076721  1
  Al  Al18  1  0.836468  0.163425  0.422296  1
  Al  Al19  1  0.672231  0.836023  0.924767  1
  Al  Al20  1  0.836468  0.163425  0.077704  1
  Al  Al21  1  0.163810  0.836962  0.924516  1
  Al  Al22  1  0.561201  0.123187  0.250000  1
  Al  Al23  1  0.437355  0.876182  0.750000  1
  Al  Al24  1  0.876684  0.438605  0.250000  1
  Al  Al25  1  0.124718  0.562435  0.750000  1
  Al  Al26  1  0.561290  0.438451  0.250000  1
  Al  Al27  1  0.437346  0.561347  0.750000  1
  Al  Al28  1  0.999800  0.000039  0.250000  1
  Al  Al29  1  0.003319  0.999674  0.750000  1
  Os  Os30  1  0.498743  0.999131  0.000967  1
  Os  Os31  1  0.000952  0.500685  0.001503  1
  Os  Os32  1  0.498743  0.999131  0.499033  1
  Os  Os33  1  0.499038  0.499728  0.000776  1
  Os  Os34  1  0.000952  0.500685  0.498497  1
  Os  Os35  1  0.499038  0.499728  0.499224  1
  Os  Os36  1  0.999519  0.000140  0.000082  1
  Os  Os37  1  0.999519  0.000140  0.499918  1
