# generated using pymatgen
data_Tm6BiSbO14
_symmetry_space_group_name_H-M   'P 1'
_cell_length_a   6.35583041
_cell_length_b   6.37651767
_cell_length_c   7.49219800
_cell_angle_alpha   106.71375852
_cell_angle_beta   90.07477679
_cell_angle_gamma   98.18414044
_symmetry_Int_Tables_number   1
_chemical_formula_structural   Tm6BiSbO14
_chemical_formula_sum   'Tm6 Bi1 Sb1 O14'
_cell_volume   287.56864575
_cell_formula_units_Z   1
loop_
 _symmetry_equiv_pos_site_id
 _symmetry_equiv_pos_as_xyz
  1  'x, y, z'
loop_
 _atom_site_type_symbol
 _atom_site_label
 _atom_site_symmetry_multiplicity
 _atom_site_fract_x
 _atom_site_fract_y
 _atom_site_fract_z
 _atom_site_occupancy
  Tm  Tm0  1  0.731297  0.461088  0.115298  1
  Tm  Tm1  1  0.733342  0.473164  0.609825  1
  Tm  Tm2  1  0.539643  0.994918  0.752607  1
  Tm  Tm3  1  0.460357  0.005082  0.247393  1
  Tm  Tm4  1  0.266658  0.526836  0.390175  1
  Tm  Tm5  1  0.268703  0.538912  0.884702  1
  Bi  Bi6  1  0.000000  0.000000  0.500000  1
  Sb  Sb7  1  0.000000  0.000000  0.000000  1
  O  O8  1  0.695404  0.075629  0.490019  1
  O  O9  1  0.930245  0.682647  0.978412  1
  O  O10  1  0.706656  0.071518  0.052178  1
  O  O11  1  0.929819  0.642070  0.382285  1
  O  O12  1  0.880550  0.900046  0.733765  1
  O  O13  1  0.556290  0.351474  0.833962  1
  O  O14  1  0.544854  0.361268  0.342945  1
  O  O15  1  0.455146  0.638732  0.657055  1
  O  O16  1  0.443710  0.648526  0.166038  1
  O  O17  1  0.119450  0.099954  0.266235  1
  O  O18  1  0.070181  0.357930  0.617715  1
  O  O19  1  0.293344  0.928482  0.947822  1
  O  O20  1  0.069755  0.317353  0.021588  1
  O  O21  1  0.304596  0.924371  0.509981  1
