# generated using pymatgen
data_YScBe2AlIr5
_symmetry_space_group_name_H-M   'P 1'
_cell_length_a   9.63096945
_cell_length_b   9.63096945
_cell_length_c   3.11830000
_cell_angle_alpha   90.00000000
_cell_angle_beta   90.00000000
_cell_angle_gamma   89.29852315
_symmetry_Int_Tables_number   1
_chemical_formula_structural   YScBe2AlIr5
_chemical_formula_sum   'Y2 Sc2 Be4 Al2 Ir10'
_cell_volume   289.21802472
_cell_formula_units_Z   2
loop_
 _symmetry_equiv_pos_site_id
 _symmetry_equiv_pos_as_xyz
  1  'x, y, z'
loop_
 _atom_site_type_symbol
 _atom_site_label
 _atom_site_symmetry_multiplicity
 _atom_site_fract_x
 _atom_site_fract_y
 _atom_site_fract_z
 _atom_site_occupancy
  Y  Y0  1  0.677375  0.177375  0.000000  1
  Y  Y1  1  0.322625  0.822625  0.000000  1
  Sc  Sc2  1  0.174513  0.325487  0.000000  1
  Sc  Sc3  1  0.825487  0.674513  0.000000  1
  Be  Be4  1  0.121265  0.621265  0.000000  1
  Be  Be5  1  0.878735  0.378735  0.000000  1
  Be  Be6  1  0.624929  0.875071  0.000000  1
  Be  Be7  1  0.375071  0.124929  0.000000  1
  Al  Al8  1  0.000000  0.000000  0.000000  1
  Al  Al9  1  0.500000  0.500000  0.000000  1
  Ir  Ir10  1  0.207050  0.073659  0.500000  1
  Ir  Ir11  1  0.792950  0.926341  0.500000  1
  Ir  Ir12  1  0.058844  0.787130  0.500000  1
  Ir  Ir13  1  0.712870  0.441156  0.500000  1
  Ir  Ir14  1  0.941156  0.212870  0.500000  1
  Ir  Ir15  1  0.287130  0.558844  0.500000  1
  Ir  Ir16  1  0.573659  0.707050  0.500000  1
  Ir  Ir17  1  0.426341  0.292950  0.500000  1
  Ir  Ir18  1  0.500000  0.000000  0.500000  1
  Ir  Ir19  1  0.000000  0.500000  0.500000  1
