# generated using pymatgen
data_Tb7Ho9Cd4FePd3
_symmetry_space_group_name_H-M   'P 1'
_cell_length_a   9.65247296
_cell_length_b   9.65247277
_cell_length_c   9.65168664
_cell_angle_alpha   59.72098985
_cell_angle_beta   59.72098777
_cell_angle_gamma   59.73872130
_symmetry_Int_Tables_number   1
_chemical_formula_structural   Tb7Ho9Cd4FePd3
_chemical_formula_sum   'Tb7 Ho9 Cd4 Fe1 Pd3'
_cell_volume   631.92174852
_cell_formula_units_Z   1
loop_
 _symmetry_equiv_pos_site_id
 _symmetry_equiv_pos_as_xyz
  1  'x, y, z'
loop_
 _atom_site_type_symbol
 _atom_site_label
 _atom_site_symmetry_multiplicity
 _atom_site_fract_x
 _atom_site_fract_y
 _atom_site_fract_z
 _atom_site_occupancy
  Tb  Tb0  1  0.810513  0.810513  0.188413  1
  Tb  Tb1  1  0.934885  0.564917  0.565213  1
  Tb  Tb2  1  0.560348  0.936413  0.936237  1
  Tb  Tb3  1  0.564917  0.934885  0.565213  1
  Tb  Tb4  1  0.936413  0.560348  0.936237  1
  Tb  Tb5  1  0.565042  0.565042  0.934784  1
  Tb  Tb6  1  0.936333  0.936333  0.560469  1
  Ho  Ho7  1  0.353096  0.353096  0.353137  1
  Ho  Ho8  1  0.346440  0.346440  0.949120  1
  Ho  Ho9  1  0.346127  0.949234  0.346555  1
  Ho  Ho10  1  0.949234  0.346127  0.346555  1
  Ho  Ho11  1  0.821621  0.188158  0.187876  1
  Ho  Ho12  1  0.188578  0.810588  0.810348  1
  Ho  Ho13  1  0.188158  0.821621  0.187876  1
  Ho  Ho14  1  0.810588  0.188578  0.810348  1
  Ho  Ho15  1  0.187901  0.187901  0.821600  1
  Cd  Cd16  1  0.580208  0.580208  0.580417  1
  Cd  Cd17  1  0.581405  0.581405  0.254902  1
  Cd  Cd18  1  0.581465  0.254881  0.581488  1
  Cd  Cd19  1  0.254881  0.581465  0.581488  1
  Fe  Fe20  1  0.143130  0.143130  0.143141  1
  Pd  Pd21  1  0.144440  0.144440  0.569763  1
  Pd  Pd22  1  0.145079  0.569199  0.144409  1
  Pd  Pd23  1  0.569199  0.145079  0.144409  1
