# generated using pymatgen
data_Fe(OsCl6)5
_symmetry_space_group_name_H-M   'P 1'
_cell_length_a   13.24660374
_cell_length_b   13.26868222
_cell_length_c   6.30356749
_cell_angle_alpha   89.25779001
_cell_angle_beta   89.02291989
_cell_angle_gamma   85.89523386
_symmetry_Int_Tables_number   1
_chemical_formula_structural   Fe(OsCl6)5
_chemical_formula_sum   'Fe1 Os5 Cl30'
_cell_volume   1104.86715864
_cell_formula_units_Z   1
loop_
 _symmetry_equiv_pos_site_id
 _symmetry_equiv_pos_as_xyz
  1  'x, y, z'
loop_
 _atom_site_type_symbol
 _atom_site_label
 _atom_site_symmetry_multiplicity
 _atom_site_fract_x
 _atom_site_fract_y
 _atom_site_fract_z
 _atom_site_occupancy
  Fe  Fe0  1  0.227583  0.438726  0.474696  1
  Os  Os1  1  0.435210  0.231252  0.474312  1
  Os  Os2  1  0.770128  0.563324  0.525857  1
  Os  Os3  1  0.562904  0.770412  0.525881  1
  Os  Os4  1  0.103708  0.896718  0.999740  1
  Os  Os5  1  0.896239  0.103779  0.999788  1
  Cl  Cl6  1  0.527291  0.330136  0.254784  1
  Cl  Cl7  1  0.668465  0.474504  0.744596  1
  Cl  Cl8  1  0.473308  0.669638  0.745196  1
  Cl  Cl9  1  0.326010  0.521060  0.267598  1
  Cl  Cl10  1  0.569257  0.199193  0.688449  1
  Cl  Cl11  1  0.800113  0.430754  0.309877  1
  Cl  Cl12  1  0.867387  0.236639  0.778539  1
  Cl  Cl13  1  0.762725  0.132849  0.221183  1
  Cl  Cl14  1  0.132600  0.763921  0.221190  1
  Cl  Cl15  1  0.237123  0.867535  0.778322  1
  Cl  Cl16  1  0.996930  0.192664  0.207875  1
  Cl  Cl17  1  0.807676  0.002816  0.791498  1
  Cl  Cl18  1  0.003178  0.807700  0.791576  1
  Cl  Cl19  1  0.192120  0.997725  0.207994  1
  Cl  Cl20  1  0.048993  0.048850  0.792523  1
  Cl  Cl21  1  0.950861  0.951585  0.206944  1
  Cl  Cl22  1  0.286245  0.285847  0.276525  1
  Cl  Cl23  1  0.714832  0.715334  0.727584  1
  Cl  Cl24  1  0.101311  0.465055  0.266714  1
  Cl  Cl25  1  0.533605  0.903507  0.740461  1
  Cl  Cl26  1  0.902843  0.534112  0.740713  1
  Cl  Cl27  1  0.466527  0.097064  0.259799  1
  Cl  Cl28  1  0.145148  0.340587  0.682049  1
  Cl  Cl29  1  0.664677  0.859010  0.306481  1
  Cl  Cl30  1  0.859618  0.664230  0.306805  1
  Cl  Cl31  1  0.335535  0.140047  0.693699  1
  Cl  Cl32  1  0.380782  0.380343  0.672146  1
  Cl  Cl33  1  0.618160  0.618252  0.324441  1
  Cl  Cl34  1  0.200549  0.564773  0.683843  1
  Cl  Cl35  1  0.430356  0.800059  0.310321  1
