# generated using pymatgen
data_La9NdAl(ZnRu2)3
_symmetry_space_group_name_H-M   'P 1'
_cell_length_a   8.53910694
_cell_length_b   8.67611346
_cell_length_c   8.59835583
_cell_angle_alpha   109.96282479
_cell_angle_beta   109.26136184
_cell_angle_gamma   109.59645220
_symmetry_Int_Tables_number   1
_chemical_formula_structural   La9NdAl(ZnRu2)3
_chemical_formula_sum   'La9 Nd1 Al1 Zn3 Ru6'
_cell_volume   487.88601535
_cell_formula_units_Z   1
loop_
 _symmetry_equiv_pos_site_id
 _symmetry_equiv_pos_as_xyz
  1  'x, y, z'
loop_
 _atom_site_type_symbol
 _atom_site_label
 _atom_site_symmetry_multiplicity
 _atom_site_fract_x
 _atom_site_fract_y
 _atom_site_fract_z
 _atom_site_occupancy
  La  La0  1  0.748604  0.809379  0.058100  1
  La  La1  1  0.441709  0.250455  0.689742  1
  La  La2  1  0.691531  0.437640  0.248928  1
  La  La3  1  0.058570  0.746947  0.808376  1
  La  La4  1  0.808592  0.060245  0.750342  1
  La  La5  1  0.216640  0.218624  0.216527  1
  La  La6  1  0.499263  0.000978  0.283263  1
  La  La7  1  0.283039  0.500541  0.999387  1
  La  La8  1  0.001137  0.284420  0.501008  1
  Nd  Nd9  1  0.250505  0.684647  0.436353  1
  Al  Al10  1  0.001027  0.910651  0.499445  1
  Zn  Zn11  1  0.496599  0.997167  0.910273  1
  Zn  Zn12  1  0.584378  0.586369  0.584009  1
  Zn  Zn13  1  0.917909  0.503334  0.004739  1
  Ru  Ru14  1  0.243332  0.121439  0.866265  1
  Ru  Ru15  1  0.747176  0.372111  0.621929  1
  Ru  Ru16  1  0.881510  0.254082  0.127921  1
  Ru  Ru17  1  0.119237  0.882172  0.253626  1
  Ru  Ru18  1  0.631140  0.753943  0.377948  1
  Ru  Ru19  1  0.378104  0.624857  0.761821  1
