# generated using pymatgen
data_TiCo6Mo
_symmetry_space_group_name_H-M   'P 1'
_cell_length_a   5.08290000
_cell_length_b   5.08290091
_cell_length_c   4.09486900
_cell_angle_alpha   90.00000000
_cell_angle_beta   90.00000000
_cell_angle_gamma   120.00000708
_symmetry_Int_Tables_number   1
_chemical_formula_structural   TiCo6Mo
_chemical_formula_sum   'Ti1 Co6 Mo1'
_cell_volume   91.62074574
_cell_formula_units_Z   1
loop_
 _symmetry_equiv_pos_site_id
 _symmetry_equiv_pos_as_xyz
  1  'x, y, z'
loop_
 _atom_site_type_symbol
 _atom_site_label
 _atom_site_symmetry_multiplicity
 _atom_site_fract_x
 _atom_site_fract_y
 _atom_site_fract_z
 _atom_site_occupancy
  Ti  Ti0  1  0.333333  0.666667  0.250000  1
  Co  Co1  1  0.838993  0.677986  0.250000  1
  Co  Co2  1  0.159286  0.840714  0.750000  1
  Co  Co3  1  0.681429  0.840714  0.750000  1
  Co  Co4  1  0.322014  0.161007  0.250000  1
  Co  Co5  1  0.838993  0.161007  0.250000  1
  Co  Co6  1  0.159286  0.318571  0.750000  1
  Mo  Mo7  1  0.666667  0.333333  0.750000  1
