# generated using pymatgen
data_Cs2SrTa2(Nb2Br9)2
_symmetry_space_group_name_H-M   'P 1'
_cell_length_a   11.08438139
_cell_length_b   11.08572069
_cell_length_c   11.08488146
_cell_angle_alpha   55.04702464
_cell_angle_beta   55.05008855
_cell_angle_gamma   55.05315135
_symmetry_Int_Tables_number   1
_chemical_formula_structural   Cs2SrTa2(Nb2Br9)2
_chemical_formula_sum   'Cs2 Sr1 Ta2 Nb4 Br18'
_cell_volume   852.24236719
_cell_formula_units_Z   1
loop_
 _symmetry_equiv_pos_site_id
 _symmetry_equiv_pos_as_xyz
  1  'x, y, z'
loop_
 _atom_site_type_symbol
 _atom_site_label
 _atom_site_symmetry_multiplicity
 _atom_site_fract_x
 _atom_site_fract_y
 _atom_site_fract_z
 _atom_site_occupancy
  Cs  Cs0  1  0.276640  0.277070  0.276354  1
  Cs  Cs1  1  0.722895  0.723462  0.723561  1
  Sr  Sr2  1  0.000365  0.000419  0.999235  1
  Ta  Ta3  1  0.576197  0.689521  0.362172  1
  Ta  Ta4  1  0.310443  0.637689  0.423910  1
  Nb  Nb5  1  0.423204  0.308721  0.639093  1
  Nb  Nb6  1  0.361316  0.576604  0.690914  1
  Nb  Nb7  1  0.691187  0.360930  0.576939  1
  Nb  Nb8  1  0.638790  0.423183  0.309194  1
  Br  Br9  1  0.638421  0.096388  0.767353  1
  Br  Br10  1  0.766732  0.639831  0.097475  1
  Br  Br11  1  0.096706  0.767383  0.636396  1
  Br  Br12  1  0.825499  0.322862  0.042346  1
  Br  Br13  1  0.170482  0.437371  0.575187  1
  Br  Br14  1  0.676294  0.955156  0.175779  1
  Br  Br15  1  0.903909  0.232484  0.361435  1
  Br  Br16  1  0.564757  0.423412  0.829928  1
  Br  Br17  1  0.424833  0.829735  0.562662  1
  Br  Br18  1  0.957810  0.174441  0.677346  1
  Br  Br19  1  0.173882  0.678345  0.957127  1
  Br  Br20  1  0.045063  0.824417  0.323155  1
  Br  Br21  1  0.321957  0.042533  0.825988  1
  Br  Br22  1  0.232420  0.361548  0.903992  1
  Br  Br23  1  0.576693  0.170102  0.435134  1
  Br  Br24  1  0.433188  0.577888  0.171706  1
  Br  Br25  1  0.362226  0.901741  0.233536  1
  Br  Br26  1  0.828088  0.566765  0.422084  1
