# generated using pymatgen
data_Lu3Mn(Co4P3)2
_symmetry_space_group_name_H-M   'P 1'
_cell_length_a   3.66588900
_cell_length_b   10.49101700
_cell_length_c   12.13150400
_cell_angle_alpha   90.00000000
_cell_angle_beta   90.00000000
_cell_angle_gamma   90.00000000
_symmetry_Int_Tables_number   1
_chemical_formula_structural   Lu3Mn(Co4P3)2
_chemical_formula_sum   'Lu6 Mn2 Co16 P12'
_cell_volume   466.56434552
_cell_formula_units_Z   2
loop_
 _symmetry_equiv_pos_site_id
 _symmetry_equiv_pos_as_xyz
  1  'x, y, z'
loop_
 _atom_site_type_symbol
 _atom_site_label
 _atom_site_symmetry_multiplicity
 _atom_site_fract_x
 _atom_site_fract_y
 _atom_site_fract_z
 _atom_site_occupancy
  Lu  Lu0  1  0.000000  0.500000  0.523248  1
  Lu  Lu1  1  0.500000  0.000000  0.476752  1
  Lu  Lu2  1  0.500000  0.818513  0.205355  1
  Lu  Lu3  1  0.500000  0.181487  0.205355  1
  Lu  Lu4  1  0.000000  0.681487  0.794645  1
  Lu  Lu5  1  0.000000  0.318513  0.794645  1
  Mn  Mn6  1  0.500000  0.500000  0.159395  1
  Mn  Mn7  1  0.000000  0.000000  0.840605  1
  Co  Co8  1  0.500000  0.500000  0.702522  1
  Co  Co9  1  0.000000  0.000000  0.297478  1
  Co  Co10  1  0.000000  0.500000  0.985981  1
  Co  Co11  1  0.500000  0.000000  0.014019  1
  Co  Co12  1  0.500000  0.332832  0.993330  1
  Co  Co13  1  0.500000  0.667168  0.993330  1
  Co  Co14  1  0.000000  0.167168  0.006670  1
  Co  Co15  1  0.000000  0.832832  0.006670  1
  Co  Co16  1  0.500000  0.296749  0.430797  1
  Co  Co17  1  0.500000  0.703251  0.430797  1
  Co  Co18  1  0.000000  0.203251  0.569203  1
  Co  Co19  1  0.000000  0.796749  0.569203  1
  Co  Co20  1  0.500000  0.878547  0.708809  1
  Co  Co21  1  0.500000  0.121453  0.708809  1
  Co  Co22  1  0.000000  0.621453  0.291191  1
  Co  Co23  1  0.000000  0.378547  0.291191  1
  P  P24  1  0.500000  0.500000  0.881522  1
  P  P25  1  0.000000  0.000000  0.118478  1
  P  P26  1  0.500000  0.500000  0.346451  1
  P  P27  1  0.000000  0.000000  0.653549  1
  P  P28  1  0.500000  0.312555  0.616766  1
  P  P29  1  0.500000  0.687445  0.616766  1
  P  P30  1  0.000000  0.187445  0.383234  1
  P  P31  1  0.000000  0.812555  0.383234  1
  P  P32  1  0.500000  0.846994  0.891793  1
  P  P33  1  0.500000  0.153006  0.891793  1
  P  P34  1  0.000000  0.653006  0.108207  1
  P  P35  1  0.000000  0.346994  0.108207  1
