# generated using pymatgen
data_La4TbNdOsI10
_symmetry_space_group_name_H-M   'P 1'
_cell_length_a   8.12487603
_cell_length_b   10.10503586
_cell_length_c   10.07268397
_cell_angle_alpha   106.69077936
_cell_angle_beta   97.05497639
_cell_angle_gamma   105.94314892
_symmetry_Int_Tables_number   1
_chemical_formula_structural   La4TbNdOsI10
_chemical_formula_sum   'La4 Tb1 Nd1 Os1 I10'
_cell_volume   743.18554535
_cell_formula_units_Z   1
loop_
 _symmetry_equiv_pos_site_id
 _symmetry_equiv_pos_as_xyz
  1  'x, y, z'
loop_
 _atom_site_type_symbol
 _atom_site_label
 _atom_site_symmetry_multiplicity
 _atom_site_fract_x
 _atom_site_fract_y
 _atom_site_fract_z
 _atom_site_occupancy
  La  La0  1  0.860745  0.134658  0.677926  1
  La  La1  1  0.139484  0.862886  0.321894  1
  La  La2  1  0.384717  0.953643  0.724941  1
  La  La3  1  0.614836  0.044282  0.274043  1
  Tb  Tb4  1  0.531508  0.712280  0.415177  1
  Nd  Nd5  1  0.466413  0.292830  0.585331  1
  Os  Os6  1  0.499749  0.998870  0.499438  1
  I  I7  1  0.419224  0.627631  0.670490  1
  I  I8  1  0.583211  0.377166  0.324011  1
  I  I9  1  0.295035  0.261991  0.846482  1
  I  I10  1  0.700683  0.735348  0.159087  1
  I  I11  1  0.847263  0.458568  0.772658  1
  I  I12  1  0.161582  0.542474  0.230765  1
  I  I13  1  0.047606  0.182545  0.410596  1
  I  I14  1  0.243777  0.914494  0.039644  1
  I  I15  1  0.755922  0.085010  0.960424  1
  I  I16  1  0.948245  0.815323  0.587093  1
