# generated using pymatgen
data_Ho4NbRe2Os5
_symmetry_space_group_name_H-M   'P 1'
_cell_length_a   5.34032862
_cell_length_b   5.26285844
_cell_length_c   8.97680200
_cell_angle_alpha   90.00000000
_cell_angle_beta   90.00000000
_cell_angle_gamma   117.52539833
_symmetry_Int_Tables_number   1
_chemical_formula_structural   Ho4NbRe2Os5
_chemical_formula_sum   'Ho4 Nb1 Re2 Os5'
_cell_volume   223.73811219
_cell_formula_units_Z   1
loop_
 _symmetry_equiv_pos_site_id
 _symmetry_equiv_pos_as_xyz
  1  'x, y, z'
loop_
 _atom_site_type_symbol
 _atom_site_label
 _atom_site_symmetry_multiplicity
 _atom_site_fract_x
 _atom_site_fract_y
 _atom_site_fract_z
 _atom_site_occupancy
  Ho  Ho0  1  0.329354  0.670663  0.437126  1
  Ho  Ho1  1  0.669983  0.332750  0.567486  1
  Ho  Ho2  1  0.669983  0.332750  0.932514  1
  Ho  Ho3  1  0.329354  0.670663  0.062874  1
  Nb  Nb4  1  0.836232  0.162098  0.250000  1
  Re  Re5  1  0.162337  0.832010  0.750000  1
  Re  Re6  1  0.171946  0.345156  0.750000  1
  Os  Os7  1  0.009147  0.001179  0.504124  1
  Os  Os8  1  0.009147  0.001179  0.995876  1
  Os  Os9  1  0.820730  0.653372  0.250000  1
  Os  Os10  1  0.345660  0.177599  0.250000  1
  Os  Os11  1  0.646129  0.820578  0.750000  1
