# generated using pymatgen
data_La2Tb3S7
_symmetry_space_group_name_H-M   'P 1'
_cell_length_a   6.75213725
_cell_length_b   6.75213838
_cell_length_c   12.05157700
_cell_angle_alpha   75.71800796
_cell_angle_beta   75.71800553
_cell_angle_gamma   34.46056092
_symmetry_Int_Tables_number   1
_chemical_formula_structural   La2Tb3S7
_chemical_formula_sum   'La2 Tb3 S7'
_cell_volume   300.34966946
_cell_formula_units_Z   1
loop_
 _symmetry_equiv_pos_site_id
 _symmetry_equiv_pos_as_xyz
  1  'x, y, z'
loop_
 _atom_site_type_symbol
 _atom_site_label
 _atom_site_symmetry_multiplicity
 _atom_site_fract_x
 _atom_site_fract_y
 _atom_site_fract_z
 _atom_site_occupancy
  La  La0  1  0.302437  0.302437  0.806452  1
  La  La1  1  0.697563  0.697563  0.193548  1
  Tb  Tb2  1  0.112149  0.112149  0.574809  1
  Tb  Tb3  1  0.887851  0.887851  0.425191  1
  Tb  Tb4  1  0.000000  0.000000  0.000000  1
  S  S5  1  0.263056  0.263056  0.359487  1
  S  S6  1  0.736944  0.736944  0.640513  1
  S  S7  1  0.968612  0.968612  0.784312  1
  S  S8  1  0.031388  0.031388  0.215688  1
  S  S9  1  0.655340  0.655340  0.949581  1
  S  S10  1  0.500000  0.500000  0.500000  1
  S  S11  1  0.344660  0.344660  0.050419  1
