# generated using pymatgen
data_Ta11Nb(BOs)12
_symmetry_space_group_name_H-M   'P 1'
_cell_length_a   3.10580700
_cell_length_b   9.09596094
_cell_length_c   15.84973908
_cell_angle_alpha   90.09193488
_cell_angle_beta   90.00000000
_cell_angle_gamma   90.00000000
_symmetry_Int_Tables_number   1
_chemical_formula_structural   Ta11Nb(BOs)12
_chemical_formula_sum   'Ta11 Nb1 B12 Os12'
_cell_volume   447.75929416
_cell_formula_units_Z   1
loop_
 _symmetry_equiv_pos_site_id
 _symmetry_equiv_pos_as_xyz
  1  'x, y, z'
loop_
 _atom_site_type_symbol
 _atom_site_label
 _atom_site_symmetry_multiplicity
 _atom_site_fract_x
 _atom_site_fract_y
 _atom_site_fract_z
 _atom_site_occupancy
  Ta  Ta0  1  0.000000  0.799628  0.495275  1
  Ta  Ta1  1  0.000000  0.201408  0.504552  1
  Ta  Ta2  1  0.000000  0.298689  0.004615  1
  Ta  Ta3  1  0.000000  0.700855  0.995607  1
  Ta  Ta4  1  0.000000  0.516618  0.593867  1
  Ta  Ta5  1  0.000000  0.484009  0.406756  1
  Ta  Ta6  1  0.000000  0.015522  0.906269  1
  Ta  Ta7  1  0.000000  0.983977  0.093556  1
  Ta  Ta8  1  0.000000  0.687943  0.202349  1
  Ta  Ta9  1  0.000000  0.312255  0.797884  1
  Ta  Ta10  1  0.000000  0.188285  0.297896  1
  Nb  Nb11  1  0.000000  0.810997  0.701393  1
  B  B12  1  0.500000  0.604449  0.497352  1
  B  B13  1  0.500000  0.395864  0.502973  1
  B  B14  1  0.500000  0.104112  0.002963  1
  B  B15  1  0.500000  0.895513  0.997020  1
  B  B16  1  0.000000  0.608906  0.832110  1
  B  B17  1  0.000000  0.391304  0.167740  1
  B  B18  1  0.000000  0.108895  0.667396  1
  B  B19  1  0.000000  0.890713  0.332348  1
  B  B20  1  0.500000  0.715876  0.596768  1
  B  B21  1  0.500000  0.284774  0.402204  1
  B  B22  1  0.500000  0.215275  0.902144  1
  B  B23  1  0.500000  0.784354  0.098170  1
  Os  Os24  1  0.500000  0.719585  0.355052  1
  Os  Os25  1  0.500000  0.280738  0.644617  1
  Os  Os26  1  0.500000  0.219535  0.144733  1
  Os  Os27  1  0.500000  0.779982  0.855832  1
  Os  Os28  1  0.500000  0.515787  0.093738  1
  Os  Os29  1  0.500000  0.483655  0.906863  1
  Os  Os30  1  0.500000  0.016282  0.406038  1
  Os  Os31  1  0.500000  0.985308  0.592951  1
  Os  Os32  1  0.500000  0.557828  0.735519  1
  Os  Os33  1  0.500000  0.439943  0.265459  1
  Os  Os34  1  0.500000  0.061341  0.765710  1
  Os  Os35  1  0.500000  0.939796  0.234280  1
