# generated using pymatgen
data_Sc12Re3Si16Ru5
_symmetry_space_group_name_H-M   'P 1'
_cell_length_a   5.39908564
_cell_length_b   10.15156659
_cell_length_c   11.51789343
_cell_angle_alpha   94.49210037
_cell_angle_beta   103.53967059
_cell_angle_gamma   105.52370519
_symmetry_Int_Tables_number   1
_chemical_formula_structural   Sc12Re3Si16Ru5
_chemical_formula_sum   'Sc12 Re3 Si16 Ru5'
_cell_volume   584.61660366
_cell_formula_units_Z   1
loop_
 _symmetry_equiv_pos_site_id
 _symmetry_equiv_pos_as_xyz
  1  'x, y, z'
loop_
 _atom_site_type_symbol
 _atom_site_label
 _atom_site_symmetry_multiplicity
 _atom_site_fract_x
 _atom_site_fract_y
 _atom_site_fract_z
 _atom_site_occupancy
  Sc  Sc0  1  0.531931  0.286044  0.047608  1
  Sc  Sc1  1  0.173496  0.467523  0.138173  1
  Sc  Sc2  1  0.454837  0.995021  0.155304  1
  Sc  Sc3  1  0.798734  0.502667  0.344755  1
  Sc  Sc4  1  0.068270  0.032004  0.362023  1
  Sc  Sc5  1  0.697093  0.211545  0.451534  1
  Sc  Sc6  1  0.299620  0.785839  0.549098  1
  Sc  Sc7  1  0.929127  0.968094  0.636290  1
  Sc  Sc8  1  0.201422  0.497025  0.654976  1
  Sc  Sc9  1  0.541122  0.003184  0.844046  1
  Sc  Sc10  1  0.827163  0.532643  0.863952  1
  Sc  Sc11  1  0.464050  0.718427  0.950735  1
  Re  Re12  1  0.891682  0.248231  0.717370  1
  Re  Re13  1  0.428078  0.255324  0.782717  1
  Re  Re14  1  0.013191  0.869347  0.922353  1
  Si  Si15  1  0.127494  0.721974  0.077016  1
  Si  Si16  1  0.718494  0.568334  0.114535  1
  Si  Si17  1  0.891744  0.891653  0.124687  1
  Si  Si18  1  0.363903  0.249074  0.249752  1
  Si  Si19  1  0.889642  0.249967  0.249969  1
  Si  Si20  1  0.371907  0.605706  0.376240  1
  Si  Si21  1  0.536364  0.930076  0.384979  1
  Si  Si22  1  0.827320  0.777539  0.425673  1
  Si  Si23  1  0.174203  0.224804  0.570244  1
  Si  Si24  1  0.457652  0.066803  0.612662  1
  Si  Si25  1  0.629325  0.397665  0.620126  1
  Si  Si26  1  0.106925  0.748536  0.748132  1
  Si  Si27  1  0.637662  0.750565  0.749226  1
  Si  Si28  1  0.107645  0.104738  0.877303  1
  Si  Si29  1  0.281257  0.436021  0.889208  1
  Si  Si30  1  0.880545  0.275733  0.929905  1
  Ru  Ru31  1  0.990340  0.127762  0.080471  1
  Ru  Ru32  1  0.574782  0.744704  0.216558  1
  Ru  Ru33  1  0.112050  0.752689  0.285804  1
  Ru  Ru34  1  0.284263  0.371484  0.419158  1
  Ru  Ru35  1  0.716672  0.631256  0.577416  1
