# generated using pymatgen
data_Lu20ZnFeBi10
_symmetry_space_group_name_H-M   'P 1'
_cell_length_a   7.97575435
_cell_length_b   9.32415600
_cell_length_c   11.78716047
_cell_angle_alpha   90.00000000
_cell_angle_beta   89.93050599
_cell_angle_gamma   90.00000000
_symmetry_Int_Tables_number   1
_chemical_formula_structural   Lu20ZnFeBi10
_chemical_formula_sum   'Lu20 Zn1 Fe1 Bi10'
_cell_volume   876.57721334
_cell_formula_units_Z   1
loop_
 _symmetry_equiv_pos_site_id
 _symmetry_equiv_pos_as_xyz
  1  'x, y, z'
loop_
 _atom_site_type_symbol
 _atom_site_label
 _atom_site_symmetry_multiplicity
 _atom_site_fract_x
 _atom_site_fract_y
 _atom_site_fract_z
 _atom_site_occupancy
  Lu  Lu0  1  0.036978  0.250000  0.506949  1
  Lu  Lu1  1  0.983560  0.750000  0.490347  1
  Lu  Lu2  1  0.489215  0.750000  0.005496  1
  Lu  Lu3  1  0.553271  0.250000  0.991917  1
  Lu  Lu4  1  0.353146  0.250000  0.300397  1
  Lu  Lu5  1  0.646693  0.750000  0.720301  1
  Lu  Lu6  1  0.165876  0.750000  0.778888  1
  Lu  Lu7  1  0.853338  0.250000  0.192906  1
  Lu  Lu8  1  0.136864  0.250000  0.803433  1
  Lu  Lu9  1  0.811460  0.750000  0.218176  1
  Lu  Lu10  1  0.310024  0.750000  0.280376  1
  Lu  Lu11  1  0.681172  0.250000  0.711512  1
  Lu  Lu12  1  0.178921  0.075838  0.057017  1
  Lu  Lu13  1  0.820532  0.979117  0.942022  1
  Lu  Lu14  1  0.311863  0.954361  0.556506  1
  Lu  Lu15  1  0.820532  0.520883  0.942022  1
  Lu  Lu16  1  0.686647  0.071763  0.441673  1
  Lu  Lu17  1  0.178921  0.424162  0.057017  1
  Lu  Lu18  1  0.686647  0.428237  0.441673  1
  Lu  Lu19  1  0.311863  0.545639  0.556506  1
  Zn  Zn20  1  0.413325  0.250000  0.540139  1
  Fe  Fe21  1  0.920174  0.250000  0.976828  1
  Bi  Bi22  1  0.595433  0.750000  0.458669  1
  Bi  Bi23  1  0.094370  0.750000  0.036619  1
  Bi  Bi24  1  0.056598  0.001719  0.322447  1
  Bi  Bi25  1  0.936228  0.993517  0.673764  1
  Bi  Bi26  1  0.431981  0.004346  0.822617  1
  Bi  Bi27  1  0.936228  0.506483  0.673764  1
  Bi  Bi28  1  0.554779  0.000059  0.177478  1
  Bi  Bi29  1  0.056598  0.498281  0.322447  1
  Bi  Bi30  1  0.554779  0.499941  0.177478  1
  Bi  Bi31  1  0.431981  0.495654  0.822617  1
