# generated using pymatgen
data_Tb4Ho12CdNi4Ag3
_symmetry_space_group_name_H-M   'P 1'
_cell_length_a   9.43487474
_cell_length_b   9.46432990
_cell_length_c   9.46433100
_cell_angle_alpha   59.99999967
_cell_angle_beta   59.89667269
_cell_angle_gamma   59.89667772
_symmetry_Int_Tables_number   1
_chemical_formula_structural   Tb4Ho12CdNi4Ag3
_chemical_formula_sum   'Tb4 Ho12 Cd1 Ni4 Ag3'
_cell_volume   596.65172624
_cell_formula_units_Z   1
loop_
 _symmetry_equiv_pos_site_id
 _symmetry_equiv_pos_as_xyz
  1  'x, y, z'
loop_
 _atom_site_type_symbol
 _atom_site_label
 _atom_site_symmetry_multiplicity
 _atom_site_fract_x
 _atom_site_fract_y
 _atom_site_fract_z
 _atom_site_occupancy
  Tb  Tb0  1  0.350096  0.350808  0.350808  1
  Tb  Tb1  1  0.350096  0.350808  0.948288  1
  Tb  Tb2  1  0.350096  0.948288  0.350808  1
  Tb  Tb3  1  0.947994  0.350668  0.350668  1
  Ho  Ho4  1  0.811416  0.188519  0.188519  1
  Ho  Ho5  1  0.188461  0.811986  0.811986  1
  Ho  Ho6  1  0.188461  0.811986  0.187566  1
  Ho  Ho7  1  0.811416  0.188519  0.811547  1
  Ho  Ho8  1  0.188461  0.187566  0.811986  1
  Ho  Ho9  1  0.811416  0.811547  0.188519  1
  Ho  Ho10  1  0.932758  0.564746  0.564746  1
  Ho  Ho11  1  0.564572  0.935402  0.935402  1
  Ho  Ho12  1  0.564572  0.935402  0.564624  1
  Ho  Ho13  1  0.932758  0.564746  0.937750  1
  Ho  Ho14  1  0.564572  0.564624  0.935402  1
  Ho  Ho15  1  0.932758  0.937750  0.564746  1
  Cd  Cd16  1  0.264485  0.578506  0.578506  1
  Ni  Ni17  1  0.141118  0.142825  0.142825  1
  Ni  Ni18  1  0.141118  0.142825  0.573230  1
  Ni  Ni19  1  0.141118  0.573230  0.142825  1
  Ni  Ni20  1  0.571716  0.142761  0.142761  1
  Ag  Ag21  1  0.583514  0.582839  0.582839  1
  Ag  Ag22  1  0.583514  0.582839  0.250807  1
  Ag  Ag23  1  0.583514  0.250807  0.582839  1
