# generated using pymatgen
data_Ti6GaSi5Ru12
_symmetry_space_group_name_H-M   'P 1'
_cell_length_a   4.26094300
_cell_length_b   6.03004200
_cell_length_c   12.76527700
_cell_angle_alpha   90.00000000
_cell_angle_beta   90.00000000
_cell_angle_gamma   90.00000000
_symmetry_Int_Tables_number   1
_chemical_formula_structural   Ti6GaSi5Ru12
_chemical_formula_sum   'Ti6 Ga1 Si5 Ru12'
_cell_volume   327.98675406
_cell_formula_units_Z   1
loop_
 _symmetry_equiv_pos_site_id
 _symmetry_equiv_pos_as_xyz
  1  'x, y, z'
loop_
 _atom_site_type_symbol
 _atom_site_label
 _atom_site_symmetry_multiplicity
 _atom_site_fract_x
 _atom_site_fract_y
 _atom_site_fract_z
 _atom_site_occupancy
  Ti  Ti0  1  0.999968  0.000000  0.999150  1
  Ti  Ti1  1  0.499819  0.500001  0.167080  1
  Ti  Ti2  1  0.999884  0.000000  0.333361  1
  Ti  Ti3  1  0.500061  0.500001  0.499613  1
  Ti  Ti4  1  0.000187  0.000000  0.667515  1
  Ti  Ti5  1  0.500160  0.500001  0.833308  1
  Ga  Ga6  1  0.500252  0.000000  0.833342  1
  Si  Si7  1  0.999973  0.500001  0.000028  1
  Si  Si8  1  0.499790  0.000000  0.166764  1
  Si  Si9  1  0.999920  0.500001  0.333331  1
  Si  Si10  1  0.499954  0.000000  0.499933  1
  Si  Si11  1  0.000092  0.500001  0.666593  1
  Ru  Ru12  1  0.499952  0.252623  0.003374  1
  Ru  Ru13  1  0.499952  0.747377  0.003374  1
  Ru  Ru14  1  0.999874  0.249875  0.167690  1
  Ru  Ru15  1  0.999874  0.750125  0.167690  1
  Ru  Ru16  1  0.499890  0.249312  0.333343  1
  Ru  Ru17  1  0.499890  0.750688  0.333343  1
  Ru  Ru18  1  0.000015  0.249887  0.498983  1
  Ru  Ru19  1  0.000015  0.750113  0.498983  1
  Ru  Ru20  1  0.500073  0.252601  0.663285  1
  Ru  Ru21  1  0.500073  0.747399  0.663285  1
  Ru  Ru22  1  0.000163  0.255452  0.833316  1
  Ru  Ru23  1  0.000163  0.744548  0.833316  1
