# generated using pymatgen
data_Zr6TaNb3Ga12Os7
_symmetry_space_group_name_H-M   'P 1'
_cell_length_a   8.86744418
_cell_length_b   8.86744419
_cell_length_c   8.86744332
_cell_angle_alpha   59.97471457
_cell_angle_beta   59.97471395
_cell_angle_gamma   59.97471952
_symmetry_Int_Tables_number   1
_chemical_formula_structural   Zr6TaNb3Ga12Os7
_chemical_formula_sum   'Zr6 Ta1 Nb3 Ga12 Os7'
_cell_volume   492.75527234
_cell_formula_units_Z   1
loop_
 _symmetry_equiv_pos_site_id
 _symmetry_equiv_pos_as_xyz
  1  'x, y, z'
loop_
 _atom_site_type_symbol
 _atom_site_label
 _atom_site_symmetry_multiplicity
 _atom_site_fract_x
 _atom_site_fract_y
 _atom_site_fract_z
 _atom_site_occupancy
  Zr  Zr0  1  0.703859  0.703859  0.296194  1
  Zr  Zr1  1  0.296187  0.703654  0.296187  1
  Zr  Zr2  1  0.703654  0.296187  0.296187  1
  Zr  Zr3  1  0.296187  0.296187  0.703654  1
  Zr  Zr4  1  0.703859  0.296194  0.703859  1
  Zr  Zr5  1  0.296194  0.703859  0.703859  1
  Ta  Ta6  1  0.877748  0.877748  0.877748  1
  Nb  Nb7  1  0.877773  0.877773  0.366608  1
  Nb  Nb8  1  0.877773  0.366608  0.877773  1
  Nb  Nb9  1  0.366608  0.877773  0.877773  1
  Ga  Ga10  1  0.120323  0.120323  0.639312  1
  Ga  Ga11  1  0.120323  0.639312  0.120323  1
  Ga  Ga12  1  0.639312  0.120323  0.120323  1
  Ga  Ga13  1  0.120167  0.120167  0.120167  1
  Ga  Ga14  1  0.656684  0.656684  0.029672  1
  Ga  Ga15  1  0.656684  0.029672  0.656684  1
  Ga  Ga16  1  0.029672  0.656684  0.656684  1
  Ga  Ga17  1  0.656933  0.656933  0.656933  1
  Ga  Ga18  1  0.339172  0.339172  0.982412  1
  Ga  Ga19  1  0.339172  0.982412  0.339172  1
  Ga  Ga20  1  0.982412  0.339172  0.339172  1
  Ga  Ga21  1  0.339009  0.339009  0.339009  1
  Os  Os22  1  0.999616  0.999616  0.999616  1
  Os  Os23  1  0.997819  0.997819  0.503108  1
  Os  Os24  1  0.501958  0.998020  0.501958  1
  Os  Os25  1  0.998020  0.501958  0.501958  1
  Os  Os26  1  0.501958  0.501958  0.998020  1
  Os  Os27  1  0.997819  0.503108  0.997819  1
  Os  Os28  1  0.503108  0.997819  0.997819  1
