# generated using pymatgen
data_PrLu2Th3Si4
_symmetry_space_group_name_H-M   'P 1'
_cell_length_a   7.57907552
_cell_length_b   7.57907594
_cell_length_c   4.30755900
_cell_angle_alpha   90.00000000
_cell_angle_beta   90.00000000
_cell_angle_gamma   90.30945326
_symmetry_Int_Tables_number   1
_chemical_formula_structural   PrLu2Th3Si4
_chemical_formula_sum   'Pr1 Lu2 Th3 Si4'
_cell_volume   247.43287062
_cell_formula_units_Z   1
loop_
 _symmetry_equiv_pos_site_id
 _symmetry_equiv_pos_as_xyz
  1  'x, y, z'
loop_
 _atom_site_type_symbol
 _atom_site_label
 _atom_site_symmetry_multiplicity
 _atom_site_fract_x
 _atom_site_fract_y
 _atom_site_fract_z
 _atom_site_occupancy
  Pr  Pr0  1  0.823040  0.676960  0.500000  1
  Lu  Lu1  1  0.998997  0.000902  0.000000  1
  Lu  Lu2  1  0.499098  0.501003  0.000000  1
  Th  Th3  1  0.677639  0.178736  0.500000  1
  Th  Th4  1  0.321264  0.822361  0.500000  1
  Th  Th5  1  0.178328  0.321672  0.500000  1
  Si  Si6  1  0.121275  0.616104  0.000000  1
  Si  Si7  1  0.883896  0.378725  0.000000  1
  Si  Si8  1  0.615413  0.884587  0.000000  1
  Si  Si9  1  0.381049  0.118951  0.000000  1
