# generated using pymatgen
data_HoErV2C3
_symmetry_space_group_name_H-M   'P 1'
_cell_length_a   5.71867419
_cell_length_b   5.71867423
_cell_length_c   5.53362565
_cell_angle_alpha   73.72122903
_cell_angle_beta   73.72123054
_cell_angle_gamma   34.39028486
_symmetry_Int_Tables_number   1
_chemical_formula_structural   HoErV2C3
_chemical_formula_sum   'Ho1 Er1 V2 C3'
_cell_volume   97.71598092
_cell_formula_units_Z   1
loop_
 _symmetry_equiv_pos_site_id
 _symmetry_equiv_pos_as_xyz
  1  'x, y, z'
loop_
 _atom_site_type_symbol
 _atom_site_label
 _atom_site_symmetry_multiplicity
 _atom_site_fract_x
 _atom_site_fract_y
 _atom_site_fract_z
 _atom_site_occupancy
  Ho  Ho0  1  0.390323  0.390323  0.814028  1
  Er  Er1  1  0.609924  0.609924  0.186398  1
  V  V2  1  0.847951  0.847951  0.374618  1
  V  V3  1  0.152088  0.152088  0.625140  1
  C  C4  1  0.276061  0.276061  0.270217  1
  C  C5  1  0.723419  0.723419  0.730424  1
  C  C6  1  0.000235  0.000235  0.499175  1
