# generated using pymatgen
data_Cd2IrRhO7
_symmetry_space_group_name_H-M   'P 1'
_cell_length_a   7.23773631
_cell_length_b   7.22119012
_cell_length_c   7.23773663
_cell_angle_alpha   60.07559606
_cell_angle_beta   60.24912545
_cell_angle_gamma   60.07560286
_symmetry_Int_Tables_number   1
_chemical_formula_structural   Cd2IrRhO7
_chemical_formula_sum   'Cd4 Ir2 Rh2 O14'
_cell_volume   268.29187005
_cell_formula_units_Z   2
loop_
 _symmetry_equiv_pos_site_id
 _symmetry_equiv_pos_as_xyz
  1  'x, y, z'
loop_
 _atom_site_type_symbol
 _atom_site_label
 _atom_site_symmetry_multiplicity
 _atom_site_fract_x
 _atom_site_fract_y
 _atom_site_fract_z
 _atom_site_occupancy
  Cd  Cd0  1  0.625000  0.125000  0.125000  1
  Cd  Cd1  1  0.125000  0.625000  0.125000  1
  Cd  Cd2  1  0.125000  0.125000  0.625000  1
  Cd  Cd3  1  0.125000  0.125000  0.125000  1
  Ir  Ir4  1  0.125000  0.625000  0.625000  1
  Ir  Ir5  1  0.625000  0.625000  0.125000  1
  Rh  Rh6  1  0.625000  0.125000  0.625000  1
  Rh  Rh7  1  0.625000  0.625000  0.625000  1
  O  O8  1  0.704699  0.694419  0.296553  1
  O  O9  1  0.296553  0.304329  0.704699  1
  O  O10  1  0.704365  0.295635  0.704365  1
  O  O11  1  0.304263  0.695737  0.304263  1
  O  O12  1  0.296553  0.694419  0.704699  1
  O  O13  1  0.704699  0.304329  0.296553  1
  O  O14  1  0.545301  0.555581  0.953447  1
  O  O15  1  0.953447  0.945671  0.545301  1
  O  O16  1  0.545635  0.954365  0.545635  1
  O  O17  1  0.945737  0.554263  0.945737  1
  O  O18  1  0.953447  0.555581  0.545301  1
  O  O19  1  0.545301  0.945671  0.953447  1
  O  O20  1  0.249671  0.250329  0.249671  1
  O  O21  1  0.000329  0.999671  0.000329  1
