# generated using pymatgen
data_La5ErNp4O20
_symmetry_space_group_name_H-M   'P 1'
_cell_length_a   6.88303904
_cell_length_b   7.61707800
_cell_length_c   8.63662140
_cell_angle_alpha   102.29372334
_cell_angle_beta   96.68768189
_cell_angle_gamma   106.24914382
_symmetry_Int_Tables_number   1
_chemical_formula_structural   La5ErNp4O20
_chemical_formula_sum   'La5 Er1 Np4 O20'
_cell_volume   417.20357511
_cell_formula_units_Z   1
loop_
 _symmetry_equiv_pos_site_id
 _symmetry_equiv_pos_as_xyz
  1  'x, y, z'
loop_
 _atom_site_type_symbol
 _atom_site_label
 _atom_site_symmetry_multiplicity
 _atom_site_fract_x
 _atom_site_fract_y
 _atom_site_fract_z
 _atom_site_occupancy
  La  La0  1  0.613728  0.704538  0.701120  1
  La  La1  1  0.386272  0.295462  0.298880  1
  La  La2  1  0.197344  0.897637  0.891535  1
  La  La3  1  0.000000  0.500000  0.500000  1
  La  La4  1  0.802656  0.102363  0.108465  1
  Er  Er5  1  0.000000  0.000000  0.500000  1
  Np  Np6  1  0.396624  0.800719  0.298139  1
  Np  Np7  1  0.199664  0.401358  0.897174  1
  Np  Np8  1  0.800336  0.598642  0.102826  1
  Np  Np9  1  0.603376  0.199281  0.701861  1
  O  O10  1  0.440968  0.541577  0.134744  1
  O  O11  1  0.557741  0.002139  0.840514  1
  O  O12  1  0.263936  0.153731  0.738006  1
  O  O13  1  0.363962  0.608055  0.439687  1
  O  O14  1  0.052398  0.725866  0.322100  1
  O  O15  1  0.442259  0.997861  0.159486  1
  O  O16  1  0.150630  0.195555  0.029693  1
  O  O17  1  0.559032  0.458423  0.865256  1
  O  O18  1  0.854166  0.346850  0.954338  1
  O  O19  1  0.260244  0.599622  0.760563  1
  O  O20  1  0.953863  0.782789  0.647067  1
  O  O21  1  0.343849  0.042802  0.449298  1
  O  O22  1  0.656151  0.957198  0.550702  1
  O  O23  1  0.046137  0.217211  0.352933  1
  O  O24  1  0.739756  0.400378  0.239437  1
  O  O25  1  0.145834  0.653150  0.045662  1
  O  O26  1  0.849370  0.804445  0.970307  1
  O  O27  1  0.947602  0.274134  0.677900  1
  O  O28  1  0.636038  0.391945  0.560313  1
  O  O29  1  0.736064  0.846269  0.261994  1
