# generated using pymatgen
data_Tb3CeMgOs
_symmetry_space_group_name_H-M   'P 1'
_cell_length_a   9.73208192
_cell_length_b   9.73219953
_cell_length_c   9.73261913
_cell_angle_alpha   60.01369803
_cell_angle_beta   60.01314442
_cell_angle_gamma   60.01212065
_symmetry_Int_Tables_number   1
_chemical_formula_structural   Tb3CeMgOs
_chemical_formula_sum   'Tb12 Ce4 Mg4 Os4'
_cell_volume   652.01763957
_cell_formula_units_Z   4
loop_
 _symmetry_equiv_pos_site_id
 _symmetry_equiv_pos_as_xyz
  1  'x, y, z'
loop_
 _atom_site_type_symbol
 _atom_site_label
 _atom_site_symmetry_multiplicity
 _atom_site_fract_x
 _atom_site_fract_y
 _atom_site_fract_z
 _atom_site_occupancy
  Tb  Tb0  1  0.062056  0.437933  0.437944  1
  Tb  Tb1  1  0.438066  0.062220  0.062241  1
  Tb  Tb2  1  0.437933  0.062060  0.437946  1
  Tb  Tb3  1  0.062223  0.438071  0.062243  1
  Tb  Tb4  1  0.437939  0.437937  0.062069  1
  Tb  Tb5  1  0.062231  0.062233  0.438078  1
  Tb  Tb6  1  0.189372  0.811003  0.811020  1
  Tb  Tb7  1  0.810047  0.189447  0.189449  1
  Tb  Tb8  1  0.810989  0.189390  0.811026  1
  Tb  Tb9  1  0.189424  0.810059  0.189457  1
  Tb  Tb10  1  0.810979  0.810998  0.189412  1
  Tb  Tb11  1  0.189410  0.189442  0.810082  1
  Ce  Ce12  1  0.593787  0.593801  0.593820  1
  Ce  Ce13  1  0.594749  0.594756  0.216601  1
  Ce  Ce14  1  0.594744  0.216634  0.594745  1
  Ce  Ce15  1  0.216638  0.594739  0.594743  1
  Mg  Mg16  1  0.829372  0.829368  0.829380  1
  Mg  Mg17  1  0.829012  0.829013  0.510844  1
  Mg  Mg18  1  0.829007  0.510833  0.829024  1
  Mg  Mg19  1  0.510815  0.829014  0.829032  1
  Os  Os20  1  0.393490  0.393391  0.393293  1
  Os  Os21  1  0.393986  0.393906  0.819797  1
  Os  Os22  1  0.394025  0.819766  0.393867  1
  Os  Os23  1  0.819706  0.393984  0.393887  1
