# generated using pymatgen
data_Hg2PO4F
_symmetry_space_group_name_H-M   'P 1'
_cell_length_a   8.14765919
_cell_length_b   8.14765913
_cell_length_c   12.05532505
_cell_angle_alpha   57.90362366
_cell_angle_beta   57.90362326
_cell_angle_gamma   48.06158144
_symmetry_Int_Tables_number   1
_chemical_formula_structural   Hg2PO4F
_chemical_formula_sum   'Hg8 P4 O16 F4'
_cell_volume   484.19203521
_cell_formula_units_Z   4
loop_
 _symmetry_equiv_pos_site_id
 _symmetry_equiv_pos_as_xyz
  1  'x, y, z'
loop_
 _atom_site_type_symbol
 _atom_site_label
 _atom_site_symmetry_multiplicity
 _atom_site_fract_x
 _atom_site_fract_y
 _atom_site_fract_z
 _atom_site_occupancy
  Hg  Hg0  1  0.261333  0.051089  0.660628  1
  Hg  Hg1  1  0.051089  0.261333  0.160628  1
  Hg  Hg2  1  0.196722  0.690629  0.487882  1
  Hg  Hg3  1  0.690629  0.196722  0.987882  1
  Hg  Hg4  1  0.803278  0.309371  0.512118  1
  Hg  Hg5  1  0.738667  0.948911  0.339372  1
  Hg  Hg6  1  0.309371  0.803278  0.012118  1
  Hg  Hg7  1  0.948911  0.738667  0.839372  1
  P  P8  1  0.220961  0.426788  0.303475  1
  P  P9  1  0.426788  0.220961  0.803475  1
  P  P10  1  0.573212  0.779039  0.196525  1
  P  P11  1  0.779039  0.573212  0.696525  1
  O  O12  1  0.392061  0.232002  0.392458  1
  O  O13  1  0.767998  0.607939  0.107542  1
  O  O14  1  0.362360  0.063172  0.823203  1
  O  O15  1  0.063172  0.362360  0.323203  1
  O  O16  1  0.232002  0.392061  0.892458  1
  O  O17  1  0.647159  0.528042  0.851047  1
  O  O18  1  0.637640  0.936828  0.176797  1
  O  O19  1  0.352841  0.471958  0.148953  1
  O  O20  1  0.642456  0.078207  0.852798  1
  O  O21  1  0.921793  0.357544  0.647202  1
  O  O22  1  0.528042  0.647159  0.351047  1
  O  O23  1  0.607939  0.767998  0.607542  1
  O  O24  1  0.078207  0.642456  0.352798  1
  O  O25  1  0.357544  0.921793  0.147202  1
  O  O26  1  0.936828  0.637640  0.676797  1
  O  O27  1  0.471958  0.352841  0.648953  1
  F  F28  1  0.926750  0.104502  0.106637  1
  F  F29  1  0.073250  0.895498  0.893363  1
  F  F30  1  0.104502  0.926750  0.606637  1
  F  F31  1  0.895498  0.073250  0.393363  1
