# generated using pymatgen
data_Sm6EuPtI12
_symmetry_space_group_name_H-M   'P 1'
_cell_length_a   9.97749919
_cell_length_b   9.97749895
_cell_length_c   9.97750034
_cell_angle_alpha   106.70794582
_cell_angle_beta   106.70794641
_cell_angle_gamma   106.70794329
_symmetry_Int_Tables_number   1
_chemical_formula_structural   Sm6EuPtI12
_chemical_formula_sum   'Sm6 Eu1 Pt1 I12'
_cell_volume   833.70308144
_cell_formula_units_Z   1
loop_
 _symmetry_equiv_pos_site_id
 _symmetry_equiv_pos_as_xyz
  1  'x, y, z'
loop_
 _atom_site_type_symbol
 _atom_site_label
 _atom_site_symmetry_multiplicity
 _atom_site_fract_x
 _atom_site_fract_y
 _atom_site_fract_z
 _atom_site_occupancy
  Sm  Sm0  1  0.098406  0.025282  0.303553  1
  Sm  Sm1  1  0.303553  0.098406  0.025282  1
  Sm  Sm2  1  0.025282  0.303553  0.098406  1
  Sm  Sm3  1  0.901594  0.974718  0.696447  1
  Sm  Sm4  1  0.696447  0.901594  0.974718  1
  Sm  Sm5  1  0.974718  0.696447  0.901594  1
  Eu  Eu6  1  0.500000  0.500000  0.500000  1
  Pt  Pt7  1  0.000000  0.000000  0.000000  1
  I  I8  1  0.073947  0.678552  0.224284  1
  I  I9  1  0.224284  0.073947  0.678552  1
  I  I10  1  0.678552  0.224284  0.073947  1
  I  I11  1  0.926053  0.321448  0.775716  1
  I  I12  1  0.775716  0.926053  0.321448  1
  I  I13  1  0.321448  0.775716  0.926053  1
  I  I14  1  0.456206  0.144066  0.377054  1
  I  I15  1  0.377054  0.456206  0.144066  1
  I  I16  1  0.144066  0.377054  0.456206  1
  I  I17  1  0.543794  0.855934  0.622946  1
  I  I18  1  0.622946  0.543794  0.855934  1
  I  I19  1  0.855934  0.622946  0.543794  1
