# generated using pymatgen
data_DyTh5NiCl15
_symmetry_space_group_name_H-M   'P 1'
_cell_length_a   9.78353322
_cell_length_b   9.78349619
_cell_length_c   9.78349695
_cell_angle_alpha   110.08737041
_cell_angle_beta   109.16399629
_cell_angle_gamma   109.16400592
_symmetry_Int_Tables_number   1
_chemical_formula_structural   DyTh5NiCl15
_chemical_formula_sum   'Dy1 Th5 Ni1 Cl15'
_cell_volume   720.81628070
_cell_formula_units_Z   1
loop_
 _symmetry_equiv_pos_site_id
 _symmetry_equiv_pos_as_xyz
  1  'x, y, z'
loop_
 _atom_site_type_symbol
 _atom_site_label
 _atom_site_symmetry_multiplicity
 _atom_site_fract_x
 _atom_site_fract_y
 _atom_site_fract_z
 _atom_site_occupancy
  Dy  Dy0  1  0.999993  0.249410  0.249410  1
  Th  Th1  1  0.000007  0.750231  0.750231  1
  Th  Th2  1  0.244752  0.003719  0.248470  1
  Th  Th3  1  0.755253  0.003715  0.758965  1
  Th  Th4  1  0.244752  0.248470  0.003719  1
  Th  Th5  1  0.755253  0.758965  0.003715  1
  Ni  Ni6  1  0.999997  0.993617  0.993617  1
  Cl  Cl7  1  0.490383  0.245678  0.245678  1
  Cl  Cl8  1  0.509624  0.755293  0.755293  1
  Cl  Cl9  1  0.999999  0.245674  0.755291  1
  Cl  Cl10  1  0.999999  0.755291  0.245674  1
  Cl  Cl11  1  0.238608  0.486673  0.248065  1
  Cl  Cl12  1  0.761384  0.009447  0.248058  1
  Cl  Cl13  1  0.754088  0.508258  0.754164  1
  Cl  Cl14  1  0.245914  0.000085  0.754171  1
  Cl  Cl15  1  0.238608  0.248065  0.486673  1
  Cl  Cl16  1  0.754088  0.754164  0.508258  1
  Cl  Cl17  1  0.761384  0.248058  0.009447  1
  Cl  Cl18  1  0.245914  0.754171  0.000085  1
  Cl  Cl19  1  0.999998  0.494123  0.494123  1
  Cl  Cl20  1  0.500001  0.993446  0.493446  1
  Cl  Cl21  1  0.500001  0.493446  0.993446  1
