# generated using pymatgen
data_NdY5NiCl10
_symmetry_space_group_name_H-M   'P 1'
_cell_length_a   7.08816376
_cell_length_b   8.85691452
_cell_length_c   8.98912035
_cell_angle_alpha   107.93538144
_cell_angle_beta   96.03989038
_cell_angle_gamma   105.73849099
_symmetry_Int_Tables_number   1
_chemical_formula_structural   NdY5NiCl10
_chemical_formula_sum   'Nd1 Y5 Ni1 Cl10'
_cell_volume   505.68090317
_cell_formula_units_Z   1
loop_
 _symmetry_equiv_pos_site_id
 _symmetry_equiv_pos_as_xyz
  1  'x, y, z'
loop_
 _atom_site_type_symbol
 _atom_site_label
 _atom_site_symmetry_multiplicity
 _atom_site_fract_x
 _atom_site_fract_y
 _atom_site_fract_z
 _atom_site_occupancy
  Nd  Nd0  1  0.862757  0.945409  0.251168  1
  Y  Y1  1  0.134463  0.052708  0.755179  1
  Y  Y2  1  0.033852  0.698091  0.902088  1
  Y  Y3  1  0.966780  0.300393  0.093062  1
  Y  Y4  1  0.639538  0.862813  0.820048  1
  Y  Y5  1  0.360156  0.137248  0.180687  1
  Ni  Ni6  1  0.999904  0.999212  0.000425  1
  Cl  Cl7  1  0.658795  0.552944  0.731638  1
  Cl  Cl8  1  0.340547  0.446858  0.266760  1
  Cl  Cl9  1  0.759401  0.925486  0.561068  1
  Cl  Cl10  1  0.250844  0.080962  0.454154  1
  Cl  Cl11  1  0.917614  0.622424  0.161764  1
  Cl  Cl12  1  0.086097  0.368668  0.830411  1
  Cl  Cl13  1  0.546011  0.172914  0.917597  1
  Cl  Cl14  1  0.445229  0.823856  0.076771  1
  Cl  Cl15  1  0.224189  0.753831  0.661554  1
  Cl  Cl16  1  0.773824  0.256185  0.335626  1
