# generated using pymatgen
data_TiMoAs4
_symmetry_space_group_name_H-M   'P 1'
_cell_length_a   3.34822945
_cell_length_b   4.94242961
_cell_length_c   6.99730119
_cell_angle_alpha   87.97012555
_cell_angle_beta   76.15763787
_cell_angle_gamma   109.79909261
_symmetry_Int_Tables_number   1
_chemical_formula_structural   TiMoAs4
_chemical_formula_sum   'Ti1 Mo1 As4'
_cell_volume   104.92180619
_cell_formula_units_Z   1
loop_
 _symmetry_equiv_pos_site_id
 _symmetry_equiv_pos_as_xyz
  1  'x, y, z'
loop_
 _atom_site_type_symbol
 _atom_site_label
 _atom_site_symmetry_multiplicity
 _atom_site_fract_x
 _atom_site_fract_y
 _atom_site_fract_z
 _atom_site_occupancy
  Ti  Ti0  1  0.039782  0.884214  0.804650  1
  Mo  Mo1  1  0.960115  0.116156  0.195925  1
  As  As2  1  0.614248  0.756688  0.528191  1
  As  As3  1  0.387179  0.240865  0.466505  1
  As  As4  1  0.700701  0.299384  0.897983  1
  As  As5  1  0.297973  0.702693  0.106746  1
