# generated using pymatgen
data_La2GdY3Nb2O14
_symmetry_space_group_name_H-M   'P 1'
_cell_length_a   6.55584272
_cell_length_b   6.56138836
_cell_length_c   7.69592100
_cell_angle_alpha   90.00000000
_cell_angle_beta   90.00000000
_cell_angle_gamma   109.19496853
_symmetry_Int_Tables_number   1
_chemical_formula_structural   La2GdY3Nb2O14
_chemical_formula_sum   'La2 Gd1 Y3 Nb2 O14'
_cell_volume   312.63907819
_cell_formula_units_Z   1
loop_
 _symmetry_equiv_pos_site_id
 _symmetry_equiv_pos_as_xyz
  1  'x, y, z'
loop_
 _atom_site_type_symbol
 _atom_site_label
 _atom_site_symmetry_multiplicity
 _atom_site_fract_x
 _atom_site_fract_y
 _atom_site_fract_z
 _atom_site_occupancy
  La  La0  1  0.500600  0.500544  0.499411  1
  La  La1  1  0.500600  0.500544  0.000589  1
  Gd  Gd2  1  0.999328  0.465966  0.750000  1
  Y  Y3  1  0.533598  0.000764  0.750000  1
  Y  Y4  1  0.000724  0.534522  0.250000  1
  Y  Y5  1  0.466291  0.999057  0.250000  1
  Nb  Nb6  1  0.000103  0.000537  0.499521  1
  Nb  Nb7  1  0.000103  0.000537  0.000479  1
  O  O8  1  0.680240  0.933105  0.467464  1
  O  O9  1  0.930970  0.679831  0.530084  1
  O  O10  1  0.680240  0.933105  0.032536  1
  O  O11  1  0.930970  0.679831  0.969916  1
  O  O12  1  0.319399  0.067073  0.532544  1
  O  O13  1  0.067779  0.318740  0.465499  1
  O  O14  1  0.319399  0.067073  0.967456  1
  O  O15  1  0.067779  0.318740  0.034501  1
  O  O16  1  0.367133  0.638926  0.750000  1
  O  O17  1  0.636876  0.362726  0.250000  1
  O  O18  1  0.640874  0.356492  0.750000  1
  O  O19  1  0.356540  0.643912  0.250000  1
  O  O20  1  0.934729  0.063098  0.750000  1
  O  O21  1  0.065726  0.934879  0.250000  1
