# generated using pymatgen
data_Ho2TmCoSn3Pt2
_symmetry_space_group_name_H-M   'P 1'
_cell_length_a   7.59902000
_cell_length_b   7.58050814
_cell_length_c   3.74359600
_cell_angle_alpha   90.00000000
_cell_angle_beta   90.00000000
_cell_angle_gamma   120.08081478
_symmetry_Int_Tables_number   1
_chemical_formula_structural   Ho2TmCoSn3Pt2
_chemical_formula_sum   'Ho2 Tm1 Co1 Sn3 Pt2'
_cell_volume   186.60413838
_cell_formula_units_Z   1
loop_
 _symmetry_equiv_pos_site_id
 _symmetry_equiv_pos_as_xyz
  1  'x, y, z'
loop_
 _atom_site_type_symbol
 _atom_site_label
 _atom_site_symmetry_multiplicity
 _atom_site_fract_x
 _atom_site_fract_y
 _atom_site_fract_z
 _atom_site_occupancy
  Ho  Ho0  1  0.000181  0.401978  0.000000  1
  Ho  Ho1  1  0.598202  0.598022  0.000000  1
  Tm  Tm2  1  0.401427  0.000000  0.000000  1
  Co  Co3  1  0.000419  0.000000  0.000000  1
  Sn  Sn4  1  0.001059  0.749334  0.500000  1
  Sn  Sn5  1  0.251725  0.250666  0.500000  1
  Sn  Sn6  1  0.748943  0.000000  0.500000  1
  Pt  Pt7  1  0.333556  0.669071  0.500000  1
  Pt  Pt8  1  0.664487  0.330929  0.500000  1
