# generated using pymatgen
data_Tb12Os3Pd
_symmetry_space_group_name_H-M   'P 1'
_cell_length_a   6.43141887
_cell_length_b   7.39872308
_cell_length_c   9.17591300
_cell_angle_alpha   90.00000000
_cell_angle_beta   90.00000000
_cell_angle_gamma   90.44989744
_symmetry_Int_Tables_number   1
_chemical_formula_structural   Tb12Os3Pd
_chemical_formula_sum   'Tb12 Os3 Pd1'
_cell_volume   436.61581876
_cell_formula_units_Z   1
loop_
 _symmetry_equiv_pos_site_id
 _symmetry_equiv_pos_as_xyz
  1  'x, y, z'
loop_
 _atom_site_type_symbol
 _atom_site_label
 _atom_site_symmetry_multiplicity
 _atom_site_fract_x
 _atom_site_fract_y
 _atom_site_fract_z
 _atom_site_occupancy
  Tb  Tb0  1  0.338790  0.669187  0.058812  1
  Tb  Tb1  1  0.170161  0.184339  0.440849  1
  Tb  Tb2  1  0.671095  0.322561  0.563881  1
  Tb  Tb3  1  0.823589  0.824128  0.931163  1
  Tb  Tb4  1  0.671095  0.322561  0.936119  1
  Tb  Tb5  1  0.823589  0.824128  0.568837  1
  Tb  Tb6  1  0.338790  0.669187  0.441188  1
  Tb  Tb7  1  0.170161  0.184339  0.059151  1
  Tb  Tb8  1  0.866650  0.532463  0.250000  1
  Tb  Tb9  1  0.625649  0.041099  0.250000  1
  Tb  Tb10  1  0.125607  0.463315  0.750000  1
  Tb  Tb11  1  0.366125  0.962589  0.750000  1
  Os  Os12  1  0.458451  0.383602  0.250000  1
  Os  Os13  1  0.959222  0.115213  0.750000  1
  Os  Os14  1  0.536573  0.615134  0.750000  1
  Pd  Pd15  1  0.054453  0.886152  0.250000  1
