# generated using pymatgen
data_Rb2Sb(TeO4)3
_symmetry_space_group_name_H-M   'P 1'
_cell_length_a   7.35487339
_cell_length_b   7.35487358
_cell_length_c   7.35333507
_cell_angle_alpha   60.29238492
_cell_angle_beta   60.29238748
_cell_angle_gamma   60.30138204
_symmetry_Int_Tables_number   1
_chemical_formula_structural   Rb2Sb(TeO4)3
_chemical_formula_sum   'Rb2 Sb1 Te3 O12'
_cell_volume   283.14777791
_cell_formula_units_Z   1
loop_
 _symmetry_equiv_pos_site_id
 _symmetry_equiv_pos_as_xyz
  1  'x, y, z'
loop_
 _atom_site_type_symbol
 _atom_site_label
 _atom_site_symmetry_multiplicity
 _atom_site_fract_x
 _atom_site_fract_y
 _atom_site_fract_z
 _atom_site_occupancy
  Rb  Rb0  1  0.865166  0.882256  0.372943  1
  Rb  Rb1  1  0.117744  0.134834  0.627057  1
  Sb  Sb2  1  0.496422  0.503578  0.000000  1
  Te  Te3  1  0.996455  0.503574  0.000007  1
  Te  Te4  1  0.496426  0.003545  0.999993  1
  Te  Te5  1  0.496361  0.503639  0.500000  1
  O  O6  1  0.175777  0.182872  0.071366  1
  O  O7  1  0.569578  0.575444  0.674012  1
  O  O8  1  0.170146  0.575903  0.072964  1
  O  O9  1  0.568339  0.182742  0.679415  1
  O  O10  1  0.569138  0.177638  0.072055  1
  O  O11  1  0.175830  0.574781  0.679376  1
  O  O12  1  0.817128  0.824223  0.928634  1
  O  O13  1  0.424556  0.430422  0.325988  1
  O  O14  1  0.822362  0.430862  0.927945  1
  O  O15  1  0.425219  0.824170  0.320624  1
  O  O16  1  0.424097  0.829854  0.927036  1
  O  O17  1  0.817258  0.431661  0.320585  1
