# generated using pymatgen
data_Zr5Bi2PbAu
_symmetry_space_group_name_H-M   'P 1'
_cell_length_a   8.91749337
_cell_length_b   8.92606521
_cell_length_c   6.00424300
_cell_angle_alpha   90.00000000
_cell_angle_beta   90.00000000
_cell_angle_gamma   120.03181359
_symmetry_Int_Tables_number   1
_chemical_formula_structural   Zr5Bi2PbAu
_chemical_formula_sum   'Zr10 Bi4 Pb2 Au2'
_cell_volume   413.76374074
_cell_formula_units_Z   2
loop_
 _symmetry_equiv_pos_site_id
 _symmetry_equiv_pos_as_xyz
  1  'x, y, z'
loop_
 _atom_site_type_symbol
 _atom_site_label
 _atom_site_symmetry_multiplicity
 _atom_site_fract_x
 _atom_site_fract_y
 _atom_site_fract_z
 _atom_site_occupancy
  Zr  Zr0  1  0.333508  0.666754  0.000000  1
  Zr  Zr1  1  0.666373  0.333186  0.500000  1
  Zr  Zr2  1  0.666373  0.333186  0.000000  1
  Zr  Zr3  1  0.333508  0.666754  0.500000  1
  Zr  Zr4  1  0.274120  0.000874  0.250000  1
  Zr  Zr5  1  0.274120  0.273246  0.750000  1
  Zr  Zr6  1  0.000882  0.725982  0.750000  1
  Zr  Zr7  1  0.000882  0.274899  0.250000  1
  Zr  Zr8  1  0.725354  0.725358  0.250000  1
  Zr  Zr9  1  0.725354  0.999996  0.750000  1
  Bi  Bi10  1  0.616189  0.000025  0.250000  1
  Bi  Bi11  1  0.616189  0.616164  0.750000  1
  Bi  Bi12  1  0.000350  0.383112  0.750000  1
  Bi  Bi13  1  0.000350  0.617238  0.250000  1
  Pb  Pb14  1  0.382223  0.381997  0.250000  1
  Pb  Pb15  1  0.382223  0.000226  0.750000  1
  Au  Au16  1  0.001002  0.000501  0.000000  1
  Au  Au17  1  0.001002  0.000501  0.500000  1
