# generated using pymatgen
data_Zr3ScCo6Si6Ir
_symmetry_space_group_name_H-M   'P 1'
_cell_length_a   6.72111474
_cell_length_b   6.72111470
_cell_length_c   6.72111706
_cell_angle_alpha   109.41147896
_cell_angle_beta   109.41148174
_cell_angle_gamma   109.41148736
_symmetry_Int_Tables_number   1
_chemical_formula_structural   Zr3ScCo6Si6Ir
_chemical_formula_sum   'Zr3 Sc1 Co6 Si6 Ir1'
_cell_volume   234.23890380
_cell_formula_units_Z   1
loop_
 _symmetry_equiv_pos_site_id
 _symmetry_equiv_pos_as_xyz
  1  'x, y, z'
loop_
 _atom_site_type_symbol
 _atom_site_label
 _atom_site_symmetry_multiplicity
 _atom_site_fract_x
 _atom_site_fract_y
 _atom_site_fract_z
 _atom_site_occupancy
  Zr  Zr0  1  0.000000  0.000000  0.500000  1
  Zr  Zr1  1  0.000000  0.500000  0.000000  1
  Zr  Zr2  1  0.500000  0.000000  0.000000  1
  Sc  Sc3  1  0.500000  0.500000  0.500000  1
  Co  Co4  1  0.750486  0.249514  0.500000  1
  Co  Co5  1  0.750486  0.500000  0.249514  1
  Co  Co6  1  0.500000  0.249514  0.750486  1
  Co  Co7  1  0.249514  0.500000  0.750486  1
  Co  Co8  1  0.249514  0.750486  0.500000  1
  Co  Co9  1  0.500000  0.750486  0.249514  1
  Si  Si10  1  0.668400  0.668400  0.997462  1
  Si  Si11  1  0.331600  0.002538  0.331600  1
  Si  Si12  1  0.002538  0.331600  0.331600  1
  Si  Si13  1  0.331600  0.331600  0.002538  1
  Si  Si14  1  0.668400  0.997462  0.668400  1
  Si  Si15  1  0.997462  0.668400  0.668400  1
  Ir  Ir16  1  0.000000  0.000000  0.000000  1
