# generated using pymatgen
data_Sr3MnN4
_symmetry_space_group_name_H-M   'P 1'
_cell_length_a   9.62624700
_cell_length_b   10.23686300
_cell_length_c   11.36235600
_cell_angle_alpha   90.00000000
_cell_angle_beta   90.00000000
_cell_angle_gamma   90.00000000
_symmetry_Int_Tables_number   1
_chemical_formula_structural   Sr3MnN4
_chemical_formula_sum   'Sr24 Mn8 N32'
_cell_volume   1119.67578130
_cell_formula_units_Z   8
loop_
 _symmetry_equiv_pos_site_id
 _symmetry_equiv_pos_as_xyz
  1  'x, y, z'
loop_
 _atom_site_type_symbol
 _atom_site_label
 _atom_site_symmetry_multiplicity
 _atom_site_fract_x
 _atom_site_fract_y
 _atom_site_fract_z
 _atom_site_occupancy
  Sr  Sr0  1  0.528815  0.373071  0.393363  1
  Sr  Sr1  1  0.200010  0.717134  0.385019  1
  Sr  Sr2  1  0.799990  0.782866  0.885019  1
  Sr  Sr3  1  0.299990  0.217134  0.614981  1
  Sr  Sr4  1  0.299990  0.717134  0.885019  1
  Sr  Sr5  1  0.799990  0.282866  0.614981  1
  Sr  Sr6  1  0.200010  0.217134  0.114981  1
  Sr  Sr7  1  0.700010  0.782866  0.385019  1
  Sr  Sr8  1  0.700010  0.282866  0.114981  1
  Sr  Sr9  1  0.028815  0.626929  0.106637  1
  Sr  Sr10  1  0.971185  0.873071  0.606637  1
  Sr  Sr11  1  0.471185  0.126929  0.893363  1
  Sr  Sr12  1  0.471185  0.626929  0.606637  1
  Sr  Sr13  1  0.971185  0.373071  0.893363  1
  Sr  Sr14  1  0.028815  0.126929  0.393363  1
  Sr  Sr15  1  0.528815  0.873071  0.106637  1
  Sr  Sr16  1  0.874780  0.471963  0.358340  1
  Sr  Sr17  1  0.374780  0.528037  0.141660  1
  Sr  Sr18  1  0.625220  0.971963  0.641660  1
  Sr  Sr19  1  0.125220  0.028037  0.858340  1
  Sr  Sr20  1  0.125220  0.528037  0.641660  1
  Sr  Sr21  1  0.625220  0.471963  0.858340  1
  Sr  Sr22  1  0.374780  0.028037  0.358340  1
  Sr  Sr23  1  0.874780  0.971963  0.141660  1
  Mn  Mn24  1  0.696527  0.097981  0.388259  1
  Mn  Mn25  1  0.196527  0.902019  0.111741  1
  Mn  Mn26  1  0.803473  0.597981  0.611741  1
  Mn  Mn27  1  0.303473  0.402019  0.888259  1
  Mn  Mn28  1  0.303473  0.902019  0.611741  1
  Mn  Mn29  1  0.803473  0.097981  0.888259  1
  Mn  Mn30  1  0.196527  0.402019  0.388259  1
  Mn  Mn31  1  0.696527  0.597981  0.111741  1
  N  N32  1  0.785812  0.229836  0.326391  1
  N  N33  1  0.285812  0.770164  0.173609  1
  N  N34  1  0.714188  0.729836  0.673609  1
  N  N35  1  0.214188  0.270164  0.826391  1
  N  N36  1  0.214188  0.770164  0.673609  1
  N  N37  1  0.714188  0.229836  0.826391  1
  N  N38  1  0.285812  0.270164  0.326391  1
  N  N39  1  0.785812  0.729836  0.173609  1
  N  N40  1  0.811654  0.497466  0.032628  1
  N  N41  1  0.311654  0.502534  0.467372  1
  N  N42  1  0.688346  0.997466  0.967372  1
  N  N43  1  0.188346  0.002534  0.532628  1
  N  N44  1  0.188346  0.502534  0.967372  1
  N  N45  1  0.688346  0.497466  0.532628  1
  N  N46  1  0.311654  0.002534  0.032628  1
  N  N47  1  0.621566  0.001311  0.279639  1
  N  N48  1  0.569922  0.153807  0.487835  1
  N  N49  1  0.069922  0.846193  0.012165  1
  N  N50  1  0.930078  0.653807  0.512165  1
  N  N51  1  0.430078  0.346193  0.987835  1
  N  N52  1  0.430078  0.846193  0.512165  1
  N  N53  1  0.930078  0.153807  0.987835  1
  N  N54  1  0.069922  0.346193  0.487835  1
  N  N55  1  0.569922  0.653807  0.012165  1
  N  N56  1  0.621566  0.501311  0.220361  1
  N  N57  1  0.121566  0.498689  0.279639  1
  N  N58  1  0.878434  0.001311  0.779639  1
  N  N59  1  0.378434  0.998689  0.720361  1
  N  N60  1  0.378434  0.498689  0.779639  1
  N  N61  1  0.878434  0.501311  0.720361  1
  N  N62  1  0.121566  0.998689  0.220361  1
  N  N63  1  0.811654  0.997466  0.467372  1
