# generated using pymatgen
data_Yb3(BiRh)2
_symmetry_space_group_name_H-M   'P 1'
_cell_length_a   5.92583000
_cell_length_b   8.08571100
_cell_length_c   14.15750600
_cell_angle_alpha   90.00000000
_cell_angle_beta   90.00000000
_cell_angle_gamma   90.00000000
_symmetry_Int_Tables_number   1
_chemical_formula_structural   Yb3(BiRh)2
_chemical_formula_sum   'Yb12 Bi8 Rh8'
_cell_volume   678.35051234
_cell_formula_units_Z   4
loop_
 _symmetry_equiv_pos_site_id
 _symmetry_equiv_pos_as_xyz
  1  'x, y, z'
loop_
 _atom_site_type_symbol
 _atom_site_label
 _atom_site_symmetry_multiplicity
 _atom_site_fract_x
 _atom_site_fract_y
 _atom_site_fract_z
 _atom_site_occupancy
  Yb  Yb0  1  0.181439  0.608015  0.091247  1
  Yb  Yb1  1  0.181439  0.891985  0.908753  1
  Yb  Yb2  1  0.818561  0.108015  0.408753  1
  Yb  Yb3  1  0.818561  0.391985  0.591247  1
  Yb  Yb4  1  0.818561  0.391985  0.908753  1
  Yb  Yb5  1  0.818561  0.108015  0.091247  1
  Yb  Yb6  1  0.181439  0.891985  0.591247  1
  Yb  Yb7  1  0.181439  0.608015  0.408753  1
  Yb  Yb8  1  0.385360  0.245055  0.250000  1
  Yb  Yb9  1  0.385360  0.254945  0.750000  1
  Yb  Yb10  1  0.614640  0.745055  0.250000  1
  Yb  Yb11  1  0.614640  0.754945  0.750000  1
  Bi  Bi12  1  0.887575  0.403489  0.250000  1
  Bi  Bi13  1  0.887575  0.096511  0.750000  1
  Bi  Bi14  1  0.112425  0.903489  0.250000  1
  Bi  Bi15  1  0.112425  0.596511  0.750000  1
  Bi  Bi16  1  0.309417  0.250000  0.000000  1
  Bi  Bi17  1  0.690583  0.750000  0.500000  1
  Bi  Bi18  1  0.690583  0.750000  0.000000  1
  Bi  Bi19  1  0.309417  0.250000  0.500000  1
  Rh  Rh20  1  0.614754  0.447056  0.091419  1
  Rh  Rh21  1  0.614754  0.052944  0.908581  1
  Rh  Rh22  1  0.385246  0.947056  0.408581  1
  Rh  Rh23  1  0.385246  0.552944  0.591419  1
  Rh  Rh24  1  0.385246  0.552944  0.908581  1
  Rh  Rh25  1  0.385246  0.947056  0.091419  1
  Rh  Rh26  1  0.614754  0.052944  0.591419  1
  Rh  Rh27  1  0.614754  0.447056  0.408581  1
