# generated using pymatgen
data_Rb4TbErF10
_symmetry_space_group_name_H-M   'P 1'
_cell_length_a   6.98829421
_cell_length_b   7.47695700
_cell_length_c   11.54322095
_cell_angle_alpha   90.00000000
_cell_angle_beta   90.35596167
_cell_angle_gamma   90.00000000
_symmetry_Int_Tables_number   1
_chemical_formula_structural   Rb4TbErF10
_chemical_formula_sum   'Rb8 Tb2 Er2 F20'
_cell_volume   603.13522180
_cell_formula_units_Z   2
loop_
 _symmetry_equiv_pos_site_id
 _symmetry_equiv_pos_as_xyz
  1  'x, y, z'
loop_
 _atom_site_type_symbol
 _atom_site_label
 _atom_site_symmetry_multiplicity
 _atom_site_fract_x
 _atom_site_fract_y
 _atom_site_fract_z
 _atom_site_occupancy
  Rb  Rb0  1  0.536304  0.997462  0.830530  1
  Rb  Rb1  1  0.463696  0.497462  0.169470  1
  Rb  Rb2  1  0.963737  0.997696  0.327838  1
  Rb  Rb3  1  0.036263  0.497696  0.672162  1
  Rb  Rb4  1  0.536304  0.502538  0.830530  1
  Rb  Rb5  1  0.463696  0.002538  0.169470  1
  Rb  Rb6  1  0.963737  0.502304  0.327838  1
  Rb  Rb7  1  0.036263  0.002304  0.672162  1
  Tb  Tb8  1  0.560513  0.250000  0.502045  1
  Tb  Tb9  1  0.439487  0.750000  0.497955  1
  Er  Er10  1  0.941968  0.250000  0.001454  1
  Er  Er11  1  0.058032  0.750000  0.998546  1
  F  F12  1  0.884126  0.750000  0.841692  1
  F  F13  1  0.115874  0.250000  0.158308  1
  F  F14  1  0.618060  0.750000  0.339351  1
  F  F15  1  0.381940  0.250000  0.660649  1
  F  F16  1  0.851069  0.250000  0.819806  1
  F  F17  1  0.148931  0.750000  0.180194  1
  F  F18  1  0.649476  0.250000  0.317577  1
  F  F19  1  0.350524  0.750000  0.682423  1
  F  F20  1  0.642330  0.965201  0.570554  1
  F  F21  1  0.357670  0.465201  0.429446  1
  F  F22  1  0.859687  0.964218  0.067266  1
  F  F23  1  0.140313  0.464218  0.932734  1
  F  F24  1  0.369462  0.750000  0.983419  1
  F  F25  1  0.630538  0.250000  0.016581  1
  F  F26  1  0.122543  0.750000  0.484622  1
  F  F27  1  0.877457  0.250000  0.515378  1
  F  F28  1  0.140313  0.035782  0.932734  1
  F  F29  1  0.859687  0.535782  0.067266  1
  F  F30  1  0.357670  0.034799  0.429446  1
  F  F31  1  0.642330  0.534799  0.570554  1
