# generated using pymatgen
data_PrErI18
_symmetry_space_group_name_H-M   'P 1'
_cell_length_a   10.50965138
_cell_length_b   10.54216541
_cell_length_c   10.50405467
_cell_angle_alpha   87.96071344
_cell_angle_beta   88.11661214
_cell_angle_gamma   87.88380570
_symmetry_Int_Tables_number   1
_chemical_formula_structural   PrErI18
_chemical_formula_sum   'Pr1 Er1 I18'
_cell_volume   1161.68085016
_cell_formula_units_Z   1
loop_
 _symmetry_equiv_pos_site_id
 _symmetry_equiv_pos_as_xyz
  1  'x, y, z'
loop_
 _atom_site_type_symbol
 _atom_site_label
 _atom_site_symmetry_multiplicity
 _atom_site_fract_x
 _atom_site_fract_y
 _atom_site_fract_z
 _atom_site_occupancy
  Pr  Pr0  1  0.000000  0.000000  0.000000  1
  Er  Er1  1  0.500000  0.500000  0.500000  1
  I  I2  1  0.787343  0.464927  0.502179  1
  I  I3  1  0.500445  0.786368  0.464044  1
  I  I4  1  0.464709  0.501978  0.787143  1
  I  I5  1  0.212657  0.535073  0.497821  1
  I  I6  1  0.499555  0.213632  0.535956  1
  I  I7  1  0.535291  0.498022  0.212857  1
  I  I8  1  0.894212  0.379281  0.748618  1
  I  I9  1  0.746978  0.892718  0.379267  1
  I  I10  1  0.379588  0.747609  0.894081  1
  I  I11  1  0.105788  0.620719  0.251382  1
  I  I12  1  0.253022  0.107282  0.620733  1
  I  I13  1  0.620412  0.252391  0.105919  1
  I  I14  1  0.017648  0.977858  0.698970  1
  I  I15  1  0.698821  0.017582  0.976174  1
  I  I16  1  0.976331  0.699472  0.015831  1
  I  I17  1  0.982352  0.022142  0.301030  1
  I  I18  1  0.301179  0.982418  0.023826  1
  I  I19  1  0.023669  0.300528  0.984169  1
