# generated using pymatgen
data_Lu2GeSe
_symmetry_space_group_name_H-M   'P 1'
_cell_length_a   7.00948220
_cell_length_b   7.00948207
_cell_length_c   7.00948277
_cell_angle_alpha   132.10271516
_cell_angle_beta   132.10271372
_cell_angle_gamma   70.06684548
_symmetry_Int_Tables_number   1
_chemical_formula_structural   Lu2GeSe
_chemical_formula_sum   'Lu4 Ge2 Se2'
_cell_volume   185.85774261
_cell_formula_units_Z   2
loop_
 _symmetry_equiv_pos_site_id
 _symmetry_equiv_pos_as_xyz
  1  'x, y, z'
loop_
 _atom_site_type_symbol
 _atom_site_label
 _atom_site_symmetry_multiplicity
 _atom_site_fract_x
 _atom_site_fract_y
 _atom_site_fract_z
 _atom_site_occupancy
  Lu  Lu0  1  0.754322  0.754322  0.000000  1
  Lu  Lu1  1  0.245679  0.245679  0.000000  1
  Lu  Lu2  1  0.004446  0.504446  0.500000  1
  Lu  Lu3  1  0.495554  0.995554  0.500000  1
  Ge  Ge4  1  0.000000  0.000000  0.000000  1
  Ge  Ge5  1  0.250000  0.750000  0.500000  1
  Se  Se6  1  0.500000  0.500000  0.000000  1
  Se  Se7  1  0.750000  0.250000  0.500000  1
