# generated using pymatgen
data_LaTh(Zn10Pt)2
_symmetry_space_group_name_H-M   'P 1'
_cell_length_a   8.32429698
_cell_length_b   8.30926515
_cell_length_c   8.34170730
_cell_angle_alpha   99.84818662
_cell_angle_beta   99.93493934
_cell_angle_gamma   130.95014698
_symmetry_Int_Tables_number   1
_chemical_formula_structural   LaTh(Zn10Pt)2
_chemical_formula_sum   'La1 Th1 Zn20 Pt2'
_cell_volume   396.71570633
_cell_formula_units_Z   1
loop_
 _symmetry_equiv_pos_site_id
 _symmetry_equiv_pos_as_xyz
  1  'x, y, z'
loop_
 _atom_site_type_symbol
 _atom_site_label
 _atom_site_symmetry_multiplicity
 _atom_site_fract_x
 _atom_site_fract_y
 _atom_site_fract_z
 _atom_site_occupancy
  La  La0  1  0.004628  0.004628  0.009255  1
  Th  Th1  1  0.244868  0.744868  0.489737  1
  Zn  Zn2  1  0.901577  0.574674  0.083710  1
  Zn  Zn3  1  0.624552  0.874322  0.249882  1
  Zn  Zn4  1  0.428174  0.512870  0.329448  1
  Zn  Zn5  1  0.491050  0.576194  0.671190  1
  Zn  Zn6  1  0.425266  0.094716  0.913832  1
  Zn  Zn7  1  0.758014  0.172822  0.827259  1
  Zn  Zn8  1  0.488566  0.819116  0.913832  1
  Zn  Zn9  1  0.494997  0.494997  0.989995  1
  Zn  Zn10  1  0.760153  0.931752  0.585703  1
  Zn  Zn11  1  0.754844  0.254844  0.509686  1
  Zn  Zn12  1  0.069245  0.654437  0.827259  1
  Zn  Zn13  1  0.348782  0.174484  0.416792  1
  Zn  Zn14  1  0.825550  0.653951  0.585703  1
  Zn  Zn15  1  0.901275  0.816578  0.329448  1
  Zn  Zn16  1  0.180140  0.094996  0.671190  1
  Zn  Zn17  1  0.068010  0.242309  0.416792  1
  Zn  Zn18  1  0.349852  0.933651  0.172496  1
  Zn  Zn19  1  0.822644  0.238845  0.172496  1
  Zn  Zn20  1  0.182133  0.509035  0.083710  1
  Zn  Zn21  1  0.625330  0.375561  0.249882  1
  Pt  Pt22  1  0.126038  0.375815  0.750351  1
  Pt  Pt23  1  0.624313  0.374536  0.750351  1
