# generated using pymatgen
data_Tb2Tm3Lu11(Ga3Co)2
_symmetry_space_group_name_H-M   'P 1'
_cell_length_a   9.81930600
_cell_length_b   9.81930648
_cell_length_c   6.86110700
_cell_angle_alpha   90.00000000
_cell_angle_beta   90.00000000
_cell_angle_gamma   119.99999838
_symmetry_Int_Tables_number   1
_chemical_formula_structural   Tb2Tm3Lu11(Ga3Co)2
_chemical_formula_sum   'Tb2 Tm3 Lu11 Ga6 Co2'
_cell_volume   572.91005008
_cell_formula_units_Z   1
loop_
 _symmetry_equiv_pos_site_id
 _symmetry_equiv_pos_as_xyz
  1  'x, y, z'
loop_
 _atom_site_type_symbol
 _atom_site_label
 _atom_site_symmetry_multiplicity
 _atom_site_fract_x
 _atom_site_fract_y
 _atom_site_fract_z
 _atom_site_occupancy
  Tb  Tb0  1  0.000000  0.000000  0.769210  1
  Tb  Tb1  1  0.000000  0.000000  0.269096  1
  Tm  Tm2  1  0.463606  0.927212  0.292731  1
  Tm  Tm3  1  0.072788  0.536394  0.292731  1
  Tm  Tm4  1  0.463606  0.536394  0.292731  1
  Lu  Lu5  1  0.825439  0.650878  0.488941  1
  Lu  Lu6  1  0.349122  0.174561  0.488941  1
  Lu  Lu7  1  0.825439  0.174561  0.488941  1
  Lu  Lu8  1  0.174486  0.348970  0.988216  1
  Lu  Lu9  1  0.651030  0.825514  0.988216  1
  Lu  Lu10  1  0.174486  0.825514  0.988216  1
  Lu  Lu11  1  0.666667  0.333333  0.172444  1
  Lu  Lu12  1  0.333333  0.666667  0.673051  1
  Lu  Lu13  1  0.536762  0.073523  0.792644  1
  Lu  Lu14  1  0.926477  0.463238  0.792644  1
  Lu  Lu15  1  0.536762  0.463238  0.792644  1
  Ga  Ga16  1  0.835922  0.671845  0.040266  1
  Ga  Ga17  1  0.328155  0.164078  0.040266  1
  Ga  Ga18  1  0.835922  0.164078  0.040266  1
  Ga  Ga19  1  0.163987  0.327973  0.540565  1
  Ga  Ga20  1  0.672027  0.836013  0.540565  1
  Ga  Ga21  1  0.163987  0.836013  0.540565  1
  Co  Co22  1  0.666667  0.333333  0.556355  1
  Co  Co23  1  0.333333  0.666667  0.055822  1
