# generated using pymatgen
data_Pr7NdCoHg3
_symmetry_space_group_name_H-M   'P 1'
_cell_length_a   10.64171818
_cell_length_b   10.63556530
_cell_length_c   7.30614413
_cell_angle_alpha   90.04404433
_cell_angle_beta   89.91196226
_cell_angle_gamma   120.01914843
_symmetry_Int_Tables_number   1
_chemical_formula_structural   Pr7NdCoHg3
_chemical_formula_sum   'Pr14 Nd2 Co2 Hg6'
_cell_volume   715.98983375
_cell_formula_units_Z   2
loop_
 _symmetry_equiv_pos_site_id
 _symmetry_equiv_pos_as_xyz
  1  'x, y, z'
loop_
 _atom_site_type_symbol
 _atom_site_label
 _atom_site_symmetry_multiplicity
 _atom_site_fract_x
 _atom_site_fract_y
 _atom_site_fract_z
 _atom_site_occupancy
  Pr  Pr0  1  0.829004  0.657525  0.481166  1
  Pr  Pr1  1  0.171481  0.342475  0.981166  1
  Pr  Pr2  1  0.657615  0.828631  0.981336  1
  Pr  Pr3  1  0.828982  0.171369  0.481336  1
  Pr  Pr4  1  0.333123  0.666921  0.689893  1
  Pr  Pr5  1  0.666203  0.333079  0.189893  1
  Pr  Pr6  1  0.459244  0.540317  0.290379  1
  Pr  Pr7  1  0.918926  0.459683  0.790379  1
  Pr  Pr8  1  0.540062  0.081108  0.789764  1
  Pr  Pr9  1  0.458955  0.918892  0.289764  1
  Pr  Pr10  1  0.081426  0.541004  0.289772  1
  Pr  Pr11  1  0.540421  0.458996  0.789772  1
  Pr  Pr12  1  0.000247  0.000089  0.288499  1
  Pr  Pr13  1  0.000158  0.999911  0.788499  1
  Nd  Nd14  1  0.171300  0.828801  0.981251  1
  Nd  Nd15  1  0.342498  0.171199  0.481251  1
  Co  Co16  1  0.332910  0.666999  0.053620  1
  Co  Co17  1  0.665912  0.333001  0.553620  1
  Hg  Hg18  1  0.167899  0.833719  0.539845  1
  Hg  Hg19  1  0.334180  0.166281  0.039845  1
  Hg  Hg20  1  0.833756  0.665983  0.038652  1
  Hg  Hg21  1  0.167773  0.334017  0.538652  1
  Hg  Hg22  1  0.665308  0.832690  0.538819  1
  Hg  Hg23  1  0.832618  0.167310  0.038819  1
