# generated using pymatgen
data_CaPa3(SnPd2)2
_symmetry_space_group_name_H-M   'P 1'
_cell_length_a   7.78104439
_cell_length_b   7.78104439
_cell_length_c   3.70586400
_cell_angle_alpha   90.00000000
_cell_angle_beta   90.00000000
_cell_angle_gamma   89.48235838
_symmetry_Int_Tables_number   1
_chemical_formula_structural   CaPa3(SnPd2)2
_chemical_formula_sum   'Ca1 Pa3 Sn2 Pd4'
_cell_volume   224.36108860
_cell_formula_units_Z   1
loop_
 _symmetry_equiv_pos_site_id
 _symmetry_equiv_pos_as_xyz
  1  'x, y, z'
loop_
 _atom_site_type_symbol
 _atom_site_label
 _atom_site_symmetry_multiplicity
 _atom_site_fract_x
 _atom_site_fract_y
 _atom_site_fract_z
 _atom_site_occupancy
  Ca  Ca0  1  0.674934  0.174934  0.500000  1
  Pa  Pa1  1  0.327799  0.827799  0.500000  1
  Pa  Pa2  1  0.174372  0.324317  0.500000  1
  Pa  Pa3  1  0.824317  0.674372  0.500000  1
  Sn  Sn4  1  0.993214  0.003592  0.000000  1
  Sn  Sn5  1  0.503592  0.493214  0.000000  1
  Pd  Pd6  1  0.133946  0.633946  0.000000  1
  Pd  Pd7  1  0.885137  0.385137  0.000000  1
  Pd  Pd8  1  0.622674  0.860015  0.000000  1
  Pd  Pd9  1  0.360015  0.122674  0.000000  1
