# generated using pymatgen
data_Lu4BI6
_symmetry_space_group_name_H-M   'P 1'
_cell_length_a   4.03269000
_cell_length_b   13.68655900
_cell_length_c   14.17188200
_cell_angle_alpha   90.00000000
_cell_angle_beta   90.00000000
_cell_angle_gamma   90.00000000
_symmetry_Int_Tables_number   1
_chemical_formula_structural   Lu4BI6
_chemical_formula_sum   'Lu8 B2 I12'
_cell_volume   782.19788947
_cell_formula_units_Z   2
loop_
 _symmetry_equiv_pos_site_id
 _symmetry_equiv_pos_as_xyz
  1  'x, y, z'
loop_
 _atom_site_type_symbol
 _atom_site_label
 _atom_site_symmetry_multiplicity
 _atom_site_fract_x
 _atom_site_fract_y
 _atom_site_fract_z
 _atom_site_occupancy
  Lu  Lu0  1  0.000000  0.093839  0.074838  1
  Lu  Lu1  1  0.000000  0.906161  0.925162  1
  Lu  Lu2  1  0.000000  0.593839  0.425162  1
  Lu  Lu3  1  0.000000  0.406161  0.574838  1
  Lu  Lu4  1  0.500000  0.115539  0.864442  1
  Lu  Lu5  1  0.500000  0.884461  0.135558  1
  Lu  Lu6  1  0.500000  0.615539  0.635558  1
  Lu  Lu7  1  0.500000  0.384461  0.364442  1
  B  B8  1  0.500000  0.000000  0.000000  1
  B  B9  1  0.500000  0.500000  0.500000  1
  I  I10  1  0.500000  0.269482  0.680720  1
  I  I11  1  0.500000  0.730518  0.319280  1
  I  I12  1  0.500000  0.769482  0.819280  1
  I  I13  1  0.500000  0.230518  0.180720  1
  I  I14  1  0.000000  0.264216  0.932297  1
  I  I15  1  0.000000  0.735784  0.067703  1
  I  I16  1  0.000000  0.481797  0.236082  1
  I  I17  1  0.000000  0.518203  0.763918  1
  I  I18  1  0.000000  0.981797  0.263918  1
  I  I19  1  0.000000  0.018203  0.736082  1
  I  I20  1  0.000000  0.235784  0.432297  1
  I  I21  1  0.000000  0.764216  0.567703  1
