# generated using pymatgen
data_TbY5Tm14(Cd3Ru)2
_symmetry_space_group_name_H-M   'P 1'
_cell_length_a   9.53392084
_cell_length_b   9.53392066
_cell_length_c   9.74279000
_cell_angle_alpha   90.00000000
_cell_angle_beta   90.00000000
_cell_angle_gamma   120.08837276
_symmetry_Int_Tables_number   1
_chemical_formula_structural   TbY5Tm14(Cd3Ru)2
_chemical_formula_sum   'Tb1 Y5 Tm14 Cd6 Ru2'
_cell_volume   766.24846759
_cell_formula_units_Z   1
loop_
 _symmetry_equiv_pos_site_id
 _symmetry_equiv_pos_as_xyz
  1  'x, y, z'
loop_
 _atom_site_type_symbol
 _atom_site_label
 _atom_site_symmetry_multiplicity
 _atom_site_fract_x
 _atom_site_fract_y
 _atom_site_fract_z
 _atom_site_occupancy
  Tb  Tb0  1  0.540362  0.459638  0.250000  1
  Y  Y1  1  0.540485  0.080912  0.250000  1
  Y  Y2  1  0.919088  0.459515  0.250000  1
  Y  Y3  1  0.459598  0.540402  0.750000  1
  Y  Y4  1  0.459572  0.919073  0.750000  1
  Y  Y5  1  0.080927  0.540428  0.750000  1
  Tm  Tm6  1  0.000001  0.999999  0.500028  1
  Tm  Tm7  1  0.000001  0.999999  0.999972  1
  Tm  Tm8  1  0.209935  0.790065  0.440071  1
  Tm  Tm9  1  0.209962  0.419902  0.440053  1
  Tm  Tm10  1  0.580098  0.790038  0.440053  1
  Tm  Tm11  1  0.790074  0.209926  0.560042  1
  Tm  Tm12  1  0.789986  0.579998  0.559971  1
  Tm  Tm13  1  0.420002  0.210014  0.559971  1
  Tm  Tm14  1  0.790074  0.209926  0.939958  1
  Tm  Tm15  1  0.789986  0.579998  0.940029  1
  Tm  Tm16  1  0.420002  0.210014  0.940029  1
  Tm  Tm17  1  0.209935  0.790065  0.059929  1
  Tm  Tm18  1  0.209962  0.419902  0.059947  1
  Tm  Tm19  1  0.580098  0.790038  0.059947  1
  Cd  Cd20  1  0.885936  0.114064  0.250000  1
  Cd  Cd21  1  0.886065  0.771997  0.250000  1
  Cd  Cd22  1  0.228003  0.113935  0.250000  1
  Cd  Cd23  1  0.114068  0.885932  0.750000  1
  Cd  Cd24  1  0.113926  0.228105  0.750000  1
  Cd  Cd25  1  0.771895  0.886074  0.750000  1
  Ru  Ru26  1  0.333419  0.666581  0.250000  1
  Ru  Ru27  1  0.666544  0.333456  0.750000  1
