# generated using pymatgen
data_Li30Si2(GeSb)3
_symmetry_space_group_name_H-M   'P 1'
_cell_length_a   9.36726204
_cell_length_b   9.38268792
_cell_length_c   9.37613325
_cell_angle_alpha   109.45777686
_cell_angle_beta   109.47113915
_cell_angle_gamma   109.45275915
_symmetry_Int_Tables_number   1
_chemical_formula_structural   Li30Si2(GeSb)3
_chemical_formula_sum   'Li30 Si2 Ge3 Sb3'
_cell_volume   634.61909467
_cell_formula_units_Z   1
loop_
 _symmetry_equiv_pos_site_id
 _symmetry_equiv_pos_as_xyz
  1  'x, y, z'
loop_
 _atom_site_type_symbol
 _atom_site_label
 _atom_site_symmetry_multiplicity
 _atom_site_fract_x
 _atom_site_fract_y
 _atom_site_fract_z
 _atom_site_occupancy
  Li  Li0  1  0.470741  0.166302  0.878513  1
  Li  Li1  1  0.913246  0.679028  0.030620  1
  Li  Li2  1  0.806435  0.712451  0.336231  1
  Li  Li3  1  0.769486  0.575150  0.604487  1
  Li  Li4  1  0.577477  0.601970  0.768558  1
  Li  Li5  1  0.602149  0.768170  0.577244  1
  Li  Li6  1  0.650240  0.962534  0.387161  1
  Li  Li7  1  0.415228  0.530841  0.192441  1
  Li  Li8  1  0.627381  0.383090  0.253277  1
  Li  Li9  1  0.247172  0.622340  0.371503  1
  Li  Li10  1  0.744393  0.864126  0.122205  1
  Li  Li11  1  0.120982  0.737912  0.869890  1
  Li  Li12  1  0.382108  0.253848  0.628292  1
  Li  Li13  1  0.873409  0.135347  0.753402  1
  Li  Li14  1  0.091465  0.290138  0.123592  1
  Li  Li15  1  0.687888  0.039309  0.907102  1
  Li  Li16  1  0.889224  0.472879  0.163416  1
  Li  Li17  1  0.162670  0.875251  0.465918  1
  Li  Li18  1  0.335355  0.805276  0.712652  1
  Li  Li19  1  0.727047  0.339669  0.811379  1
  Li  Li20  1  0.034712  0.902977  0.684720  1
  Li  Li21  1  0.229160  0.316600  0.851007  1
  Li  Li22  1  0.196377  0.426575  0.532174  1
  Li  Li23  1  0.971578  0.395008  0.665796  1
  Li  Li24  1  0.303950  0.830994  0.227708  1
  Li  Li25  1  0.529037  0.193618  0.423297  1
  Li  Li26  1  0.377642  0.648188  0.965962  1
  Li  Li27  1  0.133069  0.095272  0.283097  1
  Li  Li28  1  0.283632  0.134823  0.091813  1
  Li  Li29  1  0.848125  0.239000  0.315802  1
  Si  Si30  1  0.083014  0.499100  0.998908  1
  Si  Si31  1  0.000167  0.584454  0.500608  1
  Ge  Ge32  1  0.583282  0.500670  0.000700  1
  Ge  Ge33  1  0.500111  0.001519  0.584443  1
  Ge  Ge34  1  0.416318  0.416409  0.416022  1
  Sb  Sb35  1  0.917058  0.917204  0.917688  1
  Sb  Sb36  1  0.499265  0.998993  0.082689  1
  Sb  Sb37  1  0.999409  0.082964  0.499682  1
