# generated using pymatgen
data_DyZnTe2ClO6
_symmetry_space_group_name_H-M   'P 1'
_cell_length_a   15.19095500
_cell_length_b   5.50332227
_cell_length_c   9.57540580
_cell_angle_alpha   81.82198094
_cell_angle_beta   90.00000000
_cell_angle_gamma   90.00000000
_symmetry_Int_Tables_number   1
_chemical_formula_structural   DyZnTe2ClO6
_chemical_formula_sum   'Dy4 Zn4 Te8 Cl4 O24'
_cell_volume   792.37033473
_cell_formula_units_Z   4
loop_
 _symmetry_equiv_pos_site_id
 _symmetry_equiv_pos_as_xyz
  1  'x, y, z'
loop_
 _atom_site_type_symbol
 _atom_site_label
 _atom_site_symmetry_multiplicity
 _atom_site_fract_x
 _atom_site_fract_y
 _atom_site_fract_z
 _atom_site_occupancy
  Dy  Dy0  1  0.413159  0.747091  0.026307  1
  Dy  Dy1  1  0.913159  0.252909  0.473693  1
  Dy  Dy2  1  0.586841  0.252909  0.973693  1
  Dy  Dy3  1  0.086841  0.747091  0.526307  1
  Zn  Zn4  1  0.789960  0.284014  0.143368  1
  Zn  Zn5  1  0.289960  0.715986  0.356632  1
  Zn  Zn6  1  0.710040  0.284014  0.643368  1
  Zn  Zn7  1  0.210040  0.715986  0.856632  1
  Te  Te8  1  0.347857  0.246851  0.795694  1
  Te  Te9  1  0.652143  0.753149  0.204306  1
  Te  Te10  1  0.586226  0.774743  0.718071  1
  Te  Te11  1  0.152143  0.246851  0.295694  1
  Te  Te12  1  0.086226  0.225257  0.781929  1
  Te  Te13  1  0.847857  0.753149  0.704306  1
  Te  Te14  1  0.413774  0.225257  0.281929  1
  Te  Te15  1  0.913774  0.774743  0.218071  1
  Cl  Cl16  1  0.890427  0.293298  0.959280  1
  Cl  Cl17  1  0.109573  0.706702  0.040720  1
  Cl  Cl18  1  0.609573  0.293298  0.459280  1
  Cl  Cl19  1  0.390427  0.706702  0.540720  1
  O  O20  1  0.016521  0.379191  0.630876  1
  O  O21  1  0.638398  0.034921  0.799167  1
  O  O22  1  0.483479  0.379191  0.130876  1
  O  O23  1  0.516521  0.620809  0.869124  1
  O  O24  1  0.676517  0.535375  0.768730  1
  O  O25  1  0.789495  0.019915  0.592681  1
  O  O26  1  0.674050  0.503836  0.090967  1
  O  O27  1  0.825950  0.503836  0.590967  1
  O  O28  1  0.861602  0.034921  0.299167  1
  O  O29  1  0.325950  0.496164  0.909033  1
  O  O30  1  0.710505  0.019915  0.092681  1
  O  O31  1  0.289495  0.980085  0.907319  1
  O  O32  1  0.323483  0.464625  0.231270  1
  O  O33  1  0.176517  0.464625  0.731270  1
  O  O34  1  0.361602  0.965079  0.200833  1
  O  O35  1  0.955786  0.884497  0.620767  1
  O  O36  1  0.138398  0.965079  0.700833  1
  O  O37  1  0.455786  0.115503  0.879233  1
  O  O38  1  0.823483  0.535375  0.268730  1
  O  O39  1  0.544214  0.884497  0.120767  1
  O  O40  1  0.210505  0.980085  0.407319  1
  O  O41  1  0.983479  0.620809  0.369124  1
  O  O42  1  0.044214  0.115503  0.379233  1
  O  O43  1  0.174050  0.496164  0.409033  1
