# generated using pymatgen
data_Sm3Dy3NiBr10
_symmetry_space_group_name_H-M   'P 1'
_cell_length_a   7.38142767
_cell_length_b   9.28634481
_cell_length_c   9.34484396
_cell_angle_alpha   108.27759831
_cell_angle_beta   96.37529637
_cell_angle_gamma   105.65181464
_symmetry_Int_Tables_number   1
_chemical_formula_structural   Sm3Dy3NiBr10
_chemical_formula_sum   'Sm3 Dy3 Ni1 Br10'
_cell_volume   572.11887041
_cell_formula_units_Z   1
loop_
 _symmetry_equiv_pos_site_id
 _symmetry_equiv_pos_as_xyz
  1  'x, y, z'
loop_
 _atom_site_type_symbol
 _atom_site_label
 _atom_site_symmetry_multiplicity
 _atom_site_fract_x
 _atom_site_fract_y
 _atom_site_fract_z
 _atom_site_occupancy
  Sm  Sm0  1  0.875302  0.954949  0.245477  1
  Sm  Sm1  1  0.126012  0.044999  0.755022  1
  Sm  Sm2  1  0.027900  0.702167  0.905448  1
  Dy  Dy3  1  0.971565  0.292397  0.092820  1
  Dy  Dy4  1  0.646540  0.869705  0.827398  1
  Dy  Dy5  1  0.353315  0.133050  0.173274  1
  Ni  Ni6  1  0.000403  0.000047  0.000357  1
  Br  Br7  1  0.638565  0.549245  0.727486  1
  Br  Br8  1  0.350668  0.451230  0.269792  1
  Br  Br9  1  0.742789  0.915111  0.546954  1
  Br  Br10  1  0.259051  0.085409  0.452951  1
  Br  Br11  1  0.914481  0.626390  0.174003  1
  Br  Br12  1  0.084415  0.367775  0.830020  1
  Br  Br13  1  0.552419  0.178668  0.918236  1
  Br  Br14  1  0.451675  0.825361  0.084501  1
  Br  Br15  1  0.225074  0.743979  0.653634  1
  Br  Br16  1  0.779829  0.259519  0.342626  1
