# generated using pymatgen
data_MgZn(OsO3)4
_symmetry_space_group_name_H-M   'P 1'
_cell_length_a   4.61928596
_cell_length_b   4.61928596
_cell_length_c   9.36419300
_cell_angle_alpha   90.00000000
_cell_angle_beta   90.00000000
_cell_angle_gamma   90.15005881
_symmetry_Int_Tables_number   1
_chemical_formula_structural   MgZn(OsO3)4
_chemical_formula_sum   'Mg1 Zn1 Os4 O12'
_cell_volume   199.81061820
_cell_formula_units_Z   1
loop_
 _symmetry_equiv_pos_site_id
 _symmetry_equiv_pos_as_xyz
  1  'x, y, z'
loop_
 _atom_site_type_symbol
 _atom_site_label
 _atom_site_symmetry_multiplicity
 _atom_site_fract_x
 _atom_site_fract_y
 _atom_site_fract_z
 _atom_site_occupancy
  Mg  Mg0  1  0.500000  0.500000  0.500000  1
  Zn  Zn1  1  0.000000  0.000000  0.000000  1
  Os  Os2  1  0.500000  0.500000  0.829959  1
  Os  Os3  1  0.000000  0.000000  0.331028  1
  Os  Os4  1  0.500000  0.500000  0.170041  1
  Os  Os5  1  0.000000  0.000000  0.668972  1
  O  O6  1  0.704288  0.704288  0.675400  1
  O  O7  1  0.295712  0.295712  0.675400  1
  O  O8  1  0.704288  0.704288  0.324600  1
  O  O9  1  0.205549  0.794451  0.177826  1
  O  O10  1  0.794451  0.205549  0.177826  1
  O  O11  1  0.794451  0.205549  0.822174  1
  O  O12  1  0.316873  0.316873  0.000000  1
  O  O13  1  0.182183  0.817817  0.500000  1
  O  O14  1  0.817817  0.182183  0.500000  1
  O  O15  1  0.683127  0.683127  0.000000  1
  O  O16  1  0.295712  0.295712  0.324600  1
  O  O17  1  0.205549  0.794451  0.822174  1
