# generated using pymatgen
data_Tb2Tm6B24Rh3W
_symmetry_space_group_name_H-M   'P 1'
_cell_length_a   3.63874600
_cell_length_b   9.14844103
_cell_length_c   11.52454505
_cell_angle_alpha   90.23856517
_cell_angle_beta   90.00000000
_cell_angle_gamma   90.00000000
_symmetry_Int_Tables_number   1
_chemical_formula_structural   Tb2Tm6B24Rh3W
_chemical_formula_sum   'Tb2 Tm6 B24 Rh3 W1'
_cell_volume   383.63556289
_cell_formula_units_Z   1
loop_
 _symmetry_equiv_pos_site_id
 _symmetry_equiv_pos_as_xyz
  1  'x, y, z'
loop_
 _atom_site_type_symbol
 _atom_site_label
 _atom_site_symmetry_multiplicity
 _atom_site_fract_x
 _atom_site_fract_y
 _atom_site_fract_z
 _atom_site_occupancy
  Tb  Tb0  1  0.500000  0.319192  0.410938  1
  Tb  Tb1  1  0.500000  0.676830  0.585211  1
  Tm  Tm2  1  0.500000  0.179220  0.916795  1
  Tm  Tm3  1  0.500000  0.823186  0.086533  1
  Tm  Tm4  1  0.500000  0.445574  0.125062  1
  Tm  Tm5  1  0.500000  0.557452  0.872005  1
  Tm  Tm6  1  0.500000  0.055863  0.629518  1
  Tm  Tm7  1  0.500000  0.944369  0.374197  1
  B  B8  1  0.000000  0.104292  0.473520  1
  B  B9  1  0.000000  0.894189  0.530134  1
  B  B10  1  0.000000  0.395724  0.969110  1
  B  B11  1  0.000000  0.608699  0.028287  1
  B  B12  1  0.000000  0.131114  0.317097  1
  B  B13  1  0.000000  0.867463  0.684228  1
  B  B14  1  0.000000  0.368657  0.816710  1
  B  B15  1  0.000000  0.633235  0.182973  1
  B  B16  1  0.000000  0.051316  0.063867  1
  B  B17  1  0.000000  0.946625  0.933350  1
  B  B18  1  0.000000  0.444436  0.566168  1
  B  B19  1  0.000000  0.553140  0.433111  1
  B  B20  1  0.000000  0.483669  0.286442  1
  B  B21  1  0.000000  0.516865  0.712754  1
  B  B22  1  0.000000  0.018105  0.788028  1
  B  B23  1  0.000000  0.978716  0.213761  1
  B  B24  1  0.000000  0.251791  0.077614  1
  B  B25  1  0.000000  0.751278  0.920001  1
  B  B26  1  0.000000  0.249156  0.580375  1
  B  B27  1  0.000000  0.749146  0.420346  1
  B  B28  1  0.000000  0.295689  0.235086  1
  B  B29  1  0.000000  0.706573  0.764295  1
  B  B30  1  0.000000  0.207401  0.736784  1
  B  B31  1  0.000000  0.792219  0.265530  1
  Rh  Rh32  1  0.500000  0.861587  0.821282  1
  Rh  Rh33  1  0.500000  0.359995  0.680291  1
  Rh  Rh34  1  0.500000  0.639517  0.320089  1
  W  W35  1  0.500000  0.137715  0.178510  1
