# generated using pymatgen
data_Zr3Nb2Si2GeN
_symmetry_space_group_name_H-M   'P 1'
_cell_length_a   7.85265000
_cell_length_b   7.84790469
_cell_length_c   5.47009400
_cell_angle_alpha   90.00000000
_cell_angle_beta   90.00000000
_cell_angle_gamma   120.01999556
_symmetry_Int_Tables_number   1
_chemical_formula_structural   Zr3Nb2Si2GeN
_chemical_formula_sum   'Zr6 Nb4 Si4 Ge2 N2'
_cell_volume   291.88235494
_cell_formula_units_Z   2
loop_
 _symmetry_equiv_pos_site_id
 _symmetry_equiv_pos_as_xyz
  1  'x, y, z'
loop_
 _atom_site_type_symbol
 _atom_site_label
 _atom_site_symmetry_multiplicity
 _atom_site_fract_x
 _atom_site_fract_y
 _atom_site_fract_z
 _atom_site_occupancy
  Zr  Zr0  1  0.234087  0.000000  0.750000  1
  Zr  Zr1  1  0.765913  0.000000  0.250000  1
  Zr  Zr2  1  0.002688  0.237982  0.750000  1
  Zr  Zr3  1  0.997312  0.762018  0.250000  1
  Zr  Zr4  1  0.764706  0.762018  0.750000  1
  Zr  Zr5  1  0.235294  0.237982  0.250000  1
  Nb  Nb6  1  0.331181  0.662362  0.500000  1
  Nb  Nb7  1  0.668819  0.337638  0.500000  1
  Nb  Nb8  1  0.668819  0.337638  0.000000  1
  Nb  Nb9  1  0.331181  0.662362  0.000000  1
  Si  Si10  1  0.000894  0.590793  0.750000  1
  Si  Si11  1  0.999106  0.409207  0.250000  1
  Si  Si12  1  0.410100  0.409207  0.750000  1
  Si  Si13  1  0.589900  0.590793  0.250000  1
  Ge  Ge14  1  0.592586  0.000000  0.750000  1
  Ge  Ge15  1  0.407414  0.000000  0.250000  1
  N  N16  1  0.000000  0.000000  0.500000  1
  N  N17  1  0.000000  0.000000  0.000000  1
