# generated using pymatgen
data_Y8Pd15Pt9Pb
_symmetry_space_group_name_H-M   'P 1'
_cell_length_a   8.44041000
_cell_length_b   8.45142000
_cell_length_c   8.43959000
_cell_angle_alpha   90.00000000
_cell_angle_beta   90.00000000
_cell_angle_gamma   90.00000000
_symmetry_Int_Tables_number   1
_chemical_formula_structural   Y8Pd15Pt9Pb
_chemical_formula_sum   'Y8 Pd15 Pt9 Pb1'
_cell_volume   602.02507029
_cell_formula_units_Z   1
loop_
 _symmetry_equiv_pos_site_id
 _symmetry_equiv_pos_as_xyz
  1  'x, y, z'
loop_
 _atom_site_type_symbol
 _atom_site_label
 _atom_site_symmetry_multiplicity
 _atom_site_fract_x
 _atom_site_fract_y
 _atom_site_fract_z
 _atom_site_occupancy
  Y  Y0  1  0.253188  0.252178  0.252703  1
  Y  Y1  1  0.746803  0.747304  0.747532  1
  Y  Y2  1  0.746803  0.747304  0.252468  1
  Y  Y3  1  0.746803  0.252696  0.747532  1
  Y  Y4  1  0.253188  0.252178  0.747297  1
  Y  Y5  1  0.253188  0.747822  0.252703  1
  Y  Y6  1  0.253188  0.747822  0.747297  1
  Y  Y7  1  0.746803  0.252696  0.252468  1
  Pd  Pd8  1  0.733058  0.000000  0.500000  1
  Pd  Pd9  1  0.999964  0.500000  0.267380  1
  Pd  Pd10  1  0.999964  0.500000  0.732620  1
  Pd  Pd11  1  0.255410  0.500000  0.500000  1
  Pd  Pd12  1  0.744680  0.500000  0.500000  1
  Pd  Pd13  1  0.499986  0.255499  0.500000  1
  Pd  Pd14  1  0.499986  0.744501  0.500000  1
  Pd  Pd15  1  0.500066  0.500000  0.255767  1
  Pd  Pd16  1  0.500066  0.500000  0.744233  1
  Pd  Pd17  1  0.316037  0.000000  0.000000  1
  Pd  Pd18  1  0.683921  0.000000  0.000000  1
  Pd  Pd19  1  0.999987  0.316352  0.000000  1
  Pd  Pd20  1  0.999987  0.683648  0.000000  1
  Pd  Pd21  1  0.999794  0.000000  0.316130  1
  Pd  Pd22  1  0.999794  0.000000  0.683870  1
  Pt  Pt23  1  0.266381  0.500000  0.000000  1
  Pt  Pt24  1  0.733723  0.500000  0.000000  1
  Pt  Pt25  1  0.999858  0.267006  0.500000  1
  Pt  Pt26  1  0.500045  0.266941  0.000000  1
  Pt  Pt27  1  0.999858  0.732994  0.500000  1
  Pt  Pt28  1  0.500045  0.733059  0.000000  1
  Pt  Pt29  1  0.500009  0.000000  0.266999  1
  Pt  Pt30  1  0.267214  0.000000  0.500000  1
  Pt  Pt31  1  0.500009  0.000000  0.733001  1
  Pb  Pb32  1  0.000193  0.000000  0.000000  1
