# generated using pymatgen
data_Pm4V3FeO12
_symmetry_space_group_name_H-M   'P 1'
_cell_length_a   5.45967450
_cell_length_b   5.69661999
_cell_length_c   7.84152686
_cell_angle_alpha   89.92372832
_cell_angle_beta   90.01820657
_cell_angle_gamma   89.58211551
_symmetry_Int_Tables_number   1
_chemical_formula_structural   Pm4V3FeO12
_chemical_formula_sum   'Pm4 V3 Fe1 O12'
_cell_volume   243.87802902
_cell_formula_units_Z   1
loop_
 _symmetry_equiv_pos_site_id
 _symmetry_equiv_pos_as_xyz
  1  'x, y, z'
loop_
 _atom_site_type_symbol
 _atom_site_label
 _atom_site_symmetry_multiplicity
 _atom_site_fract_x
 _atom_site_fract_y
 _atom_site_fract_z
 _atom_site_occupancy
  Pm  Pm0  1  0.983292  0.062835  0.250587  1
  Pm  Pm1  1  0.514467  0.560105  0.249755  1
  Pm  Pm2  1  0.485534  0.439895  0.750245  1
  Pm  Pm3  1  0.016707  0.937165  0.749413  1
  V  V4  1  0.500000  0.000000  0.000000  1
  V  V5  1  0.000000  0.499999  0.000000  1
  V  V6  1  0.500000  0.000000  0.500000  1
  Fe  Fe7  1  0.000000  0.499999  0.500000  1
  O  O8  1  0.702366  0.302778  0.053498  1
  O  O9  1  0.799787  0.799551  0.050404  1
  O  O10  1  0.100740  0.468373  0.253489  1
  O  O11  1  0.400834  0.969280  0.247653  1
  O  O12  1  0.698357  0.296895  0.448742  1
  O  O13  1  0.802743  0.797875  0.447350  1
  O  O14  1  0.197258  0.202125  0.552651  1
  O  O15  1  0.301644  0.703105  0.551259  1
  O  O16  1  0.599167  0.030720  0.752347  1
  O  O17  1  0.899261  0.531627  0.746511  1
  O  O18  1  0.200214  0.200449  0.949597  1
  O  O19  1  0.297635  0.697222  0.946503  1
