# generated using pymatgen
data_NdSc2NiIr8
_symmetry_space_group_name_H-M   'P 1'
_cell_length_a   5.15482000
_cell_length_b   8.83582200
_cell_length_c   8.83582200
_cell_angle_alpha   90.00000000
_cell_angle_beta   90.00000000
_cell_angle_gamma   90.00000000
_symmetry_Int_Tables_number   1
_chemical_formula_structural   NdSc2NiIr8
_chemical_formula_sum   'Nd2 Sc4 Ni2 Ir16'
_cell_volume   402.44582048
_cell_formula_units_Z   2
loop_
 _symmetry_equiv_pos_site_id
 _symmetry_equiv_pos_as_xyz
  1  'x, y, z'
loop_
 _atom_site_type_symbol
 _atom_site_label
 _atom_site_symmetry_multiplicity
 _atom_site_fract_x
 _atom_site_fract_y
 _atom_site_fract_z
 _atom_site_occupancy
  Nd  Nd0  1  0.000000  0.500000  0.500000  1
  Nd  Nd1  1  0.000000  0.000000  0.000000  1
  Sc  Sc2  1  0.000000  0.623584  0.123584  1
  Sc  Sc3  1  0.000000  0.376416  0.876416  1
  Sc  Sc4  1  0.000000  0.876416  0.623584  1
  Sc  Sc5  1  0.000000  0.123584  0.376416  1
  Ni  Ni6  1  0.500000  0.000000  0.500000  1
  Ni  Ni7  1  0.500000  0.500000  0.000000  1
  Ir  Ir8  1  0.757643  0.175314  0.675314  1
  Ir  Ir9  1  0.757643  0.824686  0.324686  1
  Ir  Ir10  1  0.757643  0.324686  0.175314  1
  Ir  Ir11  1  0.757643  0.675314  0.824686  1
  Ir  Ir12  1  0.242357  0.824686  0.324686  1
  Ir  Ir13  1  0.242357  0.175314  0.675314  1
  Ir  Ir14  1  0.242357  0.675314  0.824686  1
  Ir  Ir15  1  0.242357  0.324686  0.175314  1
  Ir  Ir16  1  0.500000  0.710174  0.562682  1
  Ir  Ir17  1  0.500000  0.289826  0.437318  1
  Ir  Ir18  1  0.500000  0.789826  0.062682  1
  Ir  Ir19  1  0.500000  0.210174  0.937318  1
  Ir  Ir20  1  0.500000  0.562682  0.289826  1
  Ir  Ir21  1  0.500000  0.437318  0.710174  1
  Ir  Ir22  1  0.500000  0.062682  0.210174  1
  Ir  Ir23  1  0.500000  0.937318  0.789826  1
