# generated using pymatgen
data_K(ZrSe3)2
_symmetry_space_group_name_H-M   'P 1'
_cell_length_a   11.50063125
_cell_length_b   11.50063192
_cell_length_c   11.50063118
_cell_angle_alpha   160.74165861
_cell_angle_beta   152.95144705
_cell_angle_gamma   33.41928750
_symmetry_Int_Tables_number   1
_chemical_formula_structural   K(ZrSe3)2
_chemical_formula_sum   'K1 Zr2 Se6'
_cell_volume   227.96022529
_cell_formula_units_Z   1
loop_
 _symmetry_equiv_pos_site_id
 _symmetry_equiv_pos_as_xyz
  1  'x, y, z'
loop_
 _atom_site_type_symbol
 _atom_site_label
 _atom_site_symmetry_multiplicity
 _atom_site_fract_x
 _atom_site_fract_y
 _atom_site_fract_z
 _atom_site_occupancy
  K  K0  1  0.000000  0.000000  0.000000  1
  Zr  Zr1  1  0.320241  0.820241  0.500000  1
  Zr  Zr2  1  0.679759  0.179759  0.500000  1
  Se  Se3  1  0.769850  0.769850  0.000000  1
  Se  Se4  1  0.855685  0.609695  0.245990  1
  Se  Se5  1  0.144315  0.390305  0.754010  1
  Se  Se6  1  0.230150  0.230150  0.000000  1
  Se  Se7  1  0.363705  0.609695  0.754010  1
  Se  Se8  1  0.636295  0.390305  0.245990  1
