# generated using pymatgen
data_HoGaCu3Pd
_symmetry_space_group_name_H-M   'P 1'
_cell_length_a   5.03186213
_cell_length_b   5.03186175
_cell_length_c   5.03186190
_cell_angle_alpha   60.32777368
_cell_angle_beta   60.32777217
_cell_angle_gamma   60.32777495
_symmetry_Int_Tables_number   1
_chemical_formula_structural   HoGaCu3Pd
_chemical_formula_sum   'Ho1 Ga1 Cu3 Pd1'
_cell_volume   90.75696501
_cell_formula_units_Z   1
loop_
 _symmetry_equiv_pos_site_id
 _symmetry_equiv_pos_as_xyz
  1  'x, y, z'
loop_
 _atom_site_type_symbol
 _atom_site_label
 _atom_site_symmetry_multiplicity
 _atom_site_fract_x
 _atom_site_fract_y
 _atom_site_fract_z
 _atom_site_occupancy
  Ho  Ho0  1  0.247250  0.247250  0.247250  1
  Ga  Ga1  1  0.629117  0.629117  0.629117  1
  Cu  Cu2  1  0.626204  0.626204  0.123747  1
  Cu  Cu3  1  0.626204  0.123747  0.626204  1
  Cu  Cu4  1  0.123747  0.626204  0.626204  1
  Pd  Pd5  1  0.997477  0.997477  0.997477  1
