# generated using pymatgen
data_Tb2DyHoSiBr6
_symmetry_space_group_name_H-M   'P 1'
_cell_length_a   4.06507900
_cell_length_b   13.26276372
_cell_length_c   14.04893376
_cell_angle_alpha   90.03775682
_cell_angle_beta   90.00000000
_cell_angle_gamma   90.00000000
_symmetry_Int_Tables_number   1
_chemical_formula_structural   Tb2DyHoSiBr6
_chemical_formula_sum   'Tb4 Dy2 Ho2 Si2 Br12'
_cell_volume   757.43661125
_cell_formula_units_Z   2
loop_
 _symmetry_equiv_pos_site_id
 _symmetry_equiv_pos_as_xyz
  1  'x, y, z'
loop_
 _atom_site_type_symbol
 _atom_site_label
 _atom_site_symmetry_multiplicity
 _atom_site_fract_x
 _atom_site_fract_y
 _atom_site_fract_z
 _atom_site_occupancy
  Tb  Tb0  1  0.000000  0.118611  0.578848  1
  Tb  Tb1  1  0.000000  0.881389  0.421152  1
  Tb  Tb2  1  0.000000  0.618570  0.921201  1
  Tb  Tb3  1  0.000000  0.381430  0.078799  1
  Dy  Dy4  1  0.500000  0.117900  0.341390  1
  Dy  Dy5  1  0.500000  0.882100  0.658610  1
  Ho  Ho6  1  0.500000  0.617714  0.158416  1
  Ho  Ho7  1  0.500000  0.382286  0.841584  1
  Si  Si8  1  0.500000  0.000000  0.500000  1
  Si  Si9  1  0.500000  0.500000  0.000000  1
  Br  Br10  1  0.500000  0.243007  0.163766  1
  Br  Br11  1  0.500000  0.756993  0.836234  1
  Br  Br12  1  0.500000  0.742670  0.335808  1
  Br  Br13  1  0.500000  0.257330  0.664192  1
  Br  Br14  1  0.000000  0.255107  0.410105  1
  Br  Br15  1  0.000000  0.744893  0.589895  1
  Br  Br16  1  0.000000  0.754487  0.090319  1
  Br  Br17  1  0.000000  0.245513  0.909681  1
  Br  Br18  1  0.000000  0.003160  0.242784  1
  Br  Br19  1  0.000000  0.996840  0.757216  1
  Br  Br20  1  0.000000  0.503759  0.256851  1
  Br  Br21  1  0.000000  0.496241  0.743149  1
