# generated using pymatgen
data_DyHoCuSi2Ru
_symmetry_space_group_name_H-M   'P 1'
_cell_length_a   4.21672000
_cell_length_b   6.94616911
_cell_length_c   7.33887609
_cell_angle_alpha   91.50658110
_cell_angle_beta   90.00000000
_cell_angle_gamma   90.00000000
_symmetry_Int_Tables_number   1
_chemical_formula_structural   DyHoCuSi2Ru
_chemical_formula_sum   'Dy2 Ho2 Cu2 Si4 Ru2'
_cell_volume   214.88174139
_cell_formula_units_Z   2
loop_
 _symmetry_equiv_pos_site_id
 _symmetry_equiv_pos_as_xyz
  1  'x, y, z'
loop_
 _atom_site_type_symbol
 _atom_site_label
 _atom_site_symmetry_multiplicity
 _atom_site_fract_x
 _atom_site_fract_y
 _atom_site_fract_z
 _atom_site_occupancy
  Dy  Dy0  1  0.250000  0.993004  0.797207  1
  Dy  Dy1  1  0.750000  0.006996  0.202793  1
  Ho  Ho2  1  0.250000  0.492336  0.688039  1
  Ho  Ho3  1  0.750000  0.507664  0.311961  1
  Cu  Cu4  1  0.750000  0.833567  0.573763  1
  Cu  Cu5  1  0.250000  0.166433  0.426237  1
  Si  Si6  1  0.250000  0.299095  0.089949  1
  Si  Si7  1  0.750000  0.700905  0.910051  1
  Si  Si8  1  0.250000  0.795355  0.389507  1
  Si  Si9  1  0.750000  0.204645  0.610493  1
  Ru  Ru10  1  0.750000  0.347406  0.933765  1
  Ru  Ru11  1  0.250000  0.652594  0.066235  1
