# generated using pymatgen
data_SrDy2Zn11
_symmetry_space_group_name_H-M   'P 1'
_cell_length_a   8.28905673
_cell_length_b   8.28905588
_cell_length_c   8.28905556
_cell_angle_alpha   148.38340948
_cell_angle_beta   117.08050289
_cell_angle_gamma   72.13248374
_symmetry_Int_Tables_number   1
_chemical_formula_structural   SrDy2Zn11
_chemical_formula_sum   'Sr1 Dy2 Zn11'
_cell_volume   261.81391734
_cell_formula_units_Z   1
loop_
 _symmetry_equiv_pos_site_id
 _symmetry_equiv_pos_as_xyz
  1  'x, y, z'
loop_
 _atom_site_type_symbol
 _atom_site_label
 _atom_site_symmetry_multiplicity
 _atom_site_fract_x
 _atom_site_fract_y
 _atom_site_fract_z
 _atom_site_occupancy
  Sr  Sr0  1  0.000000  0.000000  0.000000  1
  Dy  Dy1  1  0.300111  0.300111  0.000000  1
  Dy  Dy2  1  0.699889  0.699889  0.000000  1
  Zn  Zn3  1  0.500000  0.000000  0.500000  1
  Zn  Zn4  1  0.675844  0.500000  0.175844  1
  Zn  Zn5  1  0.324156  0.500000  0.824156  1
  Zn  Zn6  1  0.689535  0.335443  0.354093  1
  Zn  Zn7  1  0.310465  0.664557  0.645907  1
  Zn  Zn8  1  0.981351  0.335443  0.645907  1
  Zn  Zn9  1  0.018649  0.664557  0.354093  1
  Zn  Zn10  1  0.430472  0.140789  0.289683  1
  Zn  Zn11  1  0.569528  0.859211  0.710317  1
  Zn  Zn12  1  0.851106  0.140789  0.710317  1
  Zn  Zn13  1  0.148894  0.859211  0.289683  1
