# generated using pymatgen
data_La2AlRe4Si3
_symmetry_space_group_name_H-M   'P 1'
_cell_length_a   4.17565033
_cell_length_b   4.22501937
_cell_length_c   11.20798798
_cell_angle_alpha   100.86422810
_cell_angle_beta   100.73577552
_cell_angle_gamma   90.00000192
_symmetry_Int_Tables_number   1
_chemical_formula_structural   La2AlRe4Si3
_chemical_formula_sum   'La2 Al1 Re4 Si3'
_cell_volume   190.66422499
_cell_formula_units_Z   1
loop_
 _symmetry_equiv_pos_site_id
 _symmetry_equiv_pos_as_xyz
  1  'x, y, z'
loop_
 _atom_site_type_symbol
 _atom_site_label
 _atom_site_symmetry_multiplicity
 _atom_site_fract_x
 _atom_site_fract_y
 _atom_site_fract_z
 _atom_site_occupancy
  La  La0  1  0.842591  0.092590  0.185179  1
  La  La1  1  0.158666  0.908666  0.817333  1
  Al  Al2  1  0.277357  0.527356  0.054714  1
  Re  Re3  1  0.461903  0.211902  0.423803  1
  Re  Re4  1  0.965193  0.715192  0.430385  1
  Re  Re5  1  0.036065  0.286066  0.572133  1
  Re  Re6  1  0.539075  0.789073  0.578148  1
  Si  Si7  1  0.397427  0.647425  0.294851  1
  Si  Si8  1  0.603394  0.353393  0.706786  1
  Si  Si9  1  0.718334  0.468333  0.936665  1
