# generated using pymatgen
data_Tb4Nd2Ho10Cd3HgPt4
_symmetry_space_group_name_H-M   'P 1'
_cell_length_a   9.70962333
_cell_length_b   9.70962395
_cell_length_c   9.69092500
_cell_angle_alpha   60.06368164
_cell_angle_beta   60.06367957
_cell_angle_gamma   59.87263679
_symmetry_Int_Tables_number   1
_chemical_formula_structural   Tb4Nd2Ho10Cd3HgPt4
_chemical_formula_sum   'Tb4 Nd2 Ho10 Cd3 Hg1 Pt4'
_cell_volume   646.02869077
_cell_formula_units_Z   1
loop_
 _symmetry_equiv_pos_site_id
 _symmetry_equiv_pos_as_xyz
  1  'x, y, z'
loop_
 _atom_site_type_symbol
 _atom_site_label
 _atom_site_symmetry_multiplicity
 _atom_site_fract_x
 _atom_site_fract_y
 _atom_site_fract_z
 _atom_site_occupancy
  Tb  Tb0  1  0.938438  0.560499  0.561739  1
  Tb  Tb1  1  0.560345  0.939188  0.938401  1
  Tb  Tb2  1  0.560748  0.938574  0.561282  1
  Tb  Tb3  1  0.939215  0.560354  0.938447  1
  Nd  Nd4  1  0.566898  0.566812  0.933000  1
  Nd  Nd5  1  0.934534  0.934619  0.564029  1
  Ho  Ho6  1  0.349804  0.350089  0.349900  1
  Ho  Ho7  1  0.352894  0.352882  0.943607  1
  Ho  Ho8  1  0.353353  0.941911  0.353881  1
  Ho  Ho9  1  0.941936  0.353392  0.353835  1
  Ho  Ho10  1  0.811773  0.189342  0.188789  1
  Ho  Ho11  1  0.189350  0.810929  0.810345  1
  Ho  Ho12  1  0.189323  0.811807  0.188781  1
  Ho  Ho13  1  0.810678  0.189252  0.810524  1
  Ho  Ho14  1  0.189321  0.189262  0.811877  1
  Ho  Ho15  1  0.811514  0.811118  0.187039  1
  Cd  Cd16  1  0.581211  0.580912  0.258267  1
  Cd  Cd17  1  0.578245  0.256349  0.582207  1
  Cd  Cd18  1  0.256242  0.578251  0.582318  1
  Hg  Hg19  1  0.584938  0.585066  0.580434  1
  Pt  Pt20  1  0.144569  0.144674  0.142424  1
  Pt  Pt21  1  0.143446  0.143643  0.571463  1
  Pt  Pt22  1  0.140204  0.571019  0.143642  1
  Pt  Pt23  1  0.571024  0.140059  0.143774  1
