# generated using pymatgen
data_Zr6Ti4Al12Fe5Au2
_symmetry_space_group_name_H-M   'P 1'
_cell_length_a   8.70116149
_cell_length_b   8.70116244
_cell_length_c   8.68426220
_cell_angle_alpha   59.96291611
_cell_angle_beta   59.96291560
_cell_angle_gamma   59.73691176
_symmetry_Int_Tables_number   1
_chemical_formula_structural   Zr6Ti4Al12Fe5Au2
_chemical_formula_sum   'Zr6 Ti4 Al12 Fe5 Au2'
_cell_volume   463.72316270
_cell_formula_units_Z   1
loop_
 _symmetry_equiv_pos_site_id
 _symmetry_equiv_pos_as_xyz
  1  'x, y, z'
loop_
 _atom_site_type_symbol
 _atom_site_label
 _atom_site_symmetry_multiplicity
 _atom_site_fract_x
 _atom_site_fract_y
 _atom_site_fract_z
 _atom_site_occupancy
  Zr  Zr0  1  0.701205  0.701205  0.306106  1
  Zr  Zr1  1  0.305717  0.688280  0.310273  1
  Zr  Zr2  1  0.688280  0.305717  0.310273  1
  Zr  Zr3  1  0.299571  0.299571  0.693234  1
  Zr  Zr4  1  0.694920  0.310936  0.689040  1
  Zr  Zr5  1  0.310936  0.694920  0.689040  1
  Ti  Ti6  1  0.880299  0.880299  0.354961  1
  Ti  Ti7  1  0.875985  0.352625  0.873376  1
  Ti  Ti8  1  0.352625  0.875985  0.873376  1
  Ti  Ti9  1  0.893190  0.893190  0.865080  1
  Al  Al10  1  0.120823  0.120823  0.643782  1
  Al  Al11  1  0.122391  0.647190  0.125700  1
  Al  Al12  1  0.647190  0.122391  0.125700  1
  Al  Al13  1  0.108504  0.108504  0.130800  1
  Al  Al14  1  0.658978  0.658978  0.007228  1
  Al  Al15  1  0.669640  0.002993  0.655316  1
  Al  Al16  1  0.002993  0.669640  0.655316  1
  Al  Al17  1  0.666804  0.666804  0.665405  1
  Al  Al18  1  0.342697  0.342697  0.995296  1
  Al  Al19  1  0.327181  0.999405  0.345793  1
  Al  Al20  1  0.999405  0.327181  0.345793  1
  Al  Al21  1  0.333073  0.333073  0.332999  1
  Fe  Fe22  1  0.999950  0.999950  0.996904  1
  Fe  Fe23  1  0.997068  0.997068  0.507436  1
  Fe  Fe24  1  0.501459  0.996261  0.503346  1
  Fe  Fe25  1  0.996261  0.501459  0.503346  1
  Fe  Fe26  1  0.503065  0.503065  0.995954  1
  Au  Au27  1  0.000869  0.498918  0.999562  1
  Au  Au28  1  0.498918  0.000869  0.999562  1
