# generated using pymatgen
data_Ti2NbRe3Si2B
_symmetry_space_group_name_H-M   'P 1'
_cell_length_a   6.74472600
_cell_length_b   6.70854308
_cell_length_c   3.17832000
_cell_angle_alpha   90.00000000
_cell_angle_beta   90.00000000
_cell_angle_gamma   120.17857842
_symmetry_Int_Tables_number   1
_chemical_formula_structural   Ti2NbRe3Si2B
_chemical_formula_sum   'Ti2 Nb1 Re3 Si2 B1'
_cell_volume   124.31869979
_cell_formula_units_Z   1
loop_
 _symmetry_equiv_pos_site_id
 _symmetry_equiv_pos_as_xyz
  1  'x, y, z'
loop_
 _atom_site_type_symbol
 _atom_site_label
 _atom_site_symmetry_multiplicity
 _atom_site_fract_x
 _atom_site_fract_y
 _atom_site_fract_z
 _atom_site_occupancy
  Ti  Ti0  1  0.392216  0.389881  0.000000  1
  Ti  Ti1  1  0.002335  0.610119  0.000000  1
  Nb  Nb2  1  0.604663  0.000000  0.000000  1
  Re  Re3  1  0.244528  0.000000  0.500000  1
  Re  Re4  1  0.756364  0.755000  0.500000  1
  Re  Re5  1  0.001364  0.245000  0.500000  1
  Si  Si6  1  0.328562  0.659884  0.500000  1
  Si  Si7  1  0.668680  0.340116  0.500000  1
  B  B8  1  0.001289  0.000000  0.000000  1
