# generated using pymatgen
data_TmTh6Sc3(Bi3C)2
_symmetry_space_group_name_H-M   'P 1'
_cell_length_a   9.22566800
_cell_length_b   9.22566813
_cell_length_c   6.36665800
_cell_angle_alpha   90.00000000
_cell_angle_beta   90.00000000
_cell_angle_gamma   119.99999955
_symmetry_Int_Tables_number   1
_chemical_formula_structural   TmTh6Sc3(Bi3C)2
_chemical_formula_sum   'Tm1 Th6 Sc3 Bi6 C2'
_cell_volume   469.28622283
_cell_formula_units_Z   1
loop_
 _symmetry_equiv_pos_site_id
 _symmetry_equiv_pos_as_xyz
  1  'x, y, z'
loop_
 _atom_site_type_symbol
 _atom_site_label
 _atom_site_symmetry_multiplicity
 _atom_site_fract_x
 _atom_site_fract_y
 _atom_site_fract_z
 _atom_site_occupancy
  Tm  Tm0  1  0.666667  0.333333  0.500000  1
  Th  Th1  1  0.778008  0.777438  0.749950  1
  Th  Th2  1  0.222562  0.000570  0.749950  1
  Th  Th3  1  0.999430  0.221992  0.749950  1
  Th  Th4  1  0.222562  0.221992  0.250050  1
  Th  Th5  1  0.778008  0.000570  0.250050  1
  Th  Th6  1  0.999430  0.777438  0.250050  1
  Sc  Sc7  1  0.666667  0.333333  0.000000  1
  Sc  Sc8  1  0.333333  0.666667  0.000000  1
  Sc  Sc9  1  0.333333  0.666667  0.500000  1
  Bi  Bi10  1  0.407412  0.411420  0.752664  1
  Bi  Bi11  1  0.588580  0.995992  0.752664  1
  Bi  Bi12  1  0.004008  0.592588  0.752664  1
  Bi  Bi13  1  0.588580  0.592588  0.247336  1
  Bi  Bi14  1  0.407412  0.995992  0.247336  1
  Bi  Bi15  1  0.004008  0.411420  0.247336  1
  C  C16  1  0.000000  0.000000  0.000000  1
  C  C17  1  0.000000  0.000000  0.500000  1
