# generated using pymatgen
data_Tm4GaFe4Os3
_symmetry_space_group_name_H-M   'P 1'
_cell_length_a   5.20264955
_cell_length_b   5.20264926
_cell_length_c   8.64992200
_cell_angle_alpha   90.00000000
_cell_angle_beta   90.00000000
_cell_angle_gamma   120.97263860
_symmetry_Int_Tables_number   1
_chemical_formula_structural   Tm4GaFe4Os3
_chemical_formula_sum   'Tm4 Ga1 Fe4 Os3'
_cell_volume   200.74810593
_cell_formula_units_Z   1
loop_
 _symmetry_equiv_pos_site_id
 _symmetry_equiv_pos_as_xyz
  1  'x, y, z'
loop_
 _atom_site_type_symbol
 _atom_site_label
 _atom_site_symmetry_multiplicity
 _atom_site_fract_x
 _atom_site_fract_y
 _atom_site_fract_z
 _atom_site_occupancy
  Tm  Tm0  1  0.332882  0.667118  0.434835  1
  Tm  Tm1  1  0.661859  0.338141  0.558836  1
  Tm  Tm2  1  0.661859  0.338141  0.941164  1
  Tm  Tm3  1  0.332882  0.667118  0.065165  1
  Ga  Ga4  1  0.175910  0.824090  0.750000  1
  Fe  Fe5  1  0.834440  0.660316  0.250000  1
  Fe  Fe6  1  0.339684  0.165560  0.250000  1
  Fe  Fe7  1  0.165584  0.326216  0.750000  1
  Fe  Fe8  1  0.673784  0.834416  0.750000  1
  Os  Os9  1  0.993566  0.006434  0.503441  1
  Os  Os10  1  0.993566  0.006434  0.996559  1
  Os  Os11  1  0.833986  0.166014  0.250000  1
