# generated using pymatgen
data_Rb2ThHg2Se5
_symmetry_space_group_name_H-M   'P 1'
_cell_length_a   10.49857944
_cell_length_b   4.39485300
_cell_length_c   15.20877104
_cell_angle_alpha   90.00000000
_cell_angle_beta   104.46702553
_cell_angle_gamma   90.00000000
_symmetry_Int_Tables_number   1
_chemical_formula_structural   Rb2ThHg2Se5
_chemical_formula_sum   'Rb4 Th2 Hg4 Se10'
_cell_volume   679.47763700
_cell_formula_units_Z   2
loop_
 _symmetry_equiv_pos_site_id
 _symmetry_equiv_pos_as_xyz
  1  'x, y, z'
loop_
 _atom_site_type_symbol
 _atom_site_label
 _atom_site_symmetry_multiplicity
 _atom_site_fract_x
 _atom_site_fract_y
 _atom_site_fract_z
 _atom_site_occupancy
  Rb  Rb0  1  0.284955  0.312878  0.054374  1
  Rb  Rb1  1  0.215045  0.312878  0.445626  1
  Rb  Rb2  1  0.784954  0.687123  0.554374  1
  Rb  Rb3  1  0.715046  0.687123  0.945626  1
  Th  Th4  1  0.750000  0.205059  0.250000  1
  Th  Th5  1  0.250000  0.794940  0.750000  1
  Hg  Hg6  1  0.034296  0.628246  0.199189  1
  Hg  Hg7  1  0.465704  0.628246  0.300811  1
  Hg  Hg8  1  0.534296  0.371753  0.699189  1
  Hg  Hg9  1  0.965703  0.371753  0.800811  1
  Se  Se10  1  0.899362  0.183940  0.109837  1
  Se  Se11  1  0.591266  0.702728  0.149282  1
  Se  Se12  1  0.250000  0.927686  0.250000  1
  Se  Se13  1  0.908735  0.702728  0.350718  1
  Se  Se14  1  0.600639  0.183940  0.390163  1
  Se  Se15  1  0.399362  0.816061  0.609837  1
  Se  Se16  1  0.091266  0.297274  0.649282  1
  Se  Se17  1  0.750000  0.072315  0.750000  1
  Se  Se18  1  0.408734  0.297274  0.850718  1
  Se  Se19  1  0.100639  0.816061  0.890163  1
