# generated using pymatgen
data_Ho3Lu(NiP)4
_symmetry_space_group_name_H-M   'P 1'
_cell_length_a   3.87528100
_cell_length_b   3.87528093
_cell_length_c   15.22685700
_cell_angle_alpha   90.00000000
_cell_angle_beta   90.00000000
_cell_angle_gamma   119.99999207
_symmetry_Int_Tables_number   1
_chemical_formula_structural   Ho3Lu(NiP)4
_chemical_formula_sum   'Ho3 Lu1 Ni4 P4'
_cell_volume   198.03745010
_cell_formula_units_Z   1
loop_
 _symmetry_equiv_pos_site_id
 _symmetry_equiv_pos_as_xyz
  1  'x, y, z'
loop_
 _atom_site_type_symbol
 _atom_site_label
 _atom_site_symmetry_multiplicity
 _atom_site_fract_x
 _atom_site_fract_y
 _atom_site_fract_z
 _atom_site_occupancy
  Ho  Ho0  1  0.000000  0.000000  0.503083  1
  Ho  Ho1  1  0.000000  0.000000  0.996917  1
  Ho  Ho2  1  0.000000  0.000000  0.250000  1
  Lu  Lu3  1  0.000000  0.000000  0.750000  1
  Ni  Ni4  1  0.333333  0.666667  0.371902  1
  Ni  Ni5  1  0.666667  0.333333  0.636668  1
  Ni  Ni6  1  0.666667  0.333333  0.863332  1
  Ni  Ni7  1  0.333333  0.666667  0.128098  1
  P  P8  1  0.333333  0.666667  0.875959  1
  P  P9  1  0.666667  0.333333  0.121514  1
  P  P10  1  0.666667  0.333333  0.378486  1
  P  P11  1  0.333333  0.666667  0.624041  1
