# generated using pymatgen
data_Gd3Pt2
_symmetry_space_group_name_H-M   'P 1'
_cell_length_a   7.54030256
_cell_length_b   7.54030171
_cell_length_c   7.54030200
_cell_angle_alpha   71.38995735
_cell_angle_beta   71.38995953
_cell_angle_gamma   71.38995515
_symmetry_Int_Tables_number   1
_chemical_formula_structural   Gd3Pt2
_chemical_formula_sum   'Gd9 Pt6'
_cell_volume   373.61435471
_cell_formula_units_Z   3
loop_
 _symmetry_equiv_pos_site_id
 _symmetry_equiv_pos_as_xyz
  1  'x, y, z'
loop_
 _atom_site_type_symbol
 _atom_site_label
 _atom_site_symmetry_multiplicity
 _atom_site_fract_x
 _atom_site_fract_y
 _atom_site_fract_z
 _atom_site_occupancy
  Gd  Gd0  1  0.162929  0.398298  0.662760  1
  Gd  Gd1  1  0.662759  0.162928  0.398300  1
  Gd  Gd2  1  0.398300  0.662759  0.162929  1
  Gd  Gd3  1  0.837071  0.601702  0.337240  1
  Gd  Gd4  1  0.337241  0.837072  0.601700  1
  Gd  Gd5  1  0.601700  0.337241  0.837071  1
  Gd  Gd6  1  0.200251  0.200251  0.200251  1
  Gd  Gd7  1  0.799749  0.799749  0.799749  1
  Gd  Gd8  1  0.000000  0.000000  0.000000  1
  Pt  Pt9  1  0.410811  0.044843  0.831099  1
  Pt  Pt10  1  0.831099  0.410812  0.044843  1
  Pt  Pt11  1  0.044842  0.831100  0.410811  1
  Pt  Pt12  1  0.589190  0.955157  0.168901  1
  Pt  Pt13  1  0.168902  0.589189  0.955158  1
  Pt  Pt14  1  0.955158  0.168901  0.589189  1
