# generated using pymatgen
data_Y7Sn22Rh6Au
_symmetry_space_group_name_H-M   'P 1'
_cell_length_a   9.82962200
_cell_length_b   9.82962219
_cell_length_c   10.12066100
_cell_angle_alpha   90.00000000
_cell_angle_beta   90.00000000
_cell_angle_gamma   120.00000610
_symmetry_Int_Tables_number   1
_chemical_formula_structural   Y7Sn22Rh6Au
_chemical_formula_sum   'Y7 Sn22 Rh6 Au1'
_cell_volume   846.86293599
_cell_formula_units_Z   1
loop_
 _symmetry_equiv_pos_site_id
 _symmetry_equiv_pos_as_xyz
  1  'x, y, z'
loop_
 _atom_site_type_symbol
 _atom_site_label
 _atom_site_symmetry_multiplicity
 _atom_site_fract_x
 _atom_site_fract_y
 _atom_site_fract_z
 _atom_site_occupancy
  Y  Y0  1  0.000000  0.000000  0.000000  1
  Y  Y1  1  0.042365  0.521182  0.308797  1
  Y  Y2  1  0.478818  0.957635  0.308797  1
  Y  Y3  1  0.478818  0.521182  0.308797  1
  Y  Y4  1  0.957635  0.478818  0.691203  1
  Y  Y5  1  0.521182  0.042365  0.691203  1
  Y  Y6  1  0.521182  0.478818  0.691203  1
  Sn  Sn7  1  0.113994  0.886006  0.283601  1
  Sn  Sn8  1  0.772012  0.886006  0.283601  1
  Sn  Sn9  1  0.113994  0.227988  0.283601  1
  Sn  Sn10  1  0.886006  0.113994  0.716399  1
  Sn  Sn11  1  0.227988  0.113994  0.716399  1
  Sn  Sn12  1  0.886006  0.772012  0.716399  1
  Sn  Sn13  1  0.351599  0.000000  0.000000  1
  Sn  Sn14  1  0.648401  0.648401  0.000000  1
  Sn  Sn15  1  0.000000  0.351599  0.000000  1
  Sn  Sn16  1  0.351599  0.351599  0.000000  1
  Sn  Sn17  1  0.000000  0.648401  0.000000  1
  Sn  Sn18  1  0.648401  0.000000  0.000000  1
  Sn  Sn19  1  0.781455  0.562910  0.456552  1
  Sn  Sn20  1  0.781455  0.218545  0.456552  1
  Sn  Sn21  1  0.437090  0.218545  0.456552  1
  Sn  Sn22  1  0.218545  0.437090  0.543448  1
  Sn  Sn23  1  0.218545  0.781455  0.543448  1
  Sn  Sn24  1  0.562910  0.781455  0.543448  1
  Sn  Sn25  1  0.666667  0.333333  0.183344  1
  Sn  Sn26  1  0.333333  0.666667  0.816656  1
  Sn  Sn27  1  0.666667  0.333333  0.879387  1
  Sn  Sn28  1  0.333333  0.666667  0.120613  1
  Rh  Rh29  1  0.169192  0.830808  0.802343  1
  Rh  Rh30  1  0.661615  0.830808  0.802343  1
  Rh  Rh31  1  0.169192  0.338385  0.802343  1
  Rh  Rh32  1  0.830808  0.169192  0.197657  1
  Rh  Rh33  1  0.338385  0.169192  0.197657  1
  Rh  Rh34  1  0.830808  0.661615  0.197657  1
  Au  Au35  1  0.000000  0.000000  0.500000  1
