# generated using pymatgen
data_Li(NdCu8)2
_symmetry_space_group_name_H-M   'P 1'
_cell_length_a   6.53347140
_cell_length_b   6.53347101
_cell_length_c   6.53347200
_cell_angle_alpha   82.50580327
_cell_angle_beta   97.49419628
_cell_angle_gamma   97.49418850
_symmetry_Int_Tables_number   1
_chemical_formula_structural   Li(NdCu8)2
_chemical_formula_sum   'Li1 Nd2 Cu16'
_cell_volume   272.31442198
_cell_formula_units_Z   1
loop_
 _symmetry_equiv_pos_site_id
 _symmetry_equiv_pos_as_xyz
  1  'x, y, z'
loop_
 _atom_site_type_symbol
 _atom_site_label
 _atom_site_symmetry_multiplicity
 _atom_site_fract_x
 _atom_site_fract_y
 _atom_site_fract_z
 _atom_site_occupancy
  Li  Li0  1  0.908669  0.091332  0.091332  1
  Nd  Nd1  1  0.650491  0.349510  0.349510  1
  Nd  Nd2  1  0.340102  0.659899  0.659899  1
  Cu  Cu3  1  0.001507  0.502582  0.998493  1
  Cu  Cu4  1  0.295472  0.293638  0.999876  1
  Cu  Cu5  1  0.497418  0.998493  0.998494  1
  Cu  Cu6  1  0.706362  0.704527  0.999876  1
  Cu  Cu7  1  0.342419  0.657580  0.153436  1
  Cu  Cu8  1  0.000125  0.704529  0.293638  1
  Cu  Cu9  1  0.295472  0.999875  0.293638  1
  Cu  Cu10  1  0.155786  0.344861  0.344861  1
  Cu  Cu11  1  0.655138  0.844213  0.344862  1
  Cu  Cu12  1  0.001507  0.998492  0.502582  1
  Cu  Cu13  1  0.846563  0.657580  0.657581  1
  Cu  Cu14  1  0.342420  0.153437  0.657581  1
  Cu  Cu15  1  0.706362  0.999875  0.704528  1
  Cu  Cu16  1  0.000125  0.293638  0.704529  1
  Cu  Cu17  1  0.655138  0.344861  0.844214  1
  Cu  Cu18  1  0.098923  0.901078  0.901078  1
