# generated using pymatgen
data_SrNd3Al18Ir4PdPt
_symmetry_space_group_name_H-M   'P 1'
_cell_length_a   7.65369200
_cell_length_b   7.64941393
_cell_length_c   9.64397300
_cell_angle_alpha   90.00000000
_cell_angle_beta   90.00000000
_cell_angle_gamma   119.27911413
_symmetry_Int_Tables_number   1
_chemical_formula_structural   SrNd3Al18Ir4PdPt
_chemical_formula_sum   'Sr1 Nd3 Al18 Ir4 Pd1 Pt1'
_cell_volume   492.48716491
_cell_formula_units_Z   1
loop_
 _symmetry_equiv_pos_site_id
 _symmetry_equiv_pos_as_xyz
  1  'x, y, z'
loop_
 _atom_site_type_symbol
 _atom_site_label
 _atom_site_symmetry_multiplicity
 _atom_site_fract_x
 _atom_site_fract_y
 _atom_site_fract_z
 _atom_site_occupancy
  Sr  Sr0  1  0.994632  0.673627  0.249754  1
  Nd  Nd1  1  0.004081  0.328222  0.750254  1
  Nd  Nd2  1  0.672844  0.996083  0.249745  1
  Nd  Nd3  1  0.326174  0.002103  0.750220  1
  Al  Al4  1  0.135097  0.138795  0.249746  1
  Al  Al5  1  0.865824  0.865744  0.750098  1
  Al  Al6  1  0.003028  0.339595  0.072993  1
  Al  Al7  1  0.996791  0.660389  0.925449  1
  Al  Al8  1  0.996538  0.659736  0.574971  1
  Al  Al9  1  0.340556  0.003469  0.426832  1
  Al  Al10  1  0.003240  0.340194  0.426671  1
  Al  Al11  1  0.660478  0.997104  0.575125  1
  Al  Al12  1  0.661089  0.997367  0.925205  1
  Al  Al13  1  0.339732  0.003125  0.072888  1
  Al  Al14  1  0.337420  0.337104  0.549910  1
  Al  Al15  1  0.661350  0.661442  0.453912  1
  Al  Al16  1  0.662122  0.662111  0.045981  1
  Al  Al17  1  0.336905  0.336584  0.950296  1
  Al  Al18  1  0.343298  0.549915  0.249980  1
  Al  Al19  1  0.660433  0.451333  0.749984  1
  Al  Al20  1  0.545717  0.335943  0.250002  1
  Al  Al21  1  0.452211  0.660190  0.749992  1
  Ir  Ir22  1  0.670082  0.327587  0.998774  1
  Ir  Ir23  1  0.329723  0.671034  0.998376  1
  Ir  Ir24  1  0.329482  0.671096  0.501532  1
  Ir  Ir25  1  0.670350  0.327509  0.501218  1
  Pd  Pd26  1  0.000411  0.001309  0.501258  1
  Pt  Pt27  1  0.000393  0.001287  0.998833  1
