# generated using pymatgen
data_SrLaTb5MnBr12
_symmetry_space_group_name_H-M   'P 1'
_cell_length_a   9.41786293
_cell_length_b   9.36241222
_cell_length_c   9.15599104
_cell_angle_alpha   105.30534367
_cell_angle_beta   106.74460383
_cell_angle_gamma   105.98199041
_symmetry_Int_Tables_number   1
_chemical_formula_structural   SrLaTb5MnBr12
_chemical_formula_sum   'Sr1 La1 Tb5 Mn1 Br12'
_cell_volume   689.59970942
_cell_formula_units_Z   1
loop_
 _symmetry_equiv_pos_site_id
 _symmetry_equiv_pos_as_xyz
  1  'x, y, z'
loop_
 _atom_site_type_symbol
 _atom_site_label
 _atom_site_symmetry_multiplicity
 _atom_site_fract_x
 _atom_site_fract_y
 _atom_site_fract_z
 _atom_site_occupancy
  Sr  Sr0  1  0.000219  0.005283  0.994753  1
  La  La1  1  0.594241  0.518258  0.788999  1
  Tb  Tb2  1  0.518861  0.798064  0.597068  1
  Tb  Tb3  1  0.814388  0.602191  0.523153  1
  Tb  Tb4  1  0.403554  0.480818  0.209282  1
  Tb  Tb5  1  0.481777  0.201147  0.405188  1
  Tb  Tb6  1  0.187153  0.396901  0.484834  1
  Mn  Mn7  1  0.508506  0.499826  0.527730  1
  Br  Br8  1  0.568111  0.161872  0.710541  1
  Br  Br9  1  0.178657  0.714053  0.563979  1
  Br  Br10  1  0.711388  0.568510  0.179255  1
  Br  Br11  1  0.423629  0.809117  0.274860  1
  Br  Br12  1  0.817983  0.282930  0.424164  1
  Br  Br13  1  0.263764  0.421043  0.819666  1
  Br  Br14  1  0.647163  0.880328  0.947047  1
  Br  Br15  1  0.857742  0.940040  0.627536  1
  Br  Br16  1  0.963594  0.655790  0.866728  1
  Br  Br17  1  0.360344  0.144388  0.058019  1
  Br  Br18  1  0.139278  0.057051  0.358989  1
  Br  Br19  1  0.059647  0.362389  0.138209  1
