# generated using pymatgen
data_Sm2Pa(Ga2Co3)3
_symmetry_space_group_name_H-M   'P 1'
_cell_length_a   4.18341300
_cell_length_b   8.64308003
_cell_length_c   8.64308100
_cell_angle_alpha   60.00114855
_cell_angle_beta   90.00000000
_cell_angle_gamma   90.00000000
_symmetry_Int_Tables_number   1
_chemical_formula_structural   Sm2Pa(Ga2Co3)3
_chemical_formula_sum   'Sm2 Pa1 Ga6 Co9'
_cell_volume   270.64718668
_cell_formula_units_Z   1
loop_
 _symmetry_equiv_pos_site_id
 _symmetry_equiv_pos_as_xyz
  1  'x, y, z'
loop_
 _atom_site_type_symbol
 _atom_site_label
 _atom_site_symmetry_multiplicity
 _atom_site_fract_x
 _atom_site_fract_y
 _atom_site_fract_z
 _atom_site_occupancy
  Sm  Sm0  1  0.500000  0.333360  0.333340  1
  Sm  Sm1  1  0.500000  0.666660  0.666640  1
  Pa  Pa2  1  0.000000  0.999985  0.000015  1
  Ga  Ga3  1  0.000000  0.494134  0.505866  1
  Ga  Ga4  1  0.000000  0.505851  0.000008  1
  Ga  Ga5  1  0.000000  0.999992  0.494149  1
  Ga  Ga6  1  0.500000  0.724315  0.275685  1
  Ga  Ga7  1  0.500000  0.275759  0.000006  1
  Ga  Ga8  1  0.500000  0.999994  0.724241  1
  Co  Co9  1  0.000000  0.172664  0.172616  1
  Co  Co10  1  0.000000  0.172601  0.654684  1
  Co  Co11  1  0.000000  0.654662  0.172728  1
  Co  Co12  1  0.000000  0.827384  0.827336  1
  Co  Co13  1  0.000000  0.345316  0.827399  1
  Co  Co14  1  0.000000  0.827272  0.345338  1
  Co  Co15  1  0.500000  0.298288  0.701712  1
  Co  Co16  1  0.500000  0.701653  0.999988  1
  Co  Co17  1  0.500000  0.000012  0.298347  1
