# generated using pymatgen
data_Dy6Pa(Al3Co8)2
_symmetry_space_group_name_H-M   'P 1'
_cell_length_a   8.49313600
_cell_length_b   8.49845600
_cell_length_c   8.50401500
_cell_angle_alpha   120.02164432
_cell_angle_beta   90.00000000
_cell_angle_gamma   119.98784853
_symmetry_Int_Tables_number   1
_chemical_formula_structural   Dy6Pa(Al3Co8)2
_chemical_formula_sum   'Dy6 Pa1 Al6 Co16'
_cell_volume   433.96505996
_cell_formula_units_Z   1
loop_
 _symmetry_equiv_pos_site_id
 _symmetry_equiv_pos_as_xyz
  1  'x, y, z'
loop_
 _atom_site_type_symbol
 _atom_site_label
 _atom_site_symmetry_multiplicity
 _atom_site_fract_x
 _atom_site_fract_y
 _atom_site_fract_z
 _atom_site_occupancy
  Dy  Dy0  1  0.291665  0.999969  0.291586  1
  Dy  Dy1  1  0.291630  0.583306  0.291653  1
  Dy  Dy2  1  0.708336  0.000031  0.291617  1
  Dy  Dy3  1  0.708335  0.000031  0.708414  1
  Dy  Dy4  1  0.291665  0.999969  0.708384  1
  Dy  Dy5  1  0.708371  0.416695  0.708348  1
  Pa  Pa6  1  0.000000  0.000000  0.000000  1
  Al  Al7  1  0.500000  0.000000  0.000000  1
  Al  Al8  1  0.000000  0.500000  0.000000  1
  Al  Al9  1  0.500000  0.500000  0.000000  1
  Al  Al10  1  0.000000  0.000000  0.500000  1
  Al  Al11  1  0.000000  0.500000  0.500000  1
  Al  Al12  1  0.500000  0.500000  0.500000  1
  Co  Co13  1  0.678597  0.357191  0.035949  1
  Co  Co14  1  0.375178  0.250180  0.125091  1
  Co  Co15  1  0.875137  0.249808  0.124904  1
  Co  Co16  1  0.874891  0.749791  0.125131  1
  Co  Co17  1  0.678597  0.357191  0.321243  1
  Co  Co18  1  0.678683  0.642329  0.321165  1
  Co  Co19  1  0.964171  0.642655  0.321328  1
  Co  Co20  1  0.125109  0.250208  0.375338  1
  Co  Co21  1  0.874891  0.749791  0.624661  1
  Co  Co22  1  0.035830  0.357344  0.678672  1
  Co  Co23  1  0.321317  0.357670  0.678835  1
  Co  Co24  1  0.321403  0.642808  0.678757  1
  Co  Co25  1  0.125109  0.250208  0.874869  1
  Co  Co26  1  0.124863  0.750191  0.875096  1
  Co  Co27  1  0.624821  0.749819  0.874909  1
  Co  Co28  1  0.321403  0.642808  0.964052  1
