# generated using pymatgen
data_Hf6AlGaNi
_symmetry_space_group_name_H-M   'P 1'
_cell_length_a   3.31915700
_cell_length_b   7.82853459
_cell_length_c   7.82853500
_cell_angle_alpha   119.99999751
_cell_angle_beta   90.00000000
_cell_angle_gamma   90.00000000
_symmetry_Int_Tables_number   1
_chemical_formula_structural   Hf6AlGaNi
_chemical_formula_sum   'Hf6 Al1 Ga1 Ni1'
_cell_volume   176.16491173
_cell_formula_units_Z   1
loop_
 _symmetry_equiv_pos_site_id
 _symmetry_equiv_pos_as_xyz
  1  'x, y, z'
loop_
 _atom_site_type_symbol
 _atom_site_label
 _atom_site_symmetry_multiplicity
 _atom_site_fract_x
 _atom_site_fract_y
 _atom_site_fract_z
 _atom_site_occupancy
  Hf  Hf0  1  0.500000  0.745124  0.745834  1
  Hf  Hf1  1  0.500000  0.000710  0.254876  1
  Hf  Hf2  1  0.500000  0.254166  0.999290  1
  Hf  Hf3  1  0.000000  0.400946  0.398512  1
  Hf  Hf4  1  0.000000  0.997567  0.599054  1
  Hf  Hf5  1  0.000000  0.601488  0.002433  1
  Al  Al6  1  0.500000  0.333333  0.666667  1
  Ga  Ga7  1  0.500000  0.666667  0.333333  1
  Ni  Ni8  1  0.000000  0.000000  0.000000  1
