# generated using pymatgen
data_Na20V3GaAs12
_symmetry_space_group_name_H-M   'P 1'
_cell_length_a   7.52917489
_cell_length_b   8.29520349
_cell_length_c   15.76259063
_cell_angle_alpha   59.08782485
_cell_angle_beta   90.02748633
_cell_angle_gamma   90.09675812
_symmetry_Int_Tables_number   1
_chemical_formula_structural   Na20V3GaAs12
_chemical_formula_sum   'Na20 V3 Ga1 As12'
_cell_volume   844.62952216
_cell_formula_units_Z   1
loop_
 _symmetry_equiv_pos_site_id
 _symmetry_equiv_pos_as_xyz
  1  'x, y, z'
loop_
 _atom_site_type_symbol
 _atom_site_label
 _atom_site_symmetry_multiplicity
 _atom_site_fract_x
 _atom_site_fract_y
 _atom_site_fract_z
 _atom_site_occupancy
  Na  Na0  1  0.511028  0.555903  0.755955  1
  Na  Na1  1  0.011118  0.446095  0.742581  1
  Na  Na2  1  0.483789  0.443374  0.244112  1
  Na  Na3  1  0.992498  0.558015  0.254473  1
  Na  Na4  1  0.975916  0.266240  0.576073  1
  Na  Na5  1  0.467366  0.737496  0.923018  1
  Na  Na6  1  0.027704  0.740838  0.420080  1
  Na  Na7  1  0.518800  0.254208  0.081539  1
  Na  Na8  1  0.486530  0.088330  0.588820  1
  Na  Na9  1  0.991399  0.910310  0.912882  1
  Na  Na10  1  0.513733  0.916371  0.408521  1
  Na  Na11  1  0.018973  0.083784  0.091524  1
  Na  Na12  1  0.338522  0.155585  0.917616  1
  Na  Na13  1  0.840048  0.846142  0.579698  1
  Na  Na14  1  0.659761  0.845762  0.080470  1
  Na  Na15  1  0.160165  0.155379  0.419260  1
  Na  Na16  1  0.153619  0.841386  0.738425  1
  Na  Na17  1  0.653555  0.162449  0.759845  1
  Na  Na18  1  0.848729  0.164439  0.257975  1
  Na  Na19  1  0.347333  0.831163  0.241313  1
  V  V20  1  0.636084  0.511241  0.420151  1
  V  V21  1  0.865008  0.512698  0.920202  1
  V  V22  1  0.366476  0.489130  0.581282  1
  Ga  Ga23  1  0.140851  0.485012  0.083556  1
  As  As24  1  0.244469  0.762453  0.579545  1
  As  As25  1  0.742056  0.243540  0.920519  1
  As  As26  1  0.758176  0.237641  0.420942  1
  As  As27  1  0.256069  0.776500  0.077876  1
  As  As28  1  0.266891  0.194789  0.723445  1
  As  As29  1  0.769466  0.802413  0.777915  1
  As  As30  1  0.733320  0.801621  0.277560  1
  As  As31  1  0.235505  0.177700  0.230513  1
  As  As32  1  0.186708  0.481420  0.922842  1
  As  As33  1  0.691053  0.519741  0.571362  1
  As  As34  1  0.795732  0.521714  0.067131  1
  As  As35  1  0.311550  0.479116  0.430978  1
