# generated using pymatgen
data_Yb3SmGa18(CoPd2)2
_symmetry_space_group_name_H-M   'P 1'
_cell_length_a   7.59452200
_cell_length_b   7.58561692
_cell_length_c   9.50288000
_cell_angle_alpha   90.00000000
_cell_angle_beta   90.00000000
_cell_angle_gamma   119.48139638
_symmetry_Int_Tables_number   1
_chemical_formula_structural   Yb3SmGa18(CoPd2)2
_chemical_formula_sum   'Yb3 Sm1 Ga18 Co2 Pd4'
_cell_volume   476.56607489
_cell_formula_units_Z   1
loop_
 _symmetry_equiv_pos_site_id
 _symmetry_equiv_pos_as_xyz
  1  'x, y, z'
loop_
 _atom_site_type_symbol
 _atom_site_label
 _atom_site_symmetry_multiplicity
 _atom_site_fract_x
 _atom_site_fract_y
 _atom_site_fract_z
 _atom_site_occupancy
  Yb  Yb0  1  0.008919  0.682710  0.750000  1
  Yb  Yb1  1  0.667837  0.986588  0.750000  1
  Yb  Yb2  1  0.013013  0.333348  0.250000  1
  Sm  Sm3  1  0.317524  0.990690  0.250000  1
  Ga  Ga4  1  0.348224  0.014648  0.918750  1
  Ga  Ga5  1  0.983475  0.649455  0.077699  1
  Ga  Ga6  1  0.348224  0.014648  0.581250  1
  Ga  Ga7  1  0.983475  0.649455  0.422301  1
  Ga  Ga8  1  0.667878  0.018225  0.078538  1
  Ga  Ga9  1  0.981397  0.335098  0.920090  1
  Ga  Ga10  1  0.667878  0.018225  0.421462  1
  Ga  Ga11  1  0.981397  0.335098  0.579910  1
  Ga  Ga12  1  0.667075  0.657222  0.935980  1
  Ga  Ga13  1  0.341867  0.335083  0.063146  1
  Ga  Ga14  1  0.667075  0.657222  0.564020  1
  Ga  Ga15  1  0.341867  0.335083  0.436854  1
  Ga  Ga16  1  0.131016  0.135941  0.750000  1
  Ga  Ga17  1  0.862839  0.867913  0.250000  1
  Ga  Ga18  1  0.462911  0.662895  0.250000  1
  Ga  Ga19  1  0.336178  0.538034  0.750000  1
  Ga  Ga20  1  0.573307  0.340227  0.750000  1
  Ga  Ga21  1  0.662441  0.430058  0.250000  1
  Co  Co22  1  0.666204  0.331003  0.000412  1
  Co  Co23  1  0.666204  0.331003  0.499588  1
  Pd  Pd24  1  0.998466  0.001658  0.000008  1
  Pd  Pd25  1  0.998466  0.001658  0.499992  1
  Pd  Pd26  1  0.327423  0.673404  0.000184  1
  Pd  Pd27  1  0.327423  0.673404  0.499816  1
