# generated using pymatgen
data_Ba4ReSeN4Cl
_symmetry_space_group_name_H-M   'P 1'
_cell_length_a   6.11455300
_cell_length_b   8.57006748
_cell_length_c   10.78041100
_cell_angle_alpha   81.30914018
_cell_angle_beta   90.00000000
_cell_angle_gamma   90.00000000
_symmetry_Int_Tables_number   1
_chemical_formula_structural   Ba4ReSeN4Cl
_chemical_formula_sum   'Ba8 Re2 Se2 N8 Cl2'
_cell_volume   558.43014913
_cell_formula_units_Z   2
loop_
 _symmetry_equiv_pos_site_id
 _symmetry_equiv_pos_as_xyz
  1  'x, y, z'
loop_
 _atom_site_type_symbol
 _atom_site_label
 _atom_site_symmetry_multiplicity
 _atom_site_fract_x
 _atom_site_fract_y
 _atom_site_fract_z
 _atom_site_occupancy
  Ba  Ba0  1  0.750000  0.290597  0.274858  1
  Ba  Ba1  1  0.750000  0.997676  0.634919  1
  Ba  Ba2  1  0.750000  0.445281  0.626077  1
  Ba  Ba3  1  0.750000  0.806561  0.083256  1
  Ba  Ba4  1  0.250000  0.002324  0.365081  1
  Ba  Ba5  1  0.250000  0.554719  0.373923  1
  Ba  Ba6  1  0.250000  0.193439  0.916744  1
  Ba  Ba7  1  0.250000  0.709403  0.725142  1
  Re  Re8  1  0.750000  0.771618  0.399904  1
  Re  Re9  1  0.250000  0.228382  0.600096  1
  Se  Se10  1  0.250000  0.334179  0.164538  1
  Se  Se11  1  0.750000  0.665821  0.835462  1
  N  N12  1  0.250000  0.039545  0.705382  1
  N  N13  1  0.005431  0.243475  0.500006  1
  N  N14  1  0.505431  0.756525  0.499994  1
  N  N15  1  0.994569  0.756525  0.499994  1
  N  N16  1  0.750000  0.610181  0.304888  1
  N  N17  1  0.750000  0.960455  0.294618  1
  N  N18  1  0.494569  0.243475  0.500006  1
  N  N19  1  0.250000  0.389819  0.695112  1
  Cl  Cl20  1  0.250000  0.850227  0.102686  1
  Cl  Cl21  1  0.750000  0.149773  0.897314  1
