# generated using pymatgen
data_Tb2Sn4Pd3
_symmetry_space_group_name_H-M   'P 1'
_cell_length_a   7.24691211
_cell_length_b   7.61773278
_cell_length_c   4.19241400
_cell_angle_alpha   90.00000000
_cell_angle_beta   90.00000000
_cell_angle_gamma   121.70759890
_symmetry_Int_Tables_number   1
_chemical_formula_structural   Tb2Sn4Pd3
_chemical_formula_sum   'Tb2 Sn4 Pd3'
_cell_volume   196.89761896
_cell_formula_units_Z   1
loop_
 _symmetry_equiv_pos_site_id
 _symmetry_equiv_pos_as_xyz
  1  'x, y, z'
loop_
 _atom_site_type_symbol
 _atom_site_label
 _atom_site_symmetry_multiplicity
 _atom_site_fract_x
 _atom_site_fract_y
 _atom_site_fract_z
 _atom_site_occupancy
  Tb  Tb0  1  0.415926  0.413077  0.500000  1
  Tb  Tb1  1  0.584074  0.997151  0.500000  1
  Sn  Sn2  1  0.000000  0.595870  0.500000  1
  Sn  Sn3  1  0.729750  0.744870  0.000000  1
  Sn  Sn4  1  0.270250  0.015120  0.000000  1
  Sn  Sn5  1  0.000000  0.238023  0.000000  1
  Pd  Pd6  1  0.693821  0.353580  0.000000  1
  Pd  Pd7  1  0.306179  0.659760  0.000000  1
  Pd  Pd8  1  0.000000  0.982551  0.500000  1
