# generated using pymatgen
data_K4ScNb2V(PO5)4
_symmetry_space_group_name_H-M   'P 1'
_cell_length_a   6.55366600
_cell_length_b   10.94595500
_cell_length_c   13.15462500
_cell_angle_alpha   90.00000000
_cell_angle_beta   90.00000000
_cell_angle_gamma   90.00000000
_symmetry_Int_Tables_number   1
_chemical_formula_structural   K4ScNb2V(PO5)4
_chemical_formula_sum   'K8 Sc2 Nb4 V2 P8 O40'
_cell_volume   943.66193016
_cell_formula_units_Z   2
loop_
 _symmetry_equiv_pos_site_id
 _symmetry_equiv_pos_as_xyz
  1  'x, y, z'
loop_
 _atom_site_type_symbol
 _atom_site_label
 _atom_site_symmetry_multiplicity
 _atom_site_fract_x
 _atom_site_fract_y
 _atom_site_fract_z
 _atom_site_occupancy
  K  K0  1  0.724201  0.301534  0.875948  1
  K  K1  1  0.275799  0.801534  0.124052  1
  K  K2  1  0.221776  0.802454  0.626402  1
  K  K3  1  0.778224  0.302454  0.373598  1
  K  K4  1  0.803219  0.063333  0.603594  1
  K  K5  1  0.196781  0.563333  0.396406  1
  K  K6  1  0.306445  0.565583  0.895212  1
  K  K7  1  0.693555  0.065583  0.104788  1
  Sc  Sc8  1  0.245650  0.249949  0.745089  1
  Sc  Sc9  1  0.754350  0.749949  0.254911  1
  Nb  Nb10  1  0.007244  0.001183  0.870386  1
  Nb  Nb11  1  0.992756  0.501183  0.129614  1
  Nb  Nb12  1  0.504539  0.504004  0.630698  1
  Nb  Nb13  1  0.495461  0.004004  0.369302  1
  V  V14  1  0.748023  0.751565  0.753884  1
  V  V15  1  0.251977  0.251565  0.246116  1
  P  P16  1  0.999146  0.507445  0.682754  1
  P  P17  1  0.000854  0.007445  0.317246  1
  P  P18  1  0.505175  0.002224  0.817817  1
  P  P19  1  0.494825  0.502224  0.182183  1
  P  P20  1  0.165287  0.253475  0.000245  1
  P  P21  1  0.834713  0.753475  0.999755  1
  P  P22  1  0.664328  0.756818  0.504160  1
  P  P23  1  0.335672  0.256818  0.495840  1
  O  O24  1  0.470646  0.381683  0.725960  1
  O  O25  1  0.529354  0.881683  0.274040  1
  O  O26  1  0.962882  0.879561  0.775811  1
  O  O27  1  0.037118  0.379561  0.224189  1
  O  O28  1  0.030419  0.371546  0.010750  1
  O  O29  1  0.969581  0.871546  0.989250  1
  O  O30  1  0.532701  0.875694  0.491218  1
  O  O31  1  0.467299  0.375694  0.508782  1
  O  O32  1  0.300810  0.231872  0.094385  1
  O  O33  1  0.699190  0.731872  0.905615  1
  O  O34  1  0.802213  0.733377  0.411455  1
  O  O35  1  0.197787  0.233377  0.588545  1
  O  O36  1  0.031682  0.394790  0.750350  1
  O  O37  1  0.968318  0.894790  0.249650  1
  O  O38  1  0.536378  0.888809  0.750516  1
  O  O39  1  0.463622  0.388809  0.249484  1
  O  O40  1  0.531020  0.628605  0.725963  1
  O  O41  1  0.468980  0.128605  0.274037  1
  O  O42  1  0.017867  0.127271  0.774645  1
  O  O43  1  0.982133  0.627271  0.225355  1
  O  O44  1  0.970675  0.620712  0.750928  1
  O  O45  1  0.029325  0.120712  0.249072  1
  O  O46  1  0.475722  0.114573  0.748984  1
  O  O47  1  0.524278  0.614573  0.251016  1
  O  O48  1  0.812658  0.486070  0.610487  1
  O  O49  1  0.187342  0.986070  0.389513  1
  O  O50  1  0.313674  0.982006  0.887500  1
  O  O51  1  0.686326  0.482006  0.112500  1
  O  O52  1  0.301131  0.271162  0.905483  1
  O  O53  1  0.698869  0.771162  0.094517  1
  O  O54  1  0.798959  0.774357  0.599831  1
  O  O55  1  0.201041  0.274357  0.400169  1
  O  O56  1  0.187764  0.530340  0.612094  1
  O  O57  1  0.812236  0.030340  0.387906  1
  O  O58  1  0.688218  0.026011  0.891017  1
  O  O59  1  0.311782  0.526011  0.108983  1
  O  O60  1  0.013856  0.144196  0.986556  1
  O  O61  1  0.986144  0.644196  0.013444  1
  O  O62  1  0.510859  0.648602  0.516265  1
  O  O63  1  0.489141  0.148602  0.483735  1
