# generated using pymatgen
data_Rb2GePPt2
_symmetry_space_group_name_H-M   'P 1'
_cell_length_a   6.91203065
_cell_length_b   6.90644673
_cell_length_c   7.95576900
_cell_angle_alpha   90.00000000
_cell_angle_beta   90.00000000
_cell_angle_gamma   109.56579982
_symmetry_Int_Tables_number   1
_chemical_formula_structural   Rb2GePPt2
_chemical_formula_sum   'Rb4 Ge2 P2 Pt4'
_cell_volume   357.85912649
_cell_formula_units_Z   2
loop_
 _symmetry_equiv_pos_site_id
 _symmetry_equiv_pos_as_xyz
  1  'x, y, z'
loop_
 _atom_site_type_symbol
 _atom_site_label
 _atom_site_symmetry_multiplicity
 _atom_site_fract_x
 _atom_site_fract_y
 _atom_site_fract_z
 _atom_site_occupancy
  Rb  Rb0  1  0.188245  0.808354  0.504686  1
  Rb  Rb1  1  0.688245  0.308354  0.995314  1
  Rb  Rb2  1  0.811356  0.192571  0.487131  1
  Rb  Rb3  1  0.311356  0.692571  0.012869  1
  Ge  Ge4  1  0.166677  0.179509  0.832377  1
  Ge  Ge5  1  0.666677  0.679509  0.667623  1
  P  P6  1  0.839319  0.826247  0.174857  1
  P  P7  1  0.339319  0.326247  0.325143  1
  Pt  Pt8  1  0.366916  0.374788  0.612031  1
  Pt  Pt9  1  0.627487  0.618532  0.360880  1
  Pt  Pt10  1  0.127487  0.118532  0.139120  1
  Pt  Pt11  1  0.866916  0.874788  0.887969  1
