# generated using pymatgen
data_CoBi3Ir2PdRhO14
_symmetry_space_group_name_H-M   'P 1'
_cell_length_a   7.32483023
_cell_length_b   7.19204976
_cell_length_c   7.33500400
_cell_angle_alpha   59.34028582
_cell_angle_beta   59.95405253
_cell_angle_gamma   59.34588460
_symmetry_Int_Tables_number   1
_chemical_formula_structural   CoBi3Ir2PdRhO14
_chemical_formula_sum   'Co1 Bi3 Ir2 Pd1 Rh1 O14'
_cell_volume   270.39788179
_cell_formula_units_Z   1
loop_
 _symmetry_equiv_pos_site_id
 _symmetry_equiv_pos_as_xyz
  1  'x, y, z'
loop_
 _atom_site_type_symbol
 _atom_site_label
 _atom_site_symmetry_multiplicity
 _atom_site_fract_x
 _atom_site_fract_y
 _atom_site_fract_z
 _atom_site_occupancy
  Co  Co0  1  0.125000  0.625000  0.125000  1
  Bi  Bi1  1  0.125000  0.125000  0.125000  1
  Bi  Bi2  1  0.625000  0.125000  0.125000  1
  Bi  Bi3  1  0.125000  0.125000  0.625000  1
  Ir  Ir4  1  0.625000  0.625000  0.625000  1
  Ir  Ir5  1  0.625000  0.625000  0.125000  1
  Pd  Pd6  1  0.125000  0.625000  0.625000  1
  Rh  Rh7  1  0.625000  0.125000  0.625000  1
  O  O8  1  0.238966  0.284904  0.238065  1
  O  O9  1  0.297066  0.703274  0.286268  1
  O  O10  1  0.958776  0.966268  0.537478  1
  O  O11  1  0.542610  0.958689  0.538646  1
  O  O12  1  0.704987  0.703975  0.295519  1
  O  O13  1  0.952934  0.546726  0.536607  1
  O  O14  1  0.707390  0.291311  0.711354  1
  O  O15  1  0.291224  0.283732  0.712522  1
  O  O16  1  0.707390  0.291311  0.289943  1
  O  O17  1  0.297066  0.703274  0.713393  1
  O  O18  1  0.952934  0.546726  0.963732  1
  O  O19  1  0.545013  0.546025  0.954481  1
  O  O20  1  0.011034  0.965096  0.011935  1
  O  O21  1  0.542610  0.958689  0.960057  1
