# generated using pymatgen
data_SmAl2GaAu
_symmetry_space_group_name_H-M   'P 1'
_cell_length_a   4.25485709
_cell_length_b   4.25485747
_cell_length_c   6.29280064
_cell_angle_alpha   70.24046057
_cell_angle_beta   70.24045865
_cell_angle_gamma   90.00000011
_symmetry_Int_Tables_number   1
_chemical_formula_structural   SmAl2GaAu
_chemical_formula_sum   'Sm1 Al2 Ga1 Au1'
_cell_volume   100.05927788
_cell_formula_units_Z   1
loop_
 _symmetry_equiv_pos_site_id
 _symmetry_equiv_pos_as_xyz
  1  'x, y, z'
loop_
 _atom_site_type_symbol
 _atom_site_label
 _atom_site_symmetry_multiplicity
 _atom_site_fract_x
 _atom_site_fract_y
 _atom_site_fract_z
 _atom_site_occupancy
  Sm  Sm0  1  0.984654  0.984654  0.030691  1
  Al  Al1  1  0.748982  0.248982  0.502035  1
  Al  Al2  1  0.248982  0.748982  0.502035  1
  Ga  Ga3  1  0.394214  0.394214  0.211571  1
  Au  Au4  1  0.623166  0.623166  0.753668  1
