# generated using pymatgen
data_CaErTm6(B6Ru)4
_symmetry_space_group_name_H-M   'P 1'
_cell_length_a   3.62359600
_cell_length_b   9.08233780
_cell_length_c   11.46620607
_cell_angle_alpha   89.91073680
_cell_angle_beta   90.00000000
_cell_angle_gamma   90.00000000
_symmetry_Int_Tables_number   1
_chemical_formula_structural   CaErTm6(B6Ru)4
_chemical_formula_sum   'Ca1 Er1 Tm6 B24 Ru4'
_cell_volume   377.36067297
_cell_formula_units_Z   1
loop_
 _symmetry_equiv_pos_site_id
 _symmetry_equiv_pos_as_xyz
  1  'x, y, z'
loop_
 _atom_site_type_symbol
 _atom_site_label
 _atom_site_symmetry_multiplicity
 _atom_site_fract_x
 _atom_site_fract_y
 _atom_site_fract_z
 _atom_site_occupancy
  Ca  Ca0  1  0.000000  0.678016  0.585985  1
  Er  Er1  1  0.000000  0.323356  0.415235  1
  Tm  Tm2  1  0.000000  0.821352  0.085211  1
  Tm  Tm3  1  0.000000  0.178128  0.913955  1
  Tm  Tm4  1  0.000000  0.942104  0.371668  1
  Tm  Tm5  1  0.000000  0.056328  0.628975  1
  Tm  Tm6  1  0.000000  0.443507  0.127485  1
  Tm  Tm7  1  0.000000  0.557178  0.870864  1
  B  B8  1  0.500000  0.553472  0.432004  1
  B  B9  1  0.500000  0.445230  0.567195  1
  B  B10  1  0.500000  0.053929  0.066950  1
  B  B11  1  0.500000  0.947067  0.934244  1
  B  B12  1  0.500000  0.748445  0.418058  1
  B  B13  1  0.500000  0.250870  0.580869  1
  B  B14  1  0.500000  0.248611  0.080020  1
  B  B15  1  0.500000  0.752002  0.920173  1
  B  B16  1  0.500000  0.790829  0.264615  1
  B  B17  1  0.500000  0.208067  0.734952  1
  B  B18  1  0.500000  0.290855  0.233923  1
  B  B19  1  0.500000  0.710209  0.766884  1
  B  B20  1  0.500000  0.630900  0.183757  1
  B  B21  1  0.500000  0.368394  0.815171  1
  B  B22  1  0.500000  0.130821  0.315199  1
  B  B23  1  0.500000  0.870206  0.686209  1
  B  B24  1  0.500000  0.982309  0.212450  1
  B  B25  1  0.500000  0.018107  0.788632  1
  B  B26  1  0.500000  0.482366  0.286690  1
  B  B27  1  0.500000  0.516486  0.712941  1
  B  B28  1  0.500000  0.606315  0.028918  1
  B  B29  1  0.500000  0.393382  0.970430  1
  B  B30  1  0.500000  0.104048  0.471297  1
  B  B31  1  0.500000  0.897932  0.528277  1
  Ru  Ru32  1  0.000000  0.637835  0.318392  1
  Ru  Ru33  1  0.000000  0.359756  0.680335  1
  Ru  Ru34  1  0.000000  0.137523  0.178918  1
  Ru  Ru35  1  0.000000  0.864064  0.823118  1
