# generated using pymatgen
data_Eu2TaCo11P7
_symmetry_space_group_name_H-M   'P 1'
_cell_length_a   9.13583205
_cell_length_b   9.21349058
_cell_length_c   3.66117400
_cell_angle_alpha   90.00000000
_cell_angle_beta   90.00000000
_cell_angle_gamma   119.98808568
_symmetry_Int_Tables_number   1
_chemical_formula_structural   Eu2TaCo11P7
_chemical_formula_sum   'Eu2 Ta1 Co11 P7'
_cell_volume   266.91650652
_cell_formula_units_Z   1
loop_
 _symmetry_equiv_pos_site_id
 _symmetry_equiv_pos_as_xyz
  1  'x, y, z'
loop_
 _atom_site_type_symbol
 _atom_site_label
 _atom_site_symmetry_multiplicity
 _atom_site_fract_x
 _atom_site_fract_y
 _atom_site_fract_z
 _atom_site_occupancy
  Eu  Eu0  1  0.332588  0.661842  0.000000  1
  Eu  Eu1  1  0.669031  0.333399  0.500000  1
  Ta  Ta2  1  0.214724  0.100542  0.500000  1
  Co  Co3  1  0.428333  0.054277  0.000000  1
  Co  Co4  1  0.151556  0.271544  0.000000  1
  Co  Co5  1  0.943555  0.372485  0.000000  1
  Co  Co6  1  0.632807  0.574715  0.000000  1
  Co  Co7  1  0.115669  0.839932  0.000000  1
  Co  Co8  1  0.723182  0.880380  0.000000  1
  Co  Co9  1  0.905413  0.130261  0.500000  1
  Co  Co10  1  0.384359  0.436696  0.500000  1
  Co  Co11  1  0.047304  0.614902  0.500000  1
  Co  Co12  1  0.877149  0.780367  0.500000  1
  Co  Co13  1  0.570825  0.953097  0.500000  1
  P  P14  1  0.988532  0.992488  0.000000  1
  P  P15  1  0.703824  0.109589  0.000000  1
  P  P16  1  0.415710  0.308595  0.000000  1
  P  P17  1  0.890481  0.591022  0.000000  1
  P  P18  1  0.108027  0.401373  0.500000  1
  P  P19  1  0.602264  0.713052  0.500000  1
  P  P20  1  0.294676  0.879487  0.500000  1
