# generated using pymatgen
data_Tm8Sc2(IrRh)3
_symmetry_space_group_name_H-M   'P 1'
_cell_length_a   10.64789971
_cell_length_b   10.64886600
_cell_length_c   6.23489742
_cell_angle_alpha   90.00001460
_cell_angle_beta   90.04188335
_cell_angle_gamma   89.99984934
_symmetry_Int_Tables_number   1
_chemical_formula_structural   Tm8Sc2(IrRh)3
_chemical_formula_sum   'Tm16 Sc4 Ir6 Rh6'
_cell_volume   706.96271604
_cell_formula_units_Z   2
loop_
 _symmetry_equiv_pos_site_id
 _symmetry_equiv_pos_as_xyz
  1  'x, y, z'
loop_
 _atom_site_type_symbol
 _atom_site_label
 _atom_site_symmetry_multiplicity
 _atom_site_fract_x
 _atom_site_fract_y
 _atom_site_fract_z
 _atom_site_occupancy
  Tm  Tm0  1  0.287820  0.086336  0.376735  1
  Tm  Tm1  1  0.287820  0.913663  0.876734  1
  Tm  Tm2  1  0.711220  0.087475  0.876720  1
  Tm  Tm3  1  0.711220  0.912525  0.376720  1
  Tm  Tm4  1  0.585287  0.787609  0.877162  1
  Tm  Tm5  1  0.585288  0.212391  0.377163  1
  Tm  Tm6  1  0.413538  0.787873  0.376917  1
  Tm  Tm7  1  0.413539  0.212127  0.876917  1
  Tm  Tm8  1  0.212098  0.413546  0.623019  1
  Tm  Tm9  1  0.212098  0.586454  0.123019  1
  Tm  Tm10  1  0.787584  0.414747  0.122902  1
  Tm  Tm11  1  0.787583  0.585252  0.622902  1
  Tm  Tm12  1  0.913737  0.711753  0.123448  1
  Tm  Tm13  1  0.913737  0.288247  0.623447  1
  Tm  Tm14  1  0.087544  0.711651  0.623077  1
  Tm  Tm15  1  0.087544  0.288349  0.123077  1
  Sc  Sc16  1  0.000934  0.000047  0.500016  1
  Sc  Sc17  1  0.000934  0.999954  0.000020  1
  Sc  Sc18  1  0.500014  0.499939  0.000005  1
  Sc  Sc19  1  0.500013  0.500061  0.500006  1
  Ir  Ir20  1  0.148686  0.149339  0.750123  1
  Ir  Ir21  1  0.148686  0.850661  0.250123  1
  Ir  Ir22  1  0.650059  0.349979  0.750005  1
  Ir  Ir23  1  0.650059  0.650021  0.250005  1
  Ir  Ir24  1  0.350465  0.350428  0.250006  1
  Ir  Ir25  1  0.350464  0.649572  0.750008  1
  Rh  Rh26  1  0.850432  0.148944  0.249888  1
  Rh  Rh27  1  0.850432  0.851057  0.749888  1
  Rh  Rh28  1  0.500803  0.000000  0.123111  1
  Rh  Rh29  1  0.500803  0.000000  0.623113  1
  Rh  Rh30  1  0.999779  0.500060  0.876863  1
  Rh  Rh31  1  0.999779  0.499940  0.376862  1
