# generated using pymatgen
data_K2Cr2CdO8
_symmetry_space_group_name_H-M   'P 1'
_cell_length_a   7.16581102
_cell_length_b   7.16581086
_cell_length_c   10.09191649
_cell_angle_alpha   112.08788347
_cell_angle_beta   67.91211868
_cell_angle_gamma   104.06939516
_symmetry_Int_Tables_number   1
_chemical_formula_structural   K2Cr2CdO8
_chemical_formula_sum   'K4 Cr4 Cd2 O16'
_cell_volume   441.80280903
_cell_formula_units_Z   2
loop_
 _symmetry_equiv_pos_site_id
 _symmetry_equiv_pos_as_xyz
  1  'x, y, z'
loop_
 _atom_site_type_symbol
 _atom_site_label
 _atom_site_symmetry_multiplicity
 _atom_site_fract_x
 _atom_site_fract_y
 _atom_site_fract_z
 _atom_site_occupancy
  K  K0  1  0.691586  0.408289  0.062604  1
  K  K1  1  0.408289  0.691587  0.437397  1
  K  K2  1  0.591710  0.308414  0.562604  1
  K  K3  1  0.308413  0.591711  0.937397  1
  Cr  Cr4  1  0.613383  0.981611  0.171766  1
  Cr  Cr5  1  0.981611  0.613383  0.328234  1
  Cr  Cr6  1  0.018389  0.386618  0.671767  1
  Cr  Cr7  1  0.386617  0.018389  0.828233  1
  Cd  Cd8  1  0.092193  0.092192  0.250000  1
  Cd  Cd9  1  0.907808  0.907807  0.750000  1
  O  O10  1  0.768290  0.020610  0.011170  1
  O  O11  1  0.516220  0.741468  0.141221  1
  O  O12  1  0.038214  0.742413  0.206669  1
  O  O13  1  0.129544  0.425959  0.251964  1
  O  O14  1  0.425960  0.129544  0.248036  1
  O  O15  1  0.742413  0.038214  0.293332  1
  O  O16  1  0.741468  0.516219  0.358779  1
  O  O17  1  0.020610  0.768290  0.488830  1
  O  O18  1  0.979390  0.231710  0.511170  1
  O  O19  1  0.258532  0.483781  0.641222  1
  O  O20  1  0.257587  0.961786  0.706669  1
  O  O21  1  0.574041  0.870456  0.751965  1
  O  O22  1  0.870456  0.574040  0.748035  1
  O  O23  1  0.961786  0.257587  0.793332  1
  O  O24  1  0.483781  0.258531  0.858778  1
  O  O25  1  0.231711  0.979389  0.988829  1
