# generated using pymatgen
data_YEr2(Co3P2)3
_symmetry_space_group_name_H-M   'P 1'
_cell_length_a   3.68295500
_cell_length_b   10.48669400
_cell_length_c   12.14061500
_cell_angle_alpha   90.00000000
_cell_angle_beta   90.00000000
_cell_angle_gamma   90.00000000
_symmetry_Int_Tables_number   1
_chemical_formula_structural   YEr2(Co3P2)3
_chemical_formula_sum   'Y2 Er4 Co18 P12'
_cell_volume   468.89510085
_cell_formula_units_Z   2
loop_
 _symmetry_equiv_pos_site_id
 _symmetry_equiv_pos_as_xyz
  1  'x, y, z'
loop_
 _atom_site_type_symbol
 _atom_site_label
 _atom_site_symmetry_multiplicity
 _atom_site_fract_x
 _atom_site_fract_y
 _atom_site_fract_z
 _atom_site_occupancy
  Y  Y0  1  0.750000  0.250000  0.478046  1
  Y  Y1  1  0.250000  0.750000  0.521954  1
  Er  Er2  1  0.250000  0.932071  0.794462  1
  Er  Er3  1  0.250000  0.567929  0.794462  1
  Er  Er4  1  0.750000  0.067929  0.205538  1
  Er  Er5  1  0.750000  0.432071  0.205538  1
  Co  Co6  1  0.250000  0.250000  0.841753  1
  Co  Co7  1  0.750000  0.750000  0.158247  1
  Co  Co8  1  0.250000  0.250000  0.295965  1
  Co  Co9  1  0.750000  0.750000  0.704035  1
  Co  Co10  1  0.750000  0.250000  0.014045  1
  Co  Co11  1  0.250000  0.750000  0.985955  1
  Co  Co12  1  0.250000  0.416839  0.005346  1
  Co  Co13  1  0.250000  0.083161  0.005346  1
  Co  Co14  1  0.750000  0.583161  0.994654  1
  Co  Co15  1  0.750000  0.916839  0.994654  1
  Co  Co16  1  0.250000  0.452627  0.569759  1
  Co  Co17  1  0.250000  0.047373  0.569759  1
  Co  Co18  1  0.750000  0.547373  0.430241  1
  Co  Co19  1  0.750000  0.952627  0.430241  1
  Co  Co20  1  0.250000  0.871058  0.289473  1
  Co  Co21  1  0.250000  0.628942  0.289473  1
  Co  Co22  1  0.750000  0.128942  0.710527  1
  Co  Co23  1  0.750000  0.371058  0.710527  1
  P  P24  1  0.250000  0.250000  0.117679  1
  P  P25  1  0.750000  0.750000  0.882321  1
  P  P26  1  0.250000  0.250000  0.656633  1
  P  P27  1  0.750000  0.750000  0.343367  1
  P  P28  1  0.250000  0.439460  0.383085  1
  P  P29  1  0.250000  0.060540  0.383085  1
  P  P30  1  0.750000  0.560540  0.616915  1
  P  P31  1  0.750000  0.939460  0.616915  1
  P  P32  1  0.250000  0.903137  0.107104  1
  P  P33  1  0.250000  0.596863  0.107104  1
  P  P34  1  0.750000  0.096863  0.892896  1
  P  P35  1  0.750000  0.403137  0.892896  1
