# generated using pymatgen
data_TbZn7Ag5
_symmetry_space_group_name_H-M   'P 1'
_cell_length_a   7.04395812
_cell_length_b   7.04395806
_cell_length_c   7.04395867
_cell_angle_alpha   97.86055086
_cell_angle_beta   97.51707245
_cell_angle_gamma   137.08931728
_symmetry_Int_Tables_number   1
_chemical_formula_structural   TbZn7Ag5
_chemical_formula_sum   'Tb1 Zn7 Ag5'
_cell_volume   221.47006007
_cell_formula_units_Z   1
loop_
 _symmetry_equiv_pos_site_id
 _symmetry_equiv_pos_as_xyz
  1  'x, y, z'
loop_
 _atom_site_type_symbol
 _atom_site_label
 _atom_site_symmetry_multiplicity
 _atom_site_fract_x
 _atom_site_fract_y
 _atom_site_fract_z
 _atom_site_occupancy
  Tb  Tb0  1  0.000000  0.000165  0.000165  1
  Zn  Zn1  1  0.996944  0.998688  0.496230  1
  Zn  Zn2  1  0.497542  0.499285  0.496230  1
  Zn  Zn3  1  0.502458  0.998688  0.001744  1
  Zn  Zn4  1  0.003056  0.499285  0.001744  1
  Zn  Zn5  1  0.500000  0.712701  0.212701  1
  Zn  Zn6  1  0.715992  0.501222  0.217214  1
  Zn  Zn7  1  0.284008  0.501222  0.785231  1
  Ag  Ag8  1  0.000000  0.344350  0.344350  1
  Ag  Ag9  1  0.000000  0.649356  0.649356  1
  Ag  Ag10  1  0.654472  0.999535  0.654008  1
  Ag  Ag11  1  0.345528  0.999535  0.345063  1
  Ag  Ag12  1  0.500000  0.295965  0.795965  1
