# generated using pymatgen
data_SeS27
_symmetry_space_group_name_H-M   'P 1'
_cell_length_a   15.03410108
_cell_length_b   15.03410143
_cell_length_c   15.03410036
_cell_angle_alpha   118.69444999
_cell_angle_beta   118.69444757
_cell_angle_gamma   118.69444485
_symmetry_Int_Tables_number   1
_chemical_formula_structural   SeS27
_chemical_formula_sum   'Se1 S27'
_cell_volume   1002.43415856
_cell_formula_units_Z   1
loop_
 _symmetry_equiv_pos_site_id
 _symmetry_equiv_pos_as_xyz
  1  'x, y, z'
loop_
 _atom_site_type_symbol
 _atom_site_label
 _atom_site_symmetry_multiplicity
 _atom_site_fract_x
 _atom_site_fract_y
 _atom_site_fract_z
 _atom_site_occupancy
  Se  Se0  1  0.938221  0.938221  0.938221  1
  S  S1  1  0.802178  0.520610  0.520610  1
  S  S2  1  0.520610  0.520610  0.802178  1
  S  S3  1  0.520610  0.802178  0.520610  1
  S  S4  1  0.245802  0.375570  0.634919  1
  S  S5  1  0.350745  0.951110  0.350745  1
  S  S6  1  0.350745  0.350745  0.951110  1
  S  S7  1  0.951110  0.350745  0.350745  1
  S  S8  1  0.126625  0.739846  0.256318  1
  S  S9  1  0.256318  0.126625  0.739846  1
  S  S10  1  0.739846  0.256318  0.126625  1
  S  S11  1  0.739846  0.126625  0.256318  1
  S  S12  1  0.256318  0.739846  0.126625  1
  S  S13  1  0.126625  0.256318  0.739846  1
  S  S14  1  0.346743  0.879222  0.529781  1
  S  S15  1  0.529781  0.346743  0.879222  1
  S  S16  1  0.879222  0.529781  0.346743  1
  S  S17  1  0.879222  0.346743  0.529781  1
  S  S18  1  0.529781  0.879222  0.346743  1
  S  S19  1  0.346743  0.529781  0.879222  1
  S  S20  1  0.245802  0.634919  0.375570  1
  S  S21  1  0.375570  0.245802  0.634919  1
  S  S22  1  0.634919  0.375570  0.245802  1
  S  S23  1  0.634919  0.245802  0.375570  1
  S  S24  1  0.375570  0.634919  0.245802  1
  S  S25  1  0.848150  0.986637  0.986637  1
  S  S26  1  0.986637  0.986637  0.848150  1
  S  S27  1  0.986637  0.848150  0.986637  1
