# generated using pymatgen
data_ErTm2Co8P6Ru
_symmetry_space_group_name_H-M   'P 1'
_cell_length_a   3.67678100
_cell_length_b   10.48234100
_cell_length_c   12.17650100
_cell_angle_alpha   90.00000000
_cell_angle_beta   90.00000000
_cell_angle_gamma   90.00000000
_symmetry_Int_Tables_number   1
_chemical_formula_structural   ErTm2Co8P6Ru
_chemical_formula_sum   'Er2 Tm4 Co16 P12 Ru2'
_cell_volume   469.29783978
_cell_formula_units_Z   2
loop_
 _symmetry_equiv_pos_site_id
 _symmetry_equiv_pos_as_xyz
  1  'x, y, z'
loop_
 _atom_site_type_symbol
 _atom_site_label
 _atom_site_symmetry_multiplicity
 _atom_site_fract_x
 _atom_site_fract_y
 _atom_site_fract_z
 _atom_site_occupancy
  Er  Er0  1  0.000000  0.500000  0.525021  1
  Er  Er1  1  0.500000  0.000000  0.474979  1
  Tm  Tm2  1  0.500000  0.817625  0.206773  1
  Tm  Tm3  1  0.500000  0.182375  0.206773  1
  Tm  Tm4  1  0.000000  0.682375  0.793227  1
  Tm  Tm5  1  0.000000  0.317625  0.793227  1
  Co  Co6  1  0.500000  0.500000  0.703567  1
  Co  Co7  1  0.000000  0.000000  0.296433  1
  Co  Co8  1  0.000000  0.500000  0.985868  1
  Co  Co9  1  0.500000  0.000000  0.014132  1
  Co  Co10  1  0.500000  0.332498  0.990244  1
  Co  Co11  1  0.500000  0.667502  0.990244  1
  Co  Co12  1  0.000000  0.167502  0.009756  1
  Co  Co13  1  0.000000  0.832498  0.009756  1
  Co  Co14  1  0.500000  0.296979  0.431199  1
  Co  Co15  1  0.500000  0.703021  0.431199  1
  Co  Co16  1  0.000000  0.203021  0.568801  1
  Co  Co17  1  0.000000  0.796979  0.568801  1
  Co  Co18  1  0.500000  0.878018  0.707706  1
  Co  Co19  1  0.500000  0.121982  0.707706  1
  Co  Co20  1  0.000000  0.621982  0.292294  1
  Co  Co21  1  0.000000  0.378018  0.292294  1
  P  P22  1  0.500000  0.500000  0.880845  1
  P  P23  1  0.000000  0.000000  0.119155  1
  P  P24  1  0.500000  0.500000  0.351488  1
  P  P25  1  0.000000  0.000000  0.648512  1
  P  P26  1  0.500000  0.312607  0.616680  1
  P  P27  1  0.500000  0.687393  0.616680  1
  P  P28  1  0.000000  0.187393  0.383320  1
  P  P29  1  0.000000  0.812607  0.383320  1
  P  P30  1  0.500000  0.845968  0.892672  1
  P  P31  1  0.500000  0.154032  0.892672  1
  P  P32  1  0.000000  0.654032  0.107328  1
  P  P33  1  0.000000  0.345968  0.107328  1
  Ru  Ru34  1  0.500000  0.500000  0.159825  1
  Ru  Ru35  1  0.000000  0.000000  0.840175  1
