# generated using pymatgen
data_Yb4Ag3PtPb2
_symmetry_space_group_name_H-M   'P 1'
_cell_length_a   8.12192191
_cell_length_b   8.12179400
_cell_length_c   7.37173578
_cell_angle_alpha   90.00000000
_cell_angle_beta   89.82671713
_cell_angle_gamma   90.00000000
_symmetry_Int_Tables_number   1
_chemical_formula_structural   Yb4Ag3PtPb2
_chemical_formula_sum   'Yb8 Ag6 Pt2 Pb4'
_cell_volume   486.27120569
_cell_formula_units_Z   2
loop_
 _symmetry_equiv_pos_site_id
 _symmetry_equiv_pos_as_xyz
  1  'x, y, z'
loop_
 _atom_site_type_symbol
 _atom_site_label
 _atom_site_symmetry_multiplicity
 _atom_site_fract_x
 _atom_site_fract_y
 _atom_site_fract_z
 _atom_site_occupancy
  Yb  Yb0  1  0.679302  0.692638  0.001292  1
  Yb  Yb1  1  0.332602  0.348728  0.508892  1
  Yb  Yb2  1  0.815819  0.168209  0.493043  1
  Yb  Yb3  1  0.664183  0.678926  0.499228  1
  Yb  Yb4  1  0.315819  0.331791  0.993043  1
  Yb  Yb5  1  0.179302  0.807362  0.501292  1
  Yb  Yb6  1  0.832602  0.151272  0.008892  1
  Yb  Yb7  1  0.164183  0.821074  0.999228  1
  Ag  Ag8  1  0.880175  0.876620  0.732310  1
  Ag  Ag9  1  0.123758  0.121760  0.732461  1
  Ag  Ag10  1  0.630288  0.378054  0.769111  1
  Ag  Ag11  1  0.623758  0.378240  0.232461  1
  Ag  Ag12  1  0.380175  0.623380  0.232310  1
  Ag  Ag13  1  0.130288  0.121946  0.269111  1
  Pt  Pt14  1  0.882858  0.877384  0.262298  1
  Pt  Pt15  1  0.382858  0.622616  0.762298  1
  Pb  Pb16  1  0.493721  0.000177  0.750978  1
  Pb  Pb17  1  0.497295  0.004200  0.250387  1
  Pb  Pb18  1  0.997295  0.495800  0.750387  1
  Pb  Pb19  1  0.993721  0.499823  0.250978  1
