# generated using pymatgen
data_Sm2Mn3Co9SiP6
_symmetry_space_group_name_H-M   'P 1'
_cell_length_a   9.13691200
_cell_length_b   9.13691172
_cell_length_c   3.63188700
_cell_angle_alpha   90.00000000
_cell_angle_beta   90.00000000
_cell_angle_gamma   120.00000827
_symmetry_Int_Tables_number   1
_chemical_formula_structural   Sm2Mn3Co9SiP6
_chemical_formula_sum   'Sm2 Mn3 Co9 Si1 P6'
_cell_volume   262.58009073
_cell_formula_units_Z   1
loop_
 _symmetry_equiv_pos_site_id
 _symmetry_equiv_pos_as_xyz
  1  'x, y, z'
loop_
 _atom_site_type_symbol
 _atom_site_label
 _atom_site_symmetry_multiplicity
 _atom_site_fract_x
 _atom_site_fract_y
 _atom_site_fract_z
 _atom_site_occupancy
  Sm  Sm0  1  0.666667  0.333333  0.000000  1
  Sm  Sm1  1  0.333333  0.666667  0.500000  1
  Mn  Mn2  1  0.221794  0.103751  0.000000  1
  Mn  Mn3  1  0.896249  0.118044  0.000000  1
  Mn  Mn4  1  0.881956  0.778206  0.000000  1
  Co  Co5  1  0.429645  0.059745  0.500000  1
  Co  Co6  1  0.940255  0.369901  0.500000  1
  Co  Co7  1  0.630099  0.570355  0.500000  1
  Co  Co8  1  0.160363  0.281153  0.500000  1
  Co  Co9  1  0.718847  0.879209  0.500000  1
  Co  Co10  1  0.120791  0.839637  0.500000  1
  Co  Co11  1  0.386936  0.436429  0.000000  1
  Co  Co12  1  0.563571  0.950507  0.000000  1
  Co  Co13  1  0.049493  0.613064  0.000000  1
  Si  Si14  1  0.000000  0.000000  0.500000  1
  P  P15  1  0.112808  0.402498  0.000000  1
  P  P16  1  0.597502  0.710309  0.000000  1
  P  P17  1  0.289691  0.887192  0.000000  1
  P  P18  1  0.409139  0.300473  0.500000  1
  P  P19  1  0.699527  0.108665  0.500000  1
  P  P20  1  0.891335  0.590861  0.500000  1
