# generated using pymatgen
data_Tm2Ga(Co2P)6
_symmetry_space_group_name_H-M   'P 1'
_cell_length_a   9.06836300
_cell_length_b   9.06836348
_cell_length_c   3.57372300
_cell_angle_alpha   90.00000000
_cell_angle_beta   90.00000000
_cell_angle_gamma   120.00000188
_symmetry_Int_Tables_number   1
_chemical_formula_structural   Tm2Ga(Co2P)6
_chemical_formula_sum   'Tm2 Ga1 Co12 P6'
_cell_volume   254.51262283
_cell_formula_units_Z   1
loop_
 _symmetry_equiv_pos_site_id
 _symmetry_equiv_pos_as_xyz
  1  'x, y, z'
loop_
 _atom_site_type_symbol
 _atom_site_label
 _atom_site_symmetry_multiplicity
 _atom_site_fract_x
 _atom_site_fract_y
 _atom_site_fract_z
 _atom_site_occupancy
  Tm  Tm0  1  0.666667  0.333333  0.000000  1
  Tm  Tm1  1  0.000000  0.000000  0.500000  1
  Ga  Ga2  1  0.333333  0.666667  0.000000  1
  Co  Co3  1  0.772274  0.728063  0.000000  1
  Co  Co4  1  0.271937  0.044210  0.000000  1
  Co  Co5  1  0.955790  0.227726  0.000000  1
  Co  Co6  1  0.720036  0.106490  0.500000  1
  Co  Co7  1  0.893510  0.613545  0.500000  1
  Co  Co8  1  0.386455  0.279964  0.500000  1
  Co  Co9  1  0.496733  0.958971  0.000000  1
  Co  Co10  1  0.041029  0.537763  0.000000  1
  Co  Co11  1  0.462237  0.503267  0.000000  1
  Co  Co12  1  0.588359  0.780862  0.500000  1
  Co  Co13  1  0.219138  0.807498  0.500000  1
  Co  Co14  1  0.192502  0.411641  0.500000  1
  P  P15  1  0.445120  0.069595  0.500000  1
  P  P16  1  0.930405  0.375526  0.500000  1
  P  P17  1  0.624474  0.554880  0.500000  1
  P  P18  1  0.738172  0.957508  0.000000  1
  P  P19  1  0.042492  0.780662  0.000000  1
  P  P20  1  0.219338  0.261828  0.000000  1
