# generated using pymatgen
data_Hf5Sc(TiOs2)2
_symmetry_space_group_name_H-M   'P 1'
_cell_length_a   8.58206222
_cell_length_b   8.58206239
_cell_length_c   8.57566900
_cell_angle_alpha   60.02464425
_cell_angle_beta   60.02464358
_cell_angle_gamma   59.95072441
_symmetry_Int_Tables_number   1
_chemical_formula_structural   Hf5Sc(TiOs2)2
_chemical_formula_sum   'Hf10 Sc2 Ti4 Os8'
_cell_volume   446.61766512
_cell_formula_units_Z   2
loop_
 _symmetry_equiv_pos_site_id
 _symmetry_equiv_pos_as_xyz
  1  'x, y, z'
loop_
 _atom_site_type_symbol
 _atom_site_label
 _atom_site_symmetry_multiplicity
 _atom_site_fract_x
 _atom_site_fract_y
 _atom_site_fract_z
 _atom_site_occupancy
  Hf  Hf0  1  0.807265  0.192735  0.807265  1
  Hf  Hf1  1  0.192735  0.807265  0.192735  1
  Hf  Hf2  1  0.192735  0.807265  0.807265  1
  Hf  Hf3  1  0.807265  0.192735  0.192735  1
  Hf  Hf4  1  0.441602  0.441602  0.058398  1
  Hf  Hf5  1  0.058398  0.058398  0.441602  1
  Hf  Hf6  1  0.442780  0.057220  0.442780  1
  Hf  Hf7  1  0.057220  0.442780  0.057220  1
  Hf  Hf8  1  0.057220  0.442780  0.442780  1
  Hf  Hf9  1  0.442780  0.057220  0.057220  1
  Sc  Sc10  1  0.808420  0.808420  0.191580  1
  Sc  Sc11  1  0.191580  0.191580  0.808420  1
  Ti  Ti12  1  0.125063  0.623223  0.625857  1
  Ti  Ti13  1  0.623223  0.125063  0.625857  1
  Ti  Ti14  1  0.625857  0.625857  0.125063  1
  Ti  Ti15  1  0.625857  0.625857  0.623223  1
  Os  Os16  1  0.757880  0.410609  0.415755  1
  Os  Os17  1  0.410609  0.757880  0.415755  1
  Os  Os18  1  0.415755  0.415755  0.757880  1
  Os  Os19  1  0.415755  0.415755  0.410609  1
  Os  Os20  1  0.493576  0.833143  0.836641  1
  Os  Os21  1  0.833143  0.493576  0.836641  1
  Os  Os22  1  0.836641  0.836641  0.493576  1
  Os  Os23  1  0.836641  0.836641  0.833143  1
