# generated using pymatgen
data_Hf3TcMo2P3
_symmetry_space_group_name_H-M   'P 1'
_cell_length_a   6.87740000
_cell_length_b   6.90630025
_cell_length_c   3.40968500
_cell_angle_alpha   90.00000000
_cell_angle_beta   90.00000000
_cell_angle_gamma   119.86167014
_symmetry_Int_Tables_number   1
_chemical_formula_structural   Hf3TcMo2P3
_chemical_formula_sum   'Hf3 Tc1 Mo2 P3'
_cell_volume   140.44888914
_cell_formula_units_Z   1
loop_
 _symmetry_equiv_pos_site_id
 _symmetry_equiv_pos_as_xyz
  1  'x, y, z'
loop_
 _atom_site_type_symbol
 _atom_site_label
 _atom_site_symmetry_multiplicity
 _atom_site_fract_x
 _atom_site_fract_y
 _atom_site_fract_z
 _atom_site_occupancy
  Hf  Hf0  1  0.998349  0.594869  0.500000  1
  Hf  Hf1  1  0.403480  0.405131  0.500000  1
  Hf  Hf2  1  0.596154  0.000000  0.500000  1
  Tc  Tc3  1  0.253304  0.000000  0.000000  1
  Mo  Mo4  1  0.748547  0.747557  0.000000  1
  Mo  Mo5  1  0.000990  0.252443  0.000000  1
  P  P6  1  0.665981  0.332902  0.000000  1
  P  P7  1  0.333078  0.667098  0.000000  1
  P  P8  1  0.000118  0.000000  0.500000  1
