# generated using pymatgen
data_Ba(HfSe2)4
_symmetry_space_group_name_H-M   'P 1'
_cell_length_a   8.95619329
_cell_length_b   8.95619367
_cell_length_c   10.44092834
_cell_angle_alpha   44.72546429
_cell_angle_beta   44.72546030
_cell_angle_gamma   49.59462629
_symmetry_Int_Tables_number   1
_chemical_formula_structural   Ba(HfSe2)4
_chemical_formula_sum   'Ba1 Hf4 Se8'
_cell_volume   396.96900694
_cell_formula_units_Z   1
loop_
 _symmetry_equiv_pos_site_id
 _symmetry_equiv_pos_as_xyz
  1  'x, y, z'
loop_
 _atom_site_type_symbol
 _atom_site_label
 _atom_site_symmetry_multiplicity
 _atom_site_fract_x
 _atom_site_fract_y
 _atom_site_fract_z
 _atom_site_occupancy
  Ba  Ba0  1  0.000000  0.000000  0.000000  1
  Hf  Hf1  1  0.250037  0.250037  0.004173  1
  Hf  Hf2  1  0.749963  0.749963  0.995827  1
  Hf  Hf3  1  0.243740  0.756260  0.500000  1
  Hf  Hf4  1  0.756260  0.243740  0.500000  1
  Se  Se5  1  0.320078  0.320078  0.666859  1
  Se  Se6  1  0.816523  0.816523  0.667226  1
  Se  Se7  1  0.317057  0.815578  0.168949  1
  Se  Se8  1  0.815578  0.317057  0.168949  1
  Se  Se9  1  0.184422  0.682943  0.831051  1
  Se  Se10  1  0.682943  0.184422  0.831051  1
  Se  Se11  1  0.183477  0.183477  0.332774  1
  Se  Se12  1  0.679922  0.679922  0.333141  1
