# generated using pymatgen
data_Nb6InCoSe12
_symmetry_space_group_name_H-M   'P 1'
_cell_length_a   6.05361900
_cell_length_b   6.05361889
_cell_length_c   14.45277300
_cell_angle_alpha   90.00000000
_cell_angle_beta   90.00000000
_cell_angle_gamma   119.99999514
_symmetry_Int_Tables_number   1
_chemical_formula_structural   Nb6InCoSe12
_chemical_formula_sum   'Nb6 In1 Co1 Se12'
_cell_volume   458.68231389
_cell_formula_units_Z   1
loop_
 _symmetry_equiv_pos_site_id
 _symmetry_equiv_pos_as_xyz
  1  'x, y, z'
loop_
 _atom_site_type_symbol
 _atom_site_label
 _atom_site_symmetry_multiplicity
 _atom_site_fract_x
 _atom_site_fract_y
 _atom_site_fract_z
 _atom_site_occupancy
  Nb  Nb0  1  0.333333  0.666667  0.037991  1
  Nb  Nb1  1  0.666667  0.333333  0.460769  1
  Nb  Nb2  1  0.333333  0.666667  0.462009  1
  Nb  Nb3  1  0.000000  0.000000  0.038942  1
  Nb  Nb4  1  0.666667  0.333333  0.039231  1
  Nb  Nb5  1  0.000000  0.000000  0.461058  1
  In  In6  1  0.666667  0.333333  0.750000  1
  Co  Co7  1  0.333333  0.666667  0.250000  1
  Se  Se8  1  0.999133  0.666931  0.153471  1
  Se  Se9  1  0.667281  0.666554  0.578371  1
  Se  Se10  1  0.999133  0.332203  0.346529  1
  Se  Se11  1  0.333069  0.332203  0.153471  1
  Se  Se12  1  0.333446  0.000727  0.578371  1
  Se  Se13  1  0.333446  0.332719  0.921629  1
  Se  Se14  1  0.667797  0.666931  0.346529  1
  Se  Se15  1  0.999273  0.666554  0.921629  1
  Se  Se16  1  0.667281  0.000727  0.921629  1
  Se  Se17  1  0.333069  0.000867  0.346529  1
  Se  Se18  1  0.667797  0.000867  0.153471  1
  Se  Se19  1  0.999273  0.332719  0.578371  1
