# generated using pymatgen
data_Ba6V3PS16
_symmetry_space_group_name_H-M   'P 1'
_cell_length_a   11.19676425
_cell_length_b   11.19676382
_cell_length_c   11.19676410
_cell_angle_alpha   51.59241816
_cell_angle_beta   51.59241978
_cell_angle_gamma   51.59242139
_symmetry_Int_Tables_number   1
_chemical_formula_structural   Ba6V3PS16
_chemical_formula_sum   'Ba6 V3 P1 S16'
_cell_volume   796.15029151
_cell_formula_units_Z   1
loop_
 _symmetry_equiv_pos_site_id
 _symmetry_equiv_pos_as_xyz
  1  'x, y, z'
loop_
 _atom_site_type_symbol
 _atom_site_label
 _atom_site_symmetry_multiplicity
 _atom_site_fract_x
 _atom_site_fract_y
 _atom_site_fract_z
 _atom_site_occupancy
  Ba  Ba0  1  0.749600  0.430715  0.069920  1
  Ba  Ba1  1  0.569376  0.931123  0.249484  1
  Ba  Ba2  1  0.069920  0.749600  0.430716  1
  Ba  Ba3  1  0.931124  0.249484  0.569376  1
  Ba  Ba4  1  0.430716  0.069921  0.749599  1
  Ba  Ba5  1  0.249484  0.569376  0.931124  1
  V  V6  1  0.339582  0.339582  0.339582  1
  V  V7  1  0.660451  0.660451  0.660451  1
  V  V8  1  0.839480  0.839480  0.839480  1
  P  P9  1  0.160724  0.160724  0.160724  1
  S  S10  1  0.620269  0.789169  0.033946  1
  S  S11  1  0.089327  0.089327  0.089327  1
  S  S12  1  0.533528  0.290011  0.119667  1
  S  S13  1  0.974051  0.369967  0.208353  1
  S  S14  1  0.119667  0.533527  0.290011  1
  S  S15  1  0.208352  0.974052  0.369967  1
  S  S16  1  0.414527  0.414527  0.414527  1
  S  S17  1  0.709995  0.880235  0.466680  1
  S  S18  1  0.290011  0.119667  0.533528  1
  S  S19  1  0.585339  0.585339  0.585339  1
  S  S20  1  0.789169  0.033946  0.620269  1
  S  S21  1  0.880235  0.466681  0.709995  1
  S  S22  1  0.033946  0.620269  0.789169  1
  S  S23  1  0.466681  0.709995  0.880235  1
  S  S24  1  0.914481  0.914481  0.914481  1
  S  S25  1  0.369968  0.208352  0.974051  1
