# generated using pymatgen
data_Rb2US6
_symmetry_space_group_name_H-M   'P 1'
_cell_length_a   5.47426000
_cell_length_b   5.47426000
_cell_length_c   16.64460800
_cell_angle_alpha   90.00000000
_cell_angle_beta   90.00000000
_cell_angle_gamma   90.00000000
_symmetry_Int_Tables_number   1
_chemical_formula_structural   Rb2US6
_chemical_formula_sum   'Rb4 U2 S12'
_cell_volume   498.79766554
_cell_formula_units_Z   2
loop_
 _symmetry_equiv_pos_site_id
 _symmetry_equiv_pos_as_xyz
  1  'x, y, z'
loop_
 _atom_site_type_symbol
 _atom_site_label
 _atom_site_symmetry_multiplicity
 _atom_site_fract_x
 _atom_site_fract_y
 _atom_site_fract_z
 _atom_site_occupancy
  Rb  Rb0  1  0.000000  0.000000  0.133781  1
  Rb  Rb1  1  0.500000  0.500000  0.633781  1
  Rb  Rb2  1  0.500000  0.500000  0.366219  1
  Rb  Rb3  1  0.000000  0.000000  0.866219  1
  U  U4  1  0.000000  0.000000  0.500000  1
  U  U5  1  0.500000  0.500000  0.000000  1
  S  S6  1  0.314575  0.500000  0.149241  1
  S  S7  1  0.685425  0.500000  0.149241  1
  S  S8  1  0.000000  0.814575  0.649241  1
  S  S9  1  0.000000  0.185425  0.649241  1
  S  S10  1  0.185425  0.000000  0.350759  1
  S  S11  1  0.814575  0.000000  0.350759  1
  S  S12  1  0.500000  0.685425  0.850759  1
  S  S13  1  0.500000  0.314575  0.850759  1
  S  S14  1  0.000000  0.500000  0.987770  1
  S  S15  1  0.000000  0.500000  0.487770  1
  S  S16  1  0.500000  0.000000  0.512230  1
  S  S17  1  0.500000  0.000000  0.012230  1
