# generated using pymatgen
data_Dy6Tm10In4NiRh3
_symmetry_space_group_name_H-M   'P 1'
_cell_length_a   9.55793997
_cell_length_b   9.55285270
_cell_length_c   9.55773475
_cell_angle_alpha   60.02483615
_cell_angle_beta   59.99629002
_cell_angle_gamma   60.04119417
_symmetry_Int_Tables_number   1
_chemical_formula_structural   Dy6Tm10In4NiRh3
_chemical_formula_sum   'Dy6 Tm10 In4 Ni1 Rh3'
_cell_volume   617.36455291
_cell_formula_units_Z   1
loop_
 _symmetry_equiv_pos_site_id
 _symmetry_equiv_pos_as_xyz
  1  'x, y, z'
loop_
 _atom_site_type_symbol
 _atom_site_label
 _atom_site_symmetry_multiplicity
 _atom_site_fract_x
 _atom_site_fract_y
 _atom_site_fract_z
 _atom_site_occupancy
  Dy  Dy0  1  0.062886  0.062931  0.437135  1
  Dy  Dy1  1  0.435011  0.064324  0.436591  1
  Dy  Dy2  1  0.061258  0.438676  0.060759  1
  Dy  Dy3  1  0.048408  0.650929  0.647396  1
  Dy  Dy4  1  0.437948  0.437638  0.061349  1
  Dy  Dy5  1  0.650831  0.048399  0.647460  1
  Tm  Tm6  1  0.187605  0.811492  0.189589  1
  Tm  Tm7  1  0.188225  0.188216  0.812604  1
  Tm  Tm8  1  0.811314  0.811092  0.191358  1
  Tm  Tm9  1  0.439741  0.059360  0.058827  1
  Tm  Tm10  1  0.812060  0.187386  0.189382  1
  Tm  Tm11  1  0.061766  0.436992  0.438942  1
  Tm  Tm12  1  0.810456  0.189881  0.811815  1
  Tm  Tm13  1  0.189839  0.810669  0.812023  1
  Tm  Tm14  1  0.648808  0.648611  0.050983  1
  Tm  Tm15  1  0.653109  0.653753  0.649395  1
  In  In16  1  0.415862  0.416423  0.417646  1
  In  In17  1  0.748798  0.418692  0.417737  1
  In  In18  1  0.418984  0.748056  0.416960  1
  In  In19  1  0.418013  0.417075  0.747818  1
  Ni  Ni20  1  0.859342  0.858218  0.423603  1
  Rh  Rh21  1  0.856356  0.857554  0.861013  1
  Rh  Rh22  1  0.426451  0.857139  0.860501  1
  Rh  Rh23  1  0.856930  0.426496  0.859120  1
