# generated using pymatgen
data_CoRhI18
_symmetry_space_group_name_H-M   'P 1'
_cell_length_a   9.86844349
_cell_length_b   9.86896907
_cell_length_c   9.87159610
_cell_angle_alpha   94.34342628
_cell_angle_beta   94.44996411
_cell_angle_gamma   94.40625878
_symmetry_Int_Tables_number   1
_chemical_formula_structural   CoRhI18
_chemical_formula_sum   'Co1 Rh1 I18'
_cell_volume   952.44400704
_cell_formula_units_Z   1
loop_
 _symmetry_equiv_pos_site_id
 _symmetry_equiv_pos_as_xyz
  1  'x, y, z'
loop_
 _atom_site_type_symbol
 _atom_site_label
 _atom_site_symmetry_multiplicity
 _atom_site_fract_x
 _atom_site_fract_y
 _atom_site_fract_z
 _atom_site_occupancy
  Co  Co0  1  0.000000  0.000000  0.000000  1
  Rh  Rh1  1  0.500000  0.500000  0.500000  1
  I  I2  1  0.773571  0.492196  0.524981  1
  I  I3  1  0.524700  0.773406  0.490593  1
  I  I4  1  0.492533  0.525820  0.773476  1
  I  I5  1  0.226429  0.507804  0.475019  1
  I  I6  1  0.475300  0.226594  0.509407  1
  I  I7  1  0.507467  0.474180  0.226524  1
  I  I8  1  0.889312  0.366315  0.766011  1
  I  I9  1  0.766297  0.889153  0.365984  1
  I  I10  1  0.366344  0.766366  0.889070  1
  I  I11  1  0.110688  0.633685  0.233989  1
  I  I12  1  0.233703  0.110847  0.634016  1
  I  I13  1  0.633656  0.233634  0.110930  1
  I  I14  1  0.996625  0.965361  0.735543  1
  I  I15  1  0.735261  0.997097  0.965349  1
  I  I16  1  0.965061  0.735424  0.997107  1
  I  I17  1  0.003375  0.034639  0.264457  1
  I  I18  1  0.264739  0.002903  0.034651  1
  I  I19  1  0.034939  0.264576  0.002893  1
