# generated using pymatgen
data_HoErMnCo2Si5
_symmetry_space_group_name_H-M   'P 1'
_cell_length_a   5.39335998
_cell_length_b   7.96556064
_cell_length_c   7.96791695
_cell_angle_alpha   72.73211937
_cell_angle_beta   70.21800099
_cell_angle_gamma   70.21190750
_symmetry_Int_Tables_number   1
_chemical_formula_structural   HoErMnCo2Si5
_chemical_formula_sum   'Ho2 Er2 Mn2 Co4 Si10'
_cell_volume   296.59882279
_cell_formula_units_Z   2
loop_
 _symmetry_equiv_pos_site_id
 _symmetry_equiv_pos_as_xyz
  1  'x, y, z'
loop_
 _atom_site_type_symbol
 _atom_site_label
 _atom_site_symmetry_multiplicity
 _atom_site_fract_x
 _atom_site_fract_y
 _atom_site_fract_z
 _atom_site_occupancy
  Ho  Ho0  1  0.363616  0.868646  0.404123  1
  Ho  Ho1  1  0.636384  0.131354  0.595877  1
  Er  Er2  1  0.863800  0.404019  0.868382  1
  Er  Er3  1  0.136200  0.595981  0.131618  1
  Mn  Mn4  1  0.748427  0.000000  0.000000  1
  Mn  Mn5  1  0.251573  0.000000  0.000000  1
  Co  Co6  1  0.140937  0.263465  0.454661  1
  Co  Co7  1  0.859063  0.736535  0.545339  1
  Co  Co8  1  0.640983  0.455406  0.262628  1
  Co  Co9  1  0.359017  0.544594  0.737372  1
  Si  Si10  1  0.749990  0.500000  0.500000  1
  Si  Si11  1  0.250010  0.500000  0.500000  1
  Si  Si12  1  0.533025  0.217430  0.217006  1
  Si  Si13  1  0.967462  0.782570  0.782994  1
  Si  Si14  1  0.466975  0.782570  0.782994  1
  Si  Si15  1  0.032538  0.217430  0.217006  1
  Si  Si16  1  0.098507  0.071090  0.731896  1
  Si  Si17  1  0.901493  0.928910  0.268104  1
  Si  Si18  1  0.599079  0.730924  0.070918  1
  Si  Si19  1  0.400921  0.269076  0.929082  1
