# generated using pymatgen
data_Tb14Y2In6CoRh
_symmetry_space_group_name_H-M   'P 1'
_cell_length_a   10.46132300
_cell_length_b   10.46132370
_cell_length_c   7.05736400
_cell_angle_alpha   90.00000000
_cell_angle_beta   90.00000000
_cell_angle_gamma   120.00000093
_symmetry_Int_Tables_number   1
_chemical_formula_structural   Tb14Y2In6CoRh
_chemical_formula_sum   'Tb14 Y2 In6 Co1 Rh1'
_cell_volume   668.87720776
_cell_formula_units_Z   1
loop_
 _symmetry_equiv_pos_site_id
 _symmetry_equiv_pos_as_xyz
  1  'x, y, z'
loop_
 _atom_site_type_symbol
 _atom_site_label
 _atom_site_symmetry_multiplicity
 _atom_site_fract_x
 _atom_site_fract_y
 _atom_site_fract_z
 _atom_site_occupancy
  Tb  Tb0  1  0.466740  0.533260  0.481261  1
  Tb  Tb1  1  0.066519  0.533260  0.481261  1
  Tb  Tb2  1  0.466740  0.933481  0.481261  1
  Tb  Tb3  1  0.536177  0.463823  0.982282  1
  Tb  Tb4  1  0.927645  0.463823  0.982282  1
  Tb  Tb5  1  0.536177  0.072355  0.982282  1
  Tb  Tb6  1  0.822270  0.177730  0.274334  1
  Tb  Tb7  1  0.355460  0.177730  0.274334  1
  Tb  Tb8  1  0.822270  0.644540  0.274334  1
  Tb  Tb9  1  0.175701  0.824299  0.776134  1
  Tb  Tb10  1  0.648598  0.824299  0.776134  1
  Tb  Tb11  1  0.175701  0.351402  0.776134  1
  Tb  Tb12  1  0.333333  0.666667  0.101638  1
  Tb  Tb13  1  0.666667  0.333333  0.591404  1
  Y  Y14  1  0.000000  0.000000  0.494453  1
  Y  Y15  1  0.000000  0.000000  0.997507  1
  In  In16  1  0.162313  0.837687  0.234615  1
  In  In17  1  0.675373  0.837687  0.234615  1
  In  In18  1  0.162313  0.324627  0.234615  1
  In  In19  1  0.836683  0.163317  0.732868  1
  In  In20  1  0.326635  0.163317  0.732868  1
  In  In21  1  0.836683  0.673365  0.732868  1
  Co  Co22  1  0.666667  0.333333  0.207094  1
  Rh  Rh23  1  0.333333  0.666667  0.707974  1
