# generated using pymatgen
data_Eu8Zn2Si12NiRh
_symmetry_space_group_name_H-M   'P 1'
_cell_length_a   8.20830800
_cell_length_b   8.20830865
_cell_length_c   8.73883000
_cell_angle_alpha   90.00000000
_cell_angle_beta   90.00000000
_cell_angle_gamma   119.99999738
_symmetry_Int_Tables_number   1
_chemical_formula_structural   Eu8Zn2Si12NiRh
_chemical_formula_sum   'Eu8 Zn2 Si12 Ni1 Rh1'
_cell_volume   509.90733181
_cell_formula_units_Z   1
loop_
 _symmetry_equiv_pos_site_id
 _symmetry_equiv_pos_as_xyz
  1  'x, y, z'
loop_
 _atom_site_type_symbol
 _atom_site_label
 _atom_site_symmetry_multiplicity
 _atom_site_fract_x
 _atom_site_fract_y
 _atom_site_fract_z
 _atom_site_occupancy
  Eu  Eu0  1  0.000000  0.000000  0.251309  1
  Eu  Eu1  1  0.000000  0.000000  0.749029  1
  Eu  Eu2  1  0.495450  0.504550  0.249170  1
  Eu  Eu3  1  0.495450  0.990900  0.249170  1
  Eu  Eu4  1  0.009100  0.504550  0.249170  1
  Eu  Eu5  1  0.495538  0.504462  0.751086  1
  Eu  Eu6  1  0.495538  0.991075  0.751086  1
  Eu  Eu7  1  0.008925  0.504462  0.751086  1
  Zn  Zn8  1  0.666667  0.333333  0.494707  1
  Zn  Zn9  1  0.666667  0.333333  0.006787  1
  Si  Si10  1  0.172441  0.827559  0.500313  1
  Si  Si11  1  0.172441  0.344881  0.500313  1
  Si  Si12  1  0.655119  0.827559  0.500313  1
  Si  Si13  1  0.837087  0.162913  0.500778  1
  Si  Si14  1  0.837087  0.674173  0.500778  1
  Si  Si15  1  0.325827  0.162913  0.500778  1
  Si  Si16  1  0.837607  0.162393  0.999584  1
  Si  Si17  1  0.837607  0.675211  0.999584  1
  Si  Si18  1  0.324789  0.162393  0.999584  1
  Si  Si19  1  0.168589  0.831411  0.000321  1
  Si  Si20  1  0.168589  0.337179  0.000321  1
  Si  Si21  1  0.662821  0.831411  0.000321  1
  Ni  Ni22  1  0.333333  0.666667  0.492785  1
  Rh  Rh23  1  0.333333  0.666667  0.001629  1
