# generated using pymatgen
data_Sr3YbTaSbO9
_symmetry_space_group_name_H-M   'P 1'
_cell_length_a   5.91056305
_cell_length_b   5.91013026
_cell_length_c   14.90285355
_cell_angle_alpha   89.91765468
_cell_angle_beta   89.95866145
_cell_angle_gamma   60.00407439
_symmetry_Int_Tables_number   1
_chemical_formula_structural   Sr3YbTaSbO9
_chemical_formula_sum   'Sr6 Yb2 Ta2 Sb2 O18'
_cell_volume   450.86170914
_cell_formula_units_Z   2
loop_
 _symmetry_equiv_pos_site_id
 _symmetry_equiv_pos_as_xyz
  1  'x, y, z'
loop_
 _atom_site_type_symbol
 _atom_site_label
 _atom_site_symmetry_multiplicity
 _atom_site_fract_x
 _atom_site_fract_y
 _atom_site_fract_z
 _atom_site_occupancy
  Sr  Sr0  1  0.000084  0.999893  0.250075  1
  Sr  Sr1  1  0.666497  0.667727  0.374065  1
  Sr  Sr2  1  0.667387  0.664175  0.121019  1
  Sr  Sr3  1  0.332663  0.336238  0.888312  1
  Sr  Sr4  1  0.333392  0.332135  0.617693  1
  Sr  Sr5  1  0.999990  0.000086  0.750054  1
  Yb  Yb6  1  0.999956  0.999817  0.500067  1
  Yb  Yb7  1  0.000011  0.000266  0.999847  1
  Ta  Ta8  1  0.332871  0.334177  0.349380  1
  Ta  Ta9  1  0.334591  0.331205  0.149770  1
  Sb  Sb10  1  0.665583  0.668987  0.848371  1
  Sb  Sb11  1  0.666917  0.665665  0.652337  1
  O  O12  1  0.585630  0.959470  0.749932  1
  O  O13  1  0.913297  0.745027  0.593275  1
  O  O14  1  0.911342  0.749835  0.906824  1
  O  O15  1  0.340323  0.911510  0.593675  1
  O  O16  1  0.340184  0.915650  0.907339  1
  O  O17  1  0.958496  0.455186  0.750854  1
  O  O18  1  0.454788  0.585951  0.751094  1
  O  O19  1  0.259851  0.647631  0.090642  1
  O  O20  1  0.257052  0.655076  0.405159  1
  O  O21  1  0.747200  0.338242  0.594520  1
  O  O22  1  0.744614  0.346158  0.909433  1
  O  O23  1  0.549851  0.412654  0.248683  1
  O  O24  1  0.038116  0.549480  0.249071  1
  O  O25  1  0.653297  0.086599  0.092652  1
  O  O26  1  0.653323  0.090571  0.405885  1
  O  O27  1  0.090523  0.254574  0.093479  1
  O  O28  1  0.089041  0.259146  0.406528  1
  O  O29  1  0.413130  0.036866  0.249964  1
