# generated using pymatgen
data_Ti5AlSnBi
_symmetry_space_group_name_H-M   'P 1'
_cell_length_a   7.97309116
_cell_length_b   7.97309230
_cell_length_c   7.97309176
_cell_angle_alpha   96.18708441
_cell_angle_beta   96.24583811
_cell_angle_gamma   141.57570814
_symmetry_Int_Tables_number   1
_chemical_formula_structural   Ti5AlSnBi
_chemical_formula_sum   'Ti10 Al2 Sn2 Bi2'
_cell_volume   297.45441101
_cell_formula_units_Z   2
loop_
 _symmetry_equiv_pos_site_id
 _symmetry_equiv_pos_as_xyz
  1  'x, y, z'
loop_
 _atom_site_type_symbol
 _atom_site_label
 _atom_site_symmetry_multiplicity
 _atom_site_fract_x
 _atom_site_fract_y
 _atom_site_fract_z
 _atom_site_occupancy
  Ti  Ti0  1  0.211629  0.924483  0.136111  1
  Ti  Ti1  1  0.426388  0.715317  0.141705  1
  Ti  Ti2  1  0.074599  0.215266  0.289866  1
  Ti  Ti3  1  0.711629  0.575517  0.287146  1
  Ti  Ti4  1  0.756976  0.249999  0.506977  1
  Ti  Ti5  1  0.256976  0.749999  0.506977  1
  Ti  Ti6  1  0.281028  0.427323  0.708351  1
  Ti  Ti7  1  0.926388  0.784683  0.711071  1
  Ti  Ti8  1  0.781028  0.072677  0.853706  1
  Ti  Ti9  1  0.574598  0.284734  0.859332  1
  Al  Al10  1  0.248385  0.249999  0.998386  1
  Al  Al11  1  0.748385  0.749999  0.998386  1
  Sn  Sn12  1  0.665107  0.833951  0.499057  1
  Sn  Sn13  1  0.165107  0.666049  0.831157  1
  Bi  Bi14  1  0.835885  0.336669  0.172554  1
  Bi  Bi15  1  0.335885  0.163331  0.499215  1
