# generated using pymatgen
data_Dy7Y5Ni4
_symmetry_space_group_name_H-M   'P 1'
_cell_length_a   6.32557210
_cell_length_b   6.84790968
_cell_length_c   9.56953766
_cell_angle_alpha   89.94875889
_cell_angle_beta   90.11346765
_cell_angle_gamma   90.00139428
_symmetry_Int_Tables_number   1
_chemical_formula_structural   Dy7Y5Ni4
_chemical_formula_sum   'Dy7 Y5 Ni4'
_cell_volume   414.52217119
_cell_formula_units_Z   1
loop_
 _symmetry_equiv_pos_site_id
 _symmetry_equiv_pos_as_xyz
  1  'x, y, z'
loop_
 _atom_site_type_symbol
 _atom_site_label
 _atom_site_symmetry_multiplicity
 _atom_site_fract_x
 _atom_site_fract_y
 _atom_site_fract_z
 _atom_site_occupancy
  Dy  Dy0  1  0.322208  0.677901  0.066552  1
  Dy  Dy1  1  0.178009  0.178265  0.433523  1
  Dy  Dy2  1  0.677783  0.321869  0.566391  1
  Dy  Dy3  1  0.821798  0.821117  0.933394  1
  Dy  Dy4  1  0.678069  0.321659  0.933245  1
  Dy  Dy5  1  0.822161  0.821993  0.566341  1
  Dy  Dy6  1  0.322099  0.678268  0.433650  1
  Y  Y7  1  0.177103  0.177913  0.065437  1
  Y  Y8  1  0.858803  0.533805  0.249948  1
  Y  Y9  1  0.641349  0.033724  0.249767  1
  Y  Y10  1  0.141232  0.466641  0.749453  1
  Y  Y11  1  0.359158  0.966339  0.749501  1
  Ni  Ni12  1  0.057753  0.891032  0.251226  1
  Ni  Ni13  1  0.442059  0.392367  0.251689  1
  Ni  Ni14  1  0.941160  0.107959  0.750145  1
  Ni  Ni15  1  0.559256  0.609147  0.749737  1
