# generated using pymatgen
data_Dy4Re5Ru3
_symmetry_space_group_name_H-M   'P 1'
_cell_length_a   5.33108644
_cell_length_b   5.21780380
_cell_length_c   9.14616400
_cell_angle_alpha   90.00000000
_cell_angle_beta   90.00000000
_cell_angle_gamma   119.10369578
_symmetry_Int_Tables_number   1
_chemical_formula_structural   Dy4Re5Ru3
_chemical_formula_sum   'Dy4 Re5 Ru3'
_cell_volume   222.29264557
_cell_formula_units_Z   1
loop_
 _symmetry_equiv_pos_site_id
 _symmetry_equiv_pos_as_xyz
  1  'x, y, z'
loop_
 _atom_site_type_symbol
 _atom_site_label
 _atom_site_symmetry_multiplicity
 _atom_site_fract_x
 _atom_site_fract_y
 _atom_site_fract_z
 _atom_site_occupancy
  Dy  Dy0  1  0.669395  0.334949  0.562757  1
  Dy  Dy1  1  0.329061  0.664501  0.435894  1
  Dy  Dy2  1  0.329061  0.664501  0.064106  1
  Dy  Dy3  1  0.669395  0.334949  0.937243  1
  Re  Re4  1  0.171156  0.341129  0.750000  1
  Re  Re5  1  0.170891  0.831404  0.750000  1
  Re  Re6  1  0.656959  0.827725  0.750000  1
  Re  Re7  1  0.836790  0.663705  0.250000  1
  Re  Re8  1  0.836731  0.173186  0.250000  1
  Ru  Ru9  1  0.989258  0.994025  0.498053  1
  Ru  Ru10  1  0.989258  0.994025  0.001947  1
  Ru  Ru11  1  0.352046  0.175900  0.250000  1
