# generated using pymatgen
data_Tb5YbPrFeI12
_symmetry_space_group_name_H-M   'P 1'
_cell_length_a   9.87316575
_cell_length_b   9.81395140
_cell_length_c   9.80562993
_cell_angle_alpha   106.76218434
_cell_angle_beta   106.81280781
_cell_angle_gamma   107.30139070
_symmetry_Int_Tables_number   1
_chemical_formula_structural   Tb5YbPrFeI12
_chemical_formula_sum   'Tb5 Yb1 Pr1 Fe1 I12'
_cell_volume   792.13538287
_cell_formula_units_Z   1
loop_
 _symmetry_equiv_pos_site_id
 _symmetry_equiv_pos_as_xyz
  1  'x, y, z'
loop_
 _atom_site_type_symbol
 _atom_site_label
 _atom_site_symmetry_multiplicity
 _atom_site_fract_x
 _atom_site_fract_y
 _atom_site_fract_z
 _atom_site_occupancy
  Tb  Tb0  1  0.023758  0.091859  0.286585  1
  Tb  Tb1  1  0.301114  0.026098  0.097941  1
  Tb  Tb2  1  0.906559  0.713801  0.975725  1
  Tb  Tb3  1  0.975286  0.905026  0.713039  1
  Tb  Tb4  1  0.698237  0.973752  0.901926  1
  Yb  Yb5  1  0.500208  0.499772  0.500705  1
  Pr  Pr6  1  0.095478  0.295123  0.023975  1
  Fe  Fe7  1  0.000536  0.001429  0.000004  1
  I  I8  1  0.465522  0.379881  0.156375  1
  I  I9  1  0.154116  0.456881  0.387934  1
  I  I10  1  0.376439  0.150435  0.455528  1
  I  I11  1  0.544828  0.620565  0.849254  1
  I  I12  1  0.847723  0.544181  0.622558  1
  I  I13  1  0.623581  0.848643  0.544075  1
  I  I14  1  0.766300  0.315118  0.923814  1
  I  I15  1  0.926809  0.774860  0.315193  1
  I  I16  1  0.316289  0.926598  0.774757  1
  I  I17  1  0.223699  0.686249  0.073272  1
  I  I18  1  0.070245  0.217285  0.672439  1
  I  I19  1  0.683276  0.072444  0.224901  1
