# generated using pymatgen
data_Ti6BBr12
_symmetry_space_group_name_H-M   'P 1'
_cell_length_a   8.42611967
_cell_length_b   8.42611889
_cell_length_c   8.42611951
_cell_angle_alpha   106.87943691
_cell_angle_beta   106.87943523
_cell_angle_gamma   106.87943255
_symmetry_Int_Tables_number   1
_chemical_formula_structural   Ti6BBr12
_chemical_formula_sum   'Ti6 B1 Br12'
_cell_volume   499.85801579
_cell_formula_units_Z   1
loop_
 _symmetry_equiv_pos_site_id
 _symmetry_equiv_pos_as_xyz
  1  'x, y, z'
loop_
 _atom_site_type_symbol
 _atom_site_label
 _atom_site_symmetry_multiplicity
 _atom_site_fract_x
 _atom_site_fract_y
 _atom_site_fract_z
 _atom_site_occupancy
  Ti  Ti0  1  0.971166  0.724434  0.909099  1
  Ti  Ti1  1  0.275566  0.090901  0.028834  1
  Ti  Ti2  1  0.090901  0.028834  0.275566  1
  Ti  Ti3  1  0.909099  0.971166  0.724434  1
  Ti  Ti4  1  0.724434  0.909099  0.971166  1
  Ti  Ti5  1  0.028834  0.275566  0.090901  1
  B  B6  1  0.000000  0.000000  0.000000  1
  Br  Br7  1  0.923767  0.299960  0.782660  1
  Br  Br8  1  0.700040  0.217340  0.076233  1
  Br  Br9  1  0.430540  0.137406  0.358479  1
  Br  Br10  1  0.862594  0.641521  0.569460  1
  Br  Br11  1  0.217340  0.076233  0.700040  1
  Br  Br12  1  0.641521  0.569460  0.862594  1
  Br  Br13  1  0.358479  0.430540  0.137406  1
  Br  Br14  1  0.782660  0.923767  0.299960  1
  Br  Br15  1  0.137406  0.358479  0.430540  1
  Br  Br16  1  0.569460  0.862594  0.641521  1
  Br  Br17  1  0.299960  0.782660  0.923767  1
  Br  Br18  1  0.076233  0.700040  0.217340  1
