# generated using pymatgen
data_CeY(PSe)2
_symmetry_space_group_name_H-M   'P 1'
_cell_length_a   5.53375100
_cell_length_b   5.62444600
_cell_length_c   16.57090100
_cell_angle_alpha   90.00000000
_cell_angle_beta   90.00000000
_cell_angle_gamma   90.00000000
_symmetry_Int_Tables_number   1
_chemical_formula_structural   CeY(PSe)2
_chemical_formula_sum   'Ce4 Y4 P8 Se8'
_cell_volume   515.75742351
_cell_formula_units_Z   4
loop_
 _symmetry_equiv_pos_site_id
 _symmetry_equiv_pos_as_xyz
  1  'x, y, z'
loop_
 _atom_site_type_symbol
 _atom_site_label
 _atom_site_symmetry_multiplicity
 _atom_site_fract_x
 _atom_site_fract_y
 _atom_site_fract_z
 _atom_site_occupancy
  Ce  Ce0  1  0.750000  0.484952  0.626050  1
  Ce  Ce1  1  0.250000  0.015048  0.126050  1
  Ce  Ce2  1  0.750000  0.984952  0.873950  1
  Ce  Ce3  1  0.250000  0.515048  0.373950  1
  Y  Y4  1  0.750000  0.016894  0.359627  1
  Y  Y5  1  0.250000  0.483106  0.859627  1
  Y  Y6  1  0.750000  0.516894  0.140373  1
  Y  Y7  1  0.250000  0.983106  0.640373  1
  P  P8  1  0.536490  0.298966  0.002439  1
  P  P9  1  0.463510  0.201034  0.502439  1
  P  P10  1  0.963510  0.798966  0.497561  1
  P  P11  1  0.036490  0.701034  0.997561  1
  P  P12  1  0.463510  0.701034  0.997561  1
  P  P13  1  0.536490  0.798966  0.497561  1
  P  P14  1  0.036490  0.201034  0.502439  1
  P  P15  1  0.963510  0.298966  0.002439  1
  Se  Se16  1  0.750000  0.012269  0.181442  1
  Se  Se17  1  0.250000  0.487731  0.681442  1
  Se  Se18  1  0.750000  0.512269  0.318558  1
  Se  Se19  1  0.250000  0.987731  0.818558  1
  Se  Se20  1  0.750000  0.486960  0.811381  1
  Se  Se21  1  0.250000  0.013040  0.311381  1
  Se  Se22  1  0.750000  0.986960  0.688619  1
  Se  Se23  1  0.250000  0.513040  0.188619  1
