# generated using pymatgen
data_Y5ThOsRh
_symmetry_space_group_name_H-M   'P 1'
_cell_length_a   6.41951014
_cell_length_b   7.31464966
_cell_length_c   9.43777400
_cell_angle_alpha   90.00000000
_cell_angle_beta   90.00000000
_cell_angle_gamma   88.62459417
_symmetry_Int_Tables_number   1
_chemical_formula_structural   Y5ThOsRh
_chemical_formula_sum   'Y10 Th2 Os2 Rh2'
_cell_volume   443.03684783
_cell_formula_units_Z   2
loop_
 _symmetry_equiv_pos_site_id
 _symmetry_equiv_pos_as_xyz
  1  'x, y, z'
loop_
 _atom_site_type_symbol
 _atom_site_label
 _atom_site_symmetry_multiplicity
 _atom_site_fract_x
 _atom_site_fract_y
 _atom_site_fract_z
 _atom_site_occupancy
  Y  Y0  1  0.132824  0.468705  0.750000  1
  Y  Y1  1  0.867176  0.531295  0.250000  1
  Y  Y2  1  0.171565  0.176021  0.064215  1
  Y  Y3  1  0.828435  0.823979  0.935785  1
  Y  Y4  1  0.666339  0.327091  0.935321  1
  Y  Y5  1  0.828435  0.823979  0.564215  1
  Y  Y6  1  0.333661  0.672909  0.064679  1
  Y  Y7  1  0.171565  0.176021  0.435785  1
  Y  Y8  1  0.333661  0.672909  0.435321  1
  Y  Y9  1  0.666339  0.327091  0.564679  1
  Th  Th10  1  0.651956  0.053801  0.250000  1
  Th  Th11  1  0.348044  0.946199  0.750000  1
  Os  Os12  1  0.454657  0.373115  0.250000  1
  Os  Os13  1  0.545343  0.626885  0.750000  1
  Rh  Rh14  1  0.964918  0.118094  0.750000  1
  Rh  Rh15  1  0.035082  0.881906  0.250000  1
