# generated using pymatgen
data_Ni3MoP2
_symmetry_space_group_name_H-M   'P 1'
_cell_length_a   5.79751000
_cell_length_b   3.58003400
_cell_length_c   6.82305000
_cell_angle_alpha   90.00000000
_cell_angle_beta   90.00000000
_cell_angle_gamma   90.00000000
_symmetry_Int_Tables_number   1
_chemical_formula_structural   Ni3MoP2
_chemical_formula_sum   'Ni6 Mo2 P4'
_cell_volume   141.61433310
_cell_formula_units_Z   2
loop_
 _symmetry_equiv_pos_site_id
 _symmetry_equiv_pos_as_xyz
  1  'x, y, z'
loop_
 _atom_site_type_symbol
 _atom_site_label
 _atom_site_symmetry_multiplicity
 _atom_site_fract_x
 _atom_site_fract_y
 _atom_site_fract_z
 _atom_site_occupancy
  Ni  Ni0  1  0.969371  0.750000  0.841906  1
  Ni  Ni1  1  0.469371  0.750000  0.658094  1
  Ni  Ni2  1  0.141089  0.250000  0.576254  1
  Ni  Ni3  1  0.641089  0.250000  0.923746  1
  Ni  Ni4  1  0.863400  0.750000  0.446451  1
  Ni  Ni5  1  0.363400  0.750000  0.053549  1
  Mo  Mo6  1  0.031152  0.250000  0.175518  1
  Mo  Mo7  1  0.531152  0.250000  0.324482  1
  P  P8  1  0.752443  0.250000  0.622739  1
  P  P9  1  0.252443  0.250000  0.877261  1
  P  P10  1  0.242546  0.750000  0.379312  1
  P  P11  1  0.742546  0.750000  0.120688  1
