# generated using pymatgen
data_Er2Th3P12Ru19
_symmetry_space_group_name_H-M   'P 1'
_cell_length_a   12.61376700
_cell_length_b   12.61376754
_cell_length_c   4.00065000
_cell_angle_alpha   90.00000000
_cell_angle_beta   90.00000000
_cell_angle_gamma   120.00000119
_symmetry_Int_Tables_number   1
_chemical_formula_structural   Er2Th3P12Ru19
_chemical_formula_sum   'Er2 Th3 P12 Ru19'
_cell_volume   551.25280541
_cell_formula_units_Z   1
loop_
 _symmetry_equiv_pos_site_id
 _symmetry_equiv_pos_as_xyz
  1  'x, y, z'
loop_
 _atom_site_type_symbol
 _atom_site_label
 _atom_site_symmetry_multiplicity
 _atom_site_fract_x
 _atom_site_fract_y
 _atom_site_fract_z
 _atom_site_occupancy
  Er  Er0  1  0.333333  0.666667  0.000000  1
  Er  Er1  1  0.666667  0.333333  0.000000  1
  Th  Th2  1  0.185934  0.185934  0.500000  1
  Th  Th3  1  0.814066  0.000000  0.500000  1
  Th  Th4  1  0.000000  0.814066  0.500000  1
  P  P5  1  0.810930  0.810930  0.000000  1
  P  P6  1  0.189070  0.000000  0.000000  1
  P  P7  1  0.000000  0.189070  0.000000  1
  P  P8  1  0.174998  0.480263  0.500000  1
  P  P9  1  0.519737  0.694736  0.500000  1
  P  P10  1  0.305264  0.825002  0.500000  1
  P  P11  1  0.694736  0.519737  0.500000  1
  P  P12  1  0.825002  0.305264  0.500000  1
  P  P13  1  0.480263  0.174998  0.500000  1
  P  P14  1  0.375502  0.375502  0.000000  1
  P  P15  1  0.624498  0.000000  0.000000  1
  P  P16  1  0.000000  0.624498  0.000000  1
  Ru  Ru17  1  0.554903  0.554903  0.000000  1
  Ru  Ru18  1  0.445097  0.000000  0.000000  1
  Ru  Ru19  1  0.000000  0.445097  0.000000  1
  Ru  Ru20  1  0.712810  0.712810  0.500000  1
  Ru  Ru21  1  0.287190  0.000000  0.500000  1
  Ru  Ru22  1  0.000000  0.287190  0.500000  1
  Ru  Ru23  1  0.185179  0.379480  0.000000  1
  Ru  Ru24  1  0.620520  0.805699  0.000000  1
  Ru  Ru25  1  0.194301  0.814821  0.000000  1
  Ru  Ru26  1  0.805699  0.620520  0.000000  1
  Ru  Ru27  1  0.814821  0.194301  0.000000  1
  Ru  Ru28  1  0.379480  0.185179  0.000000  1
  Ru  Ru29  1  0.367300  0.493429  0.500000  1
  Ru  Ru30  1  0.506571  0.873871  0.500000  1
  Ru  Ru31  1  0.126129  0.632700  0.500000  1
  Ru  Ru32  1  0.873871  0.506571  0.500000  1
  Ru  Ru33  1  0.632700  0.126129  0.500000  1
  Ru  Ru34  1  0.493429  0.367300  0.500000  1
  Ru  Ru35  1  0.000000  0.000000  0.000000  1
