# generated using pymatgen
data_Dy9Er(GaSb)4
_symmetry_space_group_name_H-M   'P 1'
_cell_length_a   8.63094580
_cell_length_b   8.63094525
_cell_length_c   7.92472176
_cell_angle_alpha   89.96498951
_cell_angle_beta   89.96498820
_cell_angle_gamma   125.37013886
_symmetry_Int_Tables_number   1
_chemical_formula_structural   Dy9Er(GaSb)4
_chemical_formula_sum   'Dy9 Er1 Ga4 Sb4'
_cell_volume   481.37868529
_cell_formula_units_Z   1
loop_
 _symmetry_equiv_pos_site_id
 _symmetry_equiv_pos_as_xyz
  1  'x, y, z'
loop_
 _atom_site_type_symbol
 _atom_site_label
 _atom_site_symmetry_multiplicity
 _atom_site_fract_x
 _atom_site_fract_y
 _atom_site_fract_z
 _atom_site_occupancy
  Dy  Dy0  1  0.039289  0.300781  0.332452  1
  Dy  Dy1  1  0.960711  0.699219  0.667548  1
  Dy  Dy2  1  0.461245  0.200001  0.832062  1
  Dy  Dy3  1  0.799999  0.538755  0.167938  1
  Dy  Dy4  1  0.538755  0.799999  0.167938  1
  Dy  Dy5  1  0.200001  0.461245  0.832062  1
  Dy  Dy6  1  0.699219  0.960711  0.667548  1
  Dy  Dy7  1  0.300781  0.039289  0.332452  1
  Dy  Dy8  1  0.000000  0.000000  0.000000  1
  Er  Er9  1  0.500000  0.500000  0.500000  1
  Ga  Ga10  1  0.375443  0.375443  0.125304  1
  Ga  Ga11  1  0.624557  0.624557  0.874696  1
  Ga  Ga12  1  0.125729  0.125729  0.624121  1
  Ga  Ga13  1  0.874271  0.874271  0.375879  1
  Sb  Sb14  1  0.794712  0.205288  0.000000  1
  Sb  Sb15  1  0.205288  0.794712  0.000000  1
  Sb  Sb16  1  0.704492  0.295508  0.500000  1
  Sb  Sb17  1  0.295508  0.704492  0.500000  1
