# generated using pymatgen
data_KSrTaS4
_symmetry_space_group_name_H-M   'P 1'
_cell_length_a   6.98484700
_cell_length_b   8.85851800
_cell_length_c   13.27015500
_cell_angle_alpha   90.00000000
_cell_angle_beta   90.00000000
_cell_angle_gamma   90.00000000
_symmetry_Int_Tables_number   1
_chemical_formula_structural   KSrTaS4
_chemical_formula_sum   'K4 Sr4 Ta4 S16'
_cell_volume   821.09605416
_cell_formula_units_Z   4
loop_
 _symmetry_equiv_pos_site_id
 _symmetry_equiv_pos_as_xyz
  1  'x, y, z'
loop_
 _atom_site_type_symbol
 _atom_site_label
 _atom_site_symmetry_multiplicity
 _atom_site_fract_x
 _atom_site_fract_y
 _atom_site_fract_z
 _atom_site_occupancy
  K  K0  1  0.250000  0.380247  0.102132  1
  K  K1  1  0.750000  0.880247  0.397868  1
  K  K2  1  0.250000  0.119752  0.602132  1
  K  K3  1  0.750000  0.619752  0.897869  1
  Sr  Sr4  1  0.250000  0.890300  0.143689  1
  Sr  Sr5  1  0.750000  0.390299  0.356311  1
  Sr  Sr6  1  0.250000  0.609701  0.643688  1
  Sr  Sr7  1  0.750000  0.109702  0.856312  1
  Ta  Ta8  1  0.750000  0.123158  0.139152  1
  Ta  Ta9  1  0.250000  0.623159  0.360849  1
  Ta  Ta10  1  0.750000  0.376841  0.639151  1
  Ta  Ta11  1  0.250000  0.876842  0.860849  1
  S  S12  1  0.750000  0.325129  0.032779  1
  S  S13  1  0.750000  0.907449  0.047174  1
  S  S14  1  0.505841  0.636196  0.253878  1
  S  S15  1  0.994162  0.636196  0.253878  1
  S  S16  1  0.005838  0.136195  0.246122  1
  S  S17  1  0.494160  0.136195  0.246122  1
  S  S18  1  0.250000  0.407449  0.452827  1
  S  S19  1  0.250000  0.825128  0.467221  1
  S  S20  1  0.750000  0.174873  0.532778  1
  S  S21  1  0.750000  0.592551  0.547173  1
  S  S22  1  0.505841  0.863804  0.753878  1
  S  S23  1  0.994162  0.863804  0.753878  1
  S  S24  1  0.005838  0.363804  0.746122  1
  S  S25  1  0.494160  0.363804  0.746122  1
  S  S26  1  0.250000  0.092552  0.952825  1
  S  S27  1  0.250000  0.674871  0.967221  1
