# generated using pymatgen
data_Tb10ErIn9Co4
_symmetry_space_group_name_H-M   'P 1'
_cell_length_a   12.95300699
_cell_length_b   12.95300767
_cell_length_c   3.64487600
_cell_angle_alpha   90.00000000
_cell_angle_beta   90.00000000
_cell_angle_gamma   111.10665956
_symmetry_Int_Tables_number   1
_chemical_formula_structural   Tb10ErIn9Co4
_chemical_formula_sum   'Tb10 Er1 In9 Co4'
_cell_volume   570.51164543
_cell_formula_units_Z   1
loop_
 _symmetry_equiv_pos_site_id
 _symmetry_equiv_pos_as_xyz
  1  'x, y, z'
loop_
 _atom_site_type_symbol
 _atom_site_label
 _atom_site_symmetry_multiplicity
 _atom_site_fract_x
 _atom_site_fract_y
 _atom_site_fract_z
 _atom_site_occupancy
  Tb  Tb0  1  0.419152  0.081444  0.000000  1
  Tb  Tb1  1  0.581132  0.918273  0.000000  1
  Tb  Tb2  1  0.081444  0.419152  0.000000  1
  Tb  Tb3  1  0.918273  0.581132  0.000000  1
  Tb  Tb4  1  0.160683  0.839310  0.000000  1
  Tb  Tb5  1  0.839310  0.160683  0.000000  1
  Tb  Tb6  1  0.375957  0.624375  0.000000  1
  Tb  Tb7  1  0.624375  0.375957  0.000000  1
  Tb  Tb8  1  0.314937  0.314937  0.000000  1
  Tb  Tb9  1  0.000032  0.000032  0.000000  1
  Er  Er10  1  0.685077  0.685077  0.000000  1
  In  In11  1  0.368724  0.839166  0.500000  1
  In  In12  1  0.631381  0.160853  0.500000  1
  In  In13  1  0.839166  0.368724  0.500000  1
  In  In14  1  0.160853  0.631381  0.500000  1
  In  In15  1  0.220987  0.079720  0.500000  1
  In  In16  1  0.778628  0.919128  0.500000  1
  In  In17  1  0.079720  0.220987  0.500000  1
  In  In18  1  0.919128  0.778628  0.500000  1
  In  In19  1  0.500926  0.500926  0.500000  1
  Co  Co20  1  0.449513  0.246050  0.500000  1
  Co  Co21  1  0.551151  0.753400  0.500000  1
  Co  Co22  1  0.246050  0.449513  0.500000  1
  Co  Co23  1  0.753400  0.551151  0.500000  1
