# generated using pymatgen
data_NaScV3Ni9As7
_symmetry_space_group_name_H-M   'P 1'
_cell_length_a   9.45382600
_cell_length_b   9.45382559
_cell_length_c   3.72102300
_cell_angle_alpha   90.00000000
_cell_angle_beta   90.00000000
_cell_angle_gamma   120.00000145
_symmetry_Int_Tables_number   1
_chemical_formula_structural   NaScV3Ni9As7
_chemical_formula_sum   'Na1 Sc1 V3 Ni9 As7'
_cell_volume   288.01039993
_cell_formula_units_Z   1
loop_
 _symmetry_equiv_pos_site_id
 _symmetry_equiv_pos_as_xyz
  1  'x, y, z'
loop_
 _atom_site_type_symbol
 _atom_site_label
 _atom_site_symmetry_multiplicity
 _atom_site_fract_x
 _atom_site_fract_y
 _atom_site_fract_z
 _atom_site_occupancy
  Na  Na0  1  0.333333  0.666667  0.000000  1
  Sc  Sc1  1  0.666667  0.333333  0.500000  1
  V  V2  1  0.218879  0.121170  0.500000  1
  V  V3  1  0.878830  0.097710  0.500000  1
  V  V4  1  0.902290  0.781121  0.500000  1
  Ni  Ni5  1  0.122335  0.280846  0.000000  1
  Ni  Ni6  1  0.719154  0.841490  0.000000  1
  Ni  Ni7  1  0.158510  0.877665  0.000000  1
  Ni  Ni8  1  0.432570  0.372239  0.000000  1
  Ni  Ni9  1  0.627761  0.060331  0.000000  1
  Ni  Ni10  1  0.939669  0.567430  0.000000  1
  Ni  Ni11  1  0.048123  0.432088  0.500000  1
  Ni  Ni12  1  0.567912  0.616035  0.500000  1
  Ni  Ni13  1  0.383965  0.951877  0.500000  1
  As  As14  1  0.292305  0.412344  0.500000  1
  As  As15  1  0.587656  0.879960  0.500000  1
  As  As16  1  0.120040  0.707695  0.500000  1
  As  As17  1  0.415367  0.121698  0.000000  1
  As  As18  1  0.878302  0.293669  0.000000  1
  As  As19  1  0.706331  0.584633  0.000000  1
  As  As20  1  0.000000  0.000000  0.000000  1
