# generated using pymatgen
data_Ho7Lu3(GaCo5)2
_symmetry_space_group_name_H-M   'P 1'
_cell_length_a   5.40955140
_cell_length_b   5.40955129
_cell_length_c   20.41541022
_cell_angle_alpha   90.05980646
_cell_angle_beta   89.94019335
_cell_angle_gamma   136.47017812
_symmetry_Int_Tables_number   1
_chemical_formula_structural   Ho7Lu3(GaCo5)2
_chemical_formula_sum   'Ho7 Lu3 Ga2 Co10'
_cell_volume   411.46283509
_cell_formula_units_Z   1
loop_
 _symmetry_equiv_pos_site_id
 _symmetry_equiv_pos_as_xyz
  1  'x, y, z'
loop_
 _atom_site_type_symbol
 _atom_site_label
 _atom_site_symmetry_multiplicity
 _atom_site_fract_x
 _atom_site_fract_y
 _atom_site_fract_z
 _atom_site_occupancy
  Ho  Ho0  1  0.997327  0.002673  0.842528  1
  Ho  Ho1  1  0.707633  0.292367  0.565927  1
  Ho  Ho2  1  0.002850  0.997150  0.341557  1
  Ho  Ho3  1  0.997572  0.002428  0.657882  1
  Ho  Ho4  1  0.707574  0.292426  0.935233  1
  Ho  Ho5  1  0.002026  0.997974  0.157136  1
  Ho  Ho6  1  0.292703  0.707297  0.433724  1
  Lu  Lu7  1  0.289705  0.710295  0.249421  1
  Lu  Lu8  1  0.292159  0.707841  0.066237  1
  Lu  Lu9  1  0.710204  0.289796  0.750286  1
  Ga  Ga10  1  0.000357  0.999643  0.499629  1
  Ga  Ga11  1  0.999070  0.000930  0.000696  1
  Co  Co12  1  0.291459  0.708541  0.654961  1
  Co  Co13  1  0.583389  0.416611  0.440986  1
  Co  Co14  1  0.410470  0.589530  0.750171  1
  Co  Co15  1  0.414849  0.585151  0.942627  1
  Co  Co16  1  0.589625  0.410375  0.249274  1
  Co  Co17  1  0.416762  0.583238  0.558589  1
  Co  Co18  1  0.708842  0.291158  0.344629  1
  Co  Co19  1  0.709738  0.290262  0.153876  1
  Co  Co20  1  0.583728  0.416272  0.059091  1
  Co  Co21  1  0.291958  0.708042  0.845541  1
