# generated using pymatgen
data_PrY2RuO7
_symmetry_space_group_name_H-M   'P 1'
_cell_length_a   6.47678659
_cell_length_b   6.47678570
_cell_length_c   7.53592500
_cell_angle_alpha   90.00000000
_cell_angle_beta   90.00000000
_cell_angle_gamma   110.20617000
_symmetry_Int_Tables_number   1
_chemical_formula_structural   PrY2RuO7
_chemical_formula_sum   'Pr2 Y4 Ru2 O14'
_cell_volume   296.66719197
_cell_formula_units_Z   2
loop_
 _symmetry_equiv_pos_site_id
 _symmetry_equiv_pos_as_xyz
  1  'x, y, z'
loop_
 _atom_site_type_symbol
 _atom_site_label
 _atom_site_symmetry_multiplicity
 _atom_site_fract_x
 _atom_site_fract_y
 _atom_site_fract_z
 _atom_site_occupancy
  Pr  Pr0  1  0.000000  0.000000  0.500000  1
  Pr  Pr1  1  0.000000  0.000000  0.000000  1
  Y  Y2  1  0.481832  0.930968  0.750000  1
  Y  Y3  1  0.518168  0.069032  0.250000  1
  Y  Y4  1  0.930968  0.481832  0.750000  1
  Y  Y5  1  0.069032  0.518168  0.250000  1
  Ru  Ru6  1  0.500000  0.500000  0.500000  1
  Ru  Ru7  1  0.500000  0.500000  0.000000  1
  O  O8  1  0.587951  0.587951  0.750000  1
  O  O9  1  0.412049  0.412049  0.250000  1
  O  O10  1  0.837571  0.117977  0.750000  1
  O  O11  1  0.162429  0.882023  0.250000  1
  O  O12  1  0.117977  0.837571  0.750000  1
  O  O13  1  0.882023  0.162429  0.250000  1
  O  O14  1  0.440348  0.182799  0.963665  1
  O  O15  1  0.559652  0.817201  0.463665  1
  O  O16  1  0.182799  0.440348  0.963665  1
  O  O17  1  0.817201  0.559652  0.463665  1
  O  O18  1  0.440348  0.182799  0.536335  1
  O  O19  1  0.559652  0.817201  0.036335  1
  O  O20  1  0.817201  0.559652  0.036335  1
  O  O21  1  0.182799  0.440348  0.536335  1
