# generated using pymatgen
data_BaCd10Pt
_symmetry_space_group_name_H-M   'P 1'
_cell_length_a   9.47644237
_cell_length_b   9.47644234
_cell_length_c   9.47772596
_cell_angle_alpha   99.73672173
_cell_angle_beta   99.73672276
_cell_angle_gamma   132.09190362
_symmetry_Int_Tables_number   1
_chemical_formula_structural   BaCd10Pt
_chemical_formula_sum   'Ba2 Cd20 Pt2'
_cell_volume   574.19270589
_cell_formula_units_Z   2
loop_
 _symmetry_equiv_pos_site_id
 _symmetry_equiv_pos_as_xyz
  1  'x, y, z'
loop_
 _atom_site_type_symbol
 _atom_site_label
 _atom_site_symmetry_multiplicity
 _atom_site_fract_x
 _atom_site_fract_y
 _atom_site_fract_z
 _atom_site_occupancy
  Ba  Ba0  1  0.749344  0.250656  0.500000  1
  Ba  Ba1  1  0.500656  0.499344  0.000000  1
  Cd  Cd2  1  0.927157  0.018259  0.327926  1
  Cd  Cd3  1  0.681782  0.612224  0.681011  1
  Cd  Cd4  1  0.259350  0.740650  0.500000  1
  Cd  Cd5  1  0.990650  0.009350  0.000000  1
  Cd  Cd6  1  0.125000  0.875000  0.250000  1
  Cd  Cd7  1  0.125000  0.875000  0.750000  1
  Cd  Cd8  1  0.923497  0.595153  0.914434  1
  Cd  Cd9  1  0.862224  0.431782  0.181011  1
  Cd  Cd10  1  0.268259  0.677157  0.827926  1
  Cd  Cd11  1  0.688967  0.009407  0.076729  1
  Cd  Cd12  1  0.404847  0.076503  0.085566  1
  Cd  Cd13  1  0.990593  0.311033  0.923271  1
  Cd  Cd14  1  0.568218  0.137776  0.818989  1
  Cd  Cd15  1  0.322843  0.731741  0.172074  1
  Cd  Cd16  1  0.326503  0.154847  0.585566  1
  Cd  Cd17  1  0.387776  0.318218  0.318989  1
  Cd  Cd18  1  0.981741  0.072843  0.672074  1
  Cd  Cd19  1  0.561033  0.740593  0.423271  1
  Cd  Cd20  1  0.845153  0.673497  0.414434  1
  Cd  Cd21  1  0.259407  0.438967  0.576729  1
  Pt  Pt22  1  0.125000  0.375000  0.250000  1
  Pt  Pt23  1  0.625000  0.875000  0.750000  1
