# generated using pymatgen
data_Tm3Zn3IrPd2
_symmetry_space_group_name_H-M   'P 1'
_cell_length_a   7.21299100
_cell_length_b   7.21299037
_cell_length_c   3.83514300
_cell_angle_alpha   90.00000000
_cell_angle_beta   90.00000000
_cell_angle_gamma   119.99999832
_symmetry_Int_Tables_number   1
_chemical_formula_structural   Tm3Zn3IrPd2
_chemical_formula_sum   'Tm3 Zn3 Ir1 Pd2'
_cell_volume   172.79968382
_cell_formula_units_Z   1
loop_
 _symmetry_equiv_pos_site_id
 _symmetry_equiv_pos_as_xyz
  1  'x, y, z'
loop_
 _atom_site_type_symbol
 _atom_site_label
 _atom_site_symmetry_multiplicity
 _atom_site_fract_x
 _atom_site_fract_y
 _atom_site_fract_z
 _atom_site_occupancy
  Tm  Tm0  1  0.411447  0.399954  0.000000  1
  Tm  Tm1  1  0.600046  0.011493  0.000000  1
  Tm  Tm2  1  0.988507  0.588553  0.000000  1
  Zn  Zn3  1  0.744762  0.743573  0.500000  1
  Zn  Zn4  1  0.256427  0.001189  0.500000  1
  Zn  Zn5  1  0.998811  0.255238  0.500000  1
  Ir  Ir6  1  0.666667  0.333333  0.500000  1
  Pd  Pd7  1  0.000000  0.000000  0.000000  1
  Pd  Pd8  1  0.333333  0.666667  0.500000  1
