# generated using pymatgen
data_Y3Ho13(TmPb4)4
_symmetry_space_group_name_H-M   'P 1'
_cell_length_a   8.17936667
_cell_length_b   8.25357095
_cell_length_c   15.59868600
_cell_angle_alpha   90.00238803
_cell_angle_beta   90.03657968
_cell_angle_gamma   89.97255700
_symmetry_Int_Tables_number   1
_chemical_formula_structural   Y3Ho13(TmPb4)4
_chemical_formula_sum   'Y3 Ho13 Tm4 Pb16'
_cell_volume   1053.05109392
_cell_formula_units_Z   1
loop_
 _symmetry_equiv_pos_site_id
 _symmetry_equiv_pos_as_xyz
  1  'x, y, z'
loop_
 _atom_site_type_symbol
 _atom_site_label
 _atom_site_symmetry_multiplicity
 _atom_site_fract_x
 _atom_site_fract_y
 _atom_site_fract_z
 _atom_site_occupancy
  Y  Y0  1  0.963572  0.823077  0.400315  1
  Y  Y1  1  0.536176  0.323090  0.599451  1
  Y  Y2  1  0.036666  0.176713  0.900543  1
  Ho  Ho3  1  0.376921  0.841552  0.878830  1
  Ho  Ho4  1  0.876585  0.658382  0.621341  1
  Ho  Ho5  1  0.623371  0.158267  0.378724  1
  Ho  Ho6  1  0.123263  0.341633  0.121099  1
  Ho  Ho7  1  0.623154  0.158353  0.121057  1
  Ho  Ho8  1  0.123292  0.341651  0.378873  1
  Ho  Ho9  1  0.376770  0.841658  0.621308  1
  Ho  Ho10  1  0.877068  0.658433  0.878802  1
  Ho  Ho11  1  0.536940  0.323925  0.899983  1
  Ho  Ho12  1  0.036766  0.176273  0.600008  1
  Ho  Ho13  1  0.463365  0.676323  0.400238  1
  Ho  Ho14  1  0.963138  0.823689  0.099832  1
  Ho  Ho15  1  0.463266  0.676240  0.099633  1
  Tm  Tm16  1  0.208303  0.504576  0.750052  1
  Tm  Tm17  1  0.708264  0.995428  0.750067  1
  Tm  Tm18  1  0.791600  0.495536  0.249840  1
  Tm  Tm19  1  0.291781  0.004542  0.249914  1
  Pb  Pb20  1  0.281486  0.032575  0.043408  1
  Pb  Pb21  1  0.781292  0.466840  0.456680  1
  Pb  Pb22  1  0.718694  0.966887  0.543367  1
  Pb  Pb23  1  0.219189  0.533482  0.956964  1
  Pb  Pb24  1  0.717907  0.966045  0.957090  1
  Pb  Pb25  1  0.217688  0.534255  0.542927  1
  Pb  Pb26  1  0.282397  0.034197  0.457230  1
  Pb  Pb27  1  0.781315  0.466672  0.042913  1
  Pb  Pb28  1  0.571425  0.626268  0.750064  1
  Pb  Pb29  1  0.071317  0.873650  0.750024  1
  Pb  Pb30  1  0.428510  0.374182  0.249936  1
  Pb  Pb31  1  0.928577  0.125997  0.249969  1
  Pb  Pb32  1  0.348404  0.154822  0.750273  1
  Pb  Pb33  1  0.848448  0.345171  0.749732  1
  Pb  Pb34  1  0.651180  0.844720  0.249874  1
  Pb  Pb35  1  0.151912  0.654897  0.249638  1
