# generated using pymatgen
data_NbPd3(SeO3)8
_symmetry_space_group_name_H-M   'P 1'
_cell_length_a   8.17941553
_cell_length_b   8.17941451
_cell_length_c   8.17941544
_cell_angle_alpha   90.27874159
_cell_angle_beta   89.72125768
_cell_angle_gamma   90.27874014
_symmetry_Int_Tables_number   1
_chemical_formula_structural   NbPd3(SeO3)8
_chemical_formula_sum   'Nb1 Pd3 Se8 O24'
_cell_volume   547.20667741
_cell_formula_units_Z   1
loop_
 _symmetry_equiv_pos_site_id
 _symmetry_equiv_pos_as_xyz
  1  'x, y, z'
loop_
 _atom_site_type_symbol
 _atom_site_label
 _atom_site_symmetry_multiplicity
 _atom_site_fract_x
 _atom_site_fract_y
 _atom_site_fract_z
 _atom_site_occupancy
  Nb  Nb0  1  0.000000  0.500000  0.500000  1
  Pd  Pd1  1  0.500000  0.500000  0.000000  1
  Pd  Pd2  1  0.500000  0.000000  0.500000  1
  Pd  Pd3  1  0.000000  0.000000  0.000000  1
  Se  Se4  1  0.823141  0.144898  0.680042  1
  Se  Se5  1  0.176859  0.855102  0.319958  1
  Se  Se6  1  0.644898  0.680042  0.676859  1
  Se  Se7  1  0.180042  0.676859  0.855102  1
  Se  Se8  1  0.338563  0.161437  0.838563  1
  Se  Se9  1  0.819958  0.323141  0.144898  1
  Se  Se10  1  0.661437  0.838563  0.161437  1
  Se  Se11  1  0.355102  0.319958  0.323141  1
  O  O12  1  0.233837  0.443928  0.450919  1
  O  O13  1  0.971077  0.248560  0.013625  1
  O  O14  1  0.049081  0.733837  0.443928  1
  O  O15  1  0.472658  0.250381  0.979372  1
  O  O16  1  0.251440  0.986375  0.471077  1
  O  O17  1  0.513625  0.528923  0.751440  1
  O  O18  1  0.973334  0.014144  0.752321  1
  O  O19  1  0.527342  0.749619  0.020628  1
  O  O20  1  0.520628  0.972658  0.250381  1
  O  O21  1  0.479372  0.027342  0.749619  1
  O  O22  1  0.750381  0.979372  0.027342  1
  O  O23  1  0.252321  0.526666  0.985856  1
  O  O24  1  0.056072  0.549081  0.733837  1
  O  O25  1  0.026666  0.985856  0.247679  1
  O  O26  1  0.249619  0.020628  0.972658  1
  O  O27  1  0.486375  0.471077  0.248560  1
  O  O28  1  0.766163  0.556072  0.549081  1
  O  O29  1  0.943928  0.450919  0.266163  1
  O  O30  1  0.028923  0.751440  0.986375  1
  O  O31  1  0.485856  0.247679  0.473334  1
  O  O32  1  0.514144  0.752321  0.526666  1
  O  O33  1  0.950919  0.266163  0.556072  1
  O  O34  1  0.748560  0.013625  0.528923  1
  O  O35  1  0.747679  0.473334  0.014144  1
