# generated using pymatgen
data_Dy5Lu3(P3Rh4)4
_symmetry_space_group_name_H-M   'P 1'
_cell_length_a   12.93557300
_cell_length_b   12.93557290
_cell_length_c   3.94457900
_cell_angle_alpha   90.00000000
_cell_angle_beta   90.00000000
_cell_angle_gamma   119.99999771
_symmetry_Int_Tables_number   1
_chemical_formula_structural   Dy5Lu3(P3Rh4)4
_chemical_formula_sum   'Dy5 Lu3 P12 Rh16'
_cell_volume   571.61371298
_cell_formula_units_Z   1
loop_
 _symmetry_equiv_pos_site_id
 _symmetry_equiv_pos_as_xyz
  1  'x, y, z'
loop_
 _atom_site_type_symbol
 _atom_site_label
 _atom_site_symmetry_multiplicity
 _atom_site_fract_x
 _atom_site_fract_y
 _atom_site_fract_z
 _atom_site_occupancy
  Dy  Dy0  1  0.333333  0.666667  0.500000  1
  Dy  Dy1  1  0.666667  0.333333  0.500000  1
  Dy  Dy2  1  0.000000  0.813457  0.000000  1
  Dy  Dy3  1  0.186543  0.186543  0.000000  1
  Dy  Dy4  1  0.813457  0.000000  0.000000  1
  Lu  Lu5  1  0.000000  0.444615  0.500000  1
  Lu  Lu6  1  0.555385  0.555385  0.500000  1
  Lu  Lu7  1  0.444615  0.000000  0.500000  1
  P  P8  1  0.000000  0.650554  0.500000  1
  P  P9  1  0.349446  0.349446  0.500000  1
  P  P10  1  0.650554  0.000000  0.500000  1
  P  P11  1  0.516841  0.689136  0.000000  1
  P  P12  1  0.310864  0.827707  0.000000  1
  P  P13  1  0.172293  0.483159  0.000000  1
  P  P14  1  0.483159  0.172293  0.000000  1
  P  P15  1  0.689136  0.516841  0.000000  1
  P  P16  1  0.827707  0.310864  0.000000  1
  P  P17  1  0.000000  0.176725  0.500000  1
  P  P18  1  0.823275  0.823275  0.500000  1
  P  P19  1  0.176725  0.000000  0.500000  1
  Rh  Rh20  1  0.513674  0.869739  0.000000  1
  Rh  Rh21  1  0.130261  0.643937  0.000000  1
  Rh  Rh22  1  0.356063  0.486326  0.000000  1
  Rh  Rh23  1  0.486326  0.356063  0.000000  1
  Rh  Rh24  1  0.869739  0.513674  0.000000  1
  Rh  Rh25  1  0.643937  0.130261  0.000000  1
  Rh  Rh26  1  0.000000  0.276029  0.000000  1
  Rh  Rh27  1  0.723971  0.723971  0.000000  1
  Rh  Rh28  1  0.276029  0.000000  0.000000  1
  Rh  Rh29  1  0.628187  0.806000  0.500000  1
  Rh  Rh30  1  0.194000  0.822187  0.500000  1
  Rh  Rh31  1  0.177813  0.371813  0.500000  1
  Rh  Rh32  1  0.371813  0.177813  0.500000  1
  Rh  Rh33  1  0.806000  0.628187  0.500000  1
  Rh  Rh34  1  0.822187  0.194000  0.500000  1
  Rh  Rh35  1  0.000000  0.000000  0.500000  1
