# generated using pymatgen
data_TbDy2Lu5Au4
_symmetry_space_group_name_H-M   'P 1'
_cell_length_a   4.84788900
_cell_length_b   7.10518727
_cell_length_c   8.81827602
_cell_angle_alpha   89.64567328
_cell_angle_beta   90.00000000
_cell_angle_gamma   90.00000000
_symmetry_Int_Tables_number   1
_chemical_formula_structural   TbDy2Lu5Au4
_chemical_formula_sum   'Tb1 Dy2 Lu5 Au4'
_cell_volume   303.74111314
_cell_formula_units_Z   1
loop_
 _symmetry_equiv_pos_site_id
 _symmetry_equiv_pos_as_xyz
  1  'x, y, z'
loop_
 _atom_site_type_symbol
 _atom_site_label
 _atom_site_symmetry_multiplicity
 _atom_site_fract_x
 _atom_site_fract_y
 _atom_site_fract_z
 _atom_site_occupancy
  Tb  Tb0  1  0.250000  0.984299  0.322639  1
  Dy  Dy1  1  0.750000  0.515995  0.823015  1
  Dy  Dy2  1  0.750000  0.015542  0.676920  1
  Lu  Lu3  1  0.250000  0.852180  0.923833  1
  Lu  Lu4  1  0.250000  0.352355  0.576725  1
  Lu  Lu5  1  0.750000  0.148558  0.078057  1
  Lu  Lu6  1  0.750000  0.647665  0.420158  1
  Lu  Lu7  1  0.250000  0.483420  0.176289  1
  Au  Au8  1  0.250000  0.253243  0.900157  1
  Au  Au9  1  0.250000  0.751377  0.603680  1
  Au  Au10  1  0.750000  0.746816  0.101592  1
  Au  Au11  1  0.750000  0.248550  0.396937  1
