# generated using pymatgen
data_Tb3Y5(AsI6)2
_symmetry_space_group_name_H-M   'P 1'
_cell_length_a   4.25584100
_cell_length_b   13.92710325
_cell_length_c   14.73825327
_cell_angle_alpha   90.02191386
_cell_angle_beta   90.00000000
_cell_angle_gamma   90.00000000
_symmetry_Int_Tables_number   1
_chemical_formula_structural   Tb3Y5(AsI6)2
_chemical_formula_sum   'Tb3 Y5 As2 I12'
_cell_volume   873.55886071
_cell_formula_units_Z   1
loop_
 _symmetry_equiv_pos_site_id
 _symmetry_equiv_pos_as_xyz
  1  'x, y, z'
loop_
 _atom_site_type_symbol
 _atom_site_label
 _atom_site_symmetry_multiplicity
 _atom_site_fract_x
 _atom_site_fract_y
 _atom_site_fract_z
 _atom_site_occupancy
  Tb  Tb0  1  0.000000  0.889913  0.426825  1
  Tb  Tb1  1  0.000000  0.610098  0.926830  1
  Tb  Tb2  1  0.000000  0.389906  0.073171  1
  Y  Y3  1  0.500000  0.114671  0.347126  1
  Y  Y4  1  0.500000  0.885283  0.652844  1
  Y  Y5  1  0.500000  0.614668  0.152809  1
  Y  Y6  1  0.500000  0.385338  0.847208  1
  Y  Y7  1  0.000000  0.109964  0.573097  1
  As  As8  1  0.500000  0.000205  0.500129  1
  As  As9  1  0.500000  0.500006  0.000000  1
  I  I10  1  0.500000  0.245482  0.160510  1
  I  I11  1  0.500000  0.754517  0.839490  1
  I  I12  1  0.500000  0.745506  0.339514  1
  I  I13  1  0.500000  0.254368  0.660391  1
  I  I14  1  0.000000  0.258690  0.413980  1
  I  I15  1  0.000000  0.741300  0.586108  1
  I  I16  1  0.000000  0.758723  0.086102  1
  I  I17  1  0.000000  0.241278  0.913901  1
  I  I18  1  0.000000  0.999634  0.240756  1
  I  I19  1  0.000000  0.000447  0.759207  1
  I  I20  1  0.000000  0.499623  0.259267  1
  I  I21  1  0.000000  0.500379  0.740733  1
