# generated using pymatgen
data_NaLa2Nd4IrBr12
_symmetry_space_group_name_H-M   'P 1'
_cell_length_a   9.58822148
_cell_length_b   9.60932211
_cell_length_c   9.71842356
_cell_angle_alpha   106.88602526
_cell_angle_beta   107.47335764
_cell_angle_gamma   107.17030258
_symmetry_Int_Tables_number   1
_chemical_formula_structural   NaLa2Nd4IrBr12
_chemical_formula_sum   'Na1 La2 Nd4 Ir1 Br12'
_cell_volume   742.07805934
_cell_formula_units_Z   1
loop_
 _symmetry_equiv_pos_site_id
 _symmetry_equiv_pos_as_xyz
  1  'x, y, z'
loop_
 _atom_site_type_symbol
 _atom_site_label
 _atom_site_symmetry_multiplicity
 _atom_site_fract_x
 _atom_site_fract_y
 _atom_site_fract_z
 _atom_site_occupancy
  Na  Na0  1  0.500091  0.500193  0.500367  1
  La  La1  1  0.110168  0.317932  0.029795  1
  La  La2  1  0.320447  0.031511  0.111882  1
  Nd  Nd3  1  0.031547  0.113988  0.326695  1
  Nd  Nd4  1  0.968089  0.883412  0.672272  1
  Nd  Nd5  1  0.684153  0.969197  0.888787  1
  Nd  Nd6  1  0.888339  0.685823  0.969772  1
  Ir  Ir7  1  0.003476  0.002379  0.000369  1
  Br  Br8  1  0.213684  0.681842  0.071619  1
  Br  Br9  1  0.458567  0.376420  0.159167  1
  Br  Br10  1  0.686075  0.071491  0.214177  1
  Br  Br11  1  0.927182  0.783395  0.313474  1
  Br  Br12  1  0.155294  0.450957  0.374046  1
  Br  Br13  1  0.369803  0.156799  0.455407  1
  Br  Br14  1  0.629265  0.845319  0.549901  1
  Br  Br15  1  0.844789  0.548370  0.632009  1
  Br  Br16  1  0.070731  0.211793  0.680550  1
  Br  Br17  1  0.315004  0.926439  0.780191  1
  Br  Br18  1  0.547143  0.629403  0.844222  1
  Br  Br19  1  0.776157  0.313343  0.925303  1
