# generated using pymatgen
data_CaNdAl20(IrOs)2
_symmetry_space_group_name_H-M   'P 1'
_cell_length_a   6.89177346
_cell_length_b   6.89601734
_cell_length_c   9.19066900
_cell_angle_alpha   90.00000000
_cell_angle_beta   90.00000000
_cell_angle_gamma   96.64232584
_symmetry_Int_Tables_number   1
_chemical_formula_structural   CaNdAl20(IrOs)2
_chemical_formula_sum   'Ca1 Nd1 Al20 Ir2 Os2'
_cell_volume   433.86185821
_cell_formula_units_Z   1
loop_
 _symmetry_equiv_pos_site_id
 _symmetry_equiv_pos_as_xyz
  1  'x, y, z'
loop_
 _atom_site_type_symbol
 _atom_site_label
 _atom_site_symmetry_multiplicity
 _atom_site_fract_x
 _atom_site_fract_y
 _atom_site_fract_z
 _atom_site_occupancy
  Ca  Ca0  1  0.871104  0.125289  0.750000  1
  Nd  Nd1  1  0.127871  0.875776  0.250000  1
  Al  Al2  1  0.620737  0.375448  0.549907  1
  Al  Al3  1  0.380445  0.623057  0.448379  1
  Al  Al4  1  0.380445  0.623057  0.051621  1
  Al  Al5  1  0.620737  0.375448  0.950093  1
  Al  Al6  1  0.223951  0.223804  0.499949  1
  Al  Al7  1  0.774466  0.778337  0.502243  1
  Al  Al8  1  0.774466  0.778337  0.997757  1
  Al  Al9  1  0.223951  0.223804  0.000051  1
  Al  Al10  1  0.840897  0.157552  0.101894  1
  Al  Al11  1  0.160223  0.840792  0.896937  1
  Al  Al12  1  0.160223  0.840792  0.603063  1
  Al  Al13  1  0.840897  0.157552  0.398106  1
  Al  Al14  1  0.853360  0.584905  0.750000  1
  Al  Al15  1  0.144418  0.412126  0.250000  1
  Al  Al16  1  0.414631  0.144371  0.750000  1
  Al  Al17  1  0.589281  0.857688  0.250000  1
  Al  Al18  1  0.222439  0.480801  0.750000  1
  Al  Al19  1  0.776513  0.516635  0.250000  1
  Al  Al20  1  0.519516  0.781503  0.750000  1
  Al  Al21  1  0.483510  0.220305  0.250000  1
  Ir  Ir22  1  0.999507  0.501377  0.499799  1
  Ir  Ir23  1  0.999507  0.501377  0.000201  1
  Os  Os24  1  0.498455  0.999934  0.000260  1
  Os  Os25  1  0.498455  0.999934  0.499740  1
