# generated using pymatgen
data_Cs12Bi(SbTe4)3
_symmetry_space_group_name_H-M   'P 1'
_cell_length_a   11.46591303
_cell_length_b   11.46591303
_cell_length_c   11.46591303
_cell_angle_alpha   89.81165636
_cell_angle_beta   90.18834364
_cell_angle_gamma   89.81165636
_symmetry_Int_Tables_number   1
_chemical_formula_structural   Cs12Bi(SbTe4)3
_chemical_formula_sum   'Cs12 Bi1 Sb3 Te12'
_cell_volume   1507.36655315
_cell_formula_units_Z   1
loop_
 _symmetry_equiv_pos_site_id
 _symmetry_equiv_pos_as_xyz
  1  'x, y, z'
loop_
 _atom_site_type_symbol
 _atom_site_label
 _atom_site_symmetry_multiplicity
 _atom_site_fract_x
 _atom_site_fract_y
 _atom_site_fract_z
 _atom_site_occupancy
  Cs  Cs0  1  0.320624  0.321050  0.321165  1
  Cs  Cs1  1  0.178950  0.678835  0.820624  1
  Cs  Cs2  1  0.821165  0.179376  0.678950  1
  Cs  Cs3  1  0.678819  0.821181  0.178819  1
  Cs  Cs4  1  0.572361  0.574232  0.574923  1
  Cs  Cs5  1  0.925768  0.425077  0.072361  1
  Cs  Cs6  1  0.074923  0.927639  0.425768  1
  Cs  Cs7  1  0.425972  0.074028  0.925972  1
  Cs  Cs8  1  0.813512  0.813980  0.814334  1
  Cs  Cs9  1  0.686020  0.185666  0.313512  1
  Cs  Cs10  1  0.314334  0.686488  0.186020  1
  Cs  Cs11  1  0.186146  0.313854  0.686146  1
  Bi  Bi12  1  0.974265  0.525735  0.474265  1
  Sb  Sb13  1  0.023871  0.023647  0.024442  1
  Sb  Sb14  1  0.476353  0.975558  0.523871  1
  Sb  Sb15  1  0.524442  0.476129  0.976353  1
  Te  Te16  1  0.213401  0.605571  0.496762  1
  Te  Te17  1  0.496865  0.208381  0.602468  1
  Te  Te18  1  0.603301  0.496991  0.209567  1
  Te  Te19  1  0.894429  0.503238  0.713401  1
  Te  Te20  1  0.996762  0.286599  0.394429  1
  Te  Te21  1  0.397252  0.997110  0.290914  1
  Te  Te22  1  0.003009  0.790433  0.103301  1
  Te  Te23  1  0.502890  0.709086  0.897252  1
  Te  Te24  1  0.102468  0.003135  0.791619  1
  Te  Te25  1  0.709567  0.896699  0.503009  1
  Te  Te26  1  0.790914  0.102748  0.002890  1
  Te  Te27  1  0.291619  0.397532  0.996865  1
