# generated using pymatgen
data_Tb3DyCo8(PIr)12
_symmetry_space_group_name_H-M   'P 1'
_cell_length_a   3.86428700
_cell_length_b   10.59377436
_cell_length_c   12.20211038
_cell_angle_alpha   90.02920067
_cell_angle_beta   90.00000000
_cell_angle_gamma   90.00000000
_symmetry_Int_Tables_number   1
_chemical_formula_structural   Tb3DyCo8(PIr)12
_chemical_formula_sum   'Tb3 Dy1 Co8 P12 Ir12'
_cell_volume   499.52241988
_cell_formula_units_Z   1
loop_
 _symmetry_equiv_pos_site_id
 _symmetry_equiv_pos_as_xyz
  1  'x, y, z'
loop_
 _atom_site_type_symbol
 _atom_site_label
 _atom_site_symmetry_multiplicity
 _atom_site_fract_x
 _atom_site_fract_y
 _atom_site_fract_z
 _atom_site_occupancy
  Tb  Tb0  1  0.250000  0.916119  0.210892  1
  Tb  Tb1  1  0.750000  0.416132  0.289128  1
  Tb  Tb2  1  0.750000  0.083933  0.789238  1
  Dy  Dy3  1  0.250000  0.583882  0.710715  1
  Co  Co4  1  0.250000  0.883544  0.696870  1
  Co  Co5  1  0.250000  0.616387  0.196625  1
  Co  Co6  1  0.750000  0.116388  0.303281  1
  Co  Co7  1  0.750000  0.383860  0.803076  1
  Co  Co8  1  0.250000  0.463827  0.933119  1
  Co  Co9  1  0.250000  0.036458  0.433565  1
  Co  Co10  1  0.750000  0.536458  0.066112  1
  Co  Co11  1  0.750000  0.963392  0.566557  1
  P  P12  1  0.250000  0.432260  0.110319  1
  P  P13  1  0.250000  0.067762  0.610646  1
  P  P14  1  0.750000  0.567723  0.888932  1
  P  P15  1  0.750000  0.932219  0.389443  1
  P  P16  1  0.250000  0.274747  0.870282  1
  P  P17  1  0.250000  0.225440  0.370319  1
  P  P18  1  0.750000  0.725239  0.129847  1
  P  P19  1  0.750000  0.774396  0.629925  1
  P  P20  1  0.250000  0.598164  0.377031  1
  P  P21  1  0.250000  0.901960  0.877213  1
  P  P22  1  0.750000  0.402005  0.623085  1
  P  P23  1  0.750000  0.098068  0.122890  1
  Ir  Ir24  1  0.250000  0.723054  0.990577  1
  Ir  Ir25  1  0.250000  0.776871  0.490832  1
  Ir  Ir26  1  0.750000  0.276911  0.009256  1
  Ir  Ir27  1  0.750000  0.223107  0.509410  1
  Ir  Ir28  1  0.250000  0.410230  0.476983  1
  Ir  Ir29  1  0.250000  0.089868  0.977002  1
  Ir  Ir30  1  0.750000  0.589891  0.523673  1
  Ir  Ir31  1  0.750000  0.910071  0.023083  1
  Ir  Ir32  1  0.250000  0.227126  0.178114  1
  Ir  Ir33  1  0.250000  0.273031  0.678162  1
  Ir  Ir34  1  0.750000  0.772580  0.821738  1
  Ir  Ir35  1  0.750000  0.726896  0.322058  1
