# generated using pymatgen
data_Hf9Re3MoRu
_symmetry_space_group_name_H-M   'P 1'
_cell_length_a   8.51600100
_cell_length_b   8.66008971
_cell_length_c   8.66009000
_cell_angle_alpha   120.00131240
_cell_angle_beta   90.00000000
_cell_angle_gamma   90.00000000
_symmetry_Int_Tables_number   1
_chemical_formula_structural   Hf9Re3MoRu
_chemical_formula_sum   'Hf18 Re6 Mo2 Ru2'
_cell_volume   553.10220324
_cell_formula_units_Z   2
loop_
 _symmetry_equiv_pos_site_id
 _symmetry_equiv_pos_as_xyz
  1  'x, y, z'
loop_
 _atom_site_type_symbol
 _atom_site_label
 _atom_site_symmetry_multiplicity
 _atom_site_fract_x
 _atom_site_fract_y
 _atom_site_fract_z
 _atom_site_occupancy
  Hf  Hf0  1  0.554222  0.801981  0.603960  1
  Hf  Hf1  1  0.554205  0.801973  0.198027  1
  Hf  Hf2  1  0.554222  0.396040  0.198019  1
  Hf  Hf3  1  0.445778  0.198019  0.396040  1
  Hf  Hf4  1  0.445795  0.198027  0.801973  1
  Hf  Hf5  1  0.445778  0.603960  0.801981  1
  Hf  Hf6  1  0.054222  0.198019  0.396040  1
  Hf  Hf7  1  0.054205  0.198027  0.801973  1
  Hf  Hf8  1  0.054222  0.603960  0.801981  1
  Hf  Hf9  1  0.945778  0.801981  0.603960  1
  Hf  Hf10  1  0.945795  0.801973  0.198027  1
  Hf  Hf11  1  0.945778  0.396040  0.198019  1
  Hf  Hf12  1  0.750000  0.458148  0.916272  1
  Hf  Hf13  1  0.750000  0.458132  0.541868  1
  Hf  Hf14  1  0.750000  0.083728  0.541852  1
  Hf  Hf15  1  0.250000  0.541852  0.083728  1
  Hf  Hf16  1  0.250000  0.541868  0.458132  1
  Hf  Hf17  1  0.250000  0.916272  0.458148  1
  Re  Re18  1  0.750000  0.111716  0.223433  1
  Re  Re19  1  0.750000  0.111728  0.888272  1
  Re  Re20  1  0.750000  0.776567  0.888284  1
  Re  Re21  1  0.250000  0.888284  0.776567  1
  Re  Re22  1  0.250000  0.888272  0.111728  1
  Re  Re23  1  0.250000  0.223433  0.111716  1
  Mo  Mo24  1  0.500000  0.000000  0.000000  1
  Mo  Mo25  1  0.000000  0.000000  0.000000  1
  Ru  Ru26  1  0.750000  0.666671  0.333329  1
  Ru  Ru27  1  0.250000  0.333329  0.666671  1
