# generated using pymatgen
data_Ho7Er3(SiBi)4
_symmetry_space_group_name_H-M   'P 1'
_cell_length_a   8.61950039
_cell_length_b   8.61772815
_cell_length_c   7.88952408
_cell_angle_alpha   90.00168803
_cell_angle_beta   90.01197900
_cell_angle_gamma   125.63685169
_symmetry_Int_Tables_number   1
_chemical_formula_structural   Ho7Er3(SiBi)4
_chemical_formula_sum   'Ho7 Er3 Si4 Bi4'
_cell_volume   476.28831076
_cell_formula_units_Z   1
loop_
 _symmetry_equiv_pos_site_id
 _symmetry_equiv_pos_as_xyz
  1  'x, y, z'
loop_
 _atom_site_type_symbol
 _atom_site_label
 _atom_site_symmetry_multiplicity
 _atom_site_fract_x
 _atom_site_fract_y
 _atom_site_fract_z
 _atom_site_occupancy
  Ho  Ho0  1  0.042590  0.286063  0.336024  1
  Ho  Ho1  1  0.957453  0.713927  0.663922  1
  Ho  Ho2  1  0.457448  0.213872  0.836054  1
  Ho  Ho3  1  0.786126  0.542561  0.163945  1
  Ho  Ho4  1  0.542583  0.786121  0.163963  1
  Ho  Ho5  1  0.213909  0.457415  0.836065  1
  Ho  Ho6  1  0.713957  0.957448  0.663951  1
  Er  Er7  1  0.285798  0.042681  0.336167  1
  Er  Er8  1  0.000058  0.000001  0.000074  1
  Er  Er9  1  0.499948  0.499884  0.499961  1
  Si  Si10  1  0.364794  0.364565  0.134164  1
  Si  Si11  1  0.635199  0.635201  0.865960  1
  Si  Si12  1  0.135251  0.135148  0.633846  1
  Si  Si13  1  0.865032  0.864916  0.365973  1
  Bi  Bi14  1  0.792752  0.207304  0.999971  1
  Bi  Bi15  1  0.207369  0.792878  0.000208  1
  Bi  Bi16  1  0.707013  0.292517  0.499847  1
  Bi  Bi17  1  0.292720  0.707500  0.499904  1
