# generated using pymatgen
data_Y2Ho2Al18CrPd5
_symmetry_space_group_name_H-M   'P 1'
_cell_length_a   7.60412578
_cell_length_b   7.60642309
_cell_length_c   9.49885127
_cell_angle_alpha   89.79347574
_cell_angle_beta   89.74969841
_cell_angle_gamma   119.11128861
_symmetry_Int_Tables_number   1
_chemical_formula_structural   Y2Ho2Al18CrPd5
_chemical_formula_sum   'Y2 Ho2 Al18 Cr1 Pd5'
_cell_volume   479.99639026
_cell_formula_units_Z   1
loop_
 _symmetry_equiv_pos_site_id
 _symmetry_equiv_pos_as_xyz
  1  'x, y, z'
loop_
 _atom_site_type_symbol
 _atom_site_label
 _atom_site_symmetry_multiplicity
 _atom_site_fract_x
 _atom_site_fract_y
 _atom_site_fract_z
 _atom_site_occupancy
  Y  Y0  1  0.994627  0.674041  0.247919  1
  Y  Y1  1  0.005373  0.325959  0.752081  1
  Ho  Ho2  1  0.674164  0.994662  0.247800  1
  Ho  Ho3  1  0.325836  0.005338  0.752200  1
  Al  Al4  1  0.128032  0.128256  0.243806  1
  Al  Al5  1  0.871968  0.871744  0.756194  1
  Al  Al6  1  0.000919  0.328113  0.074026  1
  Al  Al7  1  0.999081  0.671887  0.925974  1
  Al  Al8  1  0.998641  0.663335  0.578407  1
  Al  Al9  1  0.337212  0.001614  0.421850  1
  Al  Al10  1  0.001359  0.336665  0.421593  1
  Al  Al11  1  0.662788  0.998386  0.578150  1
  Al  Al12  1  0.671304  0.998754  0.926300  1
  Al  Al13  1  0.328696  0.001246  0.073700  1
  Al  Al14  1  0.333605  0.333338  0.555233  1
  Al  Al15  1  0.666395  0.666663  0.444767  1
  Al  Al16  1  0.673189  0.673459  0.050333  1
  Al  Al17  1  0.326811  0.326542  0.949667  1
  Al  Al18  1  0.341498  0.548468  0.249319  1
  Al  Al19  1  0.658502  0.451532  0.750681  1
  Al  Al20  1  0.548168  0.340927  0.249330  1
  Al  Al21  1  0.451832  0.659073  0.750670  1
  Cr  Cr22  1  0.000000  0.000000  0.000000  1
  Pd  Pd23  1  0.672684  0.327220  0.000013  1
  Pd  Pd24  1  0.327316  0.672780  0.999987  1
  Pd  Pd25  1  0.327803  0.672232  0.500018  1
  Pd  Pd26  1  0.672197  0.327768  0.499982  1
  Pd  Pd27  1  0.000000  0.000000  0.500000  1
