# generated using pymatgen
data_YEr3(ReB6)2
_symmetry_space_group_name_H-M   'P 1'
_cell_length_a   3.66405900
_cell_length_b   9.14010802
_cell_length_c   11.51779703
_cell_angle_alpha   89.99201234
_cell_angle_beta   90.00015280
_cell_angle_gamma   89.99996556
_symmetry_Int_Tables_number   1
_chemical_formula_structural   YEr3(ReB6)2
_chemical_formula_sum   'Y2 Er6 Re4 B24'
_cell_volume   385.72981004
_cell_formula_units_Z   2
loop_
 _symmetry_equiv_pos_site_id
 _symmetry_equiv_pos_as_xyz
  1  'x, y, z'
loop_
 _atom_site_type_symbol
 _atom_site_label
 _atom_site_symmetry_multiplicity
 _atom_site_fract_x
 _atom_site_fract_y
 _atom_site_fract_z
 _atom_site_occupancy
  Y  Y0  1  0.000010  0.323153  0.413733  1
  Y  Y1  1  0.999990  0.676847  0.586267  1
  Er  Er2  1  0.000000  0.823594  0.086106  1
  Er  Er3  1  0.000000  0.176406  0.913894  1
  Er  Er4  1  0.999991  0.943417  0.369844  1
  Er  Er5  1  0.000009  0.056583  0.630156  1
  Er  Er6  1  0.000011  0.443230  0.129626  1
  Er  Er7  1  0.999989  0.556770  0.870374  1
  Re  Re8  1  0.999993  0.639401  0.320080  1
  Re  Re9  1  0.000007  0.360599  0.679920  1
  Re  Re10  1  0.999994  0.138662  0.178777  1
  Re  Re11  1  0.000006  0.861338  0.821223  1
  B  B12  1  0.499996  0.553578  0.432590  1
  B  B13  1  0.500004  0.446422  0.567410  1
  B  B14  1  0.499993  0.053134  0.066654  1
  B  B15  1  0.500007  0.946866  0.933346  1
  B  B16  1  0.499996  0.749804  0.418091  1
  B  B17  1  0.500004  0.250196  0.581909  1
  B  B18  1  0.500001  0.249387  0.080859  1
  B  B19  1  0.499999  0.750613  0.919141  1
  B  B20  1  0.499991  0.792852  0.265017  1
  B  B21  1  0.500009  0.207148  0.734983  1
  B  B22  1  0.500002  0.292385  0.233866  1
  B  B23  1  0.499998  0.707615  0.766134  1
  B  B24  1  0.500003  0.630997  0.184870  1
  B  B25  1  0.499997  0.369003  0.815130  1
  B  B26  1  0.499998  0.130337  0.314160  1
  B  B27  1  0.500002  0.869663  0.685840  1
  B  B28  1  0.499992  0.981772  0.211677  1
  B  B29  1  0.500008  0.018228  0.788323  1
  B  B30  1  0.499999  0.482392  0.287355  1
  B  B31  1  0.500001  0.517608  0.712645  1
  B  B32  1  0.500005  0.600009  0.027957  1
  B  B33  1  0.499995  0.399991  0.972043  1
  B  B34  1  0.500002  0.099027  0.472269  1
  B  B35  1  0.499998  0.900973  0.527731  1
