# generated using pymatgen
data_Rb4Li2ScInP4
_symmetry_space_group_name_H-M   'P 1'
_cell_length_a   9.14072169
_cell_length_b   9.14072094
_cell_length_c   9.14072179
_cell_angle_alpha   138.75127344
_cell_angle_beta   138.61346672
_cell_angle_gamma   59.85957679
_symmetry_Int_Tables_number   1
_chemical_formula_structural   Rb4Li2ScInP4
_chemical_formula_sum   'Rb4 Li2 Sc1 In1 P4'
_cell_volume   329.53423143
_cell_formula_units_Z   1
loop_
 _symmetry_equiv_pos_site_id
 _symmetry_equiv_pos_as_xyz
  1  'x, y, z'
loop_
 _atom_site_type_symbol
 _atom_site_label
 _atom_site_symmetry_multiplicity
 _atom_site_fract_x
 _atom_site_fract_y
 _atom_site_fract_z
 _atom_site_occupancy
  Rb  Rb0  1  0.103135  0.830142  0.284535  1
  Rb  Rb1  1  0.896865  0.181400  0.727007  1
  Rb  Rb2  1  0.454394  0.669858  0.772993  1
  Rb  Rb3  1  0.545606  0.318600  0.215465  1
  Li  Li4  1  0.500000  0.250000  0.750000  1
  Li  Li5  1  0.500000  0.750000  0.250000  1
  Sc  Sc6  1  0.000000  0.750000  0.750000  1
  In  In7  1  0.000000  0.250000  0.250000  1
  P  P8  1  0.676415  0.906020  0.759614  1
  P  P9  1  0.146406  0.416800  0.740386  1
  P  P10  1  0.853594  0.593980  0.270394  1
  P  P11  1  0.323585  0.083200  0.229606  1
