# generated using pymatgen
data_Rb3Cu3Cl8
_symmetry_space_group_name_H-M   'P 1'
_cell_length_a   7.03796801
_cell_length_b   7.03796739
_cell_length_c   17.83523034
_cell_angle_alpha   85.67151922
_cell_angle_beta   85.67151942
_cell_angle_gamma   62.81843635
_symmetry_Int_Tables_number   1
_chemical_formula_structural   Rb3Cu3Cl8
_chemical_formula_sum   'Rb6 Cu6 Cl16'
_cell_volume   782.79011163
_cell_formula_units_Z   2
loop_
 _symmetry_equiv_pos_site_id
 _symmetry_equiv_pos_as_xyz
  1  'x, y, z'
loop_
 _atom_site_type_symbol
 _atom_site_label
 _atom_site_symmetry_multiplicity
 _atom_site_fract_x
 _atom_site_fract_y
 _atom_site_fract_z
 _atom_site_occupancy
  Rb  Rb0  1  0.993798  0.006202  0.750000  1
  Rb  Rb1  1  0.006202  0.993798  0.250000  1
  Rb  Rb2  1  0.326417  0.319901  0.582600  1
  Rb  Rb3  1  0.680099  0.673583  0.917400  1
  Rb  Rb4  1  0.673583  0.680099  0.417400  1
  Rb  Rb5  1  0.319901  0.326417  0.082600  1
  Cu  Cu6  1  0.000000  0.000000  0.000000  1
  Cu  Cu7  1  0.000000  0.000000  0.500000  1
  Cu  Cu8  1  0.338309  0.323769  0.843485  1
  Cu  Cu9  1  0.676231  0.661691  0.656515  1
  Cu  Cu10  1  0.661691  0.676231  0.156515  1
  Cu  Cu11  1  0.323769  0.338309  0.343485  1
  Cl  Cl12  1  0.088102  0.481466  0.258254  1
  Cl  Cl13  1  0.518534  0.911898  0.241746  1
  Cl  Cl14  1  0.911898  0.518534  0.741746  1
  Cl  Cl15  1  0.481466  0.088102  0.758254  1
  Cl  Cl16  1  0.637844  0.230678  0.386716  1
  Cl  Cl17  1  0.769322  0.362156  0.113284  1
  Cl  Cl18  1  0.362156  0.769322  0.613284  1
  Cl  Cl19  1  0.230678  0.637844  0.886716  1
  Cl  Cl20  1  0.851528  0.285693  0.571880  1
  Cl  Cl21  1  0.714307  0.148472  0.928120  1
  Cl  Cl22  1  0.148472  0.714307  0.428120  1
  Cl  Cl23  1  0.285693  0.851528  0.071880  1
  Cl  Cl24  1  0.149829  0.191432  0.929844  1
  Cl  Cl25  1  0.808568  0.850171  0.570156  1
  Cl  Cl26  1  0.850171  0.808568  0.070156  1
  Cl  Cl27  1  0.191432  0.149829  0.429844  1
