# generated using pymatgen
data_Tb2Tm10Co4BiOs
_symmetry_space_group_name_H-M   'P 1'
_cell_length_a   8.24076588
_cell_length_b   8.24076795
_cell_length_c   8.22950811
_cell_angle_alpha   110.57106076
_cell_angle_beta   111.40197588
_cell_angle_gamma   106.54079660
_symmetry_Int_Tables_number   1
_chemical_formula_structural   Tb2Tm10Co4BiOs
_chemical_formula_sum   'Tb2 Tm10 Co4 Bi1 Os1'
_cell_volume   429.02780435
_cell_formula_units_Z   1
loop_
 _symmetry_equiv_pos_site_id
 _symmetry_equiv_pos_as_xyz
  1  'x, y, z'
loop_
 _atom_site_type_symbol
 _atom_site_label
 _atom_site_symmetry_multiplicity
 _atom_site_fract_x
 _atom_site_fract_y
 _atom_site_fract_z
 _atom_site_occupancy
  Tb  Tb0  1  0.279933  0.180969  0.460900  1
  Tb  Tb1  1  0.720067  0.819031  0.539100  1
  Tm  Tm2  1  0.278391  0.818267  0.096658  1
  Tm  Tm3  1  0.721609  0.181733  0.903342  1
  Tm  Tm4  1  0.621465  0.310626  0.308633  1
  Tm  Tm5  1  0.378535  0.689374  0.691367  1
  Tm  Tm6  1  0.001994  0.312833  0.691369  1
  Tm  Tm7  1  0.998006  0.687167  0.308631  1
  Tm  Tm8  1  0.214809  0.412844  0.195962  1
  Tm  Tm9  1  0.785191  0.587156  0.804038  1
  Tm  Tm10  1  0.216883  0.018848  0.804038  1
  Tm  Tm11  1  0.783117  0.981152  0.195962  1
  Co  Co12  1  0.999658  0.375448  0.375105  1
  Co  Co13  1  0.000342  0.624552  0.624895  1
  Co  Co14  1  0.388557  0.888557  0.500000  1
  Co  Co15  1  0.611443  0.111443  0.500000  1
  Bi  Bi16  1  0.500000  0.500000  0.000000  1
  Os  Os17  1  0.000000  0.000000  0.000000  1
