# generated using pymatgen
data_Eu(Al3Ni)3
_symmetry_space_group_name_H-M   'P 1'
_cell_length_a   10.19121367
_cell_length_b   10.19121325
_cell_length_c   10.19121136
_cell_angle_alpha   42.06531549
_cell_angle_beta   42.06531472
_cell_angle_gamma   42.06532081
_symmetry_Int_Tables_number   1
_chemical_formula_structural   Eu(Al3Ni)3
_chemical_formula_sum   'Eu2 Al18 Ni6'
_cell_volume   429.83035653
_cell_formula_units_Z   2
loop_
 _symmetry_equiv_pos_site_id
 _symmetry_equiv_pos_as_xyz
  1  'x, y, z'
loop_
 _atom_site_type_symbol
 _atom_site_label
 _atom_site_symmetry_multiplicity
 _atom_site_fract_x
 _atom_site_fract_y
 _atom_site_fract_z
 _atom_site_occupancy
  Eu  Eu0  1  0.166713  0.166713  0.166713  1
  Eu  Eu1  1  0.833287  0.833287  0.833287  1
  Al  Al2  1  0.051537  0.051537  0.051537  1
  Al  Al3  1  0.706492  0.500000  0.293508  1
  Al  Al4  1  0.665950  0.334050  0.000000  1
  Al  Al5  1  0.102621  0.431122  0.759891  1
  Al  Al6  1  0.431122  0.759891  0.102621  1
  Al  Al7  1  0.386323  0.386323  0.386323  1
  Al  Al8  1  0.334050  0.000000  0.665950  1
  Al  Al9  1  0.613677  0.613677  0.613677  1
  Al  Al10  1  0.240109  0.568878  0.897379  1
  Al  Al11  1  0.568878  0.897379  0.240109  1
  Al  Al12  1  0.500000  0.293508  0.706492  1
  Al  Al13  1  0.759891  0.102621  0.431122  1
  Al  Al14  1  0.948463  0.948463  0.948463  1
  Al  Al15  1  0.293508  0.706492  0.500000  1
  Al  Al16  1  0.000000  0.665950  0.334050  1
  Al  Al17  1  0.717980  0.717980  0.717980  1
  Al  Al18  1  0.282020  0.282020  0.282020  1
  Al  Al19  1  0.897379  0.240109  0.568878  1
  Ni  Ni20  1  0.244751  0.920890  0.582645  1
  Ni  Ni21  1  0.920890  0.582645  0.244751  1
  Ni  Ni22  1  0.755249  0.417355  0.079110  1
  Ni  Ni23  1  0.079110  0.755249  0.417355  1
  Ni  Ni24  1  0.417355  0.079110  0.755249  1
  Ni  Ni25  1  0.582645  0.244751  0.920890  1
