# generated using pymatgen
data_Y12Er4Cd4OsPd3
_symmetry_space_group_name_H-M   'P 1'
_cell_length_a   9.72789494
_cell_length_b   9.72789351
_cell_length_c   9.72789376
_cell_angle_alpha   59.51147802
_cell_angle_beta   59.51148143
_cell_angle_gamma   59.51148150
_symmetry_Int_Tables_number   1
_chemical_formula_structural   Y12Er4Cd4OsPd3
_chemical_formula_sum   'Y12 Er4 Cd4 Os1 Pd3'
_cell_volume   643.70920050
_cell_formula_units_Z   1
loop_
 _symmetry_equiv_pos_site_id
 _symmetry_equiv_pos_as_xyz
  1  'x, y, z'
loop_
 _atom_site_type_symbol
 _atom_site_label
 _atom_site_symmetry_multiplicity
 _atom_site_fract_x
 _atom_site_fract_y
 _atom_site_fract_z
 _atom_site_occupancy
  Y  Y0  1  0.816043  0.188804  0.188804  1
  Y  Y1  1  0.188752  0.809868  0.809868  1
  Y  Y2  1  0.188804  0.816043  0.188804  1
  Y  Y3  1  0.809868  0.188752  0.809868  1
  Y  Y4  1  0.188804  0.188804  0.816043  1
  Y  Y5  1  0.809868  0.809868  0.188752  1
  Y  Y6  1  0.934997  0.565729  0.565729  1
  Y  Y7  1  0.558433  0.937474  0.937474  1
  Y  Y8  1  0.565729  0.934997  0.565729  1
  Y  Y9  1  0.937474  0.558433  0.937474  1
  Y  Y10  1  0.565729  0.565729  0.934997  1
  Y  Y11  1  0.937474  0.937474  0.558433  1
  Er  Er12  1  0.353096  0.353096  0.353096  1
  Er  Er13  1  0.350032  0.350032  0.945907  1
  Er  Er14  1  0.350032  0.945907  0.350032  1
  Er  Er15  1  0.945907  0.350032  0.350032  1
  Cd  Cd16  1  0.580479  0.580479  0.580479  1
  Cd  Cd17  1  0.581048  0.581048  0.254293  1
  Cd  Cd18  1  0.581048  0.254293  0.581048  1
  Cd  Cd19  1  0.254293  0.581048  0.581048  1
  Os  Os20  1  0.144830  0.144830  0.144830  1
  Pd  Pd21  1  0.145536  0.145536  0.566187  1
  Pd  Pd22  1  0.145536  0.566187  0.145536  1
  Pd  Pd23  1  0.566187  0.145536  0.145536  1
