# generated using pymatgen
data_Ti3Ge2Mo2PRu
_symmetry_space_group_name_H-M   'P 1'
_cell_length_a   6.93062263
_cell_length_b   6.93062321
_cell_length_c   3.25953900
_cell_angle_alpha   90.00000000
_cell_angle_beta   90.00000000
_cell_angle_gamma   120.43528406
_symmetry_Int_Tables_number   1
_chemical_formula_structural   Ti3Ge2Mo2PRu
_chemical_formula_sum   'Ti3 Ge2 Mo2 P1 Ru1'
_cell_volume   134.99251470
_cell_formula_units_Z   1
loop_
 _symmetry_equiv_pos_site_id
 _symmetry_equiv_pos_as_xyz
  1  'x, y, z'
loop_
 _atom_site_type_symbol
 _atom_site_label
 _atom_site_symmetry_multiplicity
 _atom_site_fract_x
 _atom_site_fract_y
 _atom_site_fract_z
 _atom_site_occupancy
  Ti  Ti0  1  0.387182  0.387182  0.500000  1
  Ti  Ti1  1  0.602877  0.010518  0.500000  1
  Ti  Ti2  1  0.010518  0.602877  0.500000  1
  Ge  Ge3  1  0.668344  0.341364  0.000000  1
  Ge  Ge4  1  0.341364  0.668344  0.000000  1
  Mo  Mo5  1  0.997873  0.250541  0.000000  1
  Mo  Mo6  1  0.250541  0.997873  0.000000  1
  P  P7  1  0.994556  0.994556  0.500000  1
  Ru  Ru8  1  0.746746  0.746746  0.000000  1
