# generated using pymatgen
data_La4GeBr6
_symmetry_space_group_name_H-M   'P 1'
_cell_length_a   4.25578300
_cell_length_b   13.87695700
_cell_length_c   14.69581100
_cell_angle_alpha   90.00000000
_cell_angle_beta   90.00000000
_cell_angle_gamma   90.00000000
_symmetry_Int_Tables_number   1
_chemical_formula_structural   La4GeBr6
_chemical_formula_sum   'La8 Ge2 Br12'
_cell_volume   867.89517897
_cell_formula_units_Z   2
loop_
 _symmetry_equiv_pos_site_id
 _symmetry_equiv_pos_as_xyz
  1  'x, y, z'
loop_
 _atom_site_type_symbol
 _atom_site_label
 _atom_site_symmetry_multiplicity
 _atom_site_fract_x
 _atom_site_fract_y
 _atom_site_fract_z
 _atom_site_occupancy
  La  La0  1  0.500000  0.121054  0.337350  1
  La  La1  1  0.500000  0.878946  0.662650  1
  La  La2  1  0.500000  0.621054  0.162650  1
  La  La3  1  0.500000  0.378946  0.837350  1
  La  La4  1  0.000000  0.122575  0.581326  1
  La  La5  1  0.000000  0.877425  0.418674  1
  La  La6  1  0.000000  0.622575  0.918674  1
  La  La7  1  0.000000  0.377425  0.081326  1
  Ge  Ge8  1  0.500000  0.000000  0.500000  1
  Ge  Ge9  1  0.500000  0.500000  0.000000  1
  Br  Br10  1  0.500000  0.242091  0.162125  1
  Br  Br11  1  0.500000  0.757909  0.837875  1
  Br  Br12  1  0.500000  0.742091  0.337875  1
  Br  Br13  1  0.500000  0.257909  0.662125  1
  Br  Br14  1  0.000000  0.256569  0.411298  1
  Br  Br15  1  0.000000  0.743431  0.588702  1
  Br  Br16  1  0.000000  0.756569  0.088702  1
  Br  Br17  1  0.000000  0.243431  0.911298  1
  Br  Br18  1  0.000000  0.001134  0.242228  1
  Br  Br19  1  0.000000  0.998866  0.757772  1
  Br  Br20  1  0.000000  0.501134  0.257772  1
  Br  Br21  1  0.000000  0.498866  0.742228  1
