# generated using pymatgen
data_YbSc(NbSe2)8
_symmetry_space_group_name_H-M   'P 1'
_cell_length_a   7.02596900
_cell_length_b   7.02596956
_cell_length_c   14.28740600
_cell_angle_alpha   90.00000000
_cell_angle_beta   90.00000000
_cell_angle_gamma   120.00000206
_symmetry_Int_Tables_number   1
_chemical_formula_structural   YbSc(NbSe2)8
_chemical_formula_sum   'Yb1 Sc1 Nb8 Se16'
_cell_volume   610.79644686
_cell_formula_units_Z   1
loop_
 _symmetry_equiv_pos_site_id
 _symmetry_equiv_pos_as_xyz
  1  'x, y, z'
loop_
 _atom_site_type_symbol
 _atom_site_label
 _atom_site_symmetry_multiplicity
 _atom_site_fract_x
 _atom_site_fract_y
 _atom_site_fract_z
 _atom_site_occupancy
  Yb  Yb0  1  0.000000  0.000000  0.500000  1
  Sc  Sc1  1  0.000000  0.000000  0.000000  1
  Nb  Nb2  1  0.000000  0.000000  0.237867  1
  Nb  Nb3  1  0.000000  0.000000  0.762133  1
  Nb  Nb4  1  0.507173  0.014346  0.238410  1
  Nb  Nb5  1  0.985654  0.492827  0.238410  1
  Nb  Nb6  1  0.507173  0.492827  0.238410  1
  Nb  Nb7  1  0.492827  0.985654  0.761590  1
  Nb  Nb8  1  0.014346  0.507173  0.761590  1
  Nb  Nb9  1  0.492827  0.507173  0.761590  1
  Se  Se10  1  0.333333  0.666667  0.882155  1
  Se  Se11  1  0.666667  0.333333  0.117845  1
  Se  Se12  1  0.666667  0.333333  0.359466  1
  Se  Se13  1  0.333333  0.666667  0.640534  1
  Se  Se14  1  0.168193  0.831807  0.353856  1
  Se  Se15  1  0.168193  0.336387  0.353856  1
  Se  Se16  1  0.663613  0.831807  0.353856  1
  Se  Se17  1  0.831807  0.168193  0.646144  1
  Se  Se18  1  0.831807  0.663613  0.646144  1
  Se  Se19  1  0.336387  0.168193  0.646144  1
  Se  Se20  1  0.830967  0.169033  0.877845  1
  Se  Se21  1  0.830967  0.661934  0.877845  1
  Se  Se22  1  0.338066  0.169033  0.877845  1
  Se  Se23  1  0.169033  0.830967  0.122155  1
  Se  Se24  1  0.169033  0.338066  0.122155  1
  Se  Se25  1  0.661934  0.830967  0.122155  1
