# generated using pymatgen
data_MgH5F7
_symmetry_space_group_name_H-M   'P 1'
_cell_length_a   3.82678557
_cell_length_b   5.55590478
_cell_length_c   6.95239238
_cell_angle_alpha   99.04517301
_cell_angle_beta   91.97437123
_cell_angle_gamma   98.90069209
_symmetry_Int_Tables_number   1
_chemical_formula_structural   MgH5F7
_chemical_formula_sum   'Mg1 H5 F7'
_cell_volume   143.95864225
_cell_formula_units_Z   1
loop_
 _symmetry_equiv_pos_site_id
 _symmetry_equiv_pos_as_xyz
  1  'x, y, z'
loop_
 _atom_site_type_symbol
 _atom_site_label
 _atom_site_symmetry_multiplicity
 _atom_site_fract_x
 _atom_site_fract_y
 _atom_site_fract_z
 _atom_site_occupancy
  Mg  Mg0  1  0.143164  0.865087  0.251980  1
  H  H1  1  0.953370  0.697732  0.601530  1
  H  H2  1  0.976971  0.890833  0.861673  1
  H  H3  1  0.861111  0.430596  0.986248  1
  H  H4  1  0.421890  0.174374  0.922395  1
  H  H5  1  0.161471  0.370561  0.446764  1
  F  F6  1  0.644282  0.870806  0.262350  1
  F  F7  1  0.601963  0.284463  0.859301  1
  F  F8  1  0.800206  0.776117  0.743171  1
  F  F9  1  0.065757  0.529119  0.073863  1
  F  F10  1  0.238965  0.208940  0.435914  1
  F  F11  1  0.089699  0.633838  0.472855  1
  F  F12  1  0.167561  0.013521  0.995939  1
