# generated using pymatgen
data_La8In6(PtAu3)5
_symmetry_space_group_name_H-M   'P 1'
_cell_length_a   8.84230325
_cell_length_b   8.79598228
_cell_length_c   10.42352610
_cell_angle_alpha   89.77169244
_cell_angle_beta   89.61874937
_cell_angle_gamma   108.95466287
_symmetry_Int_Tables_number   1
_chemical_formula_structural   La8In6(PtAu3)5
_chemical_formula_sum   'La8 In6 Pt5 Au15'
_cell_volume   766.71483233
_cell_formula_units_Z   1
loop_
 _symmetry_equiv_pos_site_id
 _symmetry_equiv_pos_as_xyz
  1  'x, y, z'
loop_
 _atom_site_type_symbol
 _atom_site_label
 _atom_site_symmetry_multiplicity
 _atom_site_fract_x
 _atom_site_fract_y
 _atom_site_fract_z
 _atom_site_occupancy
  La  La0  1  0.704507  0.298579  0.001732  1
  La  La1  1  0.201253  0.796708  0.501255  1
  La  La2  1  0.797384  0.807998  0.303708  1
  La  La3  1  0.304003  0.309402  0.206180  1
  La  La4  1  0.805223  0.191942  0.497608  1
  La  La5  1  0.301174  0.700951  0.004760  1
  La  La6  1  0.708046  0.706120  0.787312  1
  La  La7  1  0.196420  0.200883  0.698118  1
  In  In8  1  0.518850  0.999134  0.259134  1
  In  In9  1  0.989906  0.481411  0.741803  1
  In  In10  1  0.001188  0.005367  0.014927  1
  In  In11  1  0.019903  0.497976  0.255344  1
  In  In12  1  0.489658  0.983184  0.742714  1
  In  In13  1  0.489667  0.510757  0.488478  1
  Pt  Pt14  1  0.149762  0.437423  0.495588  1
  Pt  Pt15  1  0.903252  0.902838  0.592368  1
  Pt  Pt16  1  0.562348  0.846506  0.510173  1
  Pt  Pt17  1  0.869255  0.162194  0.205433  1
  Pt  Pt18  1  0.359580  0.654829  0.292032  1
  Au  Au19  1  0.671711  0.388546  0.292709  1
  Au  Au20  1  0.406769  0.404177  0.904720  1
  Au  Au21  1  0.933806  0.659399  0.029730  1
  Au  Au22  1  0.342217  0.616721  0.710897  1
  Au  Au23  1  0.342126  0.069847  0.970871  1
  Au  Au24  1  0.598593  0.598681  0.095826  1
  Au  Au25  1  0.657152  0.929790  0.020181  1
  Au  Au26  1  0.100225  0.101018  0.402896  1
  Au  Au27  1  0.612732  0.335609  0.705019  1
  Au  Au28  1  0.108587  0.832529  0.793830  1
  Au  Au29  1  0.070152  0.342683  0.974628  1
  Au  Au30  1  0.838235  0.567551  0.520268  1
  Au  Au31  1  0.174068  0.891278  0.209765  1
  Au  Au32  1  0.437121  0.161691  0.476906  1
  Au  Au33  1  0.835127  0.106277  0.793090  1
