# generated using pymatgen
data_Tm2Co5Ni5P6
_symmetry_space_group_name_H-M   'P 1'
_cell_length_a   3.66060600
_cell_length_b   10.22293600
_cell_length_c   11.80544200
_cell_angle_alpha   90.00000000
_cell_angle_beta   90.00000000
_cell_angle_gamma   90.00000000
_symmetry_Int_Tables_number   1
_chemical_formula_structural   Tm2Co5Ni5P6
_chemical_formula_sum   'Tm4 Co10 Ni10 P12'
_cell_volume   441.78491343
_cell_formula_units_Z   2
loop_
 _symmetry_equiv_pos_site_id
 _symmetry_equiv_pos_as_xyz
  1  'x, y, z'
loop_
 _atom_site_type_symbol
 _atom_site_label
 _atom_site_symmetry_multiplicity
 _atom_site_fract_x
 _atom_site_fract_y
 _atom_site_fract_z
 _atom_site_occupancy
  Tm  Tm0  1  0.250000  0.581284  0.704607  1
  Tm  Tm1  1  0.250000  0.918716  0.204607  1
  Tm  Tm2  1  0.750000  0.419501  0.296492  1
  Tm  Tm3  1  0.750000  0.080499  0.796492  1
  Co  Co4  1  0.750000  0.776408  0.824323  1
  Co  Co5  1  0.750000  0.723592  0.324323  1
  Co  Co6  1  0.250000  0.879042  0.698419  1
  Co  Co7  1  0.250000  0.620958  0.198419  1
  Co  Co8  1  0.750000  0.119719  0.301080  1
  Co  Co9  1  0.750000  0.380281  0.801080  1
  Co  Co10  1  0.250000  0.466032  0.932887  1
  Co  Co11  1  0.250000  0.033968  0.432887  1
  Co  Co12  1  0.750000  0.533805  0.067580  1
  Co  Co13  1  0.750000  0.966195  0.567580  1
  Ni  Ni14  1  0.250000  0.711743  0.988619  1
  Ni  Ni15  1  0.250000  0.788257  0.488619  1
  Ni  Ni16  1  0.750000  0.284679  0.008452  1
  Ni  Ni17  1  0.750000  0.215321  0.508452  1
  Ni  Ni18  1  0.250000  0.409345  0.485598  1
  Ni  Ni19  1  0.250000  0.090655  0.985598  1
  Ni  Ni20  1  0.750000  0.592695  0.515204  1
  Ni  Ni21  1  0.750000  0.907305  0.015204  1
  Ni  Ni22  1  0.250000  0.223687  0.176143  1
  Ni  Ni23  1  0.250000  0.276313  0.676143  1
  P  P24  1  0.250000  0.424814  0.114104  1
  P  P25  1  0.250000  0.075186  0.614104  1
  P  P26  1  0.750000  0.578118  0.885762  1
  P  P27  1  0.750000  0.921882  0.385762  1
  P  P28  1  0.250000  0.269854  0.867499  1
  P  P29  1  0.250000  0.230146  0.367499  1
  P  P30  1  0.750000  0.730265  0.135045  1
  P  P31  1  0.750000  0.769735  0.635045  1
  P  P32  1  0.250000  0.605788  0.387432  1
  P  P33  1  0.250000  0.894212  0.887432  1
  P  P34  1  0.750000  0.398943  0.610756  1
  P  P35  1  0.750000  0.101057  0.110756  1
