# generated using pymatgen
data_HoEr9InSb5
_symmetry_space_group_name_H-M   'P 1'
_cell_length_a   8.91291500
_cell_length_b   8.89910411
_cell_length_c   6.32833200
_cell_angle_alpha   90.00000000
_cell_angle_beta   90.00000000
_cell_angle_gamma   119.85596728
_symmetry_Int_Tables_number   1
_chemical_formula_structural   HoEr9InSb5
_chemical_formula_sum   'Ho1 Er9 In1 Sb5'
_cell_volume   435.32582618
_cell_formula_units_Z   1
loop_
 _symmetry_equiv_pos_site_id
 _symmetry_equiv_pos_as_xyz
  1  'x, y, z'
loop_
 _atom_site_type_symbol
 _atom_site_label
 _atom_site_symmetry_multiplicity
 _atom_site_fract_x
 _atom_site_fract_y
 _atom_site_fract_z
 _atom_site_occupancy
  Ho  Ho0  1  0.997795  0.243897  0.250000  1
  Er  Er1  1  0.004253  0.759784  0.750000  1
  Er  Er2  1  0.754019  0.755933  0.250000  1
  Er  Er3  1  0.756677  0.000159  0.750000  1
  Er  Er4  1  0.246155  0.242107  0.750000  1
  Er  Er5  1  0.242119  0.999580  0.250000  1
  Er  Er6  1  0.333784  0.668873  0.499146  1
  Er  Er7  1  0.664736  0.330763  0.001100  1
  Er  Er8  1  0.664736  0.330763  0.498900  1
  Er  Er9  1  0.333784  0.668873  0.000854  1
  In  In10  1  0.393561  0.998993  0.750000  1
  Sb  Sb11  1  0.388859  0.389572  0.250000  1
  Sb  Sb12  1  0.998017  0.609767  0.250000  1
  Sb  Sb13  1  0.000677  0.390203  0.750000  1
  Sb  Sb14  1  0.612396  0.611329  0.750000  1
  Sb  Sb15  1  0.608430  0.999404  0.250000  1
