# generated using pymatgen
data_Tm8Lu4Fe2Hg2Os
_symmetry_space_group_name_H-M   'P 1'
_cell_length_a   8.19517964
_cell_length_b   8.19990608
_cell_length_c   8.19766943
_cell_angle_alpha   108.61853053
_cell_angle_beta   108.58390623
_cell_angle_gamma   111.22664348
_symmetry_Int_Tables_number   1
_chemical_formula_structural   Tm8Lu4Fe2Hg2Os
_chemical_formula_sum   'Tm8 Lu4 Fe2 Hg2 Os1'
_cell_volume   423.76346014
_cell_formula_units_Z   1
loop_
 _symmetry_equiv_pos_site_id
 _symmetry_equiv_pos_as_xyz
  1  'x, y, z'
loop_
 _atom_site_type_symbol
 _atom_site_label
 _atom_site_symmetry_multiplicity
 _atom_site_fract_x
 _atom_site_fract_y
 _atom_site_fract_z
 _atom_site_occupancy
  Tm  Tm0  1  0.809576  0.049531  0.240356  1
  Tm  Tm1  1  0.048791  0.808492  0.239782  1
  Tm  Tm2  1  0.430646  0.191455  0.239561  1
  Tm  Tm3  1  0.569067  0.808719  0.759821  1
  Tm  Tm4  1  0.308479  0.308233  0.617083  1
  Tm  Tm5  1  0.691486  0.691722  0.383519  1
  Tm  Tm6  1  0.691334  0.308107  0.998889  1
  Tm  Tm7  1  0.307471  0.690684  0.999380  1
  Lu  Lu8  1  0.190084  0.429339  0.238712  1
  Lu  Lu9  1  0.810126  0.570427  0.760675  1
  Lu  Lu10  1  0.189832  0.951226  0.760843  1
  Lu  Lu11  1  0.951980  0.190885  0.761436  1
  Fe  Fe12  1  0.382922  0.383116  0.999952  1
  Fe  Fe13  1  0.616407  0.616226  0.999944  1
  Hg  Hg14  1  0.000617  0.501108  0.500406  1
  Hg  Hg15  1  0.501118  0.000642  0.500425  1
  Os  Os16  1  0.000061  0.000088  0.999214  1
