# generated using pymatgen
data_Tb3Tm7(Ga2Ru3)2
_symmetry_space_group_name_H-M   'P 1'
_cell_length_a   8.28950282
_cell_length_b   8.28950170
_cell_length_c   8.28950300
_cell_angle_alpha   109.52208291
_cell_angle_beta   109.52208751
_cell_angle_gamma   109.52207677
_symmetry_Int_Tables_number   1
_chemical_formula_structural   Tb3Tm7(Ga2Ru3)2
_chemical_formula_sum   'Tb3 Tm7 Ga4 Ru6'
_cell_volume   437.66617595
_cell_formula_units_Z   1
loop_
 _symmetry_equiv_pos_site_id
 _symmetry_equiv_pos_as_xyz
  1  'x, y, z'
loop_
 _atom_site_type_symbol
 _atom_site_label
 _atom_site_symmetry_multiplicity
 _atom_site_fract_x
 _atom_site_fract_y
 _atom_site_fract_z
 _atom_site_occupancy
  Tb  Tb0  1  0.250558  0.182739  0.930796  1
  Tb  Tb1  1  0.930796  0.250558  0.182739  1
  Tb  Tb2  1  0.182739  0.930796  0.250558  1
  Tm  Tm3  1  0.783590  0.783590  0.783590  1
  Tm  Tm4  1  0.320494  0.570775  0.750504  1
  Tm  Tm5  1  0.750504  0.320494  0.570775  1
  Tm  Tm6  1  0.570775  0.750504  0.320494  1
  Tm  Tm7  1  0.713935  0.501022  0.999646  1
  Tm  Tm8  1  0.999646  0.713935  0.501022  1
  Tm  Tm9  1  0.501022  0.999646  0.713935  1
  Ga  Ga10  1  0.414315  0.414315  0.414315  1
  Ga  Ga11  1  0.088038  0.498635  0.999654  1
  Ga  Ga12  1  0.999654  0.088038  0.498635  1
  Ga  Ga13  1  0.498635  0.999654  0.088038  1
  Ru  Ru14  1  0.871948  0.121515  0.746176  1
  Ru  Ru15  1  0.746176  0.871948  0.121515  1
  Ru  Ru16  1  0.121515  0.746176  0.871948  1
  Ru  Ru17  1  0.251765  0.626583  0.377313  1
  Ru  Ru18  1  0.377313  0.251765  0.626583  1
  Ru  Ru19  1  0.626583  0.377313  0.251765  1
