# generated using pymatgen
data_Tb3Nd5(Ni4As3)4
_symmetry_space_group_name_H-M   'P 1'
_cell_length_a   12.99934245
_cell_length_b   12.99934361
_cell_length_c   4.04345800
_cell_angle_alpha   90.00000000
_cell_angle_beta   90.00000000
_cell_angle_gamma   119.97634156
_symmetry_Int_Tables_number   1
_chemical_formula_structural   Tb3Nd5(Ni4As3)4
_chemical_formula_sum   'Tb3 Nd5 Ni16 As12'
_cell_volume   591.87481700
_cell_formula_units_Z   1
loop_
 _symmetry_equiv_pos_site_id
 _symmetry_equiv_pos_as_xyz
  1  'x, y, z'
loop_
 _atom_site_type_symbol
 _atom_site_label
 _atom_site_symmetry_multiplicity
 _atom_site_fract_x
 _atom_site_fract_y
 _atom_site_fract_z
 _atom_site_occupancy
  Tb  Tb0  1  0.570160  0.999965  0.000000  1
  Tb  Tb1  1  0.429889  0.429889  0.000000  1
  Tb  Tb2  1  0.999965  0.570160  0.000000  1
  Nd  Nd3  1  0.666676  0.333437  0.000000  1
  Nd  Nd4  1  0.333438  0.666677  0.000000  1
  Nd  Nd5  1  0.185665  0.000067  0.500000  1
  Nd  Nd6  1  0.000067  0.185665  0.500000  1
  Nd  Nd7  1  0.814224  0.814224  0.500000  1
  Ni  Ni8  1  0.000005  0.000005  0.000000  1
  Ni  Ni9  1  0.810431  0.190034  0.000000  1
  Ni  Ni10  1  0.379664  0.189554  0.000000  1
  Ni  Ni11  1  0.189554  0.379664  0.000000  1
  Ni  Ni12  1  0.809977  0.620398  0.000000  1
  Ni  Ni13  1  0.190034  0.810431  0.000000  1
  Ni  Ni14  1  0.620399  0.809978  0.000000  1
  Ni  Ni15  1  0.727324  0.000030  0.500000  1
  Ni  Ni16  1  0.482358  0.118075  0.500000  1
  Ni  Ni17  1  0.272668  0.272668  0.500000  1
  Ni  Ni18  1  0.881910  0.364273  0.500000  1
  Ni  Ni19  1  0.118075  0.482358  0.500000  1
  Ni  Ni20  1  0.635674  0.517609  0.500000  1
  Ni  Ni21  1  0.517609  0.635674  0.500000  1
  Ni  Ni22  1  0.000030  0.727324  0.500000  1
  Ni  Ni23  1  0.364273  0.881910  0.500000  1
  As  As24  1  0.356907  0.999956  0.000000  1
  As  As25  1  0.820983  0.000029  0.000000  1
  As  As26  1  0.179067  0.179067  0.000000  1
  As  As27  1  0.999956  0.356908  0.000000  1
  As  As28  1  0.642981  0.642981  0.000000  1
  As  As29  1  0.000029  0.820983  0.000000  1
  As  As30  1  0.702302  0.175670  0.500000  1
  As  As31  1  0.473318  0.297697  0.500000  1
  As  As32  1  0.297696  0.473318  0.500000  1
  As  As33  1  0.824386  0.526682  0.500000  1
  As  As34  1  0.175669  0.702302  0.500000  1
  As  As35  1  0.526682  0.824386  0.500000  1
