# generated using pymatgen
data_Hf3Ti3GaAs2
_symmetry_space_group_name_H-M   'P 1'
_cell_length_a   7.07159600
_cell_length_b   7.07159532
_cell_length_c   3.66197500
_cell_angle_alpha   90.00000000
_cell_angle_beta   90.00000000
_cell_angle_gamma   120.00000317
_symmetry_Int_Tables_number   1
_chemical_formula_structural   Hf3Ti3GaAs2
_chemical_formula_sum   'Hf3 Ti3 Ga1 As2'
_cell_volume   158.59183871
_cell_formula_units_Z   1
loop_
 _symmetry_equiv_pos_site_id
 _symmetry_equiv_pos_as_xyz
  1  'x, y, z'
loop_
 _atom_site_type_symbol
 _atom_site_label
 _atom_site_symmetry_multiplicity
 _atom_site_fract_x
 _atom_site_fract_y
 _atom_site_fract_z
 _atom_site_occupancy
  Hf  Hf0  1  0.400301  0.404729  0.500000  1
  Hf  Hf1  1  0.595271  0.995573  0.500000  1
  Hf  Hf2  1  0.004427  0.599699  0.500000  1
  Ti  Ti3  1  0.748809  0.747462  0.000000  1
  Ti  Ti4  1  0.252538  0.001348  0.000000  1
  Ti  Ti5  1  0.998652  0.251191  0.000000  1
  Ga  Ga6  1  0.666667  0.333333  0.000000  1
  As  As7  1  0.333333  0.666667  0.000000  1
  As  As8  1  0.000000  0.000000  0.500000  1
