# generated using pymatgen
data_ErCd(CuRh)2
_symmetry_space_group_name_H-M   'P 1'
_cell_length_a   5.16302574
_cell_length_b   5.41436710
_cell_length_c   5.16302566
_cell_angle_alpha   58.37613559
_cell_angle_beta   58.19730397
_cell_angle_gamma   58.37614103
_symmetry_Int_Tables_number   1
_chemical_formula_structural   ErCd(CuRh)2
_chemical_formula_sum   'Er1 Cd1 Cu2 Rh2'
_cell_volume   98.12165974
_cell_formula_units_Z   1
loop_
 _symmetry_equiv_pos_site_id
 _symmetry_equiv_pos_as_xyz
  1  'x, y, z'
loop_
 _atom_site_type_symbol
 _atom_site_label
 _atom_site_symmetry_multiplicity
 _atom_site_fract_x
 _atom_site_fract_y
 _atom_site_fract_z
 _atom_site_occupancy
  Er  Er0  1  0.747956  0.752044  0.747956  1
  Cd  Cd1  1  0.997836  0.002164  0.997836  1
  Cu  Cu2  1  0.875730  0.373314  0.377642  1
  Cu  Cu3  1  0.377642  0.373314  0.875730  1
  Rh  Rh4  1  0.375417  0.876016  0.375417  1
  Rh  Rh5  1  0.375417  0.373149  0.375417  1
