# generated using pymatgen
data_Tb2Y2CdCo
_symmetry_space_group_name_H-M   'P 1'
_cell_length_a   9.54953210
_cell_length_b   9.54953229
_cell_length_c   9.56340000
_cell_angle_alpha   59.95195734
_cell_angle_beta   59.95195668
_cell_angle_gamma   60.09608861
_symmetry_Int_Tables_number   1
_chemical_formula_structural   Tb2Y2CdCo
_chemical_formula_sum   'Tb8 Y8 Cd4 Co4'
_cell_volume   616.67975713
_cell_formula_units_Z   4
loop_
 _symmetry_equiv_pos_site_id
 _symmetry_equiv_pos_as_xyz
  1  'x, y, z'
loop_
 _atom_site_type_symbol
 _atom_site_label
 _atom_site_symmetry_multiplicity
 _atom_site_fract_x
 _atom_site_fract_y
 _atom_site_fract_z
 _atom_site_occupancy
  Tb  Tb0  1  0.346231  0.346231  0.347044  1
  Tb  Tb1  1  0.346231  0.346231  0.960494  1
  Tb  Tb2  1  0.347044  0.960494  0.346231  1
  Tb  Tb3  1  0.960494  0.347044  0.346231  1
  Tb  Tb4  1  0.811894  0.188106  0.188106  1
  Tb  Tb5  1  0.188106  0.811894  0.811894  1
  Tb  Tb6  1  0.188106  0.811894  0.188106  1
  Tb  Tb7  1  0.811894  0.188106  0.811894  1
  Y  Y8  1  0.188496  0.188496  0.811504  1
  Y  Y9  1  0.811504  0.811504  0.188496  1
  Y  Y10  1  0.938010  0.561990  0.561990  1
  Y  Y11  1  0.561990  0.938010  0.938010  1
  Y  Y12  1  0.561990  0.938010  0.561990  1
  Y  Y13  1  0.938010  0.561990  0.938010  1
  Y  Y14  1  0.561349  0.561349  0.938651  1
  Y  Y15  1  0.938651  0.938651  0.561349  1
  Cd  Cd16  1  0.580710  0.580710  0.580047  1
  Cd  Cd17  1  0.580710  0.580710  0.258531  1
  Cd  Cd18  1  0.580047  0.258531  0.580710  1
  Cd  Cd19  1  0.258531  0.580047  0.580710  1
  Co  Co20  1  0.140324  0.140324  0.143219  1
  Co  Co21  1  0.140324  0.140324  0.576134  1
  Co  Co22  1  0.143219  0.576134  0.140324  1
  Co  Co23  1  0.576134  0.143219  0.140324  1
