# generated using pymatgen
data_Ho2Si3Tc14C3
_symmetry_space_group_name_H-M   'P 1'
_cell_length_a   6.89597149
_cell_length_b   6.89597239
_cell_length_c   6.89597026
_cell_angle_alpha   82.09588286
_cell_angle_beta   82.09588008
_cell_angle_gamma   82.09588080
_symmetry_Int_Tables_number   1
_chemical_formula_structural   Ho2Si3Tc14C3
_chemical_formula_sum   'Ho2 Si3 Tc14 C3'
_cell_volume   319.37284049
_cell_formula_units_Z   1
loop_
 _symmetry_equiv_pos_site_id
 _symmetry_equiv_pos_as_xyz
  1  'x, y, z'
loop_
 _atom_site_type_symbol
 _atom_site_label
 _atom_site_symmetry_multiplicity
 _atom_site_fract_x
 _atom_site_fract_y
 _atom_site_fract_z
 _atom_site_occupancy
  Ho  Ho0  1  0.652636  0.652636  0.652636  1
  Ho  Ho1  1  0.347364  0.347364  0.347364  1
  Si  Si2  1  0.000000  0.000000  0.500000  1
  Si  Si3  1  0.500000  0.000000  0.000000  1
  Si  Si4  1  0.000000  0.500000  0.000000  1
  Tc  Tc5  1  0.722829  0.277171  0.000000  1
  Tc  Tc6  1  0.000000  0.722829  0.277171  1
  Tc  Tc7  1  0.277171  0.000000  0.722829  1
  Tc  Tc8  1  0.000000  0.277171  0.722829  1
  Tc  Tc9  1  0.722829  0.000000  0.277171  1
  Tc  Tc10  1  0.277171  0.722829  0.000000  1
  Tc  Tc11  1  0.346993  0.858879  0.346993  1
  Tc  Tc12  1  0.346993  0.346993  0.858879  1
  Tc  Tc13  1  0.858879  0.346993  0.346993  1
  Tc  Tc14  1  0.653007  0.141121  0.653007  1
  Tc  Tc15  1  0.653007  0.653007  0.141121  1
  Tc  Tc16  1  0.141121  0.653007  0.653007  1
  Tc  Tc17  1  0.900433  0.900433  0.900433  1
  Tc  Tc18  1  0.099567  0.099567  0.099567  1
  C  C19  1  0.500000  0.500000  0.000000  1
  C  C20  1  0.000000  0.500000  0.500000  1
  C  C21  1  0.500000  0.000000  0.500000  1
