# generated using pymatgen
data_Ac3Mg2ScGa2Au
_symmetry_space_group_name_H-M   'P 1'
_cell_length_a   7.77350100
_cell_length_b   7.83367091
_cell_length_c   4.75228400
_cell_angle_alpha   90.00000000
_cell_angle_beta   90.00000000
_cell_angle_gamma   119.74625298
_symmetry_Int_Tables_number   1
_chemical_formula_structural   Ac3Mg2ScGa2Au
_chemical_formula_sum   'Ac3 Mg2 Sc1 Ga2 Au1'
_cell_volume   251.25793653
_cell_formula_units_Z   1
loop_
 _symmetry_equiv_pos_site_id
 _symmetry_equiv_pos_as_xyz
  1  'x, y, z'
loop_
 _atom_site_type_symbol
 _atom_site_label
 _atom_site_symmetry_multiplicity
 _atom_site_fract_x
 _atom_site_fract_y
 _atom_site_fract_z
 _atom_site_occupancy
  Ac  Ac0  1  0.588610  0.000000  0.000000  1
  Ac  Ac1  1  0.997949  0.580894  0.000000  1
  Ac  Ac2  1  0.417056  0.419106  0.000000  1
  Mg  Mg3  1  0.998326  0.239636  0.500000  1
  Mg  Mg4  1  0.758691  0.760364  0.500000  1
  Sc  Sc5  1  0.232706  0.000000  0.500000  1
  Ga  Ga6  1  0.334106  0.673416  0.500000  1
  Ga  Ga7  1  0.660691  0.326584  0.500000  1
  Au  Au8  1  0.011866  0.000000  0.000000  1
