# generated using pymatgen
data_KPa(NiAs)2
_symmetry_space_group_name_H-M   'P 1'
_cell_length_a   4.22466500
_cell_length_b   8.49942822
_cell_length_c   7.14531914
_cell_angle_alpha   89.80513797
_cell_angle_beta   90.00000000
_cell_angle_gamma   90.00000000
_symmetry_Int_Tables_number   1
_chemical_formula_structural   KPa(NiAs)2
_chemical_formula_sum   'K2 Pa2 Ni4 As4'
_cell_volume   256.56718342
_cell_formula_units_Z   2
loop_
 _symmetry_equiv_pos_site_id
 _symmetry_equiv_pos_as_xyz
  1  'x, y, z'
loop_
 _atom_site_type_symbol
 _atom_site_label
 _atom_site_symmetry_multiplicity
 _atom_site_fract_x
 _atom_site_fract_y
 _atom_site_fract_z
 _atom_site_occupancy
  K  K0  1  0.250000  0.505225  0.229669  1
  K  K1  1  0.750000  0.494775  0.770331  1
  Pa  Pa2  1  0.750000  0.993977  0.724143  1
  Pa  Pa3  1  0.250000  0.006023  0.275857  1
  Ni  Ni4  1  0.250000  0.849776  0.914916  1
  Ni  Ni5  1  0.750000  0.150224  0.085084  1
  Ni  Ni6  1  0.750000  0.797346  0.429504  1
  Ni  Ni7  1  0.250000  0.202654  0.570496  1
  As  As8  1  0.250000  0.763326  0.588664  1
  As  As9  1  0.750000  0.236674  0.411336  1
  As  As10  1  0.750000  0.820187  0.090148  1
  As  As11  1  0.250000  0.179813  0.909852  1
