# generated using pymatgen
data_Th14Tc3PtAu2
_symmetry_space_group_name_H-M   'P 1'
_cell_length_a   10.07011996
_cell_length_b   10.07011950
_cell_length_c   6.38775308
_cell_angle_alpha   89.86144701
_cell_angle_beta   90.13855442
_cell_angle_gamma   119.38219271
_symmetry_Int_Tables_number   1
_chemical_formula_structural   Th14Tc3PtAu2
_chemical_formula_sum   'Th14 Tc3 Pt1 Au2'
_cell_volume   564.43828563
_cell_formula_units_Z   1
loop_
 _symmetry_equiv_pos_site_id
 _symmetry_equiv_pos_as_xyz
  1  'x, y, z'
loop_
 _atom_site_type_symbol
 _atom_site_label
 _atom_site_symmetry_multiplicity
 _atom_site_fract_x
 _atom_site_fract_y
 _atom_site_fract_z
 _atom_site_occupancy
  Th  Th0  1  0.669743  0.330257  0.603231  1
  Th  Th1  1  0.333392  0.666608  0.028538  1
  Th  Th2  1  0.879102  0.757430  0.761558  1
  Th  Th3  1  0.242570  0.120898  0.761558  1
  Th  Th4  1  0.875187  0.124813  0.751386  1
  Th  Th5  1  0.125283  0.259727  0.245932  1
  Th  Th6  1  0.740273  0.874717  0.245932  1
  Th  Th7  1  0.130415  0.869585  0.247599  1
  Th  Th8  1  0.456371  0.911498  0.542436  1
  Th  Th9  1  0.088502  0.543629  0.542436  1
  Th  Th10  1  0.455472  0.544528  0.538465  1
  Th  Th11  1  0.541345  0.073171  0.029312  1
  Th  Th12  1  0.926829  0.458655  0.029312  1
  Th  Th13  1  0.535056  0.464944  0.019965  1
  Tc  Tc14  1  0.183128  0.363935  0.800909  1
  Tc  Tc15  1  0.636065  0.816872  0.800909  1
  Tc  Tc16  1  0.180925  0.819075  0.802138  1
  Pt  Pt17  1  0.809003  0.190997  0.307506  1
  Au  Au18  1  0.806618  0.615277  0.314486  1
  Au  Au19  1  0.384723  0.193382  0.314486  1
