# generated using pymatgen
data_Na3Eu(HoTe2)4
_symmetry_space_group_name_H-M   'P 1'
_cell_length_a   8.91984952
_cell_length_b   8.91984921
_cell_length_c   8.96447600
_cell_angle_alpha   60.16452808
_cell_angle_beta   60.16453661
_cell_angle_gamma   59.99999882
_symmetry_Int_Tables_number   1
_chemical_formula_structural   Na3Eu(HoTe2)4
_chemical_formula_sum   'Na3 Eu1 Ho4 Te8'
_cell_volume   505.59239404
_cell_formula_units_Z   1
loop_
 _symmetry_equiv_pos_site_id
 _symmetry_equiv_pos_as_xyz
  1  'x, y, z'
loop_
 _atom_site_type_symbol
 _atom_site_label
 _atom_site_symmetry_multiplicity
 _atom_site_fract_x
 _atom_site_fract_y
 _atom_site_fract_z
 _atom_site_occupancy
  Na  Na0  1  0.125000  0.625000  0.125000  1
  Na  Na1  1  0.625000  0.125000  0.125000  1
  Na  Na2  1  0.125000  0.125000  0.125000  1
  Eu  Eu3  1  0.125000  0.125000  0.625000  1
  Ho  Ho4  1  0.625000  0.125000  0.625000  1
  Ho  Ho5  1  0.625000  0.625000  0.625000  1
  Ho  Ho6  1  0.125000  0.625000  0.625000  1
  Ho  Ho7  1  0.625000  0.625000  0.125000  1
  Te  Te8  1  0.380971  0.860430  0.377627  1
  Te  Te9  1  0.869029  0.389570  0.872373  1
  Te  Te10  1  0.869498  0.869498  0.391507  1
  Te  Te11  1  0.869029  0.869029  0.872373  1
  Te  Te12  1  0.860430  0.380971  0.377627  1
  Te  Te13  1  0.380502  0.380502  0.858493  1
  Te  Te14  1  0.380971  0.380971  0.377627  1
  Te  Te15  1  0.389570  0.869029  0.872373  1
