# generated using pymatgen
data_YbYHo5PtI12
_symmetry_space_group_name_H-M   'P 1'
_cell_length_a   9.77023474
_cell_length_b   9.76811391
_cell_length_c   9.77294112
_cell_angle_alpha   106.97687901
_cell_angle_beta   106.99433821
_cell_angle_gamma   106.96182034
_symmetry_Int_Tables_number   1
_chemical_formula_structural   YbYHo5PtI12
_chemical_formula_sum   'Yb1 Y1 Ho5 Pt1 I12'
_cell_volume   777.23215801
_cell_formula_units_Z   1
loop_
 _symmetry_equiv_pos_site_id
 _symmetry_equiv_pos_as_xyz
  1  'x, y, z'
loop_
 _atom_site_type_symbol
 _atom_site_label
 _atom_site_symmetry_multiplicity
 _atom_site_fract_x
 _atom_site_fract_y
 _atom_site_fract_z
 _atom_site_occupancy
  Yb  Yb0  1  0.000010  0.000023  0.999971  1
  Y  Y1  1  0.400941  0.473197  0.196432  1
  Ho  Ho2  1  0.199080  0.401797  0.473331  1
  Ho  Ho3  1  0.473303  0.198918  0.402163  1
  Ho  Ho4  1  0.598418  0.526792  0.801216  1
  Ho  Ho5  1  0.801029  0.598151  0.527077  1
  Ho  Ho6  1  0.526914  0.801183  0.598633  1
  Pt  Pt7  1  0.500205  0.500095  0.500670  1
  I  I8  1  0.039634  0.347704  0.118437  1
  I  I9  1  0.118020  0.040565  0.347728  1
  I  I10  1  0.348006  0.117173  0.040743  1
  I  I11  1  0.959465  0.651998  0.881773  1
  I  I12  1  0.881904  0.959449  0.652108  1
  I  I13  1  0.651976  0.881907  0.959343  1
  I  I14  1  0.724762  0.573984  0.178272  1
  I  I15  1  0.177830  0.723345  0.573429  1
  I  I16  1  0.573458  0.177726  0.723261  1
  I  I17  1  0.276253  0.426323  0.821619  1
  I  I18  1  0.822087  0.276555  0.426364  1
  I  I19  1  0.426705  0.823115  0.277429  1
