# generated using pymatgen
data_Cs2TaF7
_symmetry_space_group_name_H-M   'P 1'
_cell_length_a   6.29927900
_cell_length_b   6.26014600
_cell_length_c   11.23971000
_cell_angle_alpha   90.00000000
_cell_angle_beta   90.00000000
_cell_angle_gamma   90.00000000
_symmetry_Int_Tables_number   1
_chemical_formula_structural   Cs2TaF7
_chemical_formula_sum   'Cs4 Ta2 F14'
_cell_volume   443.23129010
_cell_formula_units_Z   2
loop_
 _symmetry_equiv_pos_site_id
 _symmetry_equiv_pos_as_xyz
  1  'x, y, z'
loop_
 _atom_site_type_symbol
 _atom_site_label
 _atom_site_symmetry_multiplicity
 _atom_site_fract_x
 _atom_site_fract_y
 _atom_site_fract_z
 _atom_site_occupancy
  Cs  Cs0  1  0.000000  0.500000  0.363357  1
  Cs  Cs1  1  0.500000  0.000000  0.636643  1
  Cs  Cs2  1  0.500000  0.500000  0.997645  1
  Cs  Cs3  1  0.000000  0.000000  0.002355  1
  Ta  Ta4  1  0.000000  0.500000  0.755776  1
  Ta  Ta5  1  0.500000  0.000000  0.244224  1
  F  F6  1  0.204105  0.269611  0.793976  1
  F  F7  1  0.295895  0.230389  0.206024  1
  F  F8  1  0.704105  0.769611  0.206024  1
  F  F9  1  0.795895  0.730389  0.793976  1
  F  F10  1  0.204105  0.730389  0.793976  1
  F  F11  1  0.704105  0.230389  0.206024  1
  F  F12  1  0.295895  0.769611  0.206024  1
  F  F13  1  0.795895  0.269611  0.793976  1
  F  F14  1  0.000000  0.500000  0.937065  1
  F  F15  1  0.500000  0.000000  0.062935  1
  F  F16  1  0.190777  0.500000  0.615999  1
  F  F17  1  0.809223  0.500000  0.615999  1
  F  F18  1  0.309223  0.000000  0.384001  1
  F  F19  1  0.690777  0.000000  0.384001  1
