# generated using pymatgen
data_ErTh2(GaCo)3
_symmetry_space_group_name_H-M   'P 1'
_cell_length_a   6.94464200
_cell_length_b   7.09895957
_cell_length_c   3.85152700
_cell_angle_alpha   90.00000000
_cell_angle_beta   90.00000000
_cell_angle_gamma   119.28347892
_symmetry_Int_Tables_number   1
_chemical_formula_structural   ErTh2(GaCo)3
_chemical_formula_sum   'Er1 Th2 Ga3 Co3'
_cell_volume   165.61464847
_cell_formula_units_Z   1
loop_
 _symmetry_equiv_pos_site_id
 _symmetry_equiv_pos_as_xyz
  1  'x, y, z'
loop_
 _atom_site_type_symbol
 _atom_site_label
 _atom_site_symmetry_multiplicity
 _atom_site_fract_x
 _atom_site_fract_y
 _atom_site_fract_z
 _atom_site_occupancy
  Er  Er0  1  0.586908  0.000000  0.000000  1
  Th  Th1  1  0.999020  0.578255  0.000000  1
  Th  Th2  1  0.420764  0.421745  0.000000  1
  Ga  Ga3  1  0.249812  0.000000  0.500000  1
  Ga  Ga4  1  0.987710  0.225082  0.500000  1
  Ga  Ga5  1  0.762628  0.774918  0.500000  1
  Co  Co6  1  0.317184  0.648321  0.500000  1
  Co  Co7  1  0.668865  0.351679  0.500000  1
  Co  Co8  1  0.007108  0.000000  0.000000  1
