# generated using pymatgen
data_Sr3La15(BiO)10
_symmetry_space_group_name_H-M   'P 1'
_cell_length_a   10.65744124
_cell_length_b   10.66541702
_cell_length_c   9.49813306
_cell_angle_alpha   90.04923429
_cell_angle_beta   90.02223662
_cell_angle_gamma   89.92911598
_symmetry_Int_Tables_number   1
_chemical_formula_structural   Sr3La15(BiO)10
_chemical_formula_sum   'Sr3 La15 Bi10 O10'
_cell_volume   1079.61401073
_cell_formula_units_Z   1
loop_
 _symmetry_equiv_pos_site_id
 _symmetry_equiv_pos_as_xyz
  1  'x, y, z'
loop_
 _atom_site_type_symbol
 _atom_site_label
 _atom_site_symmetry_multiplicity
 _atom_site_fract_x
 _atom_site_fract_y
 _atom_site_fract_z
 _atom_site_occupancy
  Sr  Sr0  1  0.795912  0.103732  0.342036  1
  Sr  Sr1  1  0.603918  0.703449  0.342262  1
  Sr  Sr2  1  0.396684  0.296727  0.342159  1
  La  La3  1  0.999409  0.499499  0.320183  1
  La  La4  1  0.500822  0.000241  0.678044  1
  La  La5  1  0.205229  0.896154  0.335709  1
  La  La6  1  0.703256  0.395273  0.662984  1
  La  La7  1  0.894454  0.796362  0.663603  1
  La  La8  1  0.104383  0.204389  0.663777  1
  La  La9  1  0.296924  0.603600  0.663987  1
  La  La10  1  0.081827  0.726760  0.998739  1
  La  La11  1  0.229231  0.417114  0.999728  1
  La  La12  1  0.769927  0.582428  0.000210  1
  La  La13  1  0.916500  0.270322  0.000305  1
  La  La14  1  0.420648  0.772022  0.005850  1
  La  La15  1  0.273769  0.082770  0.004505  1
  La  La16  1  0.728260  0.919524  0.005884  1
  La  La17  1  0.581400  0.228829  0.006298  1
  Bi  Bi18  1  0.000179  0.499936  0.688337  1
  Bi  Bi19  1  0.495836  0.998408  0.308434  1
  Bi  Bi20  1  0.701217  0.404197  0.297631  1
  Bi  Bi21  1  0.907830  0.800547  0.298438  1
  Bi  Bi22  1  0.097559  0.196845  0.298611  1
  Bi  Bi23  1  0.297717  0.599065  0.298836  1
  Bi  Bi24  1  0.803860  0.096540  0.703983  1
  Bi  Bi25  1  0.596689  0.696104  0.704170  1
  Bi  Bi26  1  0.403372  0.303910  0.704116  1
  Bi  Bi27  1  0.196296  0.902990  0.700439  1
  O  O28  1  0.000875  0.500985  0.074522  1
  O  O29  1  0.498984  0.999364  0.924027  1
  O  O30  1  0.881080  0.774747  0.908922  1
  O  O31  1  0.275167  0.620556  0.908928  1
  O  O32  1  0.725061  0.380298  0.908430  1
  O  O33  1  0.120234  0.224809  0.909069  1
  O  O34  1  0.621700  0.726920  0.079157  1
  O  O35  1  0.223395  0.879772  0.089981  1
  O  O36  1  0.773012  0.121648  0.079132  1
  O  O37  1  0.377383  0.273162  0.078573  1
