# generated using pymatgen
data_Sm5YFe4(Co7P6)2
_symmetry_space_group_name_H-M   'P 1'
_cell_length_a   3.73397600
_cell_length_b   10.61647726
_cell_length_c   12.20609830
_cell_angle_alpha   90.02550390
_cell_angle_beta   90.00000000
_cell_angle_gamma   90.00000000
_symmetry_Int_Tables_number   1
_chemical_formula_structural   Sm5YFe4(Co7P6)2
_chemical_formula_sum   'Sm5 Y1 Fe4 Co14 P12'
_cell_volume   483.87008887
_cell_formula_units_Z   1
loop_
 _symmetry_equiv_pos_site_id
 _symmetry_equiv_pos_as_xyz
  1  'x, y, z'
loop_
 _atom_site_type_symbol
 _atom_site_label
 _atom_site_symmetry_multiplicity
 _atom_site_fract_x
 _atom_site_fract_y
 _atom_site_fract_z
 _atom_site_occupancy
  Sm  Sm0  1  0.000000  0.499848  0.522103  1
  Sm  Sm1  1  0.500000  0.000109  0.478154  1
  Sm  Sm2  1  0.500000  0.818732  0.204118  1
  Sm  Sm3  1  0.500000  0.181307  0.204411  1
  Sm  Sm4  1  0.000000  0.680757  0.795680  1
  Y  Y5  1  0.000000  0.318503  0.795975  1
  Fe  Fe6  1  0.500000  0.499840  0.154459  1
  Fe  Fe7  1  0.000000  0.000228  0.845287  1
  Fe  Fe8  1  0.000000  0.499307  0.988494  1
  Fe  Fe9  1  0.500000  0.000681  0.010287  1
  Co  Co10  1  0.500000  0.498749  0.702177  1
  Co  Co11  1  0.000000  0.000179  0.298376  1
  Co  Co12  1  0.500000  0.331790  0.994192  1
  Co  Co13  1  0.500000  0.667469  0.994889  1
  Co  Co14  1  0.000000  0.168652  0.004038  1
  Co  Co15  1  0.000000  0.831937  0.004641  1
  Co  Co16  1  0.500000  0.296396  0.430961  1
  Co  Co17  1  0.500000  0.703447  0.430234  1
  Co  Co18  1  0.000000  0.204067  0.570845  1
  Co  Co19  1  0.000000  0.796320  0.569846  1
  Co  Co20  1  0.500000  0.880424  0.709802  1
  Co  Co21  1  0.500000  0.120940  0.710572  1
  Co  Co22  1  0.000000  0.619775  0.290113  1
  Co  Co23  1  0.000000  0.380259  0.290401  1
  P  P24  1  0.500000  0.498653  0.885628  1
  P  P25  1  0.000000  0.000314  0.112997  1
  P  P26  1  0.500000  0.500070  0.339205  1
  P  P27  1  0.000000  0.999965  0.660899  1
  P  P28  1  0.500000  0.307982  0.617298  1
  P  P29  1  0.500000  0.692217  0.615502  1
  P  P30  1  0.000000  0.192700  0.385064  1
  P  P31  1  0.000000  0.807546  0.384587  1
  P  P32  1  0.500000  0.848171  0.894720  1
  P  P33  1  0.500000  0.152982  0.893778  1
  P  P34  1  0.000000  0.651349  0.104940  1
  P  P35  1  0.000000  0.348338  0.105327  1
