# generated using pymatgen
data_K11In2Sb5
_symmetry_space_group_name_H-M   'P 1'
_cell_length_a   10.00983443
_cell_length_b   12.05447403
_cell_length_c   13.10564917
_cell_angle_alpha   103.45210504
_cell_angle_beta   97.26139732
_cell_angle_gamma   107.45624373
_symmetry_Int_Tables_number   1
_chemical_formula_structural   K11In2Sb5
_chemical_formula_sum   'K22 In4 Sb10'
_cell_volume   1433.98040788
_cell_formula_units_Z   2
loop_
 _symmetry_equiv_pos_site_id
 _symmetry_equiv_pos_as_xyz
  1  'x, y, z'
loop_
 _atom_site_type_symbol
 _atom_site_label
 _atom_site_symmetry_multiplicity
 _atom_site_fract_x
 _atom_site_fract_y
 _atom_site_fract_z
 _atom_site_occupancy
  K  K0  1  0.857570  0.574618  0.965381  1
  K  K1  1  0.142430  0.425382  0.034619  1
  K  K2  1  0.311078  0.893996  0.774752  1
  K  K3  1  0.688922  0.106004  0.225248  1
  K  K4  1  0.635524  0.166004  0.530063  1
  K  K5  1  0.364476  0.833996  0.469937  1
  K  K6  1  0.628518  0.671190  0.554618  1
  K  K7  1  0.371482  0.328810  0.445382  1
  K  K8  1  0.185858  0.553837  0.571693  1
  K  K9  1  0.814142  0.446163  0.428307  1
  K  K10  1  0.050516  0.705309  0.267019  1
  K  K11  1  0.949484  0.294691  0.732981  1
  K  K12  1  0.187198  0.074307  0.570168  1
  K  K13  1  0.812802  0.925693  0.429832  1
  K  K14  1  0.877396  0.095164  0.986222  1
  K  K15  1  0.122604  0.904836  0.013778  1
  K  K16  1  0.589191  0.225263  0.865627  1
  K  K17  1  0.410809  0.774737  0.134373  1
  K  K18  1  0.379449  0.242357  0.141560  1
  K  K19  1  0.620551  0.757643  0.858440  1
  K  K20  1  0.351591  0.414875  0.788246  1
  K  K21  1  0.648409  0.585125  0.211754  1
  In  In22  1  0.940626  0.922950  0.742137  1
  In  In23  1  0.059374  0.077050  0.257863  1
  In  In24  1  0.939596  0.673707  0.740609  1
  In  In25  1  0.060404  0.326293  0.259391  1
  Sb  Sb26  1  0.002967  0.762779  0.543370  1
  Sb  Sb27  1  0.997033  0.237221  0.456630  1
  Sb  Sb28  1  0.669897  0.460293  0.692564  1
  Sb  Sb29  1  0.330103  0.539707  0.307436  1
  Sb  Sb30  1  0.668403  0.973536  0.698022  1
  Sb  Sb31  1  0.331597  0.026464  0.301978  1
  Sb  Sb32  1  0.189658  0.145591  0.860142  1
  Sb  Sb33  1  0.810342  0.854409  0.139858  1
  Sb  Sb34  1  0.186144  0.632979  0.863566  1
  Sb  Sb35  1  0.813856  0.367021  0.136434  1
