# generated using pymatgen
data_Cs6Te4Pb
_symmetry_space_group_name_H-M   'P 1'
_cell_length_a   12.23345000
_cell_length_b   12.23345009
_cell_length_c   9.29995700
_cell_angle_alpha   90.00000000
_cell_angle_beta   90.00000000
_cell_angle_gamma   120.00000517
_symmetry_Int_Tables_number   1
_chemical_formula_structural   Cs6Te4Pb
_chemical_formula_sum   'Cs12 Te8 Pb2'
_cell_volume   1205.33968397
_cell_formula_units_Z   2
loop_
 _symmetry_equiv_pos_site_id
 _symmetry_equiv_pos_as_xyz
  1  'x, y, z'
loop_
 _atom_site_type_symbol
 _atom_site_label
 _atom_site_symmetry_multiplicity
 _atom_site_fract_x
 _atom_site_fract_y
 _atom_site_fract_z
 _atom_site_occupancy
  Cs  Cs0  1  0.474085  0.948169  0.975411  1
  Cs  Cs1  1  0.525915  0.474085  0.475411  1
  Cs  Cs2  1  0.948169  0.474085  0.475411  1
  Cs  Cs3  1  0.051831  0.525915  0.975411  1
  Cs  Cs4  1  0.474085  0.525915  0.975411  1
  Cs  Cs5  1  0.525915  0.051831  0.475411  1
  Cs  Cs6  1  0.700692  0.850345  0.298220  1
  Cs  Cs7  1  0.850345  0.700692  0.798220  1
  Cs  Cs8  1  0.850345  0.149655  0.798220  1
  Cs  Cs9  1  0.149655  0.850345  0.298220  1
  Cs  Cs10  1  0.149655  0.299308  0.298220  1
  Cs  Cs11  1  0.299308  0.149655  0.798220  1
  Te  Te12  1  0.619019  0.809510  0.699109  1
  Te  Te13  1  0.809510  0.619019  0.199109  1
  Te  Te14  1  0.809510  0.190490  0.199109  1
  Te  Te15  1  0.190490  0.809510  0.699109  1
  Te  Te16  1  0.190490  0.380981  0.699109  1
  Te  Te17  1  0.380981  0.190490  0.199109  1
  Te  Te18  1  0.333333  0.666667  0.252452  1
  Te  Te19  1  0.666667  0.333333  0.752452  1
  Pb  Pb20  1  0.333333  0.666667  0.594846  1
  Pb  Pb21  1  0.666667  0.333333  0.094846  1
