# generated using pymatgen
data_Hf18MnZnRe8
_symmetry_space_group_name_H-M   'P 1'
_cell_length_a   8.60426100
_cell_length_b   8.60398457
_cell_length_c   8.56581400
_cell_angle_alpha   90.00000000
_cell_angle_beta   90.00000000
_cell_angle_gamma   119.99732589
_symmetry_Int_Tables_number   1
_chemical_formula_structural   Hf18MnZnRe8
_chemical_formula_sum   'Hf18 Mn1 Zn1 Re8'
_cell_volume   549.19196212
_cell_formula_units_Z   1
loop_
 _symmetry_equiv_pos_site_id
 _symmetry_equiv_pos_as_xyz
  1  'x, y, z'
loop_
 _atom_site_type_symbol
 _atom_site_label
 _atom_site_symmetry_multiplicity
 _atom_site_fract_x
 _atom_site_fract_y
 _atom_site_fract_z
 _atom_site_occupancy
  Hf  Hf0  1  0.192383  0.807618  0.449457  1
  Hf  Hf1  1  0.192383  0.384765  0.449456  1
  Hf  Hf2  1  0.615237  0.807620  0.449457  1
  Hf  Hf3  1  0.798335  0.201662  0.557342  1
  Hf  Hf4  1  0.798333  0.596677  0.557336  1
  Hf  Hf5  1  0.403325  0.201666  0.557334  1
  Hf  Hf6  1  0.798335  0.201662  0.942658  1
  Hf  Hf7  1  0.798333  0.596677  0.942664  1
  Hf  Hf8  1  0.403325  0.201666  0.942666  1
  Hf  Hf9  1  0.192383  0.807618  0.050543  1
  Hf  Hf10  1  0.192383  0.384765  0.050544  1
  Hf  Hf11  1  0.615237  0.807620  0.050543  1
  Hf  Hf12  1  0.540692  0.459310  0.250000  1
  Hf  Hf13  1  0.540694  0.081383  0.250000  1
  Hf  Hf14  1  0.918612  0.459304  0.250000  1
  Hf  Hf15  1  0.460288  0.539711  0.750000  1
  Hf  Hf16  1  0.460286  0.920572  0.750000  1
  Hf  Hf17  1  0.079430  0.539715  0.750000  1
  Mn  Mn18  1  0.666698  0.333314  0.750000  1
  Zn  Zn19  1  0.333310  0.666664  0.250000  1
  Re  Re20  1  0.888660  0.111343  0.250000  1
  Re  Re21  1  0.888662  0.777321  0.250000  1
  Re  Re22  1  0.222681  0.111340  0.250000  1
  Re  Re23  1  0.110051  0.889951  0.750000  1
  Re  Re24  1  0.110049  0.220102  0.750000  1
  Re  Re25  1  0.779897  0.889953  0.750000  1
  Re  Re26  1  0.000000  0.000000  0.500142  1
  Re  Re27  1  0.000000  0.000000  0.999858  1
