# generated using pymatgen
data_YHo7(InAu2)4
_symmetry_space_group_name_H-M   'P 1'
_cell_length_a   8.02067050
_cell_length_b   8.02067100
_cell_length_c   7.31535000
_cell_angle_alpha   90.00000000
_cell_angle_beta   90.00000000
_cell_angle_gamma   90.13109076
_symmetry_Int_Tables_number   1
_chemical_formula_structural   YHo7(InAu2)4
_chemical_formula_sum   'Y1 Ho7 In4 Au8'
_cell_volume   470.60371457
_cell_formula_units_Z   1
loop_
 _symmetry_equiv_pos_site_id
 _symmetry_equiv_pos_as_xyz
  1  'x, y, z'
loop_
 _atom_site_type_symbol
 _atom_site_label
 _atom_site_symmetry_multiplicity
 _atom_site_fract_x
 _atom_site_fract_y
 _atom_site_fract_z
 _atom_site_occupancy
  Y  Y0  1  0.819658  0.180342  0.000000  1
  Ho  Ho1  1  0.841107  0.158893  0.500000  1
  Ho  Ho2  1  0.158892  0.841108  0.500000  1
  Ho  Ho3  1  0.341120  0.341350  0.000000  1
  Ho  Ho4  1  0.658650  0.658880  0.000000  1
  Ho  Ho5  1  0.679743  0.679922  0.500000  1
  Ho  Ho6  1  0.320078  0.320257  0.500000  1
  Ho  Ho7  1  0.179933  0.820067  0.000000  1
  In  In8  1  0.499791  0.999844  0.250307  1
  In  In9  1  0.000156  0.500209  0.749693  1
  In  In10  1  0.499791  0.999844  0.749693  1
  In  In11  1  0.000156  0.500209  0.250307  1
  Au  Au12  1  0.628311  0.371689  0.272844  1
  Au  Au13  1  0.370836  0.629164  0.271478  1
  Au  Au14  1  0.129814  0.128498  0.770874  1
  Au  Au15  1  0.871502  0.870186  0.770874  1
  Au  Au16  1  0.370836  0.629164  0.728522  1
  Au  Au17  1  0.628311  0.371689  0.727156  1
  Au  Au18  1  0.871502  0.870186  0.229126  1
  Au  Au19  1  0.129814  0.128498  0.229126  1
