# generated using pymatgen
data_Ho4Er7TmRh4
_symmetry_space_group_name_H-M   'P 1'
_cell_length_a   6.27503993
_cell_length_b   7.13071804
_cell_length_c   9.31569050
_cell_angle_alpha   90.00107714
_cell_angle_beta   89.99596446
_cell_angle_gamma   90.02098906
_symmetry_Int_Tables_number   1
_chemical_formula_structural   Ho4Er7TmRh4
_chemical_formula_sum   'Ho4 Er7 Tm1 Rh4'
_cell_volume   416.83557646
_cell_formula_units_Z   1
loop_
 _symmetry_equiv_pos_site_id
 _symmetry_equiv_pos_as_xyz
  1  'x, y, z'
loop_
 _atom_site_type_symbol
 _atom_site_label
 _atom_site_symmetry_multiplicity
 _atom_site_fract_x
 _atom_site_fract_y
 _atom_site_fract_z
 _atom_site_occupancy
  Ho  Ho0  1  0.867024  0.966290  0.749956  1
  Ho  Ho1  1  0.367038  0.533812  0.250027  1
  Ho  Ho2  1  0.632965  0.466229  0.749901  1
  Ho  Ho3  1  0.132982  0.033798  0.249976  1
  Er  Er4  1  0.172655  0.321343  0.936788  1
  Er  Er5  1  0.827288  0.678570  0.436752  1
  Er  Er6  1  0.327274  0.821522  0.563150  1
  Er  Er7  1  0.327201  0.821527  0.936785  1
  Er  Er8  1  0.827297  0.678514  0.063286  1
  Er  Er9  1  0.172572  0.321413  0.563199  1
  Er  Er10  1  0.672800  0.178458  0.436727  1
  Tm  Tm11  1  0.672801  0.178503  0.063381  1
  Rh  Rh12  1  0.053703  0.615807  0.750007  1
  Rh  Rh13  1  0.553911  0.884295  0.250178  1
  Rh  Rh14  1  0.446186  0.115833  0.749878  1
  Rh  Rh15  1  0.946305  0.384087  0.250006  1
