# generated using pymatgen
data_TbTh3(Ni2Ag)2
_symmetry_space_group_name_H-M   'P 1'
_cell_length_a   7.42218948
_cell_length_b   7.42218956
_cell_length_c   3.70418400
_cell_angle_alpha   90.00000000
_cell_angle_beta   90.00000000
_cell_angle_gamma   90.85651103
_symmetry_Int_Tables_number   1
_chemical_formula_structural   TbTh3(Ni2Ag)2
_chemical_formula_sum   'Tb1 Th3 Ni4 Ag2'
_cell_volume   204.03661160
_cell_formula_units_Z   1
loop_
 _symmetry_equiv_pos_site_id
 _symmetry_equiv_pos_as_xyz
  1  'x, y, z'
loop_
 _atom_site_type_symbol
 _atom_site_label
 _atom_site_symmetry_multiplicity
 _atom_site_fract_x
 _atom_site_fract_y
 _atom_site_fract_z
 _atom_site_occupancy
  Tb  Tb0  1  0.825388  0.674612  0.500000  1
  Th  Th1  1  0.676342  0.174262  0.500000  1
  Th  Th2  1  0.325738  0.823658  0.500000  1
  Th  Th3  1  0.173226  0.326774  0.500000  1
  Ni  Ni4  1  0.879143  0.373235  0.000000  1
  Ni  Ni5  1  0.126765  0.620857  0.000000  1
  Ni  Ni6  1  0.373496  0.126504  0.000000  1
  Ni  Ni7  1  0.616555  0.883445  0.000000  1
  Ag  Ag8  1  0.507591  0.504244  0.000000  1
  Ag  Ag9  1  0.995756  0.992409  0.000000  1
