# generated using pymatgen
data_Sc2Ni3Pt
_symmetry_space_group_name_H-M   'P 1'
_cell_length_a   4.90342508
_cell_length_b   5.08516015
_cell_length_c   4.90342500
_cell_angle_alpha   61.17534365
_cell_angle_beta   60.00000731
_cell_angle_gamma   61.17534133
_symmetry_Int_Tables_number   1
_chemical_formula_structural   Sc2Ni3Pt
_chemical_formula_sum   'Sc2 Ni3 Pt1'
_cell_volume   87.95891666
_cell_formula_units_Z   1
loop_
 _symmetry_equiv_pos_site_id
 _symmetry_equiv_pos_as_xyz
  1  'x, y, z'
loop_
 _atom_site_type_symbol
 _atom_site_label
 _atom_site_symmetry_multiplicity
 _atom_site_fract_x
 _atom_site_fract_y
 _atom_site_fract_z
 _atom_site_occupancy
  Sc  Sc0  1  0.246473  0.260581  0.246473  1
  Sc  Sc1  1  0.003527  0.989419  0.003527  1
  Ni  Ni2  1  0.625000  0.625000  0.125000  1
  Ni  Ni3  1  0.125000  0.625000  0.625000  1
  Ni  Ni4  1  0.625000  0.625000  0.625000  1
  Pt  Pt5  1  0.625000  0.125000  0.625000  1
