# generated using pymatgen
data_Pr3Nd(Tc2I)2
_symmetry_space_group_name_H-M   'P 1'
_cell_length_a   4.17663500
_cell_length_b   4.17663561
_cell_length_c   18.47563600
_cell_angle_alpha   90.00000000
_cell_angle_beta   90.00000000
_cell_angle_gamma   119.99998729
_symmetry_Int_Tables_number   1
_chemical_formula_structural   Pr3Nd(Tc2I)2
_chemical_formula_sum   'Pr3 Nd1 Tc4 I2'
_cell_volume   279.11501159
_cell_formula_units_Z   1
loop_
 _symmetry_equiv_pos_site_id
 _symmetry_equiv_pos_as_xyz
  1  'x, y, z'
loop_
 _atom_site_type_symbol
 _atom_site_label
 _atom_site_symmetry_multiplicity
 _atom_site_fract_x
 _atom_site_fract_y
 _atom_site_fract_z
 _atom_site_occupancy
  Pr  Pr0  1  0.000000  0.000000  0.114012  1
  Pr  Pr1  1  0.000000  0.000000  0.886028  1
  Pr  Pr2  1  0.000000  0.000000  0.613836  1
  Nd  Nd3  1  0.000000  0.000000  0.386659  1
  Tc  Tc4  1  0.333333  0.666667  0.514651  1
  Tc  Tc5  1  0.666667  0.333333  0.484357  1
  Tc  Tc6  1  0.666667  0.333333  0.015200  1
  Tc  Tc7  1  0.333333  0.666667  0.984807  1
  I  I8  1  0.333333  0.666667  0.250471  1
  I  I9  1  0.666667  0.333333  0.749979  1
