# generated using pymatgen
data_Tl3OsRu3PbO13
_symmetry_space_group_name_H-M   'P 1'
_cell_length_a   7.34137144
_cell_length_b   7.36934310
_cell_length_c   7.34137200
_cell_angle_alpha   60.12547832
_cell_angle_beta   59.99999746
_cell_angle_gamma   60.12547399
_symmetry_Int_Tables_number   1
_chemical_formula_structural   Tl3OsRu3PbO13
_chemical_formula_sum   'Tl3 Os1 Ru3 Pb1 O13'
_cell_volume   281.37743854
_cell_formula_units_Z   1
loop_
 _symmetry_equiv_pos_site_id
 _symmetry_equiv_pos_as_xyz
  1  'x, y, z'
loop_
 _atom_site_type_symbol
 _atom_site_label
 _atom_site_symmetry_multiplicity
 _atom_site_fract_x
 _atom_site_fract_y
 _atom_site_fract_z
 _atom_site_occupancy
  Tl  Tl0  1  0.885093  0.372551  0.371179  1
  Tl  Tl1  1  0.371179  0.372551  0.371179  1
  Tl  Tl2  1  0.371179  0.372551  0.885093  1
  Os  Os3  1  0.875074  0.374778  0.875074  1
  Ru  Ru4  1  0.875155  0.876343  0.373346  1
  Ru  Ru5  1  0.875155  0.876343  0.875155  1
  Ru  Ru6  1  0.373346  0.876343  0.875155  1
  Pb  Pb7  1  0.375965  0.872104  0.375965  1
  O  O8  1  0.196550  0.802496  0.804402  1
  O  O9  1  0.196550  0.802496  0.196550  1
  O  O10  1  0.554005  0.946890  0.945100  1
  O  O11  1  0.554005  0.946890  0.554005  1
  O  O12  1  0.945100  0.946890  0.554005  1
  O  O13  1  0.804402  0.802496  0.196550  1
  O  O14  1  0.562337  0.556706  0.940479  1
  O  O15  1  0.809350  0.193825  0.809350  1
  O  O16  1  0.809350  0.193825  0.187474  1
  O  O17  1  0.940479  0.556706  0.940479  1
  O  O18  1  0.940479  0.556706  0.562337  1
  O  O19  1  0.187474  0.193825  0.809350  1
  O  O20  1  0.497773  0.506683  0.497773  1
