# generated using pymatgen
data_Dy3Ho3(Tm2Pb3)2
_symmetry_space_group_name_H-M   'P 1'
_cell_length_a   6.56001000
_cell_length_b   9.01670476
_cell_length_c   9.01812801
_cell_angle_alpha   119.99478018
_cell_angle_beta   90.00024300
_cell_angle_gamma   89.99952221
_symmetry_Int_Tables_number   1
_chemical_formula_structural   Dy3Ho3(Tm2Pb3)2
_chemical_formula_sum   'Dy3 Ho3 Tm4 Pb6'
_cell_volume   461.97898375
_cell_formula_units_Z   1
loop_
 _symmetry_equiv_pos_site_id
 _symmetry_equiv_pos_as_xyz
  1  'x, y, z'
loop_
 _atom_site_type_symbol
 _atom_site_label
 _atom_site_symmetry_multiplicity
 _atom_site_fract_x
 _atom_site_fract_y
 _atom_site_fract_z
 _atom_site_occupancy
  Dy  Dy0  1  0.750005  0.238597  0.000000  1
  Dy  Dy1  1  0.749999  0.761340  0.761393  1
  Dy  Dy2  1  0.749999  0.999947  0.238607  1
  Ho  Ho3  1  0.249999  0.761454  0.000000  1
  Ho  Ho4  1  0.249997  0.238610  0.238559  1
  Ho  Ho5  1  0.249997  0.000051  0.761441  1
  Tm  Tm6  1  0.499972  0.333345  0.666732  1
  Tm  Tm7  1  0.499972  0.666613  0.333268  1
  Tm  Tm8  1  0.000027  0.666656  0.333269  1
  Tm  Tm9  1  0.000027  0.333386  0.666731  1
  Pb  Pb10  1  0.749996  0.605254  0.000000  1
  Pb  Pb11  1  0.750006  0.394702  0.394653  1
  Pb  Pb12  1  0.750006  0.000049  0.605347  1
  Pb  Pb13  1  0.249991  0.394659  0.000000  1
  Pb  Pb14  1  0.250004  0.605386  0.605434  1
  Pb  Pb15  1  0.250004  0.999951  0.394566  1
