# generated using pymatgen
data_La16MgCo4Hg3
_symmetry_space_group_name_H-M   'P 1'
_cell_length_a   9.98234956
_cell_length_b   9.97040669
_cell_length_c   9.97040700
_cell_angle_alpha   60.00000228
_cell_angle_beta   60.03957097
_cell_angle_gamma   60.03956657
_symmetry_Int_Tables_number   1
_chemical_formula_structural   La16MgCo4Hg3
_chemical_formula_sum   'La16 Mg1 Co4 Hg3'
_cell_volume   702.10655660
_cell_formula_units_Z   1
loop_
 _symmetry_equiv_pos_site_id
 _symmetry_equiv_pos_as_xyz
  1  'x, y, z'
loop_
 _atom_site_type_symbol
 _atom_site_label
 _atom_site_symmetry_multiplicity
 _atom_site_fract_x
 _atom_site_fract_y
 _atom_site_fract_z
 _atom_site_occupancy
  La  La0  1  0.558357  0.940842  0.559960  1
  La  La1  1  0.185522  0.188722  0.812878  1
  La  La2  1  0.558357  0.559960  0.940842  1
  La  La3  1  0.958184  0.347272  0.347272  1
  La  La4  1  0.807920  0.190963  0.810154  1
  La  La5  1  0.185522  0.812878  0.188722  1
  La  La6  1  0.344906  0.344274  0.966548  1
  La  La7  1  0.344906  0.966548  0.344274  1
  La  La8  1  0.942086  0.937719  0.560097  1
  La  La9  1  0.942086  0.560097  0.560097  1
  La  La10  1  0.344906  0.344274  0.344274  1
  La  La11  1  0.807920  0.810154  0.190963  1
  La  La12  1  0.807920  0.190963  0.190963  1
  La  La13  1  0.558357  0.940842  0.940842  1
  La  La14  1  0.942086  0.560097  0.937719  1
  La  La15  1  0.185522  0.812878  0.812878  1
  Mg  Mg16  1  0.288959  0.570347  0.570347  1
  Co  Co17  1  0.139669  0.579313  0.140509  1
  Co  Co18  1  0.576989  0.141004  0.141004  1
  Co  Co19  1  0.139669  0.140509  0.579313  1
  Co  Co20  1  0.139669  0.140509  0.140509  1
  Hg  Hg21  1  0.580164  0.584925  0.584925  1
  Hg  Hg22  1  0.580164  0.249988  0.584925  1
  Hg  Hg23  1  0.580164  0.584925  0.249988  1
