# generated using pymatgen
data_TiCd3Pt2
_symmetry_space_group_name_H-M   'P 1'
_cell_length_a   8.61029549
_cell_length_b   8.60817800
_cell_length_c   8.61561015
_cell_angle_alpha   120.01046180
_cell_angle_beta   90.00136409
_cell_angle_gamma   119.95226784
_symmetry_Int_Tables_number   1
_chemical_formula_structural   TiCd3Pt2
_chemical_formula_sum   'Ti4 Cd12 Pt8'
_cell_volume   451.79304190
_cell_formula_units_Z   4
loop_
 _symmetry_equiv_pos_site_id
 _symmetry_equiv_pos_as_xyz
  1  'x, y, z'
loop_
 _atom_site_type_symbol
 _atom_site_label
 _atom_site_symmetry_multiplicity
 _atom_site_fract_x
 _atom_site_fract_y
 _atom_site_fract_z
 _atom_site_occupancy
  Ti  Ti0  1  0.375001  0.750002  0.125003  1
  Ti  Ti1  1  0.375001  0.249999  0.625000  1
  Ti  Ti2  1  0.375001  0.750002  0.624999  1
  Ti  Ti3  1  0.874999  0.249999  0.625000  1
  Cd  Cd4  1  0.942315  0.499998  0.057684  1
  Cd  Cd5  1  0.557672  0.115330  0.057640  1
  Cd  Cd6  1  0.557664  0.499968  0.057621  1
  Cd  Cd7  1  0.807683  0.000002  0.192318  1
  Cd  Cd8  1  0.192338  0.000033  0.192380  1
  Cd  Cd9  1  0.192330  0.384675  0.192362  1
  Cd  Cd10  1  0.557632  0.499977  0.442348  1
  Cd  Cd11  1  0.942361  0.500007  0.442319  1
  Cd  Cd12  1  0.942381  0.884688  0.442329  1
  Cd  Cd13  1  0.192370  0.000024  0.807651  1
  Cd  Cd14  1  0.807617  0.615310  0.807670  1
  Cd  Cd15  1  0.807638  0.999993  0.807679  1
  Pt  Pt16  1  0.585923  0.172100  0.414079  1
  Pt  Pt17  1  0.242042  0.828148  0.414123  1
  Pt  Pt18  1  0.585982  0.827912  0.414024  1
  Pt  Pt19  1  0.164113  0.328011  0.492026  1
  Pt  Pt20  1  0.585886  0.171987  0.757971  1
  Pt  Pt21  1  0.164076  0.327898  0.835923  1
  Pt  Pt22  1  0.164017  0.672090  0.835977  1
  Pt  Pt23  1  0.507963  0.671855  0.835878  1
