# generated using pymatgen
data_LaAl3Hg
_symmetry_space_group_name_H-M   'P 1'
_cell_length_a   6.37842364
_cell_length_b   6.37842321
_cell_length_c   6.37842322
_cell_angle_alpha   138.85145809
_cell_angle_beta   138.85145936
_cell_angle_gamma   59.60142263
_symmetry_Int_Tables_number   1
_chemical_formula_structural   LaAl3Hg
_chemical_formula_sum   'La1 Al3 Hg1'
_cell_volume   111.23855968
_cell_formula_units_Z   1
loop_
 _symmetry_equiv_pos_site_id
 _symmetry_equiv_pos_as_xyz
  1  'x, y, z'
loop_
 _atom_site_type_symbol
 _atom_site_label
 _atom_site_symmetry_multiplicity
 _atom_site_fract_x
 _atom_site_fract_y
 _atom_site_fract_z
 _atom_site_occupancy
  La  La0  1  0.994354  0.994354  0.000000  1
  Al  Al1  1  0.389303  0.389303  0.000000  1
  Al  Al2  1  0.258575  0.758575  0.500000  1
  Al  Al3  1  0.758575  0.258575  0.500000  1
  Hg  Hg4  1  0.623192  0.623192  0.000000  1
