# generated using pymatgen
data_Ti8ReOs4Ru3
_symmetry_space_group_name_H-M   'P 1'
_cell_length_a   6.19110500
_cell_length_b   4.37806900
_cell_length_c   8.76158800
_cell_angle_alpha   90.00002617
_cell_angle_beta   90.00102561
_cell_angle_gamma   90.00000000
_symmetry_Int_Tables_number   1
_chemical_formula_structural   Ti8ReOs4Ru3
_chemical_formula_sum   'Ti8 Re1 Os4 Ru3'
_cell_volume   237.48358637
_cell_formula_units_Z   1
loop_
 _symmetry_equiv_pos_site_id
 _symmetry_equiv_pos_as_xyz
  1  'x, y, z'
loop_
 _atom_site_type_symbol
 _atom_site_label
 _atom_site_symmetry_multiplicity
 _atom_site_fract_x
 _atom_site_fract_y
 _atom_site_fract_z
 _atom_site_occupancy
  Ti  Ti0  1  0.000345  0.749999  0.124390  1
  Ti  Ti1  1  0.499672  0.749999  0.124389  1
  Ti  Ti2  1  0.000103  0.249999  0.375001  1
  Ti  Ti3  1  0.499933  0.249999  0.375002  1
  Ti  Ti4  1  0.499642  0.749999  0.625618  1
  Ti  Ti5  1  0.000321  0.749999  0.625623  1
  Ti  Ti6  1  0.499333  0.249999  0.874996  1
  Ti  Ti7  1  0.000640  0.249999  0.875002  1
  Re  Re8  1  0.249992  0.750000  0.874999  1
  Os  Os9  1  0.250017  0.249999  0.126340  1
  Os  Os10  1  0.750018  0.749999  0.375004  1
  Os  Os11  1  0.249978  0.249999  0.623671  1
  Os  Os12  1  0.749986  0.750000  0.874999  1
  Ru  Ru13  1  0.750023  0.249999  0.125789  1
  Ru  Ru14  1  0.250018  0.749999  0.375029  1
  Ru  Ru15  1  0.749979  0.249999  0.624150  1
