# generated using pymatgen
data_Ce3SmF15
_symmetry_space_group_name_H-M   'P 1'
_cell_length_a   7.85229293
_cell_length_b   7.85229324
_cell_length_c   7.85229284
_cell_angle_alpha   112.98078927
_cell_angle_beta   112.98080130
_cell_angle_gamma   112.98080648
_symmetry_Int_Tables_number   1
_chemical_formula_structural   Ce3SmF15
_chemical_formula_sum   'Ce3 Sm1 F15'
_cell_volume   315.14596981
_cell_formula_units_Z   1
loop_
 _symmetry_equiv_pos_site_id
 _symmetry_equiv_pos_as_xyz
  1  'x, y, z'
loop_
 _atom_site_type_symbol
 _atom_site_label
 _atom_site_symmetry_multiplicity
 _atom_site_fract_x
 _atom_site_fract_y
 _atom_site_fract_z
 _atom_site_occupancy
  Ce  Ce0  1  0.852988  0.279933  0.852988  1
  Ce  Ce1  1  0.279933  0.852988  0.852988  1
  Ce  Ce2  1  0.852988  0.852988  0.279933  1
  Sm  Sm3  1  0.491069  0.491069  0.491069  1
  F  F4  1  0.602777  0.934136  0.145662  1
  F  F5  1  0.934136  0.145662  0.602777  1
  F  F6  1  0.145662  0.602777  0.934136  1
  F  F7  1  0.934136  0.602777  0.145662  1
  F  F8  1  0.596365  0.596365  0.264690  1
  F  F9  1  0.264690  0.596365  0.596365  1
  F  F10  1  0.596365  0.264690  0.596365  1
  F  F11  1  0.149989  0.149989  0.364966  1
  F  F12  1  0.364966  0.149989  0.149989  1
  F  F13  1  0.149989  0.364966  0.149989  1
  F  F14  1  0.666148  0.666148  0.890376  1
  F  F15  1  0.890376  0.666148  0.666148  1
  F  F16  1  0.666148  0.890376  0.666148  1
  F  F17  1  0.145662  0.934136  0.602777  1
  F  F18  1  0.602777  0.145662  0.934136  1
