# generated using pymatgen
data_Tm10Co7Si20Ru
_symmetry_space_group_name_H-M   'P 1'
_cell_length_a   12.38253323
_cell_length_b   12.31948970
_cell_length_c   4.05413200
_cell_angle_alpha   90.00000000
_cell_angle_beta   90.00000000
_cell_angle_gamma   90.05562788
_symmetry_Int_Tables_number   1
_chemical_formula_structural   Tm10Co7Si20Ru
_chemical_formula_sum   'Tm10 Co7 Si20 Ru1'
_cell_volume   618.44331741
_cell_formula_units_Z   1
loop_
 _symmetry_equiv_pos_site_id
 _symmetry_equiv_pos_as_xyz
  1  'x, y, z'
loop_
 _atom_site_type_symbol
 _atom_site_label
 _atom_site_symmetry_multiplicity
 _atom_site_fract_x
 _atom_site_fract_y
 _atom_site_fract_z
 _atom_site_occupancy
  Tm  Tm0  1  0.000514  0.001276  0.000000  1
  Tm  Tm1  1  0.498790  0.506068  0.000000  1
  Tm  Tm2  1  0.682448  0.174947  0.500000  1
  Tm  Tm3  1  0.171242  0.321249  0.500000  1
  Tm  Tm4  1  0.821784  0.678226  0.500000  1
  Tm  Tm5  1  0.324995  0.818443  0.500000  1
  Tm  Tm6  1  0.888715  0.391335  0.500000  1
  Tm  Tm7  1  0.385383  0.109892  0.500000  1
  Tm  Tm8  1  0.613510  0.888233  0.500000  1
  Tm  Tm9  1  0.109589  0.611273  0.500000  1
  Co  Co10  1  0.251262  0.475693  0.000000  1
  Co  Co11  1  0.745031  0.525987  0.000000  1
  Co  Co12  1  0.475744  0.744360  0.000000  1
  Co  Co13  1  0.977433  0.756437  0.000000  1
  Co  Co14  1  0.023314  0.244444  0.000000  1
  Co  Co15  1  0.757266  0.022893  0.000000  1
  Co  Co16  1  0.245830  0.976142  0.000000  1
  Si  Si17  1  0.571546  0.062791  0.000000  1
  Si  Si18  1  0.065722  0.432461  0.000000  1
  Si  Si19  1  0.931078  0.569963  0.000000  1
  Si  Si20  1  0.431845  0.930480  0.000000  1
  Si  Si21  1  0.196127  0.154439  0.000000  1
  Si  Si22  1  0.155464  0.802184  0.000000  1
  Si  Si23  1  0.846463  0.198207  0.000000  1
  Si  Si24  1  0.803883  0.845275  0.000000  1
  Si  Si25  1  0.299615  0.653533  0.000000  1
  Si  Si26  1  0.701938  0.347208  0.000000  1
  Si  Si27  1  0.655584  0.698396  0.000000  1
  Si  Si28  1  0.335897  0.301652  0.000000  1
  Si  Si29  1  0.992007  0.168279  0.500000  1
  Si  Si30  1  0.166001  0.994175  0.500000  1
  Si  Si31  1  0.835121  0.993160  0.500000  1
  Si  Si32  1  0.001529  0.834574  0.500000  1
  Si  Si33  1  0.510668  0.670512  0.500000  1
  Si  Si34  1  0.508550  0.347462  0.500000  1
  Si  Si35  1  0.666815  0.497566  0.500000  1
  Si  Si36  1  0.330178  0.496415  0.500000  1
  Ru  Ru37  1  0.521123  0.254369  0.000000  1
