# generated using pymatgen
data_Pr4MnFe6RhO20
_symmetry_space_group_name_H-M   'P 1'
_cell_length_a   5.93214000
_cell_length_b   7.68540863
_cell_length_c   8.80001891
_cell_angle_alpha   89.76883726
_cell_angle_beta   90.00000000
_cell_angle_gamma   90.00000000
_symmetry_Int_Tables_number   1
_chemical_formula_structural   Pr4MnFe6RhO20
_chemical_formula_sum   'Pr4 Mn1 Fe6 Rh1 O20'
_cell_volume   401.19769258
_cell_formula_units_Z   1
loop_
 _symmetry_equiv_pos_site_id
 _symmetry_equiv_pos_as_xyz
  1  'x, y, z'
loop_
 _atom_site_type_symbol
 _atom_site_label
 _atom_site_symmetry_multiplicity
 _atom_site_fract_x
 _atom_site_fract_y
 _atom_site_fract_z
 _atom_site_occupancy
  Pr  Pr0  1  0.000374  0.356866  0.669372  1
  Pr  Pr1  1  0.000374  0.643134  0.330628  1
  Pr  Pr2  1  0.004412  0.864717  0.827715  1
  Pr  Pr3  1  0.004412  0.135283  0.172285  1
  Mn  Mn4  1  0.251773  0.000000  0.500000  1
  Fe  Fe5  1  0.501628  0.106857  0.855486  1
  Fe  Fe6  1  0.501628  0.893143  0.144514  1
  Fe  Fe7  1  0.495395  0.610720  0.640481  1
  Fe  Fe8  1  0.495395  0.389280  0.359519  1
  Fe  Fe9  1  0.252537  0.500000  0.000000  1
  Fe  Fe10  1  0.745373  0.000000  0.500000  1
  Rh  Rh11  1  0.744030  0.500000  0.000000  1
  O  O12  1  0.249010  0.902534  0.294179  1
  O  O13  1  0.249010  0.097466  0.705821  1
  O  O14  1  0.752602  0.400418  0.209020  1
  O  O15  1  0.752602  0.599582  0.790980  1
  O  O16  1  0.752246  0.097246  0.709896  1
  O  O17  1  0.752246  0.902754  0.290104  1
  O  O18  1  0.249917  0.595904  0.792419  1
  O  O19  1  0.249917  0.404096  0.207581  1
  O  O20  1  0.501632  0.341189  0.931211  1
  O  O21  1  0.501632  0.658811  0.068789  1
  O  O22  1  0.490631  0.844292  0.567624  1
  O  O23  1  0.490631  0.155708  0.432376  1
  O  O24  1  0.277580  0.000000  0.000000  1
  O  O25  1  0.720938  0.500000  0.500000  1
  O  O26  1  0.724033  0.000000  0.000000  1
  O  O27  1  0.274981  0.500000  0.500000  1
  O  O28  1  0.010454  0.158798  0.447110  1
  O  O29  1  0.010454  0.841202  0.552890  1
  O  O30  1  0.996077  0.663071  0.054007  1
  O  O31  1  0.996077  0.336929  0.945993  1
