# generated using pymatgen
data_Y12Si12TcIr3
_symmetry_space_group_name_H-M   'P 1'
_cell_length_a   4.23131200
_cell_length_b   10.72389568
_cell_length_c   12.38179201
_cell_angle_alpha   90.04095877
_cell_angle_beta   90.00000000
_cell_angle_gamma   90.00000000
_symmetry_Int_Tables_number   1
_chemical_formula_structural   Y12Si12TcIr3
_chemical_formula_sum   'Y12 Si12 Tc1 Ir3'
_cell_volume   561.83788913
_cell_formula_units_Z   1
loop_
 _symmetry_equiv_pos_site_id
 _symmetry_equiv_pos_as_xyz
  1  'x, y, z'
loop_
 _atom_site_type_symbol
 _atom_site_label
 _atom_site_symmetry_multiplicity
 _atom_site_fract_x
 _atom_site_fract_y
 _atom_site_fract_z
 _atom_site_occupancy
  Y  Y0  1  0.250000  0.879340  0.020980  1
  Y  Y1  1  0.250000  0.620010  0.521781  1
  Y  Y2  1  0.750000  0.118242  0.979452  1
  Y  Y3  1  0.750000  0.379744  0.479151  1
  Y  Y4  1  0.250000  0.920992  0.603286  1
  Y  Y5  1  0.250000  0.580553  0.105338  1
  Y  Y6  1  0.750000  0.080087  0.394711  1
  Y  Y7  1  0.750000  0.419864  0.896767  1
  Y  Y8  1  0.250000  0.663800  0.799393  1
  Y  Y9  1  0.250000  0.839902  0.300667  1
  Y  Y10  1  0.750000  0.340456  0.198270  1
  Y  Y11  1  0.750000  0.159312  0.699400  1
  Si  Si12  1  0.250000  0.009588  0.821459  1
  Si  Si13  1  0.250000  0.489324  0.322112  1
  Si  Si14  1  0.750000  0.989682  0.178577  1
  Si  Si15  1  0.750000  0.509436  0.680316  1
  Si  Si16  1  0.250000  0.247193  0.841999  1
  Si  Si17  1  0.250000  0.252487  0.340192  1
  Si  Si18  1  0.750000  0.753120  0.159151  1
  Si  Si19  1  0.750000  0.750181  0.657865  1
  Si  Si20  1  0.250000  0.201415  0.542078  1
  Si  Si21  1  0.250000  0.295680  0.044067  1
  Si  Si22  1  0.750000  0.798670  0.456094  1
  Si  Si23  1  0.750000  0.700319  0.956598  1
  Tc  Tc24  1  0.250000  0.390703  0.681015  1
  Ir  Ir25  1  0.250000  0.109760  0.181004  1
  Ir  Ir26  1  0.750000  0.611285  0.318846  1
  Ir  Ir27  1  0.750000  0.888853  0.819427  1
