# generated using pymatgen
data_Ho2Al3Fe14C3
_symmetry_space_group_name_H-M   'P 1'
_cell_length_a   6.49489018
_cell_length_b   6.49489020
_cell_length_c   6.49489109
_cell_angle_alpha   83.38836561
_cell_angle_beta   83.38836932
_cell_angle_gamma   83.38835611
_symmetry_Int_Tables_number   1
_chemical_formula_structural   Ho2Al3Fe14C3
_chemical_formula_sum   'Ho2 Al3 Fe14 C3'
_cell_volume   268.90086281
_cell_formula_units_Z   1
loop_
 _symmetry_equiv_pos_site_id
 _symmetry_equiv_pos_as_xyz
  1  'x, y, z'
loop_
 _atom_site_type_symbol
 _atom_site_label
 _atom_site_symmetry_multiplicity
 _atom_site_fract_x
 _atom_site_fract_y
 _atom_site_fract_z
 _atom_site_occupancy
  Ho  Ho0  1  0.657426  0.657426  0.657426  1
  Ho  Ho1  1  0.342574  0.342574  0.342574  1
  Al  Al2  1  0.000000  0.000000  0.500000  1
  Al  Al3  1  0.500000  0.000000  0.000000  1
  Al  Al4  1  0.000000  0.500000  0.000000  1
  Fe  Fe5  1  0.714173  0.285827  0.000000  1
  Fe  Fe6  1  0.000000  0.714173  0.285827  1
  Fe  Fe7  1  0.285827  0.000000  0.714173  1
  Fe  Fe8  1  0.000000  0.285827  0.714173  1
  Fe  Fe9  1  0.714173  0.000000  0.285827  1
  Fe  Fe10  1  0.285827  0.714173  0.000000  1
  Fe  Fe11  1  0.344868  0.852269  0.344868  1
  Fe  Fe12  1  0.344868  0.344868  0.852269  1
  Fe  Fe13  1  0.852269  0.344868  0.344868  1
  Fe  Fe14  1  0.655132  0.147731  0.655132  1
  Fe  Fe15  1  0.655132  0.655132  0.147731  1
  Fe  Fe16  1  0.147731  0.655132  0.655132  1
  Fe  Fe17  1  0.906807  0.906807  0.906807  1
  Fe  Fe18  1  0.093193  0.093193  0.093193  1
  C  C19  1  0.500000  0.500000  0.000000  1
  C  C20  1  0.000000  0.500000  0.500000  1
  C  C21  1  0.500000  0.000000  0.500000  1
