# generated using pymatgen
data_La14Nd2Cd4TcNi3
_symmetry_space_group_name_H-M   'P 1'
_cell_length_a   10.08979551
_cell_length_b   10.08979572
_cell_length_c   10.09828585
_cell_angle_alpha   59.38819946
_cell_angle_beta   59.38819943
_cell_angle_gamma   59.38437896
_symmetry_Int_Tables_number   1
_chemical_formula_structural   La14Nd2Cd4TcNi3
_chemical_formula_sum   'La14 Nd2 Cd4 Tc1 Ni3'
_cell_volume   716.79545982
_cell_formula_units_Z   1
loop_
 _symmetry_equiv_pos_site_id
 _symmetry_equiv_pos_as_xyz
  1  'x, y, z'
loop_
 _atom_site_type_symbol
 _atom_site_label
 _atom_site_symmetry_multiplicity
 _atom_site_fract_x
 _atom_site_fract_y
 _atom_site_fract_z
 _atom_site_occupancy
  La  La0  1  0.598613  0.598613  0.596068  1
  La  La1  1  0.597206  0.597206  0.213501  1
  La  La2  1  0.596451  0.213034  0.596965  1
  La  La3  1  0.213034  0.596451  0.596965  1
  La  La4  1  0.061128  0.437765  0.438100  1
  La  La5  1  0.441191  0.054999  0.054899  1
  La  La6  1  0.437765  0.061128  0.438100  1
  La  La7  1  0.054999  0.441191  0.054899  1
  La  La8  1  0.438333  0.438333  0.060550  1
  La  La9  1  0.055269  0.055269  0.440664  1
  La  La10  1  0.184959  0.816385  0.816646  1
  La  La11  1  0.800534  0.190434  0.190344  1
  La  La12  1  0.816385  0.184959  0.816646  1
  La  La13  1  0.190434  0.800534  0.190344  1
  Nd  Nd14  1  0.813807  0.813807  0.189406  1
  Nd  Nd15  1  0.191196  0.191196  0.800941  1
  Cd  Cd16  1  0.828544  0.828544  0.829887  1
  Cd  Cd17  1  0.828775  0.828775  0.510748  1
  Cd  Cd18  1  0.830600  0.511391  0.828064  1
  Cd  Cd19  1  0.511391  0.830600  0.828064  1
  Tc  Tc20  1  0.390498  0.390498  0.390977  1
  Ni  Ni21  1  0.395025  0.395025  0.829230  1
  Ni  Ni22  1  0.394087  0.829772  0.393996  1
  Ni  Ni23  1  0.829772  0.394087  0.393996  1
