# generated using pymatgen
data_DyHo3(Er3Ru2)2
_symmetry_space_group_name_H-M   'P 1'
_cell_length_a   6.29734636
_cell_length_b   7.27131112
_cell_length_c   8.42306909
_cell_angle_alpha   96.78610842
_cell_angle_beta   112.02493062
_cell_angle_gamma   89.98756555
_symmetry_Int_Tables_number   1
_chemical_formula_structural   DyHo3(Er3Ru2)2
_chemical_formula_sum   'Dy1 Ho3 Er6 Ru4'
_cell_volume   354.63205924
_cell_formula_units_Z   1
loop_
 _symmetry_equiv_pos_site_id
 _symmetry_equiv_pos_as_xyz
  1  'x, y, z'
loop_
 _atom_site_type_symbol
 _atom_site_label
 _atom_site_symmetry_multiplicity
 _atom_site_fract_x
 _atom_site_fract_y
 _atom_site_fract_z
 _atom_site_occupancy
  Dy  Dy0  1  0.790935  0.584172  0.813087  1
  Ho  Ho1  1  0.977896  0.915701  0.186709  1
  Ho  Ho2  1  0.208951  0.415708  0.186910  1
  Ho  Ho3  1  0.022313  0.084320  0.813424  1
  Er  Er4  1  0.205571  0.684812  0.565192  1
  Er  Er5  1  0.640522  0.815203  0.434781  1
  Er  Er6  1  0.794176  0.315120  0.434552  1
  Er  Er7  1  0.359430  0.184850  0.565092  1
  Er  Er8  1  0.419218  0.749911  0.000004  1
  Er  Er9  1  0.580776  0.250138  0.000166  1
  Ru  Ru10  1  0.602010  0.924267  0.779312  1
  Ru  Ru11  1  0.822817  0.576347  0.220661  1
  Ru  Ru12  1  0.397866  0.075911  0.220649  1
  Ru  Ru13  1  0.177520  0.423541  0.779461  1
