# generated using pymatgen
data_LuU2(SnIr)3
_symmetry_space_group_name_H-M   'P 1'
_cell_length_a   7.44095581
_cell_length_b   7.44095543
_cell_length_c   3.99589800
_cell_angle_alpha   90.00000000
_cell_angle_beta   90.00000000
_cell_angle_gamma   120.95759671
_symmetry_Int_Tables_number   1
_chemical_formula_structural   LuU2(SnIr)3
_chemical_formula_sum   'Lu1 U2 Sn3 Ir3'
_cell_volume   189.72754138
_cell_formula_units_Z   1
loop_
 _symmetry_equiv_pos_site_id
 _symmetry_equiv_pos_as_xyz
  1  'x, y, z'
loop_
 _atom_site_type_symbol
 _atom_site_label
 _atom_site_symmetry_multiplicity
 _atom_site_fract_x
 _atom_site_fract_y
 _atom_site_fract_z
 _atom_site_occupancy
  Lu  Lu0  1  0.406986  0.406986  0.500000  1
  U  U1  1  0.587954  0.000838  0.500000  1
  U  U2  1  0.000838  0.587954  0.500000  1
  Sn  Sn3  1  0.734553  0.734553  0.000000  1
  Sn  Sn4  1  0.256021  0.008759  0.000000  1
  Sn  Sn5  1  0.008759  0.256021  0.000000  1
  Ir  Ir6  1  0.681137  0.331408  0.000000  1
  Ir  Ir7  1  0.331408  0.681137  0.000000  1
  Ir  Ir8  1  0.992343  0.992343  0.500000  1
