# generated using pymatgen
data_La8AlPd23Pt
_symmetry_space_group_name_H-M   'P 1'
_cell_length_a   8.55393100
_cell_length_b   8.55597700
_cell_length_c   8.55597700
_cell_angle_alpha   90.00000000
_cell_angle_beta   90.00000000
_cell_angle_gamma   90.00000000
_symmetry_Int_Tables_number   1
_chemical_formula_structural   La8AlPd23Pt
_chemical_formula_sum   'La8 Al1 Pd23 Pt1'
_cell_volume   626.18831557
_cell_formula_units_Z   1
loop_
 _symmetry_equiv_pos_site_id
 _symmetry_equiv_pos_as_xyz
  1  'x, y, z'
loop_
 _atom_site_type_symbol
 _atom_site_label
 _atom_site_symmetry_multiplicity
 _atom_site_fract_x
 _atom_site_fract_y
 _atom_site_fract_z
 _atom_site_occupancy
  La  La0  1  0.251719  0.251535  0.251535  1
  La  La1  1  0.747671  0.747481  0.747481  1
  La  La2  1  0.747671  0.747481  0.252519  1
  La  La3  1  0.747671  0.252519  0.747481  1
  La  La4  1  0.251719  0.251535  0.748465  1
  La  La5  1  0.251719  0.748465  0.251535  1
  La  La6  1  0.251719  0.748465  0.748465  1
  La  La7  1  0.747671  0.252519  0.252519  1
  Al  Al8  1  0.004779  0.000000  0.000000  1
  Pd  Pd9  1  0.259926  0.500000  0.000000  1
  Pd  Pd10  1  0.738625  0.500000  0.000000  1
  Pd  Pd11  1  0.999789  0.260725  0.500000  1
  Pd  Pd12  1  0.500285  0.260299  0.000000  1
  Pd  Pd13  1  0.999789  0.739275  0.500000  1
  Pd  Pd14  1  0.500285  0.739701  0.000000  1
  Pd  Pd15  1  0.500285  0.000000  0.260299  1
  Pd  Pd16  1  0.259926  0.000000  0.500000  1
  Pd  Pd17  1  0.500285  0.000000  0.739701  1
  Pd  Pd18  1  0.738625  0.000000  0.500000  1
  Pd  Pd19  1  0.999789  0.500000  0.260725  1
  Pd  Pd20  1  0.999789  0.500000  0.739275  1
  Pd  Pd21  1  0.253258  0.500000  0.500000  1
  Pd  Pd22  1  0.746702  0.500000  0.500000  1
  Pd  Pd23  1  0.499877  0.253378  0.500000  1
  Pd  Pd24  1  0.499877  0.746622  0.500000  1
  Pd  Pd25  1  0.499877  0.500000  0.253378  1
  Pd  Pd26  1  0.499877  0.500000  0.746622  1
  Pd  Pd27  1  0.712400  0.000000  0.000000  1
  Pd  Pd28  1  0.998763  0.292517  0.000000  1
  Pd  Pd29  1  0.998763  0.707483  0.000000  1
  Pd  Pd30  1  0.998763  0.000000  0.292517  1
  Pd  Pd31  1  0.998763  0.000000  0.707483  1
  Pt  Pt32  1  0.293336  0.000000  0.000000  1
