# generated using pymatgen
data_Sr21Al5Ga3Sn6I
_symmetry_space_group_name_H-M   'P 1'
_cell_length_a   12.22132312
_cell_length_b   12.22614809
_cell_length_c   12.22132400
_cell_angle_alpha   60.01298265
_cell_angle_beta   60.00020360
_cell_angle_gamma   60.01298088
_symmetry_Int_Tables_number   1
_chemical_formula_structural   Sr21Al5Ga3Sn6I
_chemical_formula_sum   'Sr21 Al5 Ga3 Sn6 I1'
_cell_volume   1291.50768896
_cell_formula_units_Z   1
loop_
 _symmetry_equiv_pos_site_id
 _symmetry_equiv_pos_as_xyz
  1  'x, y, z'
loop_
 _atom_site_type_symbol
 _atom_site_label
 _atom_site_symmetry_multiplicity
 _atom_site_fract_x
 _atom_site_fract_y
 _atom_site_fract_z
 _atom_site_occupancy
  Sr  Sr0  1  0.870977  0.870812  0.387233  1
  Sr  Sr1  1  0.610405  0.130425  0.129585  1
  Sr  Sr2  1  0.870881  0.387356  0.870881  1
  Sr  Sr3  1  0.129586  0.130424  0.129586  1
  Sr  Sr4  1  0.387233  0.870812  0.870977  1
  Sr  Sr5  1  0.870977  0.870815  0.870977  1
  Sr  Sr6  1  0.168602  0.831300  0.500049  1
  Sr  Sr7  1  0.832780  0.499317  0.499190  1
  Sr  Sr8  1  0.129585  0.130425  0.610405  1
  Sr  Sr9  1  0.833134  0.168618  0.499124  1
  Sr  Sr10  1  0.168713  0.499317  0.499191  1
  Sr  Sr11  1  0.130263  0.609211  0.130263  1
  Sr  Sr12  1  0.499191  0.499317  0.168713  1
  Sr  Sr13  1  0.499124  0.168618  0.833134  1
  Sr  Sr14  1  0.500049  0.831300  0.168602  1
  Sr  Sr15  1  0.499190  0.499317  0.832780  1
  Sr  Sr16  1  0.499124  0.168615  0.499124  1
  Sr  Sr17  1  0.168715  0.499316  0.832779  1
  Sr  Sr18  1  0.000063  0.999808  0.000063  1
  Sr  Sr19  1  0.500049  0.831300  0.500049  1
  Sr  Sr20  1  0.832779  0.499316  0.168715  1
  Al  Al21  1  0.694147  0.917559  0.694147  1
  Al  Al22  1  0.694272  0.694105  0.917352  1
  Al  Al23  1  0.694273  0.694106  0.694273  1
  Al  Al24  1  0.304820  0.085540  0.304820  1
  Al  Al25  1  0.917352  0.694105  0.694272  1
  Ga  Ga26  1  0.306683  0.306170  0.080463  1
  Ga  Ga27  1  0.080463  0.306170  0.306683  1
  Ga  Ga28  1  0.306683  0.306171  0.306683  1
  Sn  Sn29  1  0.783912  0.216111  0.783912  1
  Sn  Sn30  1  0.783912  0.216112  0.216064  1
  Sn  Sn31  1  0.215981  0.783977  0.215981  1
  Sn  Sn32  1  0.215981  0.783978  0.784059  1
  Sn  Sn33  1  0.784059  0.783978  0.215981  1
  Sn  Sn34  1  0.216064  0.216112  0.783912  1
  I  I35  1  0.499979  0.500064  0.499979  1
