# generated using pymatgen
data_Ho5Ga2Ru3
_symmetry_space_group_name_H-M   'P 1'
_cell_length_a   8.29715102
_cell_length_b   8.29714961
_cell_length_c   8.29715100
_cell_angle_alpha   109.47122404
_cell_angle_beta   109.47122059
_cell_angle_gamma   109.47122067
_symmetry_Int_Tables_number   1
_chemical_formula_structural   Ho5Ga2Ru3
_chemical_formula_sum   'Ho10 Ga4 Ru6'
_cell_volume   439.70864141
_cell_formula_units_Z   2
loop_
 _symmetry_equiv_pos_site_id
 _symmetry_equiv_pos_as_xyz
  1  'x, y, z'
loop_
 _atom_site_type_symbol
 _atom_site_label
 _atom_site_symmetry_multiplicity
 _atom_site_fract_x
 _atom_site_fract_y
 _atom_site_fract_z
 _atom_site_occupancy
  Ho  Ho0  1  0.784293  0.784293  0.784293  1
  Ho  Ho1  1  0.318673  0.568673  0.750000  1
  Ho  Ho2  1  0.750000  0.318673  0.568673  1
  Ho  Ho3  1  0.568673  0.750000  0.318673  1
  Ho  Ho4  1  0.715707  0.500000  0.000000  1
  Ho  Ho5  1  0.000000  0.715707  0.500000  1
  Ho  Ho6  1  0.500000  0.000000  0.715707  1
  Ho  Ho7  1  0.250000  0.181327  0.931327  1
  Ho  Ho8  1  0.931327  0.250000  0.181327  1
  Ho  Ho9  1  0.181327  0.931327  0.250000  1
  Ga  Ga10  1  0.411584  0.411584  0.411584  1
  Ga  Ga11  1  0.088416  0.500000  0.000000  1
  Ga  Ga12  1  0.000000  0.088416  0.500000  1
  Ga  Ga13  1  0.500000  0.000000  0.088416  1
  Ru  Ru14  1  0.875434  0.125434  0.750000  1
  Ru  Ru15  1  0.750000  0.875434  0.125434  1
  Ru  Ru16  1  0.125434  0.750000  0.875434  1
  Ru  Ru17  1  0.250000  0.624566  0.374566  1
  Ru  Ru18  1  0.374566  0.250000  0.624566  1
  Ru  Ru19  1  0.624566  0.374566  0.250000  1
