# generated using pymatgen
data_Y8TiPd24
_symmetry_space_group_name_H-M   'P 1'
_cell_length_a   8.38660400
_cell_length_b   8.38660400
_cell_length_c   8.38660400
_cell_angle_alpha   90.00000000
_cell_angle_beta   90.00000000
_cell_angle_gamma   90.00000000
_symmetry_Int_Tables_number   1
_chemical_formula_structural   Y8TiPd24
_chemical_formula_sum   'Y8 Ti1 Pd24'
_cell_volume   589.87285453
_cell_formula_units_Z   1
loop_
 _symmetry_equiv_pos_site_id
 _symmetry_equiv_pos_as_xyz
  1  'x, y, z'
loop_
 _atom_site_type_symbol
 _atom_site_label
 _atom_site_symmetry_multiplicity
 _atom_site_fract_x
 _atom_site_fract_y
 _atom_site_fract_z
 _atom_site_occupancy
  Y  Y0  1  0.253078  0.253078  0.253078  1
  Y  Y1  1  0.746922  0.746922  0.746922  1
  Y  Y2  1  0.746922  0.746922  0.253078  1
  Y  Y3  1  0.746922  0.253078  0.746922  1
  Y  Y4  1  0.253078  0.253078  0.746922  1
  Y  Y5  1  0.253078  0.746922  0.253078  1
  Y  Y6  1  0.253078  0.746922  0.746922  1
  Y  Y7  1  0.746922  0.253078  0.253078  1
  Ti  Ti8  1  0.000000  0.000000  0.000000  1
  Pd  Pd9  1  0.261329  0.500000  0.000000  1
  Pd  Pd10  1  0.738671  0.500000  0.000000  1
  Pd  Pd11  1  0.000000  0.261329  0.500000  1
  Pd  Pd12  1  0.500000  0.261329  0.000000  1
  Pd  Pd13  1  0.000000  0.738671  0.500000  1
  Pd  Pd14  1  0.500000  0.738671  0.000000  1
  Pd  Pd15  1  0.500000  0.000000  0.261329  1
  Pd  Pd16  1  0.261329  0.000000  0.500000  1
  Pd  Pd17  1  0.500000  0.000000  0.738671  1
  Pd  Pd18  1  0.738671  0.000000  0.500000  1
  Pd  Pd19  1  0.000000  0.500000  0.261329  1
  Pd  Pd20  1  0.000000  0.500000  0.738671  1
  Pd  Pd21  1  0.253044  0.500000  0.500000  1
  Pd  Pd22  1  0.746956  0.500000  0.500000  1
  Pd  Pd23  1  0.500000  0.253044  0.500000  1
  Pd  Pd24  1  0.500000  0.746956  0.500000  1
  Pd  Pd25  1  0.500000  0.500000  0.253044  1
  Pd  Pd26  1  0.500000  0.500000  0.746956  1
  Pd  Pd27  1  0.295331  0.000000  0.000000  1
  Pd  Pd28  1  0.704669  0.000000  0.000000  1
  Pd  Pd29  1  0.000000  0.295331  0.000000  1
  Pd  Pd30  1  0.000000  0.704669  0.000000  1
  Pd  Pd31  1  0.000000  0.000000  0.295331  1
  Pd  Pd32  1  0.000000  0.000000  0.704669  1
