# generated using pymatgen
data_Mn6Fe2ReMo3
_symmetry_space_group_name_H-M   'P 1'
_cell_length_a   4.66616300
_cell_length_b   4.66616232
_cell_length_c   7.78530500
_cell_angle_alpha   89.99987730
_cell_angle_beta   90.00012027
_cell_angle_gamma   119.99968332
_symmetry_Int_Tables_number   1
_chemical_formula_structural   Mn6Fe2ReMo3
_chemical_formula_sum   'Mn6 Fe2 Re1 Mo3'
_cell_volume   146.80045330
_cell_formula_units_Z   1
loop_
 _symmetry_equiv_pos_site_id
 _symmetry_equiv_pos_as_xyz
  1  'x, y, z'
loop_
 _atom_site_type_symbol
 _atom_site_label
 _atom_site_symmetry_multiplicity
 _atom_site_fract_x
 _atom_site_fract_y
 _atom_site_fract_z
 _atom_site_occupancy
  Mn  Mn0  1  0.826941  0.653974  0.750472  1
  Mn  Mn1  1  0.826947  0.173053  0.750476  1
  Mn  Mn2  1  0.346026  0.173059  0.750472  1
  Mn  Mn3  1  0.173112  0.346124  0.248890  1
  Mn  Mn4  1  0.173106  0.826894  0.248891  1
  Mn  Mn5  1  0.653876  0.826888  0.248890  1
  Fe  Fe6  1  0.999995  0.000005  0.499954  1
  Fe  Fe7  1  0.999993  0.000007  0.000383  1
  Re  Re8  1  0.666676  0.333324  0.067763  1
  Mo  Mo9  1  0.333322  0.666678  0.935804  1
  Mo  Mo10  1  0.333325  0.666675  0.566107  1
  Mo  Mo11  1  0.666682  0.333318  0.431896  1
