# generated using pymatgen
data_Ac2YbPt2
_symmetry_space_group_name_H-M   'P 1'
_cell_length_a   7.97353502
_cell_length_b   7.97353398
_cell_length_c   7.97353348
_cell_angle_alpha   70.42889354
_cell_angle_beta   70.42889454
_cell_angle_gamma   70.42889172
_symmetry_Int_Tables_number   1
_chemical_formula_structural   Ac2YbPt2
_chemical_formula_sum   'Ac6 Yb3 Pt6'
_cell_volume   435.65400228
_cell_formula_units_Z   3
loop_
 _symmetry_equiv_pos_site_id
 _symmetry_equiv_pos_as_xyz
  1  'x, y, z'
loop_
 _atom_site_type_symbol
 _atom_site_label
 _atom_site_symmetry_multiplicity
 _atom_site_fract_x
 _atom_site_fract_y
 _atom_site_fract_z
 _atom_site_occupancy
  Ac  Ac0  1  0.324992  0.604034  0.847470  1
  Ac  Ac1  1  0.847470  0.324992  0.604034  1
  Ac  Ac2  1  0.604034  0.847470  0.324992  1
  Ac  Ac3  1  0.675008  0.395966  0.152530  1
  Ac  Ac4  1  0.152530  0.675008  0.395966  1
  Ac  Ac5  1  0.395966  0.152530  0.675008  1
  Yb  Yb6  1  0.000000  0.000000  0.000000  1
  Yb  Yb7  1  0.808059  0.808059  0.808059  1
  Yb  Yb8  1  0.191941  0.191941  0.191941  1
  Pt  Pt9  1  0.164690  0.959516  0.587014  1
  Pt  Pt10  1  0.587014  0.164690  0.959516  1
  Pt  Pt11  1  0.959516  0.587014  0.164690  1
  Pt  Pt12  1  0.835310  0.040484  0.412986  1
  Pt  Pt13  1  0.412986  0.835310  0.040484  1
  Pt  Pt14  1  0.040484  0.412986  0.835310  1
