# generated using pymatgen
data_PrNd2(GaRh)2
_symmetry_space_group_name_H-M   'P 1'
_cell_length_a   5.71459800
_cell_length_b   8.22948500
_cell_length_c   13.65371900
_cell_angle_alpha   90.00000000
_cell_angle_beta   90.00000000
_cell_angle_gamma   90.00000000
_symmetry_Int_Tables_number   1
_chemical_formula_structural   PrNd2(GaRh)2
_chemical_formula_sum   'Pr4 Nd8 Ga8 Rh8'
_cell_volume   642.10980770
_cell_formula_units_Z   4
loop_
 _symmetry_equiv_pos_site_id
 _symmetry_equiv_pos_as_xyz
  1  'x, y, z'
loop_
 _atom_site_type_symbol
 _atom_site_label
 _atom_site_symmetry_multiplicity
 _atom_site_fract_x
 _atom_site_fract_y
 _atom_site_fract_z
 _atom_site_occupancy
  Pr  Pr0  1  0.634626  0.258811  0.250000  1
  Pr  Pr1  1  0.365374  0.741189  0.750000  1
  Pr  Pr2  1  0.365374  0.758811  0.250000  1
  Pr  Pr3  1  0.634626  0.241189  0.750000  1
  Nd  Nd4  1  0.145960  0.398355  0.097826  1
  Nd  Nd5  1  0.854040  0.601645  0.902174  1
  Nd  Nd6  1  0.854040  0.601645  0.597826  1
  Nd  Nd7  1  0.854040  0.898355  0.402174  1
  Nd  Nd8  1  0.145960  0.398355  0.402174  1
  Nd  Nd9  1  0.145960  0.101645  0.597826  1
  Nd  Nd10  1  0.145960  0.101645  0.902174  1
  Nd  Nd11  1  0.854040  0.898355  0.097826  1
  Ga  Ga12  1  0.135928  0.110918  0.250000  1
  Ga  Ga13  1  0.864072  0.889082  0.750000  1
  Ga  Ga14  1  0.864072  0.610918  0.250000  1
  Ga  Ga15  1  0.135928  0.389082  0.750000  1
  Ga  Ga16  1  0.629472  0.250000  0.000000  1
  Ga  Ga17  1  0.370528  0.750000  0.000000  1
  Ga  Ga18  1  0.370528  0.750000  0.500000  1
  Ga  Ga19  1  0.629472  0.250000  0.500000  1
  Rh  Rh20  1  0.357252  0.031669  0.090661  1
  Rh  Rh21  1  0.642748  0.968331  0.909339  1
  Rh  Rh22  1  0.642748  0.968331  0.590661  1
  Rh  Rh23  1  0.642748  0.531669  0.409339  1
  Rh  Rh24  1  0.357252  0.031669  0.409339  1
  Rh  Rh25  1  0.357252  0.468331  0.590661  1
  Rh  Rh26  1  0.357252  0.468331  0.909339  1
  Rh  Rh27  1  0.642748  0.531669  0.090661  1
