# generated using pymatgen
data_Dy2Be25Ni
_symmetry_space_group_name_H-M   'P 1'
_cell_length_a   7.21278829
_cell_length_b   7.23202183
_cell_length_c   7.25284938
_cell_angle_alpha   59.72914499
_cell_angle_beta   59.99194849
_cell_angle_gamma   59.86940098
_symmetry_Int_Tables_number   1
_chemical_formula_structural   Dy2Be25Ni
_chemical_formula_sum   'Dy2 Be25 Ni1'
_cell_volume   266.68873532
_cell_formula_units_Z   1
loop_
 _symmetry_equiv_pos_site_id
 _symmetry_equiv_pos_as_xyz
  1  'x, y, z'
loop_
 _atom_site_type_symbol
 _atom_site_label
 _atom_site_symmetry_multiplicity
 _atom_site_fract_x
 _atom_site_fract_y
 _atom_site_fract_z
 _atom_site_occupancy
  Dy  Dy0  1  0.250409  0.249393  0.251987  1
  Dy  Dy1  1  0.750607  0.749591  0.751789  1
  Be  Be2  1  0.499036  0.500964  0.500505  1
  Be  Be3  1  0.000340  0.999660  0.001583  1
  Be  Be4  1  0.064177  0.288476  0.711443  1
  Be  Be5  1  0.711524  0.935823  0.064096  1
  Be  Be6  1  0.065063  0.934937  0.288848  1
  Be  Be7  1  0.933534  0.066466  0.713728  1
  Be  Be8  1  0.935386  0.290312  0.063746  1
  Be  Be9  1  0.709688  0.064614  0.289444  1
  Be  Be10  1  0.563656  0.791540  0.435851  1
  Be  Be11  1  0.438817  0.792047  0.205508  1
  Be  Be12  1  0.792701  0.438616  0.563566  1
  Be  Be13  1  0.438653  0.207853  0.562465  1
  Be  Be14  1  0.792147  0.561347  0.208971  1
  Be  Be15  1  0.561384  0.207299  0.794882  1
  Be  Be16  1  0.208460  0.436344  0.791047  1
  Be  Be17  1  0.207953  0.561183  0.436371  1
  Be  Be18  1  0.708788  0.291212  0.935785  1
  Be  Be19  1  0.289336  0.064041  0.933088  1
  Be  Be20  1  0.289458  0.937172  0.710389  1
  Be  Be21  1  0.062828  0.710542  0.937019  1
  Be  Be22  1  0.935959  0.710664  0.286466  1
  Be  Be23  1  0.291855  0.708145  0.063895  1
  Be  Be24  1  0.564796  0.435204  0.207294  1
  Be  Be25  1  0.795790  0.204210  0.439614  1
  Be  Be26  1  0.434644  0.565356  0.790122  1
  Ni  Ni27  1  0.203011  0.796989  0.560501  1
