# generated using pymatgen
data_Na4SrUSe6
_symmetry_space_group_name_H-M   'P 1'
_cell_length_a   7.46003398
_cell_length_b   7.46003450
_cell_length_c   7.32326210
_cell_angle_alpha   80.07347132
_cell_angle_beta   80.07346939
_cell_angle_gamma   119.97872920
_symmetry_Int_Tables_number   1
_chemical_formula_structural   Na4SrUSe6
_chemical_formula_sum   'Na4 Sr1 U1 Se6'
_cell_volume   331.39773976
_cell_formula_units_Z   1
loop_
 _symmetry_equiv_pos_site_id
 _symmetry_equiv_pos_as_xyz
  1  'x, y, z'
loop_
 _atom_site_type_symbol
 _atom_site_label
 _atom_site_symmetry_multiplicity
 _atom_site_fract_x
 _atom_site_fract_y
 _atom_site_fract_z
 _atom_site_occupancy
  Na  Na0  1  0.000090  0.999910  0.000000  1
  Na  Na1  1  0.498845  0.501155  0.500000  1
  Na  Na2  1  0.838144  0.161856  0.500000  1
  Na  Na3  1  0.161671  0.838329  0.500000  1
  Sr  Sr4  1  0.666699  0.333301  0.000000  1
  U  U5  1  0.333112  0.666888  0.000000  1
  Se  Se6  1  0.255958  0.289977  0.233083  1
  Se  Se7  1  0.411307  0.042472  0.765666  1
  Se  Se8  1  0.113471  0.446848  0.772995  1
  Se  Se9  1  0.710023  0.744042  0.766917  1
  Se  Se10  1  0.553152  0.886529  0.227005  1
  Se  Se11  1  0.957528  0.588693  0.234334  1
