# generated using pymatgen
data_CeHg2(PO4)2
_symmetry_space_group_name_H-M   'P 1'
_cell_length_a   5.44336369
_cell_length_b   5.37301268
_cell_length_c   8.88156319
_cell_angle_alpha   90.69552938
_cell_angle_beta   71.75449373
_cell_angle_gamma   66.28670273
_symmetry_Int_Tables_number   1
_chemical_formula_structural   CeHg2(PO4)2
_chemical_formula_sum   'Ce1 Hg2 P2 O8'
_cell_volume   223.00754281
_cell_formula_units_Z   1
loop_
 _symmetry_equiv_pos_site_id
 _symmetry_equiv_pos_as_xyz
  1  'x, y, z'
loop_
 _atom_site_type_symbol
 _atom_site_label
 _atom_site_symmetry_multiplicity
 _atom_site_fract_x
 _atom_site_fract_y
 _atom_site_fract_z
 _atom_site_occupancy
  Ce  Ce0  1  0.999998  0.000002  0.000000  1
  Hg  Hg1  1  0.189524  0.251900  0.453216  1
  Hg  Hg2  1  0.810472  0.748098  0.546783  1
  P  P3  1  0.516221  0.693703  0.200632  1
  P  P4  1  0.483780  0.306296  0.799367  1
  O  O5  1  0.723679  0.780662  0.072989  1
  O  O6  1  0.223061  0.805475  0.175221  1
  O  O7  1  0.648424  0.376041  0.188550  1
  O  O8  1  0.467695  0.819902  0.373382  1
  O  O9  1  0.532301  0.180096  0.626618  1
  O  O10  1  0.351579  0.623959  0.811448  1
  O  O11  1  0.776942  0.194523  0.824776  1
  O  O12  1  0.276321  0.219340  0.927014  1
