# generated using pymatgen
data_La8ErThRu4
_symmetry_space_group_name_H-M   'P 1'
_cell_length_a   6.65037502
_cell_length_b   7.27710714
_cell_length_c   9.15016116
_cell_angle_alpha   94.73033112
_cell_angle_beta   111.30926585
_cell_angle_gamma   89.99999367
_symmetry_Int_Tables_number   1
_chemical_formula_structural   La8ErThRu4
_chemical_formula_sum   'La8 Er1 Th1 Ru4'
_cell_volume   410.93215809
_cell_formula_units_Z   1
loop_
 _symmetry_equiv_pos_site_id
 _symmetry_equiv_pos_as_xyz
  1  'x, y, z'
loop_
 _atom_site_type_symbol
 _atom_site_label
 _atom_site_symmetry_multiplicity
 _atom_site_fract_x
 _atom_site_fract_y
 _atom_site_fract_z
 _atom_site_occupancy
  La  La0  1  0.801805  0.587861  0.817027  1
  La  La1  1  0.984778  0.912139  0.182973  1
  La  La2  1  0.199449  0.406710  0.181685  1
  La  La3  1  0.017763  0.093290  0.818315  1
  La  La4  1  0.212624  0.681128  0.573502  1
  La  La5  1  0.639123  0.818872  0.426498  1
  La  La6  1  0.787382  0.318032  0.423388  1
  La  La7  1  0.363993  0.181968  0.576612  1
  Er  Er8  1  0.569285  0.250000  0.000000  1
  Th  Th9  1  0.433339  0.750000  0.000000  1
  Ru  Ru10  1  0.595420  0.919372  0.792432  1
  Ru  Ru11  1  0.802987  0.580628  0.207568  1
  Ru  Ru12  1  0.401460  0.068227  0.210870  1
  Ru  Ru13  1  0.190591  0.431773  0.789130  1
