# generated using pymatgen
data_Yb2Mg2As(PN2)6
_symmetry_space_group_name_H-M   'P 1'
_cell_length_a   7.42994576
_cell_length_b   7.42340462
_cell_length_c   7.42994707
_cell_angle_alpha   109.92505373
_cell_angle_beta   108.60359247
_cell_angle_gamma   109.92505206
_symmetry_Int_Tables_number   1
_chemical_formula_structural   Yb2Mg2As(PN2)6
_chemical_formula_sum   'Yb2 Mg2 As1 P6 N12'
_cell_volume   315.26829191
_cell_formula_units_Z   1
loop_
 _symmetry_equiv_pos_site_id
 _symmetry_equiv_pos_as_xyz
  1  'x, y, z'
loop_
 _atom_site_type_symbol
 _atom_site_label
 _atom_site_symmetry_multiplicity
 _atom_site_fract_x
 _atom_site_fract_y
 _atom_site_fract_z
 _atom_site_occupancy
  Yb  Yb0  1  0.352380  0.338086  0.352380  1
  Yb  Yb1  1  0.014294  0.661914  0.014294  1
  Mg  Mg2  1  0.618871  0.000000  0.001163  1
  Mg  Mg3  1  0.001163  0.000000  0.618871  1
  As  As4  1  0.948737  0.000000  0.948737  1
  P  P5  1  0.503315  0.248321  0.756645  1
  P  P6  1  0.508323  0.751679  0.254994  1
  P  P7  1  0.756645  0.248321  0.503315  1
  P  P8  1  0.252246  0.500000  0.752246  1
  P  P9  1  0.752246  0.500000  0.252246  1
  P  P10  1  0.254994  0.751679  0.508323  1
  N  N11  1  0.003777  0.716554  0.418362  1
  N  N12  1  0.302042  0.713192  0.302042  1
  N  N13  1  0.292219  0.580415  0.583757  1
  N  N14  1  0.583757  0.580415  0.292219  1
  N  N15  1  0.588851  0.286808  0.588851  1
  N  N16  1  0.725827  0.000000  0.417770  1
  N  N17  1  0.417770  0.000000  0.725827  1
  N  N18  1  0.711805  0.419585  0.003344  1
  N  N19  1  0.287224  0.283446  0.701809  1
  N  N20  1  0.701809  0.283446  0.287224  1
  N  N21  1  0.003344  0.419585  0.711805  1
  N  N22  1  0.418362  0.716554  0.003777  1
