# generated using pymatgen
data_Lu3(Sn2Ir)2
_symmetry_space_group_name_H-M   'P 1'
_cell_length_a   7.45488600
_cell_length_b   7.45488593
_cell_length_c   4.16309000
_cell_angle_alpha   90.00000000
_cell_angle_beta   90.00000000
_cell_angle_gamma   120.00000919
_symmetry_Int_Tables_number   1
_chemical_formula_structural   Lu3(Sn2Ir)2
_chemical_formula_sum   'Lu3 Sn4 Ir2'
_cell_volume   200.36801717
_cell_formula_units_Z   1
loop_
 _symmetry_equiv_pos_site_id
 _symmetry_equiv_pos_as_xyz
  1  'x, y, z'
loop_
 _atom_site_type_symbol
 _atom_site_label
 _atom_site_symmetry_multiplicity
 _atom_site_fract_x
 _atom_site_fract_y
 _atom_site_fract_z
 _atom_site_occupancy
  Lu  Lu0  1  0.973769  0.390332  0.500000  1
  Lu  Lu1  1  0.609668  0.583437  0.500000  1
  Lu  Lu2  1  0.416563  0.026231  0.500000  1
  Sn  Sn3  1  0.981388  0.742154  0.000000  1
  Sn  Sn4  1  0.257846  0.239234  0.000000  1
  Sn  Sn5  1  0.760766  0.018612  0.000000  1
  Sn  Sn6  1  0.333333  0.666667  0.000000  1
  Ir  Ir7  1  0.666667  0.333333  0.000000  1
  Ir  Ir8  1  0.000000  0.000000  0.500000  1
