# generated using pymatgen
data_Sc2Mn5(NiP)7
_symmetry_space_group_name_H-M   'P 1'
_cell_length_a   9.06018630
_cell_length_b   9.08723279
_cell_length_c   3.57030000
_cell_angle_alpha   90.00000000
_cell_angle_beta   90.00000000
_cell_angle_gamma   120.14566576
_symmetry_Int_Tables_number   1
_chemical_formula_structural   Sc2Mn5(NiP)7
_chemical_formula_sum   'Sc2 Mn5 Ni7 P7'
_cell_volume   254.19369945
_cell_formula_units_Z   1
loop_
 _symmetry_equiv_pos_site_id
 _symmetry_equiv_pos_as_xyz
  1  'x, y, z'
loop_
 _atom_site_type_symbol
 _atom_site_label
 _atom_site_symmetry_multiplicity
 _atom_site_fract_x
 _atom_site_fract_y
 _atom_site_fract_z
 _atom_site_occupancy
  Sc  Sc0  1  0.666489  0.333533  0.000000  1
  Sc  Sc1  1  0.999650  0.998673  0.500000  1
  Mn  Mn2  1  0.453942  0.508824  0.000000  1
  Mn  Mn3  1  0.381356  0.281355  0.500000  1
  Mn  Mn4  1  0.557755  0.765523  0.500000  1
  Mn  Mn5  1  0.236249  0.792172  0.500000  1
  Mn  Mn6  1  0.210600  0.450597  0.500000  1
  Ni  Ni7  1  0.772030  0.731105  0.000000  1
  Ni  Ni8  1  0.269280  0.036838  0.000000  1
  Ni  Ni9  1  0.961803  0.229961  0.000000  1
  Ni  Ni10  1  0.492366  0.947563  0.000000  1
  Ni  Ni11  1  0.052795  0.544307  0.000000  1
  Ni  Ni12  1  0.719194  0.105484  0.500000  1
  Ni  Ni13  1  0.893785  0.611572  0.500000  1
  P  P14  1  0.453410  0.081456  0.500000  1
  P  P15  1  0.921528  0.374854  0.500000  1
  P  P16  1  0.620491  0.541605  0.500000  1
  P  P17  1  0.747300  0.960614  0.000000  1
  P  P18  1  0.039250  0.784644  0.000000  1
  P  P19  1  0.215842  0.251509  0.000000  1
  P  P20  1  0.334883  0.667812  0.000000  1
