# generated using pymatgen
data_Lu3Co2Sn3
_symmetry_space_group_name_H-M   'P 1'
_cell_length_a   5.70105530
_cell_length_b   5.70105523
_cell_length_c   14.60831500
_cell_angle_alpha   90.00000000
_cell_angle_beta   90.00000000
_cell_angle_gamma   134.48992446
_symmetry_Int_Tables_number   1
_chemical_formula_structural   Lu3Co2Sn3
_chemical_formula_sum   'Lu6 Co4 Sn6'
_cell_volume   338.70976501
_cell_formula_units_Z   2
loop_
 _symmetry_equiv_pos_site_id
 _symmetry_equiv_pos_as_xyz
  1  'x, y, z'
loop_
 _atom_site_type_symbol
 _atom_site_label
 _atom_site_symmetry_multiplicity
 _atom_site_fract_x
 _atom_site_fract_y
 _atom_site_fract_z
 _atom_site_occupancy
  Lu  Lu0  1  0.568445  0.431555  0.611959  1
  Lu  Lu1  1  0.431555  0.568445  0.388041  1
  Lu  Lu2  1  0.431555  0.568445  0.111959  1
  Lu  Lu3  1  0.568445  0.431555  0.888041  1
  Lu  Lu4  1  0.147036  0.852964  0.250000  1
  Lu  Lu5  1  0.852964  0.147036  0.750000  1
  Co  Co6  1  0.300351  0.699649  0.609397  1
  Co  Co7  1  0.699649  0.300351  0.390603  1
  Co  Co8  1  0.699649  0.300351  0.109397  1
  Co  Co9  1  0.300351  0.699649  0.890603  1
  Sn  Sn10  1  0.860735  0.139265  0.535014  1
  Sn  Sn11  1  0.139265  0.860735  0.464986  1
  Sn  Sn12  1  0.150170  0.849830  0.750000  1
  Sn  Sn13  1  0.849830  0.150170  0.250000  1
  Sn  Sn14  1  0.860735  0.139265  0.964986  1
  Sn  Sn15  1  0.139265  0.860735  0.035014  1
