# generated using pymatgen
data_Rb6Cr2O7
_symmetry_space_group_name_H-M   'P 1'
_cell_length_a   9.58343800
_cell_length_b   6.90677955
_cell_length_c   11.75141930
_cell_angle_alpha   56.04411399
_cell_angle_beta   90.00000000
_cell_angle_gamma   90.00000000
_symmetry_Int_Tables_number   1
_chemical_formula_structural   Rb6Cr2O7
_chemical_formula_sum   'Rb12 Cr4 O14'
_cell_volume   645.18880263
_cell_formula_units_Z   2
loop_
 _symmetry_equiv_pos_site_id
 _symmetry_equiv_pos_as_xyz
  1  'x, y, z'
loop_
 _atom_site_type_symbol
 _atom_site_label
 _atom_site_symmetry_multiplicity
 _atom_site_fract_x
 _atom_site_fract_y
 _atom_site_fract_z
 _atom_site_occupancy
  Rb  Rb0  1  0.788579  0.599000  0.279446  1
  Rb  Rb1  1  0.711421  0.599000  0.779446  1
  Rb  Rb2  1  0.211421  0.401000  0.720554  1
  Rb  Rb3  1  0.353342  0.044159  0.079479  1
  Rb  Rb4  1  0.853342  0.955841  0.420521  1
  Rb  Rb5  1  0.646658  0.955841  0.920521  1
  Rb  Rb6  1  0.146658  0.044159  0.579479  1
  Rb  Rb7  1  0.472133  0.792600  0.455554  1
  Rb  Rb8  1  0.972133  0.207400  0.044446  1
  Rb  Rb9  1  0.527867  0.207400  0.544446  1
  Rb  Rb10  1  0.027867  0.792600  0.955554  1
  Rb  Rb11  1  0.288579  0.401000  0.220554  1
  Cr  Cr12  1  0.361556  0.680864  0.871244  1
  Cr  Cr13  1  0.138444  0.680864  0.371244  1
  Cr  Cr14  1  0.638444  0.319136  0.128756  1
  Cr  Cr15  1  0.861556  0.319136  0.628756  1
  O  O16  1  0.289878  0.495891  0.432090  1
  O  O17  1  0.000000  0.500000  0.500000  1
  O  O18  1  0.500000  0.500000  0.000000  1
  O  O19  1  0.087830  0.748189  0.206624  1
  O  O20  1  0.789878  0.504109  0.067910  1
  O  O21  1  0.710122  0.504109  0.567910  1
  O  O22  1  0.210122  0.495891  0.932090  1
  O  O23  1  0.334849  0.938894  0.870461  1
  O  O24  1  0.834849  0.061106  0.629539  1
  O  O25  1  0.665151  0.061106  0.129539  1
  O  O26  1  0.165151  0.938894  0.370461  1
  O  O27  1  0.412170  0.748189  0.706624  1
  O  O28  1  0.912170  0.251811  0.793376  1
  O  O29  1  0.587830  0.251811  0.293376  1
