# generated using pymatgen
data_Dy4Ho3Er3Pb8
_symmetry_space_group_name_H-M   'P 1'
_cell_length_a   8.18297200
_cell_length_b   8.26008601
_cell_length_c   15.59970901
_cell_angle_alpha   89.99507673
_cell_angle_beta   90.00000000
_cell_angle_gamma   90.00000000
_symmetry_Int_Tables_number   1
_chemical_formula_structural   Dy4Ho3Er3Pb8
_chemical_formula_sum   'Dy8 Ho6 Er6 Pb16'
_cell_volume   1054.41634707
_cell_formula_units_Z   2
loop_
 _symmetry_equiv_pos_site_id
 _symmetry_equiv_pos_as_xyz
  1  'x, y, z'
loop_
 _atom_site_type_symbol
 _atom_site_label
 _atom_site_symmetry_multiplicity
 _atom_site_fract_x
 _atom_site_fract_y
 _atom_site_fract_z
 _atom_site_occupancy
  Dy  Dy0  1  0.536408  0.323349  0.899923  1
  Dy  Dy1  1  0.036408  0.176651  0.600077  1
  Dy  Dy2  1  0.463605  0.676707  0.400003  1
  Dy  Dy3  1  0.963605  0.823293  0.099997  1
  Dy  Dy4  1  0.463616  0.676717  0.100063  1
  Dy  Dy5  1  0.963616  0.823283  0.399937  1
  Dy  Dy6  1  0.536383  0.323291  0.600054  1
  Dy  Dy7  1  0.036383  0.176709  0.899946  1
  Ho  Ho8  1  0.376515  0.841275  0.879103  1
  Ho  Ho9  1  0.876515  0.658725  0.620897  1
  Ho  Ho10  1  0.623501  0.158764  0.379094  1
  Ho  Ho11  1  0.123501  0.341236  0.120906  1
  Ho  Ho12  1  0.623501  0.158711  0.120860  1
  Ho  Ho13  1  0.123501  0.341289  0.379140  1
  Er  Er14  1  0.376432  0.841311  0.620943  1
  Er  Er15  1  0.876432  0.658689  0.879057  1
  Er  Er16  1  0.208332  0.504475  0.749997  1
  Er  Er17  1  0.708332  0.995525  0.750003  1
  Er  Er18  1  0.791676  0.495626  0.249994  1
  Er  Er19  1  0.291676  0.004374  0.250006  1
  Pb  Pb20  1  0.281500  0.033197  0.042910  1
  Pb  Pb21  1  0.781500  0.466803  0.457090  1
  Pb  Pb22  1  0.718295  0.966740  0.542962  1
  Pb  Pb23  1  0.218295  0.533260  0.957038  1
  Pb  Pb24  1  0.718617  0.966593  0.957043  1
  Pb  Pb25  1  0.218617  0.533407  0.542957  1
  Pb  Pb26  1  0.281589  0.033079  0.457212  1
  Pb  Pb27  1  0.781589  0.466921  0.042788  1
  Pb  Pb28  1  0.571211  0.626978  0.749982  1
  Pb  Pb29  1  0.071211  0.873022  0.750018  1
  Pb  Pb30  1  0.428786  0.373137  0.250005  1
  Pb  Pb31  1  0.928786  0.126863  0.249995  1
  Pb  Pb32  1  0.347449  0.153510  0.749961  1
  Pb  Pb33  1  0.847449  0.346490  0.750039  1
  Pb  Pb34  1  0.652584  0.846409  0.250003  1
  Pb  Pb35  1  0.152584  0.653591  0.249997  1
