# generated using pymatgen
data_FePH7
_symmetry_space_group_name_H-M   'P 1'
_cell_length_a   2.73555136
_cell_length_b   2.80498876
_cell_length_c   10.46565453
_cell_angle_alpha   89.54855087
_cell_angle_beta   90.02026165
_cell_angle_gamma   90.17129288
_symmetry_Int_Tables_number   1
_chemical_formula_structural   FePH7
_chemical_formula_sum   'Fe1 P1 H7'
_cell_volume   80.30210806
_cell_formula_units_Z   1
loop_
 _symmetry_equiv_pos_site_id
 _symmetry_equiv_pos_as_xyz
  1  'x, y, z'
loop_
 _atom_site_type_symbol
 _atom_site_label
 _atom_site_symmetry_multiplicity
 _atom_site_fract_x
 _atom_site_fract_y
 _atom_site_fract_z
 _atom_site_occupancy
  Fe  Fe0  1  0.077710  0.913077  0.959302  1
  P  P1  1  0.575753  0.415800  0.862665  1
  H  H2  1  0.607042  0.385679  0.296559  1
  H  H3  1  0.222061  0.916804  0.116176  1
  H  H4  1  0.092278  0.847250  0.560298  1
  H  H5  1  0.958011  0.968316  0.506692  1
  H  H6  1  0.577733  0.422593  0.726704  1
  H  H7  1  0.913995  0.928042  0.114000  1
  H  H8  1  0.467580  0.469423  0.353589  1
