# generated using pymatgen
data_Tm9Lu(Zn2Bi)2
_symmetry_space_group_name_H-M   'P 1'
_cell_length_a   8.52906084
_cell_length_b   8.52906159
_cell_length_c   8.52859755
_cell_angle_alpha   123.89989377
_cell_angle_beta   123.91290766
_cell_angle_gamma   83.36090533
_symmetry_Int_Tables_number   1
_chemical_formula_structural   Tm9Lu(Zn2Bi)2
_chemical_formula_sum   'Tm9 Lu1 Zn4 Bi2'
_cell_volume   409.76401543
_cell_formula_units_Z   1
loop_
 _symmetry_equiv_pos_site_id
 _symmetry_equiv_pos_as_xyz
  1  'x, y, z'
loop_
 _atom_site_type_symbol
 _atom_site_label
 _atom_site_symmetry_multiplicity
 _atom_site_fract_x
 _atom_site_fract_y
 _atom_site_fract_z
 _atom_site_occupancy
  Tm  Tm0  1  0.000000  0.000000  0.000000  1
  Tm  Tm1  1  0.795089  0.294992  0.805643  1
  Tm  Tm2  1  0.204911  0.705008  0.194357  1
  Tm  Tm3  1  0.489349  0.989445  0.194357  1
  Tm  Tm4  1  0.294973  0.489350  0.499906  1
  Tm  Tm5  1  0.010557  0.204933  0.499906  1
  Tm  Tm6  1  0.510651  0.010555  0.805643  1
  Tm  Tm7  1  0.705027  0.510650  0.500094  1
  Tm  Tm8  1  0.989443  0.795067  0.500094  1
  Lu  Lu9  1  0.500000  0.500000  0.000000  1
  Zn  Zn10  1  0.139207  0.637155  0.776362  1
  Zn  Zn11  1  0.860793  0.362845  0.223638  1
  Zn  Zn12  1  0.637143  0.860795  0.497940  1
  Zn  Zn13  1  0.362857  0.139205  0.502060  1
  Bi  Bi14  1  0.250443  0.250443  0.000000  1
  Bi  Bi15  1  0.749557  0.749557  0.000000  1
