# generated using pymatgen
data_DyErTm2(B6Os)2
_symmetry_space_group_name_H-M   'P 1'
_cell_length_a   3.62786300
_cell_length_b   9.09735001
_cell_length_c   11.47848001
_cell_angle_alpha   90.00505626
_cell_angle_beta   90.00000000
_cell_angle_gamma   90.00000000
_symmetry_Int_Tables_number   1
_chemical_formula_structural   DyErTm2(B6Os)2
_chemical_formula_sum   'Dy2 Er2 Tm4 B24 Os4'
_cell_volume   378.83505831
_cell_formula_units_Z   2
loop_
 _symmetry_equiv_pos_site_id
 _symmetry_equiv_pos_as_xyz
  1  'x, y, z'
loop_
 _atom_site_type_symbol
 _atom_site_label
 _atom_site_symmetry_multiplicity
 _atom_site_fract_x
 _atom_site_fract_y
 _atom_site_fract_z
 _atom_site_occupancy
  Dy  Dy0  1  0.000000  0.321609  0.413835  1
  Dy  Dy1  1  0.000000  0.678391  0.586165  1
  Er  Er2  1  0.000000  0.821570  0.085955  1
  Er  Er3  1  0.000000  0.178430  0.914045  1
  Tm  Tm4  1  0.000000  0.943992  0.372909  1
  Tm  Tm5  1  0.000000  0.056008  0.627092  1
  Tm  Tm6  1  0.000000  0.443982  0.126759  1
  Tm  Tm7  1  0.000000  0.556018  0.873240  1
  B  B8  1  0.500000  0.554101  0.432930  1
  B  B9  1  0.500000  0.445899  0.567070  1
  B  B10  1  0.500000  0.053799  0.066595  1
  B  B11  1  0.500000  0.946201  0.933405  1
  B  B12  1  0.500000  0.748897  0.419677  1
  B  B13  1  0.500000  0.251103  0.580323  1
  B  B14  1  0.500000  0.248608  0.079802  1
  B  B15  1  0.500000  0.751392  0.920198  1
  B  B16  1  0.500000  0.791696  0.265995  1
  B  B17  1  0.500000  0.208304  0.734005  1
  B  B18  1  0.500000  0.291378  0.233438  1
  B  B19  1  0.500000  0.708621  0.766562  1
  B  B20  1  0.500000  0.631311  0.184667  1
  B  B21  1  0.500000  0.368689  0.815333  1
  B  B22  1  0.500000  0.130941  0.314904  1
  B  B23  1  0.500000  0.869059  0.685096  1
  B  B24  1  0.500000  0.982201  0.213112  1
  B  B25  1  0.500000  0.017799  0.786888  1
  B  B26  1  0.500000  0.482664  0.286423  1
  B  B27  1  0.500000  0.517336  0.713577  1
  B  B28  1  0.500000  0.606428  0.029439  1
  B  B29  1  0.500000  0.393572  0.970561  1
  B  B30  1  0.500000  0.105628  0.470770  1
  B  B31  1  0.500000  0.894372  0.529230  1
  Os  Os32  1  0.000000  0.637810  0.320537  1
  Os  Os33  1  0.000000  0.362190  0.679463  1
  Os  Os34  1  0.000000  0.137120  0.178659  1
  Os  Os35  1  0.000000  0.862880  0.821341  1
