# generated using pymatgen
data_Cs6TlS4Br
_symmetry_space_group_name_H-M   'P 1'
_cell_length_a   11.31704000
_cell_length_b   11.31704175
_cell_length_c   8.48890500
_cell_angle_alpha   90.00000000
_cell_angle_beta   90.00000000
_cell_angle_gamma   120.00000658
_symmetry_Int_Tables_number   1
_chemical_formula_structural   Cs6TlS4Br
_chemical_formula_sum   'Cs12 Tl2 S8 Br2'
_cell_volume   941.56009746
_cell_formula_units_Z   2
loop_
 _symmetry_equiv_pos_site_id
 _symmetry_equiv_pos_as_xyz
  1  'x, y, z'
loop_
 _atom_site_type_symbol
 _atom_site_label
 _atom_site_symmetry_multiplicity
 _atom_site_fract_x
 _atom_site_fract_y
 _atom_site_fract_z
 _atom_site_occupancy
  Cs  Cs0  1  0.140322  0.859678  0.512765  1
  Cs  Cs1  1  0.719352  0.859678  0.512765  1
  Cs  Cs2  1  0.943760  0.471879  0.320998  1
  Cs  Cs3  1  0.528121  0.471879  0.320998  1
  Cs  Cs4  1  0.859678  0.719352  0.012765  1
  Cs  Cs5  1  0.280648  0.140322  0.012765  1
  Cs  Cs6  1  0.528121  0.056240  0.320998  1
  Cs  Cs7  1  0.140322  0.280648  0.512765  1
  Cs  Cs8  1  0.859678  0.140322  0.012765  1
  Cs  Cs9  1  0.056240  0.528121  0.820998  1
  Cs  Cs10  1  0.471879  0.943760  0.820998  1
  Cs  Cs11  1  0.471879  0.528121  0.820998  1
  Tl  Tl12  1  0.666667  0.333333  0.709441  1
  Tl  Tl13  1  0.333333  0.666667  0.209441  1
  S  S14  1  0.415114  0.207557  0.612563  1
  S  S15  1  0.584886  0.792443  0.112563  1
  S  S16  1  0.666667  0.333333  0.021832  1
  S  S17  1  0.792443  0.584886  0.612563  1
  S  S18  1  0.207557  0.415114  0.112563  1
  S  S19  1  0.333333  0.666667  0.521832  1
  S  S20  1  0.207557  0.792443  0.112563  1
  S  S21  1  0.792443  0.207557  0.612563  1
  Br  Br22  1  0.000000  0.000000  0.270351  1
  Br  Br23  1  0.000000  0.000000  0.770351  1
