# generated using pymatgen
data_Ho16Sc4CoRh11
_symmetry_space_group_name_H-M   'P 1'
_cell_length_a   10.73357935
_cell_length_b   10.73357941
_cell_length_c   6.26005400
_cell_angle_alpha   90.02871841
_cell_angle_beta   90.02871841
_cell_angle_gamma   90.00607092
_symmetry_Int_Tables_number   1
_chemical_formula_structural   Ho16Sc4CoRh11
_chemical_formula_sum   'Ho16 Sc4 Co1 Rh11'
_cell_volume   721.21892255
_cell_formula_units_Z   1
loop_
 _symmetry_equiv_pos_site_id
 _symmetry_equiv_pos_as_xyz
  1  'x, y, z'
loop_
 _atom_site_type_symbol
 _atom_site_label
 _atom_site_symmetry_multiplicity
 _atom_site_fract_x
 _atom_site_fract_y
 _atom_site_fract_z
 _atom_site_occupancy
  Ho  Ho0  1  0.287657  0.086352  0.377713  1
  Ho  Ho1  1  0.288018  0.911763  0.877350  1
  Ho  Ho2  1  0.712352  0.086124  0.877773  1
  Ho  Ho3  1  0.712207  0.913637  0.377811  1
  Ho  Ho4  1  0.584470  0.786726  0.877321  1
  Ho  Ho5  1  0.586385  0.212536  0.378188  1
  Ho  Ho6  1  0.413308  0.786313  0.380015  1
  Ho  Ho7  1  0.413612  0.212442  0.877586  1
  Ho  Ho8  1  0.213274  0.415530  0.622679  1
  Ho  Ho9  1  0.213687  0.586692  0.119985  1
  Ho  Ho10  1  0.787464  0.413615  0.121812  1
  Ho  Ho11  1  0.787558  0.586388  0.622414  1
  Ho  Ho12  1  0.913648  0.712343  0.122287  1
  Ho  Ho13  1  0.913876  0.287648  0.622227  1
  Ho  Ho14  1  0.088237  0.711982  0.622650  1
  Ho  Ho15  1  0.086363  0.287793  0.122189  1
  Sc  Sc16  1  0.999968  0.999886  0.500211  1
  Sc  Sc17  1  0.000114  0.000032  0.999789  1
  Sc  Sc18  1  0.498657  0.501338  0.997668  1
  Sc  Sc19  1  0.498662  0.501343  0.502332  1
  Co  Co20  1  0.352545  0.647455  0.750000  1
  Rh  Rh21  1  0.851717  0.148283  0.250000  1
  Rh  Rh22  1  0.851703  0.851986  0.749996  1
  Rh  Rh23  1  0.148014  0.148297  0.750004  1
  Rh  Rh24  1  0.147796  0.852204  0.250000  1
  Rh  Rh25  1  0.648627  0.351373  0.750000  1
  Rh  Rh26  1  0.648979  0.648348  0.249983  1
  Rh  Rh27  1  0.351652  0.351021  0.250017  1
  Rh  Rh28  1  0.499965  0.000428  0.122804  1
  Rh  Rh29  1  0.500058  0.000145  0.622438  1
  Rh  Rh30  1  0.999855  0.499942  0.877562  1
  Rh  Rh31  1  0.999572  0.500035  0.377196  1
