# generated using pymatgen
data_Sm7SI12
_symmetry_space_group_name_H-M   'P 1'
_cell_length_a   9.76002166
_cell_length_b   9.76002219
_cell_length_c   9.76002256
_cell_angle_alpha   107.91694654
_cell_angle_beta   107.91694942
_cell_angle_gamma   107.91694689
_symmetry_Int_Tables_number   1
_chemical_formula_structural   Sm7SI12
_chemical_formula_sum   'Sm7 S1 I12'
_cell_volume   754.07495692
_cell_formula_units_Z   1
loop_
 _symmetry_equiv_pos_site_id
 _symmetry_equiv_pos_as_xyz
  1  'x, y, z'
loop_
 _atom_site_type_symbol
 _atom_site_label
 _atom_site_symmetry_multiplicity
 _atom_site_fract_x
 _atom_site_fract_y
 _atom_site_fract_z
 _atom_site_occupancy
  Sm  Sm0  1  0.803736  0.534682  0.603531  1
  Sm  Sm1  1  0.534682  0.603531  0.803736  1
  Sm  Sm2  1  0.196264  0.465318  0.396469  1
  Sm  Sm3  1  0.465318  0.396469  0.196264  1
  Sm  Sm4  1  0.000000  0.000000  0.000000  1
  Sm  Sm5  1  0.603531  0.803736  0.534682  1
  Sm  Sm6  1  0.396469  0.196264  0.465318  1
  S  S7  1  0.500000  0.500000  0.500000  1
  I  I8  1  0.728187  0.185430  0.575902  1
  I  I9  1  0.970817  0.888988  0.650367  1
  I  I10  1  0.575902  0.728187  0.185430  1
  I  I11  1  0.111012  0.349633  0.029183  1
  I  I12  1  0.650367  0.970817  0.888988  1
  I  I13  1  0.888988  0.650367  0.970817  1
  I  I14  1  0.029183  0.111012  0.349633  1
  I  I15  1  0.814570  0.424098  0.271813  1
  I  I16  1  0.349633  0.029183  0.111012  1
  I  I17  1  0.271813  0.814570  0.424098  1
  I  I18  1  0.185430  0.575902  0.728187  1
  I  I19  1  0.424098  0.271813  0.814570  1
