# generated using pymatgen
data_Yb5SnGe2
_symmetry_space_group_name_H-M   'P 1'
_cell_length_a   7.76515200
_cell_length_b   9.29318774
_cell_length_c   7.76515200
_cell_angle_alpha   114.69497036
_cell_angle_beta   90.00000000
_cell_angle_gamma   114.69497036
_symmetry_Int_Tables_number   1
_chemical_formula_structural   Yb5SnGe2
_chemical_formula_sum   'Yb10 Sn2 Ge4'
_cell_volume   452.08934838
_cell_formula_units_Z   2
loop_
 _symmetry_equiv_pos_site_id
 _symmetry_equiv_pos_as_xyz
  1  'x, y, z'
loop_
 _atom_site_type_symbol
 _atom_site_label
 _atom_site_symmetry_multiplicity
 _atom_site_fract_x
 _atom_site_fract_y
 _atom_site_fract_z
 _atom_site_occupancy
  Yb  Yb0  1  0.000000  0.000000  0.000000  1
  Yb  Yb1  1  0.500000  0.000000  0.500000  1
  Yb  Yb2  1  0.539493  0.727625  0.688134  1
  Yb  Yb3  1  0.188134  0.727625  0.039493  1
  Yb  Yb4  1  0.688134  0.727625  0.188134  1
  Yb  Yb5  1  0.039493  0.727625  0.539493  1
  Yb  Yb6  1  0.460507  0.272375  0.311866  1
  Yb  Yb7  1  0.811866  0.272375  0.960507  1
  Yb  Yb8  1  0.311866  0.272375  0.811866  1
  Yb  Yb9  1  0.960507  0.272375  0.460507  1
  Sn  Sn10  1  0.750000  0.500000  0.750000  1
  Sn  Sn11  1  0.250000  0.500000  0.250000  1
  Ge  Ge12  1  0.880648  0.000000  0.619352  1
  Ge  Ge13  1  0.119352  0.000000  0.380648  1
  Ge  Ge14  1  0.619352  0.000000  0.119352  1
  Ge  Ge15  1  0.380648  0.000000  0.880648  1
