# generated using pymatgen
data_LiHo4Al16ZnPd6
_symmetry_space_group_name_H-M   'P 1'
_cell_length_a   7.59664209
_cell_length_b   7.59663692
_cell_length_c   9.44531800
_cell_angle_alpha   90.00000000
_cell_angle_beta   90.00000000
_cell_angle_gamma   119.00974902
_symmetry_Int_Tables_number   1
_chemical_formula_structural   LiHo4Al16ZnPd6
_chemical_formula_sum   'Li1 Ho4 Al16 Zn1 Pd6'
_cell_volume   476.69204926
_cell_formula_units_Z   1
loop_
 _symmetry_equiv_pos_site_id
 _symmetry_equiv_pos_as_xyz
  1  'x, y, z'
loop_
 _atom_site_type_symbol
 _atom_site_label
 _atom_site_symmetry_multiplicity
 _atom_site_fract_x
 _atom_site_fract_y
 _atom_site_fract_z
 _atom_site_occupancy
  Li  Li0  1  0.132339  0.132338  0.250000  1
  Ho  Ho1  1  0.994954  0.667724  0.250000  1
  Ho  Ho2  1  0.006920  0.325218  0.750000  1
  Ho  Ho3  1  0.667724  0.994952  0.250000  1
  Ho  Ho4  1  0.325218  0.006919  0.750000  1
  Al  Al5  1  0.001444  0.329956  0.082484  1
  Al  Al6  1  0.999000  0.666723  0.921559  1
  Al  Al7  1  0.999000  0.666723  0.578441  1
  Al  Al8  1  0.329956  0.001444  0.417516  1
  Al  Al9  1  0.001444  0.329956  0.417516  1
  Al  Al10  1  0.666724  0.999000  0.578442  1
  Al  Al11  1  0.666724  0.999000  0.921558  1
  Al  Al12  1  0.329956  0.001444  0.082484  1
  Al  Al13  1  0.334439  0.334439  0.544708  1
  Al  Al14  1  0.672003  0.672003  0.442586  1
  Al  Al15  1  0.672003  0.672003  0.057414  1
  Al  Al16  1  0.334439  0.334439  0.955292  1
  Al  Al17  1  0.341795  0.545019  0.250000  1
  Al  Al18  1  0.657424  0.451786  0.750000  1
  Al  Al19  1  0.545019  0.341795  0.250000  1
  Al  Al20  1  0.451786  0.657425  0.750000  1
  Zn  Zn21  1  0.858426  0.858427  0.750000  1
  Pd  Pd22  1  0.675470  0.328627  0.999654  1
  Pd  Pd23  1  0.328627  0.675471  0.999653  1
  Pd  Pd24  1  0.328627  0.675471  0.500347  1
  Pd  Pd25  1  0.675470  0.328627  0.500346  1
  Pd  Pd26  1  0.001535  0.001536  0.998697  1
  Pd  Pd27  1  0.001535  0.001536  0.501303  1
