# generated using pymatgen
data_CsSrP
_symmetry_space_group_name_H-M   'P 1'
_cell_length_a   5.40849200
_cell_length_b   5.40849200
_cell_length_c   8.16854400
_cell_angle_alpha   90.00000000
_cell_angle_beta   90.00000000
_cell_angle_gamma   90.00000000
_symmetry_Int_Tables_number   1
_chemical_formula_structural   CsSrP
_chemical_formula_sum   'Cs2 Sr2 P2'
_cell_volume   238.94449868
_cell_formula_units_Z   2
loop_
 _symmetry_equiv_pos_site_id
 _symmetry_equiv_pos_as_xyz
  1  'x, y, z'
loop_
 _atom_site_type_symbol
 _atom_site_label
 _atom_site_symmetry_multiplicity
 _atom_site_fract_x
 _atom_site_fract_y
 _atom_site_fract_z
 _atom_site_occupancy
  Cs  Cs0  1  0.500001  0.000000  0.380715  1
  Cs  Cs1  1  0.000000  0.500001  0.619285  1
  Sr  Sr2  1  0.000000  0.000000  0.000000  1
  Sr  Sr3  1  0.500001  0.500001  0.000000  1
  P  P4  1  0.000000  0.500001  0.180279  1
  P  P5  1  0.500001  0.000000  0.819721  1
