# generated using pymatgen
data_Ca5MoN5
_symmetry_space_group_name_H-M   'P 1'
_cell_length_a   6.93321403
_cell_length_b   6.93321344
_cell_length_c   8.92965486
_cell_angle_alpha   79.82610539
_cell_angle_beta   79.82610758
_cell_angle_gamma   59.63636710
_symmetry_Int_Tables_number   1
_chemical_formula_structural   Ca5MoN5
_chemical_formula_sum   'Ca10 Mo2 N10'
_cell_volume   362.60941992
_cell_formula_units_Z   2
loop_
 _symmetry_equiv_pos_site_id
 _symmetry_equiv_pos_as_xyz
  1  'x, y, z'
loop_
 _atom_site_type_symbol
 _atom_site_label
 _atom_site_symmetry_multiplicity
 _atom_site_fract_x
 _atom_site_fract_y
 _atom_site_fract_z
 _atom_site_occupancy
  Ca  Ca0  1  0.873210  0.349280  0.834564  1
  Ca  Ca1  1  0.872535  0.872535  0.828325  1
  Ca  Ca2  1  0.742082  0.742082  0.515540  1
  Ca  Ca3  1  0.757907  0.245662  0.505589  1
  Ca  Ca4  1  0.635525  0.135133  0.156507  1
  Ca  Ca5  1  0.349280  0.873210  0.834564  1
  Ca  Ca6  1  0.245662  0.757907  0.505589  1
  Ca  Ca7  1  0.245034  0.245034  0.493916  1
  Ca  Ca8  1  0.138958  0.138958  0.161294  1
  Ca  Ca9  1  0.135133  0.635525  0.156507  1
  Mo  Mo10  1  0.630894  0.630894  0.221641  1
  Mo  Mo11  1  0.368566  0.368566  0.776011  1
  N  N12  1  0.908199  0.470956  0.317108  1
  N  N13  1  0.998032  0.998032  0.013624  1
  N  N14  1  0.676909  0.676909  0.009281  1
  N  N15  1  0.529371  0.529371  0.695273  1
  N  N16  1  0.470956  0.908199  0.317108  1
  N  N17  1  0.530826  0.092510  0.684375  1
  N  N18  1  0.471129  0.471129  0.297103  1
  N  N19  1  0.325747  0.325747  0.989819  1
  N  N20  1  0.063821  0.063821  0.647692  1
  N  N21  1  0.092510  0.530826  0.684375  1
