# generated using pymatgen
data_Tb4Co13Cu4(NiP4)3
_symmetry_space_group_name_H-M   'P 1'
_cell_length_a   3.72783500
_cell_length_b   10.29261762
_cell_length_c   11.93345612
_cell_angle_alpha   89.88209902
_cell_angle_beta   90.00000000
_cell_angle_gamma   90.00000000
_symmetry_Int_Tables_number   1
_chemical_formula_structural   Tb4Co13Cu4(NiP4)3
_chemical_formula_sum   'Tb4 Co13 Cu4 Ni3 P12'
_cell_volume   457.87595893
_cell_formula_units_Z   1
loop_
 _symmetry_equiv_pos_site_id
 _symmetry_equiv_pos_as_xyz
  1  'x, y, z'
loop_
 _atom_site_type_symbol
 _atom_site_label
 _atom_site_symmetry_multiplicity
 _atom_site_fract_x
 _atom_site_fract_y
 _atom_site_fract_z
 _atom_site_occupancy
  Tb  Tb0  1  0.250000  0.579146  0.703471  1
  Tb  Tb1  1  0.250000  0.920925  0.203283  1
  Tb  Tb2  1  0.750000  0.420958  0.296393  1
  Tb  Tb3  1  0.750000  0.079048  0.796621  1
  Co  Co4  1  0.750000  0.906689  0.015942  1
  Co  Co5  1  0.250000  0.223503  0.171483  1
  Co  Co6  1  0.250000  0.276779  0.671347  1
  Co  Co7  1  0.750000  0.775007  0.828511  1
  Co  Co8  1  0.750000  0.723448  0.326901  1
  Co  Co9  1  0.250000  0.878919  0.700018  1
  Co  Co10  1  0.250000  0.621527  0.197653  1
  Co  Co11  1  0.750000  0.121531  0.301427  1
  Co  Co12  1  0.750000  0.378035  0.802016  1
  Co  Co13  1  0.250000  0.464872  0.933812  1
  Co  Co14  1  0.250000  0.034972  0.433939  1
  Co  Co15  1  0.750000  0.535510  0.066267  1
  Co  Co16  1  0.750000  0.965122  0.566575  1
  Cu  Cu17  1  0.250000  0.709546  0.992120  1
  Cu  Cu18  1  0.250000  0.790680  0.491141  1
  Cu  Cu19  1  0.750000  0.290307  0.010468  1
  Cu  Cu20  1  0.750000  0.209523  0.508422  1
  Ni  Ni21  1  0.250000  0.407464  0.483769  1
  Ni  Ni22  1  0.250000  0.093421  0.983984  1
  Ni  Ni23  1  0.750000  0.593638  0.516039  1
  P  P24  1  0.250000  0.425421  0.115217  1
  P  P25  1  0.250000  0.074693  0.615440  1
  P  P26  1  0.750000  0.573936  0.884736  1
  P  P27  1  0.750000  0.925032  0.384640  1
  P  P28  1  0.250000  0.271866  0.857022  1
  P  P29  1  0.250000  0.227845  0.356854  1
  P  P30  1  0.750000  0.730464  0.140073  1
  P  P31  1  0.750000  0.772309  0.643406  1
  P  P32  1  0.250000  0.604782  0.387554  1
  P  P33  1  0.250000  0.896290  0.891480  1
  P  P34  1  0.750000  0.395874  0.611371  1
  P  P35  1  0.750000  0.100919  0.110601  1
