# generated using pymatgen
data_Pr4Co16Si7P5Ru4
_symmetry_space_group_name_H-M   'P 1'
_cell_length_a   3.75738700
_cell_length_b   10.62048782
_cell_length_c   12.02520914
_cell_angle_alpha   89.91684717
_cell_angle_beta   90.00000000
_cell_angle_gamma   90.00000000
_symmetry_Int_Tables_number   1
_chemical_formula_structural   Pr4Co16Si7P5Ru4
_chemical_formula_sum   'Pr4 Co16 Si7 P5 Ru4'
_cell_volume   479.86886689
_cell_formula_units_Z   1
loop_
 _symmetry_equiv_pos_site_id
 _symmetry_equiv_pos_as_xyz
  1  'x, y, z'
loop_
 _atom_site_type_symbol
 _atom_site_label
 _atom_site_symmetry_multiplicity
 _atom_site_fract_x
 _atom_site_fract_y
 _atom_site_fract_z
 _atom_site_occupancy
  Pr  Pr0  1  0.250000  0.585984  0.701311  1
  Pr  Pr1  1  0.250000  0.916545  0.202226  1
  Pr  Pr2  1  0.750000  0.416858  0.298269  1
  Pr  Pr3  1  0.750000  0.084307  0.797504  1
  Co  Co4  1  0.250000  0.410683  0.492029  1
  Co  Co5  1  0.250000  0.090562  0.991131  1
  Co  Co6  1  0.750000  0.593740  0.510429  1
  Co  Co7  1  0.750000  0.908827  0.007363  1
  Co  Co8  1  0.250000  0.212421  0.171882  1
  Co  Co9  1  0.250000  0.287599  0.672039  1
  Co  Co10  1  0.750000  0.786603  0.825248  1
  Co  Co11  1  0.750000  0.712924  0.328279  1
  Co  Co12  1  0.250000  0.884787  0.702026  1
  Co  Co13  1  0.250000  0.612772  0.203149  1
  Co  Co14  1  0.750000  0.112088  0.296862  1
  Co  Co15  1  0.750000  0.388023  0.796355  1
  Co  Co16  1  0.250000  0.470215  0.931452  1
  Co  Co17  1  0.250000  0.029359  0.432556  1
  Co  Co18  1  0.750000  0.530089  0.068247  1
  Co  Co19  1  0.750000  0.965170  0.569955  1
  Si  Si20  1  0.250000  0.415017  0.108775  1
  Si  Si21  1  0.250000  0.085120  0.608771  1
  Si  Si22  1  0.750000  0.584348  0.891070  1
  Si  Si23  1  0.750000  0.914999  0.390965  1
  Si  Si24  1  0.250000  0.278588  0.865933  1
  Si  Si25  1  0.250000  0.221281  0.366219  1
  Si  Si26  1  0.750000  0.721889  0.133727  1
  P  P27  1  0.750000  0.779933  0.637303  1
  P  P28  1  0.250000  0.602347  0.392919  1
  P  P29  1  0.250000  0.898303  0.893351  1
  P  P30  1  0.750000  0.397866  0.606790  1
  P  P31  1  0.750000  0.102368  0.106274  1
  Ru  Ru32  1  0.250000  0.709020  0.989517  1
  Ru  Ru33  1  0.250000  0.789464  0.490472  1
  Ru  Ru34  1  0.750000  0.291239  0.009431  1
  Ru  Ru35  1  0.750000  0.208659  0.510170  1
