# generated using pymatgen
data_Er4Al18Ga6Pt8Rh
_symmetry_space_group_name_H-M   'P 1'
_cell_length_a   7.50413837
_cell_length_b   7.50268718
_cell_length_c   13.18972697
_cell_angle_alpha   84.67033324
_cell_angle_beta   100.71550571
_cell_angle_gamma   119.86021995
_symmetry_Int_Tables_number   1
_chemical_formula_structural   Er4Al18Ga6Pt8Rh
_chemical_formula_sum   'Er4 Al18 Ga6 Pt8 Rh1'
_cell_volume   632.78221060
_cell_formula_units_Z   1
loop_
 _symmetry_equiv_pos_site_id
 _symmetry_equiv_pos_as_xyz
  1  'x, y, z'
loop_
 _atom_site_type_symbol
 _atom_site_label
 _atom_site_symmetry_multiplicity
 _atom_site_fract_x
 _atom_site_fract_y
 _atom_site_fract_z
 _atom_site_occupancy
  Er  Er0  1  0.735833  0.002745  0.191133  1
  Er  Er1  1  0.264167  0.997255  0.808867  1
  Er  Er2  1  0.058993  0.663550  0.189143  1
  Er  Er3  1  0.941007  0.336450  0.810857  1
  Al  Al4  1  0.881261  0.665448  0.669993  1
  Al  Al5  1  0.118739  0.334552  0.330007  1
  Al  Al6  1  0.601900  0.458514  0.815635  1
  Al  Al7  1  0.398100  0.541486  0.184365  1
  Al  Al8  1  0.229937  0.339382  0.669455  1
  Al  Al9  1  0.770063  0.660618  0.330545  1
  Al  Al10  1  0.853890  0.333525  0.559209  1
  Al  Al11  1  0.186080  0.999768  0.559080  1
  Al  Al12  1  0.813920  0.000232  0.440920  1
  Al  Al13  1  0.348586  0.000136  0.053958  1
  Al  Al14  1  0.651414  0.999864  0.946042  1
  Al  Al15  1  0.556986  0.994825  0.670332  1
  Al  Al16  1  0.443014  0.005175  0.329668  1
  Al  Al17  1  0.519695  0.668687  0.560204  1
  Al  Al18  1  0.480305  0.331313  0.439796  1
  Al  Al19  1  0.688821  0.670872  0.047076  1
  Al  Al20  1  0.311179  0.329128  0.952924  1
  Al  Al21  1  0.146110  0.666475  0.440791  1
  Ga  Ga22  1  0.807717  0.876000  0.817219  1
  Ga  Ga23  1  0.192283  0.124000  0.182781  1
  Ga  Ga24  1  0.981868  0.669981  0.939500  1
  Ga  Ga25  1  0.018132  0.330019  0.060500  1
  Ga  Ga26  1  0.401459  0.664049  0.816808  1
  Ga  Ga27  1  0.598541  0.335951  0.183192  1
  Pt  Pt28  1  0.336861  0.674587  0.004248  1
  Pt  Pt29  1  0.546791  0.325910  0.637906  1
  Pt  Pt30  1  0.453209  0.674090  0.362094  1
  Pt  Pt31  1  0.887801  0.008527  0.636599  1
  Pt  Pt32  1  0.112199  0.991473  0.363401  1
  Pt  Pt33  1  0.663139  0.325413  0.995752  1
  Pt  Pt34  1  0.203663  0.667297  0.636967  1
  Pt  Pt35  1  0.796337  0.332703  0.363033  1
  Rh  Rh36  1  0.000000  0.000000  0.000000  1
