# generated using pymatgen
data_MgSb16
_symmetry_space_group_name_H-M   'P 1'
_cell_length_a   4.25657157
_cell_length_b   4.25657078
_cell_length_c   32.33797400
_cell_angle_alpha   86.22642081
_cell_angle_beta   86.22642152
_cell_angle_gamma   60.00000786
_symmetry_Int_Tables_number   1
_chemical_formula_structural   MgSb16
_chemical_formula_sum   'Mg1 Sb16'
_cell_volume   505.94761586
_cell_formula_units_Z   1
loop_
 _symmetry_equiv_pos_site_id
 _symmetry_equiv_pos_as_xyz
  1  'x, y, z'
loop_
 _atom_site_type_symbol
 _atom_site_label
 _atom_site_symmetry_multiplicity
 _atom_site_fract_x
 _atom_site_fract_y
 _atom_site_fract_z
 _atom_site_occupancy
  Mg  Mg0  1  0.000000  0.000000  0.000000  1
  Sb  Sb1  1  0.296713  0.296713  0.109861  1
  Sb  Sb2  1  0.703287  0.703287  0.890139  1
  Sb  Sb3  1  0.234273  0.234273  0.297181  1
  Sb  Sb4  1  0.765727  0.765727  0.702819  1
  Sb  Sb5  1  0.471865  0.471865  0.584406  1
  Sb  Sb6  1  0.528135  0.528135  0.415594  1
  Sb  Sb7  1  0.352776  0.352776  0.941674  1
  Sb  Sb8  1  0.647224  0.647224  0.058326  1
  Sb  Sb9  1  0.059227  0.059227  0.822320  1
  Sb  Sb10  1  0.940773  0.940773  0.177680  1
  Sb  Sb11  1  0.409173  0.409173  0.772483  1
  Sb  Sb12  1  0.590827  0.590827  0.227517  1
  Sb  Sb13  1  0.115461  0.115461  0.653617  1
  Sb  Sb14  1  0.884539  0.884539  0.346383  1
  Sb  Sb15  1  0.178451  0.178451  0.464647  1
  Sb  Sb16  1  0.821549  0.821549  0.535353  1
