# generated using pymatgen
data_Lu3Co8P6Os
_symmetry_space_group_name_H-M   'P 1'
_cell_length_a   3.68843600
_cell_length_b   10.45531900
_cell_length_c   12.17129000
_cell_angle_alpha   90.00000000
_cell_angle_beta   90.00000000
_cell_angle_gamma   90.00000000
_symmetry_Int_Tables_number   1
_chemical_formula_structural   Lu3Co8P6Os
_chemical_formula_sum   'Lu6 Co16 P12 Os2'
_cell_volume   469.37088891
_cell_formula_units_Z   2
loop_
 _symmetry_equiv_pos_site_id
 _symmetry_equiv_pos_as_xyz
  1  'x, y, z'
loop_
 _atom_site_type_symbol
 _atom_site_label
 _atom_site_symmetry_multiplicity
 _atom_site_fract_x
 _atom_site_fract_y
 _atom_site_fract_z
 _atom_site_occupancy
  Lu  Lu0  1  0.000000  0.500000  0.526261  1
  Lu  Lu1  1  0.500000  0.000000  0.473739  1
  Lu  Lu2  1  0.500000  0.818316  0.207636  1
  Lu  Lu3  1  0.500000  0.181684  0.207636  1
  Lu  Lu4  1  0.000000  0.681684  0.792364  1
  Lu  Lu5  1  0.000000  0.318316  0.792364  1
  Co  Co6  1  0.500000  0.500000  0.703173  1
  Co  Co7  1  0.000000  0.000000  0.296827  1
  Co  Co8  1  0.000000  0.500000  0.986929  1
  Co  Co9  1  0.500000  0.000000  0.013071  1
  Co  Co10  1  0.500000  0.332218  0.989380  1
  Co  Co11  1  0.500000  0.667782  0.989380  1
  Co  Co12  1  0.000000  0.167782  0.010620  1
  Co  Co13  1  0.000000  0.832218  0.010620  1
  Co  Co14  1  0.500000  0.297931  0.431639  1
  Co  Co15  1  0.500000  0.702069  0.431639  1
  Co  Co16  1  0.000000  0.202069  0.568361  1
  Co  Co17  1  0.000000  0.797931  0.568361  1
  Co  Co18  1  0.500000  0.877984  0.707554  1
  Co  Co19  1  0.500000  0.122016  0.707554  1
  Co  Co20  1  0.000000  0.622016  0.292446  1
  Co  Co21  1  0.000000  0.377984  0.292446  1
  P  P22  1  0.500000  0.500000  0.879419  1
  P  P23  1  0.000000  0.000000  0.120581  1
  P  P24  1  0.500000  0.500000  0.353731  1
  P  P25  1  0.000000  0.000000  0.646269  1
  P  P26  1  0.500000  0.313552  0.616758  1
  P  P27  1  0.500000  0.686448  0.616758  1
  P  P28  1  0.000000  0.186448  0.383242  1
  P  P29  1  0.000000  0.813552  0.383242  1
  P  P30  1  0.500000  0.845409  0.891405  1
  P  P31  1  0.500000  0.154591  0.891405  1
  P  P32  1  0.000000  0.654591  0.108595  1
  P  P33  1  0.000000  0.345409  0.108595  1
  Os  Os34  1  0.500000  0.500000  0.160127  1
  Os  Os35  1  0.000000  0.000000  0.839873  1
