# generated using pymatgen
data_TbLu3(ScIr)4
_symmetry_space_group_name_H-M   'P 1'
_cell_length_a   4.23722000
_cell_length_b   7.09530158
_cell_length_c   8.56788358
_cell_angle_alpha   90.30430337
_cell_angle_beta   90.00000000
_cell_angle_gamma   90.00000000
_symmetry_Int_Tables_number   1
_chemical_formula_structural   TbLu3(ScIr)4
_chemical_formula_sum   'Tb1 Lu3 Sc4 Ir4'
_cell_volume   257.58425014
_cell_formula_units_Z   1
loop_
 _symmetry_equiv_pos_site_id
 _symmetry_equiv_pos_as_xyz
  1  'x, y, z'
loop_
 _atom_site_type_symbol
 _atom_site_label
 _atom_site_symmetry_multiplicity
 _atom_site_fract_x
 _atom_site_fract_y
 _atom_site_fract_z
 _atom_site_occupancy
  Tb  Tb0  1  0.750000  0.517152  0.826892  1
  Lu  Lu1  1  0.250000  0.980966  0.329595  1
  Lu  Lu2  1  0.250000  0.480607  0.171815  1
  Lu  Lu3  1  0.750000  0.019866  0.669343  1
  Sc  Sc4  1  0.250000  0.358087  0.563994  1
  Sc  Sc5  1  0.250000  0.858555  0.934019  1
  Sc  Sc6  1  0.750000  0.643878  0.432062  1
  Sc  Sc7  1  0.750000  0.141545  0.068069  1
  Ir  Ir8  1  0.250000  0.238642  0.893677  1
  Ir  Ir9  1  0.250000  0.744871  0.607798  1
  Ir  Ir10  1  0.750000  0.758287  0.110781  1
  Ir  Ir11  1  0.750000  0.257545  0.391955  1
