# generated using pymatgen
data_Hf18CoRe5NiW3
_symmetry_space_group_name_H-M   'P 1'
_cell_length_a   8.64941000
_cell_length_b   8.64941004
_cell_length_c   8.45193700
_cell_angle_alpha   90.00000000
_cell_angle_beta   90.00000000
_cell_angle_gamma   120.07536588
_symmetry_Int_Tables_number   1
_chemical_formula_structural   Hf18CoRe5NiW3
_chemical_formula_sum   'Hf18 Co1 Re5 Ni1 W3'
_cell_volume   547.17914013
_cell_formula_units_Z   1
loop_
 _symmetry_equiv_pos_site_id
 _symmetry_equiv_pos_as_xyz
  1  'x, y, z'
loop_
 _atom_site_type_symbol
 _atom_site_label
 _atom_site_symmetry_multiplicity
 _atom_site_fract_x
 _atom_site_fract_y
 _atom_site_fract_z
 _atom_site_occupancy
  Hf  Hf0  1  0.199280  0.800720  0.442347  1
  Hf  Hf1  1  0.199269  0.398531  0.443074  1
  Hf  Hf2  1  0.601469  0.800731  0.443074  1
  Hf  Hf3  1  0.799559  0.200441  0.559496  1
  Hf  Hf4  1  0.799661  0.599280  0.559262  1
  Hf  Hf5  1  0.400720  0.200339  0.559262  1
  Hf  Hf6  1  0.799559  0.200441  0.940504  1
  Hf  Hf7  1  0.799661  0.599280  0.940738  1
  Hf  Hf8  1  0.400720  0.200339  0.940738  1
  Hf  Hf9  1  0.199280  0.800720  0.057653  1
  Hf  Hf10  1  0.199269  0.398531  0.056926  1
  Hf  Hf11  1  0.601469  0.800731  0.056926  1
  Hf  Hf12  1  0.541737  0.458263  0.250000  1
  Hf  Hf13  1  0.540873  0.083352  0.250000  1
  Hf  Hf14  1  0.916648  0.459127  0.250000  1
  Hf  Hf15  1  0.458356  0.541644  0.750000  1
  Hf  Hf16  1  0.457836  0.916499  0.750000  1
  Hf  Hf17  1  0.083501  0.542164  0.750000  1
  Co  Co18  1  0.666215  0.333785  0.750000  1
  Re  Re19  1  0.888283  0.776345  0.250000  1
  Re  Re20  1  0.223655  0.111717  0.250000  1
  Re  Re21  1  0.111588  0.888412  0.750000  1
  Re  Re22  1  0.112189  0.223680  0.750000  1
  Re  Re23  1  0.776320  0.887811  0.750000  1
  Ni  Ni24  1  0.333212  0.666788  0.250000  1
  W  W25  1  0.888661  0.111339  0.250000  1
  W  W26  1  0.000505  0.999495  0.500460  1
  W  W27  1  0.000505  0.999495  0.999540  1
