# generated using pymatgen
data_MnSb(P2O7)2
_symmetry_space_group_name_H-M   'P 1'
_cell_length_a   4.86452149
_cell_length_b   8.25474516
_cell_length_c   7.06891432
_cell_angle_alpha   92.60756218
_cell_angle_beta   106.99497954
_cell_angle_gamma   88.85707654
_symmetry_Int_Tables_number   1
_chemical_formula_structural   MnSb(P2O7)2
_chemical_formula_sum   'Mn1 Sb1 P4 O14'
_cell_volume   271.17149266
_cell_formula_units_Z   1
loop_
 _symmetry_equiv_pos_site_id
 _symmetry_equiv_pos_as_xyz
  1  'x, y, z'
loop_
 _atom_site_type_symbol
 _atom_site_label
 _atom_site_symmetry_multiplicity
 _atom_site_fract_x
 _atom_site_fract_y
 _atom_site_fract_z
 _atom_site_occupancy
  Mn  Mn0  1  0.787156  0.002661  0.270190  1
  Sb  Sb1  1  0.213647  0.503705  0.724046  1
  P  P2  1  0.388122  0.184297  0.500718  1
  P  P3  1  0.238876  0.772718  0.112041  1
  P  P4  1  0.775231  0.275016  0.895589  1
  P  P5  1  0.607617  0.693422  0.497035  1
  O  O6  1  0.039453  0.322614  0.826760  1
  O  O7  1  0.135767  0.663118  0.919836  1
  O  O8  1  0.154607  0.058994  0.461952  1
  O  O9  1  0.269606  0.362622  0.501923  1
  O  O10  1  0.401266  0.683087  0.629413  1
  O  O11  1  0.592619  0.432923  0.906354  1
  O  O12  1  0.578223  0.156936  0.726132  1
  O  O13  1  0.421031  0.646829  0.272456  1
  O  O14  1  0.426012  0.912175  0.092799  1
  O  O15  1  0.582597  0.178536  0.367495  1
  O  O16  1  0.729757  0.858773  0.511371  1
  O  O17  1  0.827113  0.549990  0.539894  1
  O  O18  1  0.866807  0.184721  0.080222  1
  O  O19  1  0.969796  0.820423  0.168378  1
