# generated using pymatgen
data_Sm3NbFeCo7P6
_symmetry_space_group_name_H-M   'P 1'
_cell_length_a   3.74558300
_cell_length_b   10.75153300
_cell_length_c   12.41449300
_cell_angle_alpha   90.00000000
_cell_angle_beta   90.00000000
_cell_angle_gamma   90.00000000
_symmetry_Int_Tables_number   1
_chemical_formula_structural   Sm3NbFeCo7P6
_chemical_formula_sum   'Sm6 Nb2 Fe2 Co14 P12'
_cell_volume   499.94105855
_cell_formula_units_Z   2
loop_
 _symmetry_equiv_pos_site_id
 _symmetry_equiv_pos_as_xyz
  1  'x, y, z'
loop_
 _atom_site_type_symbol
 _atom_site_label
 _atom_site_symmetry_multiplicity
 _atom_site_fract_x
 _atom_site_fract_y
 _atom_site_fract_z
 _atom_site_occupancy
  Sm  Sm0  1  0.000000  0.500000  0.526126  1
  Sm  Sm1  1  0.500000  0.000000  0.473874  1
  Sm  Sm2  1  0.500000  0.820124  0.204268  1
  Sm  Sm3  1  0.500000  0.179876  0.204268  1
  Sm  Sm4  1  0.000000  0.679876  0.795732  1
  Sm  Sm5  1  0.000000  0.320124  0.795732  1
  Nb  Nb6  1  0.500000  0.500000  0.154045  1
  Nb  Nb7  1  0.000000  0.000000  0.845955  1
  Fe  Fe8  1  0.000000  0.500000  0.987331  1
  Fe  Fe9  1  0.500000  0.000000  0.012669  1
  Co  Co10  1  0.500000  0.500000  0.701247  1
  Co  Co11  1  0.000000  0.000000  0.298753  1
  Co  Co12  1  0.500000  0.331563  0.993358  1
  Co  Co13  1  0.500000  0.668437  0.993358  1
  Co  Co14  1  0.000000  0.168437  0.006642  1
  Co  Co15  1  0.000000  0.831563  0.006642  1
  Co  Co16  1  0.500000  0.295372  0.432052  1
  Co  Co17  1  0.500000  0.704628  0.432052  1
  Co  Co18  1  0.000000  0.204628  0.567948  1
  Co  Co19  1  0.000000  0.795372  0.567948  1
  Co  Co20  1  0.500000  0.879080  0.704742  1
  Co  Co21  1  0.500000  0.120920  0.704742  1
  Co  Co22  1  0.000000  0.620920  0.295258  1
  Co  Co23  1  0.000000  0.379080  0.295258  1
  P  P24  1  0.500000  0.500000  0.885881  1
  P  P25  1  0.000000  0.000000  0.114119  1
  P  P26  1  0.500000  0.500000  0.353270  1
  P  P27  1  0.000000  0.000000  0.646730  1
  P  P28  1  0.500000  0.307894  0.614914  1
  P  P29  1  0.500000  0.692106  0.614914  1
  P  P30  1  0.000000  0.192106  0.385086  1
  P  P31  1  0.000000  0.807894  0.385086  1
  P  P32  1  0.500000  0.842908  0.897192  1
  P  P33  1  0.500000  0.157092  0.897192  1
  P  P34  1  0.000000  0.657092  0.102808  1
  P  P35  1  0.000000  0.342908  0.102808  1
