# generated using pymatgen
data_Pr3Nd3Y4(Sn5Rh2)4
_symmetry_space_group_name_H-M   'P 1'
_cell_length_a   14.19432004
_cell_length_b   14.19425804
_cell_length_c   4.59451100
_cell_angle_alpha   90.00000000
_cell_angle_beta   90.00000000
_cell_angle_gamma   89.99117613
_symmetry_Int_Tables_number   1
_chemical_formula_structural   Pr3Nd3Y4(Sn5Rh2)4
_chemical_formula_sum   'Pr3 Nd3 Y4 Sn20 Rh8'
_cell_volume   925.69214763
_cell_formula_units_Z   1
loop_
 _symmetry_equiv_pos_site_id
 _symmetry_equiv_pos_as_xyz
  1  'x, y, z'
loop_
 _atom_site_type_symbol
 _atom_site_label
 _atom_site_symmetry_multiplicity
 _atom_site_fract_x
 _atom_site_fract_y
 _atom_site_fract_z
 _atom_site_occupancy
  Pr  Pr0  1  0.111818  0.611818  0.500000  1
  Pr  Pr1  1  0.388149  0.111855  0.500000  1
  Pr  Pr2  1  0.611854  0.888148  0.500000  1
  Nd  Nd3  1  0.500021  0.499988  0.000000  1
  Nd  Nd4  1  0.999988  0.000022  0.000000  1
  Nd  Nd5  1  0.888161  0.388161  0.500000  1
  Y  Y6  1  0.677093  0.177093  0.500000  1
  Y  Y7  1  0.322932  0.822932  0.500000  1
  Y  Y8  1  0.177048  0.322926  0.500000  1
  Y  Y9  1  0.822927  0.677047  0.500000  1
  Sn  Sn10  1  0.570153  0.070152  0.000000  1
  Sn  Sn11  1  0.429848  0.929846  0.000000  1
  Sn  Sn12  1  0.070026  0.429847  0.000000  1
  Sn  Sn13  1  0.929848  0.570027  0.000000  1
  Sn  Sn14  1  0.654463  0.698043  0.000000  1
  Sn  Sn15  1  0.345543  0.301956  0.000000  1
  Sn  Sn16  1  0.154454  0.801939  0.000000  1
  Sn  Sn17  1  0.845575  0.198166  0.000000  1
  Sn  Sn18  1  0.301940  0.654455  0.000000  1
  Sn  Sn19  1  0.698167  0.345576  0.000000  1
  Sn  Sn20  1  0.198043  0.154462  0.000000  1
  Sn  Sn21  1  0.801957  0.845544  0.000000  1
  Sn  Sn22  1  0.663898  0.505782  0.500000  1
  Sn  Sn23  1  0.336147  0.494193  0.500000  1
  Sn  Sn24  1  0.163863  0.994194  0.500000  1
  Sn  Sn25  1  0.836149  0.005805  0.500000  1
  Sn  Sn26  1  0.494195  0.663863  0.500000  1
  Sn  Sn27  1  0.505806  0.336148  0.500000  1
  Sn  Sn28  1  0.005782  0.163898  0.500000  1
  Sn  Sn29  1  0.994194  0.836147  0.500000  1
  Rh  Rh30  1  0.747096  0.529067  0.000000  1
  Rh  Rh31  1  0.253024  0.470759  0.000000  1
  Rh  Rh32  1  0.246934  0.970784  0.000000  1
  Rh  Rh33  1  0.753071  0.029236  0.000000  1
  Rh  Rh34  1  0.470774  0.746938  0.000000  1
  Rh  Rh35  1  0.529238  0.253066  0.000000  1
  Rh  Rh36  1  0.029064  0.247093  0.000000  1
  Rh  Rh37  1  0.970760  0.753027  0.000000  1
