# generated using pymatgen
data_Tl2ReH9
_symmetry_space_group_name_H-M   'P 1'
_cell_length_a   9.69077200
_cell_length_b   9.69077236
_cell_length_c   5.68757200
_cell_angle_alpha   90.00000000
_cell_angle_beta   90.00000000
_cell_angle_gamma   120.00001241
_symmetry_Int_Tables_number   1
_chemical_formula_structural   Tl2ReH9
_chemical_formula_sum   'Tl6 Re3 H27'
_cell_volume   462.56658067
_cell_formula_units_Z   3
loop_
 _symmetry_equiv_pos_site_id
 _symmetry_equiv_pos_as_xyz
  1  'x, y, z'
loop_
 _atom_site_type_symbol
 _atom_site_label
 _atom_site_symmetry_multiplicity
 _atom_site_fract_x
 _atom_site_fract_y
 _atom_site_fract_z
 _atom_site_occupancy
  Tl  Tl0  1  0.000000  0.262740  0.500000  1
  Tl  Tl1  1  0.737260  0.737260  0.500000  1
  Tl  Tl2  1  0.262740  0.000000  0.500000  1
  Tl  Tl3  1  0.000000  0.590867  0.000000  1
  Tl  Tl4  1  0.409133  0.409133  0.000000  1
  Tl  Tl5  1  0.590867  0.000000  0.000000  1
  Re  Re6  1  0.666667  0.333333  0.500000  1
  Re  Re7  1  0.333333  0.666667  0.500000  1
  Re  Re8  1  0.000000  0.000000  0.000000  1
  H  H9  1  0.773954  0.307864  0.719189  1
  H  H10  1  0.692136  0.466088  0.719189  1
  H  H11  1  0.533912  0.226046  0.719189  1
  H  H12  1  0.226046  0.533912  0.280811  1
  H  H13  1  0.533912  0.226046  0.280811  1
  H  H14  1  0.773954  0.307864  0.280811  1
  H  H15  1  0.692136  0.466088  0.280811  1
  H  H16  1  0.307864  0.773954  0.719189  1
  H  H17  1  0.466088  0.692136  0.719189  1
  H  H18  1  0.174267  0.000000  0.000000  1
  H  H19  1  0.825733  0.825733  0.000000  1
  H  H20  1  0.000000  0.174267  0.000000  1
  H  H21  1  0.874500  0.000000  0.212119  1
  H  H22  1  0.125500  0.125500  0.787881  1
  H  H23  1  0.000000  0.874500  0.787881  1
  H  H24  1  0.000000  0.874500  0.212119  1
  H  H25  1  0.125500  0.125500  0.212119  1
  H  H26  1  0.874500  0.000000  0.787881  1
  H  H27  1  0.144393  0.631155  0.500000  1
  H  H28  1  0.486761  0.855607  0.500000  1
  H  H29  1  0.368845  0.513239  0.500000  1
  H  H30  1  0.513239  0.368845  0.500000  1
  H  H31  1  0.855607  0.486761  0.500000  1
  H  H32  1  0.631155  0.144393  0.500000  1
  H  H33  1  0.226046  0.533912  0.719189  1
  H  H34  1  0.307864  0.773954  0.280811  1
  H  H35  1  0.466088  0.692136  0.280811  1
