# generated using pymatgen
data_MgAl5Pd3Pt7
_symmetry_space_group_name_H-M   'P 1'
_cell_length_a   4.09991300
_cell_length_b   5.46945420
_cell_length_c   10.69292557
_cell_angle_alpha   89.76435647
_cell_angle_beta   90.00000000
_cell_angle_gamma   90.00000000
_symmetry_Int_Tables_number   1
_chemical_formula_structural   MgAl5Pd3Pt7
_chemical_formula_sum   'Mg1 Al5 Pd3 Pt7'
_cell_volume   239.77919737
_cell_formula_units_Z   1
loop_
 _symmetry_equiv_pos_site_id
 _symmetry_equiv_pos_as_xyz
  1  'x, y, z'
loop_
 _atom_site_type_symbol
 _atom_site_label
 _atom_site_symmetry_multiplicity
 _atom_site_fract_x
 _atom_site_fract_y
 _atom_site_fract_z
 _atom_site_occupancy
  Mg  Mg0  1  0.500000  0.170101  0.360987  1
  Al  Al1  1  0.000000  0.994969  0.000614  1
  Al  Al2  1  0.000000  0.482681  0.495903  1
  Al  Al3  1  0.500000  0.835834  0.642311  1
  Al  Al4  1  0.500000  0.672445  0.146246  1
  Al  Al5  1  0.500000  0.331730  0.858665  1
  Pd  Pd6  1  0.000000  0.979109  0.509095  1
  Pd  Pd7  1  0.000000  0.496886  0.993612  1
  Pd  Pd8  1  0.000000  0.594316  0.729899  1
  Pt  Pt9  1  0.500000  0.198925  0.100808  1
  Pt  Pt10  1  0.500000  0.805454  0.893204  1
  Pt  Pt11  1  0.500000  0.682493  0.396174  1
  Pt  Pt12  1  0.500000  0.310294  0.611275  1
  Pt  Pt13  1  0.000000  0.923742  0.233737  1
  Pt  Pt14  1  0.000000  0.093905  0.770294  1
  Pt  Pt15  1  0.000000  0.427119  0.257176  1
