# generated using pymatgen
data_Tm4GeMoRu6
_symmetry_space_group_name_H-M   'P 1'
_cell_length_a   5.54938945
_cell_length_b   5.14985596
_cell_length_c   8.90912900
_cell_angle_alpha   90.00000000
_cell_angle_beta   90.00000000
_cell_angle_gamma   122.66152005
_symmetry_Int_Tables_number   1
_chemical_formula_structural   Tm4GeMoRu6
_chemical_formula_sum   'Tm4 Ge1 Mo1 Ru6'
_cell_volume   214.34942896
_cell_formula_units_Z   1
loop_
 _symmetry_equiv_pos_site_id
 _symmetry_equiv_pos_as_xyz
  1  'x, y, z'
loop_
 _atom_site_type_symbol
 _atom_site_label
 _atom_site_symmetry_multiplicity
 _atom_site_fract_x
 _atom_site_fract_y
 _atom_site_fract_z
 _atom_site_occupancy
  Tm  Tm0  1  0.674562  0.349598  0.564857  1
  Tm  Tm1  1  0.331962  0.664114  0.432340  1
  Tm  Tm2  1  0.331962  0.664114  0.067660  1
  Tm  Tm3  1  0.674562  0.349598  0.935143  1
  Ge  Ge4  1  0.828958  0.657157  0.250000  1
  Mo  Mo5  1  0.155609  0.310790  0.750000  1
  Ru  Ru6  1  0.009655  0.019110  0.497937  1
  Ru  Ru7  1  0.009655  0.019110  0.002063  1
  Ru  Ru8  1  0.175875  0.819555  0.750000  1
  Ru  Ru9  1  0.643683  0.819847  0.750000  1
  Ru  Ru10  1  0.822843  0.163695  0.250000  1
  Ru  Ru11  1  0.340677  0.163311  0.250000  1
