# generated using pymatgen
data_Sb12Pt2Rh2I
_symmetry_space_group_name_H-M   'P 1'
_cell_length_a   8.24497679
_cell_length_b   8.24497680
_cell_length_c   8.22511965
_cell_angle_alpha   109.43968025
_cell_angle_beta   109.49186454
_cell_angle_gamma   109.57970416
_symmetry_Int_Tables_number   1
_chemical_formula_structural   Sb12Pt2Rh2I
_chemical_formula_sum   'Sb12 Pt2 Rh2 I1'
_cell_volume   429.90704564
_cell_formula_units_Z   1
loop_
 _symmetry_equiv_pos_site_id
 _symmetry_equiv_pos_as_xyz
  1  'x, y, z'
loop_
 _atom_site_type_symbol
 _atom_site_label
 _atom_site_symmetry_multiplicity
 _atom_site_fract_x
 _atom_site_fract_y
 _atom_site_fract_z
 _atom_site_occupancy
  Sb  Sb0  1  0.338022  0.494747  0.149771  1
  Sb  Sb1  1  0.655025  0.811749  0.149771  1
  Sb  Sb2  1  0.844936  0.339629  0.184565  1
  Sb  Sb3  1  0.188032  0.842850  0.337894  1
  Sb  Sb4  1  0.495045  0.149862  0.337894  1
  Sb  Sb5  1  0.151841  0.343350  0.495192  1
  Sb  Sb6  1  0.848159  0.656650  0.504808  1
  Sb  Sb7  1  0.811968  0.157150  0.662106  1
  Sb  Sb8  1  0.504955  0.850138  0.662106  1
  Sb  Sb9  1  0.155064  0.660371  0.815435  1
  Sb  Sb10  1  0.344975  0.188251  0.850229  1
  Sb  Sb11  1  0.661978  0.505253  0.850229  1
  Pt  Pt12  1  0.000000  0.000000  0.500000  1
  Pt  Pt13  1  0.500000  0.500000  0.500000  1
  Rh  Rh14  1  0.500000  0.000000  0.000000  1
  Rh  Rh15  1  0.000000  0.500000  0.000000  1
  I  I16  1  0.000000  0.000000  0.000000  1
