# generated using pymatgen
data_K8Te6Pb
_symmetry_space_group_name_H-M   'P 1'
_cell_length_a   10.14657590
_cell_length_b   10.14657657
_cell_length_c   10.14657592
_cell_angle_alpha   95.33425243
_cell_angle_beta   95.33425516
_cell_angle_gamma   144.49534575
_symmetry_Int_Tables_number   1
_chemical_formula_structural   K8Te6Pb
_chemical_formula_sum   'K8 Te6 Pb1'
_cell_volume   577.79510283
_cell_formula_units_Z   1
loop_
 _symmetry_equiv_pos_site_id
 _symmetry_equiv_pos_as_xyz
  1  'x, y, z'
loop_
 _atom_site_type_symbol
 _atom_site_label
 _atom_site_symmetry_multiplicity
 _atom_site_fract_x
 _atom_site_fract_y
 _atom_site_fract_z
 _atom_site_occupancy
  K  K0  1  0.968273  0.153514  0.640077  1
  K  K1  1  0.513436  0.328196  0.359923  1
  K  K2  1  0.486564  0.846486  0.814760  1
  K  K3  1  0.031727  0.671804  0.185240  1
  K  K4  1  0.671804  0.031727  0.185240  1
  K  K5  1  0.846486  0.486564  0.814760  1
  K  K6  1  0.328196  0.513436  0.359923  1
  K  K7  1  0.153514  0.968273  0.640077  1
  Te  Te8  1  0.500000  0.000000  0.500000  1
  Te  Te9  1  0.000000  0.500000  0.500000  1
  Te  Te10  1  0.882351  0.882351  0.300614  1
  Te  Te11  1  0.581737  0.581737  0.699386  1
  Te  Te12  1  0.418263  0.117649  0.000000  1
  Te  Te13  1  0.117649  0.418263  0.000000  1
  Pb  Pb14  1  0.500000  0.500000  0.000000  1
