# generated using pymatgen
data_Ce2PrNd7(Bi3Br)2
_symmetry_space_group_name_H-M   'P 1'
_cell_length_a   9.63458300
_cell_length_b   9.63458365
_cell_length_c   6.69523900
_cell_angle_alpha   89.99995199
_cell_angle_beta   89.99995054
_cell_angle_gamma   119.99605343
_symmetry_Int_Tables_number   1
_chemical_formula_structural   Ce2PrNd7(Bi3Br)2
_chemical_formula_sum   'Ce2 Pr1 Nd7 Bi6 Br2'
_cell_volume   538.24482193
_cell_formula_units_Z   1
loop_
 _symmetry_equiv_pos_site_id
 _symmetry_equiv_pos_as_xyz
  1  'x, y, z'
loop_
 _atom_site_type_symbol
 _atom_site_label
 _atom_site_symmetry_multiplicity
 _atom_site_fract_x
 _atom_site_fract_y
 _atom_site_fract_z
 _atom_site_occupancy
  Ce  Ce0  1  0.333363  0.666788  0.500030  1
  Ce  Ce1  1  0.666788  0.333363  0.500030  1
  Pr  Pr2  1  0.273712  0.273712  0.250116  1
  Nd  Nd3  1  0.273750  0.999928  0.749888  1
  Nd  Nd4  1  0.726342  0.000057  0.250111  1
  Nd  Nd5  1  0.999928  0.273750  0.749888  1
  Nd  Nd6  1  0.000057  0.726342  0.250111  1
  Nd  Nd7  1  0.726208  0.726208  0.749894  1
  Nd  Nd8  1  0.666785  0.333363  0.999966  1
  Nd  Nd9  1  0.333363  0.666785  0.999966  1
  Bi  Bi10  1  0.615622  0.000056  0.749947  1
  Bi  Bi11  1  0.384553  0.999610  0.250054  1
  Bi  Bi12  1  0.000056  0.615622  0.749947  1
  Bi  Bi13  1  0.999610  0.384553  0.250054  1
  Bi  Bi14  1  0.384521  0.384521  0.749948  1
  Bi  Bi15  1  0.616112  0.616112  0.250051  1
  Br  Br16  1  0.999616  0.999616  0.500325  1
  Br  Br17  1  0.999615  0.999615  0.999674  1
