# generated using pymatgen
data_CaY3ReB16W3
_symmetry_space_group_name_H-M   'P 1'
_cell_length_a   3.60856100
_cell_length_b   6.04215211
_cell_length_c   11.67986601
_cell_angle_alpha   89.99118208
_cell_angle_beta   90.00000000
_cell_angle_gamma   90.00000000
_symmetry_Int_Tables_number   1
_chemical_formula_structural   CaY3ReB16W3
_chemical_formula_sum   'Ca1 Y3 Re1 B16 W3'
_cell_volume   254.66165737
_cell_formula_units_Z   1
loop_
 _symmetry_equiv_pos_site_id
 _symmetry_equiv_pos_as_xyz
  1  'x, y, z'
loop_
 _atom_site_type_symbol
 _atom_site_label
 _atom_site_symmetry_multiplicity
 _atom_site_fract_x
 _atom_site_fract_y
 _atom_site_fract_z
 _atom_site_occupancy
  Ca  Ca0  1  0.000000  0.127578  0.150366  1
  Y  Y1  1  0.000000  0.873434  0.849999  1
  Y  Y2  1  0.000000  0.627618  0.350320  1
  Y  Y3  1  0.000000  0.373458  0.649463  1
  Re  Re4  1  0.000000  0.370912  0.915026  1
  B  B5  1  0.500000  0.476034  0.193006  1
  B  B6  1  0.500000  0.522166  0.807245  1
  B  B7  1  0.500000  0.976148  0.307087  1
  B  B8  1  0.500000  0.024777  0.693898  1
  B  B9  1  0.500000  0.286723  0.313945  1
  B  B10  1  0.500000  0.711996  0.686916  1
  B  B11  1  0.500000  0.786496  0.186183  1
  B  B12  1  0.500000  0.215004  0.815578  1
  B  B13  1  0.500000  0.366238  0.468291  1
  B  B14  1  0.500000  0.633567  0.532127  1
  B  B15  1  0.500000  0.866784  0.030792  1
  B  B16  1  0.500000  0.135250  0.967317  1
  B  B17  1  0.500000  0.382751  0.046259  1
  B  B18  1  0.500000  0.610933  0.950888  1
  B  B19  1  0.500000  0.885764  0.453047  1
  B  B20  1  0.500000  0.113372  0.547793  1
  W  W21  1  0.000000  0.130625  0.415941  1
  W  W22  1  0.000000  0.870397  0.585775  1
  W  W23  1  0.000000  0.631975  0.082736  1
