# generated using pymatgen
data_LiDy16In3RuRh3
_symmetry_space_group_name_H-M   'P 1'
_cell_length_a   9.67217275
_cell_length_b   9.67217347
_cell_length_c   9.68860721
_cell_angle_alpha   59.77809442
_cell_angle_beta   59.77809469
_cell_angle_gamma   59.58326202
_symmetry_Int_Tables_number   1
_chemical_formula_structural   LiDy16In3RuRh3
_chemical_formula_sum   'Li1 Dy16 In3 Ru1 Rh3'
_cell_volume   636.72560347
_cell_formula_units_Z   1
loop_
 _symmetry_equiv_pos_site_id
 _symmetry_equiv_pos_as_xyz
  1  'x, y, z'
loop_
 _atom_site_type_symbol
 _atom_site_label
 _atom_site_symmetry_multiplicity
 _atom_site_fract_x
 _atom_site_fract_y
 _atom_site_fract_z
 _atom_site_occupancy
  Li  Li0  1  0.928192  0.928192  0.216175  1
  Dy  Dy1  1  0.686598  0.312665  0.313040  1
  Dy  Dy2  1  0.687142  0.687142  0.315214  1
  Dy  Dy3  1  0.312665  0.686598  0.313040  1
  Dy  Dy4  1  0.936305  0.936305  0.565670  1
  Dy  Dy5  1  0.149735  0.149735  0.550373  1
  Dy  Dy6  1  0.561492  0.941545  0.560139  1
  Dy  Dy7  1  0.152288  0.152288  0.152784  1
  Dy  Dy8  1  0.309617  0.309617  0.688954  1
  Dy  Dy9  1  0.941545  0.561492  0.560139  1
  Dy  Dy10  1  0.562367  0.562367  0.940744  1
  Dy  Dy11  1  0.563287  0.935469  0.936621  1
  Dy  Dy12  1  0.935469  0.563287  0.936621  1
  Dy  Dy13  1  0.152851  0.543899  0.148846  1
  Dy  Dy14  1  0.309553  0.690425  0.693293  1
  Dy  Dy15  1  0.690425  0.309553  0.693293  1
  Dy  Dy16  1  0.543899  0.152851  0.148846  1
  In  In17  1  0.245685  0.917503  0.920850  1
  In  In18  1  0.917503  0.245685  0.920850  1
  In  In19  1  0.917276  0.917276  0.920340  1
  Ru  Ru20  1  0.356931  0.356931  0.361781  1
  Rh  Rh21  1  0.925378  0.357038  0.358360  1
  Rh  Rh22  1  0.356760  0.356760  0.925668  1
  Rh  Rh23  1  0.357038  0.925378  0.358360  1
