# generated using pymatgen
data_Tb16Ni3Ag4Os
_symmetry_space_group_name_H-M   'P 1'
_cell_length_a   9.54405670
_cell_length_b   9.54405717
_cell_length_c   9.54405703
_cell_angle_alpha   59.49796009
_cell_angle_beta   59.49796247
_cell_angle_gamma   59.49795999
_symmetry_Int_Tables_number   1
_chemical_formula_structural   Tb16Ni3Ag4Os
_chemical_formula_sum   'Tb16 Ni3 Ag4 Os1'
_cell_volume   607.71062789
_cell_formula_units_Z   1
loop_
 _symmetry_equiv_pos_site_id
 _symmetry_equiv_pos_as_xyz
  1  'x, y, z'
loop_
 _atom_site_type_symbol
 _atom_site_label
 _atom_site_symmetry_multiplicity
 _atom_site_fract_x
 _atom_site_fract_y
 _atom_site_fract_z
 _atom_site_occupancy
  Tb  Tb0  1  0.349271  0.349271  0.349271  1
  Tb  Tb1  1  0.353527  0.353527  0.949133  1
  Tb  Tb2  1  0.353527  0.949133  0.353527  1
  Tb  Tb3  1  0.949133  0.353527  0.353527  1
  Tb  Tb4  1  0.810260  0.187739  0.187739  1
  Tb  Tb5  1  0.187325  0.810579  0.810579  1
  Tb  Tb6  1  0.187739  0.810260  0.187739  1
  Tb  Tb7  1  0.810579  0.187325  0.810579  1
  Tb  Tb8  1  0.187739  0.187739  0.810260  1
  Tb  Tb9  1  0.810579  0.810579  0.187325  1
  Tb  Tb10  1  0.934803  0.564557  0.564557  1
  Tb  Tb11  1  0.557062  0.938533  0.938533  1
  Tb  Tb12  1  0.564557  0.934803  0.564557  1
  Tb  Tb13  1  0.938533  0.557062  0.938533  1
  Tb  Tb14  1  0.564557  0.564557  0.934803  1
  Tb  Tb15  1  0.938533  0.938533  0.557062  1
  Ni  Ni16  1  0.143490  0.143490  0.572760  1
  Ni  Ni17  1  0.143490  0.572760  0.143490  1
  Ni  Ni18  1  0.572760  0.143490  0.143490  1
  Ag  Ag19  1  0.582436  0.582436  0.582436  1
  Ag  Ag20  1  0.580724  0.580724  0.255371  1
  Ag  Ag21  1  0.580724  0.255371  0.580724  1
  Ag  Ag22  1  0.255371  0.580724  0.580724  1
  Os  Os23  1  0.143279  0.143279  0.143279  1
