# generated using pymatgen
data_Ti3AlCuO
_symmetry_space_group_name_H-M   'P 1'
_cell_length_a   6.83377600
_cell_length_b   6.83377600
_cell_length_c   6.83377600
_cell_angle_alpha   90.00000000
_cell_angle_beta   90.00000000
_cell_angle_gamma   90.00000000
_symmetry_Int_Tables_number   1
_chemical_formula_structural   Ti3AlCuO
_chemical_formula_sum   'Ti12 Al4 Cu4 O4'
_cell_volume   319.14071794
_cell_formula_units_Z   4
loop_
 _symmetry_equiv_pos_site_id
 _symmetry_equiv_pos_as_xyz
  1  'x, y, z'
loop_
 _atom_site_type_symbol
 _atom_site_label
 _atom_site_symmetry_multiplicity
 _atom_site_fract_x
 _atom_site_fract_y
 _atom_site_fract_z
 _atom_site_occupancy
  Ti  Ti0  1  0.789010  0.959034  0.374414  1
  Ti  Ti1  1  0.710990  0.040966  0.874414  1
  Ti  Ti2  1  0.210990  0.459034  0.125586  1
  Ti  Ti3  1  0.289010  0.540966  0.625586  1
  Ti  Ti4  1  0.959034  0.374414  0.789010  1
  Ti  Ti5  1  0.040966  0.874414  0.710990  1
  Ti  Ti6  1  0.459034  0.125586  0.210990  1
  Ti  Ti7  1  0.540966  0.625586  0.289010  1
  Ti  Ti8  1  0.374414  0.789010  0.959034  1
  Ti  Ti9  1  0.874414  0.710990  0.040966  1
  Ti  Ti10  1  0.125586  0.210990  0.459034  1
  Ti  Ti11  1  0.625586  0.289010  0.540966  1
  Al  Al12  1  0.574029  0.425971  0.925971  1
  Al  Al13  1  0.425971  0.925971  0.574029  1
  Al  Al14  1  0.925971  0.574029  0.425971  1
  Al  Al15  1  0.074029  0.074029  0.074029  1
  Cu  Cu16  1  0.177978  0.822022  0.322022  1
  Cu  Cu17  1  0.322022  0.177978  0.822022  1
  Cu  Cu18  1  0.822022  0.322022  0.177978  1
  Cu  Cu19  1  0.677978  0.677978  0.677978  1
  O  O20  1  0.876905  0.123095  0.623095  1
  O  O21  1  0.623095  0.876905  0.123095  1
  O  O22  1  0.123095  0.623095  0.876905  1
  O  O23  1  0.376905  0.376905  0.376905  1
