# generated using pymatgen
data_Nd5(InTe)2
_symmetry_space_group_name_H-M   'P 1'
_cell_length_a   8.36452000
_cell_length_b   8.36040800
_cell_length_c   16.01452500
_cell_angle_alpha   90.00000000
_cell_angle_beta   90.00000000
_cell_angle_gamma   90.00000000
_symmetry_Int_Tables_number   1
_chemical_formula_structural   Nd5(InTe)2
_chemical_formula_sum   'Nd20 In8 Te8'
_cell_volume   1119.90854366
_cell_formula_units_Z   4
loop_
 _symmetry_equiv_pos_site_id
 _symmetry_equiv_pos_as_xyz
  1  'x, y, z'
loop_
 _atom_site_type_symbol
 _atom_site_label
 _atom_site_symmetry_multiplicity
 _atom_site_fract_x
 _atom_site_fract_y
 _atom_site_fract_z
 _atom_site_occupancy
  Nd  Nd0  1  0.072470  0.166957  0.389856  1
  Nd  Nd1  1  0.413486  0.833656  0.113098  1
  Nd  Nd2  1  0.086514  0.333656  0.613098  1
  Nd  Nd3  1  0.427530  0.666957  0.889856  1
  Nd  Nd4  1  0.913486  0.666344  0.113098  1
  Nd  Nd5  1  0.086514  0.333656  0.886902  1
  Nd  Nd6  1  0.241812  0.498507  0.250000  1
  Nd  Nd7  1  0.741812  0.001493  0.250000  1
  Nd  Nd8  1  0.427530  0.666957  0.610144  1
  Nd  Nd9  1  0.258188  0.998507  0.750000  1
  Nd  Nd10  1  0.586514  0.166344  0.613098  1
  Nd  Nd11  1  0.758188  0.501493  0.750000  1
  Nd  Nd12  1  0.913486  0.666344  0.386902  1
  Nd  Nd13  1  0.072470  0.166957  0.110144  1
  Nd  Nd14  1  0.927530  0.833043  0.889856  1
  Nd  Nd15  1  0.586514  0.166344  0.886902  1
  Nd  Nd16  1  0.572470  0.333043  0.110144  1
  Nd  Nd17  1  0.413486  0.833656  0.386902  1
  Nd  Nd18  1  0.927530  0.833043  0.610144  1
  Nd  Nd19  1  0.572470  0.333043  0.389856  1
  In  In20  1  0.631080  0.874076  0.750000  1
  In  In21  1  0.868920  0.374076  0.250000  1
  In  In22  1  0.615160  0.623354  0.250000  1
  In  In23  1  0.384840  0.376646  0.750000  1
  In  In24  1  0.131080  0.625924  0.750000  1
  In  In25  1  0.884840  0.123354  0.750000  1
  In  In26  1  0.368920  0.125924  0.250000  1
  In  In27  1  0.115160  0.876646  0.250000  1
  Te  Te28  1  0.754988  0.496720  0.549621  1
  Te  Te29  1  0.745012  0.996720  0.450379  1
  Te  Te30  1  0.245012  0.503280  0.450379  1
  Te  Te31  1  0.254988  0.003280  0.950379  1
  Te  Te32  1  0.754988  0.496720  0.950379  1
  Te  Te33  1  0.245012  0.503280  0.049621  1
  Te  Te34  1  0.254988  0.003280  0.549621  1
  Te  Te35  1  0.745012  0.996720  0.049621  1
