# generated using pymatgen
data_Dy4Er8Ga2Co3Ni
_symmetry_space_group_name_H-M   'P 1'
_cell_length_a   8.24259093
_cell_length_b   8.24259134
_cell_length_c   8.24259085
_cell_angle_alpha   107.15108831
_cell_angle_beta   109.19273887
_cell_angle_gamma   112.10843318
_symmetry_Int_Tables_number   1
_chemical_formula_structural   Dy4Er8Ga2Co3Ni
_chemical_formula_sum   'Dy4 Er8 Ga2 Co3 Ni1'
_cell_volume   430.27273938
_cell_formula_units_Z   1
loop_
 _symmetry_equiv_pos_site_id
 _symmetry_equiv_pos_as_xyz
  1  'x, y, z'
loop_
 _atom_site_type_symbol
 _atom_site_label
 _atom_site_symmetry_multiplicity
 _atom_site_fract_x
 _atom_site_fract_y
 _atom_site_fract_z
 _atom_site_occupancy
  Dy  Dy0  1  0.697248  0.260363  0.957611  1
  Dy  Dy1  1  0.301355  0.738558  0.039913  1
  Dy  Dy2  1  0.697248  0.739637  0.436887  1
  Dy  Dy3  1  0.301355  0.261442  0.562794  1
  Er  Er4  1  0.811389  0.135066  0.326557  1
  Er  Er5  1  0.811389  0.484832  0.676323  1
  Er  Er6  1  0.191490  0.864934  0.676323  1
  Er  Er7  1  0.191490  0.515168  0.326557  1
  Er  Er8  1  0.600526  0.780759  0.819768  1
  Er  Er9  1  0.961679  0.783421  0.178259  1
  Er  Er10  1  0.039010  0.219241  0.819768  1
  Er  Er11  1  0.394838  0.216579  0.178259  1
  Ga  Ga12  1  0.498754  0.500000  0.998754  1
  Ga  Ga13  1  0.499764  0.000000  0.499764  1
  Co  Co14  1  0.158023  0.500000  0.658023  1
  Co  Co15  1  0.999678  0.115422  0.115100  1
  Co  Co16  1  0.999678  0.884578  0.884256  1
  Ni  Ni17  1  0.845086  0.500000  0.345086  1
