# generated using pymatgen
data_Pa4Ga8Tc4Pd
_symmetry_space_group_name_H-M   'P 1'
_cell_length_a   7.41797226
_cell_length_b   7.34942434
_cell_length_c   7.41675474
_cell_angle_alpha   110.41159047
_cell_angle_beta   107.95289345
_cell_angle_gamma   110.42032745
_symmetry_Int_Tables_number   1
_chemical_formula_structural   Pa4Ga8Tc4Pd
_chemical_formula_sum   'Pa4 Ga8 Tc4 Pd1'
_cell_volume   309.68927871
_cell_formula_units_Z   1
loop_
 _symmetry_equiv_pos_site_id
 _symmetry_equiv_pos_as_xyz
  1  'x, y, z'
loop_
 _atom_site_type_symbol
 _atom_site_label
 _atom_site_symmetry_multiplicity
 _atom_site_fract_x
 _atom_site_fract_y
 _atom_site_fract_z
 _atom_site_occupancy
  Pa  Pa0  1  0.011167  0.022382  0.511191  1
  Pa  Pa1  1  0.971002  0.481264  0.971046  1
  Pa  Pa2  1  0.511193  0.022408  0.011179  1
  Pa  Pa3  1  0.510391  0.481286  0.510349  1
  Ga  Ga4  1  0.246851  0.749035  0.502427  1
  Ga  Ga5  1  0.502320  0.749031  0.246739  1
  Ga  Ga6  1  0.688449  0.689847  0.001213  1
  Ga  Ga7  1  0.301718  0.986995  0.301632  1
  Ga  Ga8  1  0.004656  0.317408  0.312812  1
  Ga  Ga9  1  0.312810  0.317408  0.004647  1
  Ga  Ga10  1  0.685154  0.986701  0.685235  1
  Ga  Ga11  1  0.001249  0.689853  0.688484  1
  Tc  Tc12  1  0.746948  0.243549  0.496435  1
  Tc  Tc13  1  0.753946  0.507965  0.253947  1
  Tc  Tc14  1  0.496484  0.243538  0.747000  1
  Tc  Tc15  1  0.254067  0.508220  0.754074  1
  Pd  Pd16  1  0.001596  0.003110  0.001591  1
