# generated using pymatgen
data_Tm4Sc16BiSb11
_symmetry_space_group_name_H-M   'P 1'
_cell_length_a   7.70294410
_cell_length_b   8.85538830
_cell_length_c   11.32953423
_cell_angle_alpha   90.02509619
_cell_angle_beta   89.91702773
_cell_angle_gamma   90.01623126
_symmetry_Int_Tables_number   1
_chemical_formula_structural   Tm4Sc16BiSb11
_chemical_formula_sum   'Tm4 Sc16 Bi1 Sb11'
_cell_volume   772.81563058
_cell_formula_units_Z   1
loop_
 _symmetry_equiv_pos_site_id
 _symmetry_equiv_pos_as_xyz
  1  'x, y, z'
loop_
 _atom_site_type_symbol
 _atom_site_label
 _atom_site_symmetry_multiplicity
 _atom_site_fract_x
 _atom_site_fract_y
 _atom_site_fract_z
 _atom_site_occupancy
  Tm  Tm0  1  0.180791  0.246329  0.780022  1
  Tm  Tm1  1  0.816488  0.749881  0.219517  1
  Tm  Tm2  1  0.316322  0.750048  0.280773  1
  Tm  Tm3  1  0.685419  0.247337  0.718461  1
  Sc  Sc4  1  0.022124  0.249991  0.510376  1
  Sc  Sc5  1  0.977560  0.750131  0.489212  1
  Sc  Sc6  1  0.478669  0.752561  0.012594  1
  Sc  Sc7  1  0.522770  0.247549  0.990693  1
  Sc  Sc8  1  0.350435  0.250133  0.281969  1
  Sc  Sc9  1  0.652860  0.753248  0.717063  1
  Sc  Sc10  1  0.146466  0.752622  0.781287  1
  Sc  Sc11  1  0.850410  0.250053  0.218359  1
  Sc  Sc12  1  0.192819  0.063261  0.062869  1
  Sc  Sc13  1  0.807313  0.936555  0.937595  1
  Sc  Sc14  1  0.306961  0.936622  0.562448  1
  Sc  Sc15  1  0.809293  0.564353  0.938184  1
  Sc  Sc16  1  0.693354  0.063390  0.437325  1
  Sc  Sc17  1  0.191774  0.435915  0.064459  1
  Sc  Sc18  1  0.693248  0.436411  0.437370  1
  Sc  Sc19  1  0.305187  0.563924  0.560035  1
  Bi  Bi20  1  0.434746  0.508564  0.827509  1
  Sb  Sb21  1  0.406037  0.250079  0.533740  1
  Sb  Sb22  1  0.593841  0.749968  0.466219  1
  Sb  Sb23  1  0.094736  0.749982  0.033638  1
  Sb  Sb24  1  0.905729  0.250000  0.966667  1
  Sb  Sb25  1  0.064132  0.008545  0.328515  1
  Sb  Sb26  1  0.935877  0.991281  0.670801  1
  Sb  Sb27  1  0.435895  0.991260  0.828594  1
  Sb  Sb28  1  0.935892  0.508485  0.671621  1
  Sb  Sb29  1  0.564538  0.008604  0.172290  1
  Sb  Sb30  1  0.064087  0.491450  0.328629  1
  Sb  Sb31  1  0.564227  0.491468  0.171167  1
