# generated using pymatgen
data_Tm2Lu2Al4IrPt3
_symmetry_space_group_name_H-M   'P 1'
_cell_length_a   4.37189900
_cell_length_b   6.72523344
_cell_length_c   7.76658605
_cell_angle_alpha   89.96877455
_cell_angle_beta   90.00000000
_cell_angle_gamma   90.00000000
_symmetry_Int_Tables_number   1
_chemical_formula_structural   Tm2Lu2Al4IrPt3
_chemical_formula_sum   'Tm2 Lu2 Al4 Ir1 Pt3'
_cell_volume   228.35345005
_cell_formula_units_Z   1
loop_
 _symmetry_equiv_pos_site_id
 _symmetry_equiv_pos_as_xyz
  1  'x, y, z'
loop_
 _atom_site_type_symbol
 _atom_site_label
 _atom_site_symmetry_multiplicity
 _atom_site_fract_x
 _atom_site_fract_y
 _atom_site_fract_z
 _atom_site_occupancy
  Tm  Tm0  1  0.250000  0.032412  0.676369  1
  Tm  Tm1  1  0.250000  0.530305  0.821304  1
  Lu  Lu2  1  0.750000  0.974675  0.321833  1
  Lu  Lu3  1  0.750000  0.467619  0.180990  1
  Al  Al4  1  0.250000  0.144061  0.061774  1
  Al  Al5  1  0.250000  0.638548  0.438981  1
  Al  Al6  1  0.750000  0.857052  0.940561  1
  Al  Al7  1  0.750000  0.356574  0.558459  1
  Ir  Ir8  1  0.250000  0.264422  0.378063  1
  Pt  Pt9  1  0.250000  0.767916  0.121747  1
  Pt  Pt10  1  0.750000  0.733165  0.621690  1
  Pt  Pt11  1  0.750000  0.233250  0.878229  1
