# generated using pymatgen
data_Dy2Co9Si(As2Rh)3
_symmetry_space_group_name_H-M   'P 1'
_cell_length_a   9.41227300
_cell_length_b   9.41227366
_cell_length_c   3.79837400
_cell_angle_alpha   90.00000000
_cell_angle_beta   90.00000000
_cell_angle_gamma   120.00000119
_symmetry_Int_Tables_number   1
_chemical_formula_structural   Dy2Co9Si(As2Rh)3
_chemical_formula_sum   'Dy2 Co9 Si1 As6 Rh3'
_cell_volume   291.41869700
_cell_formula_units_Z   1
loop_
 _symmetry_equiv_pos_site_id
 _symmetry_equiv_pos_as_xyz
  1  'x, y, z'
loop_
 _atom_site_type_symbol
 _atom_site_label
 _atom_site_symmetry_multiplicity
 _atom_site_fract_x
 _atom_site_fract_y
 _atom_site_fract_z
 _atom_site_occupancy
  Dy  Dy0  1  0.333333  0.666667  0.743007  1
  Dy  Dy1  1  0.666667  0.333333  0.243033  1
  Co  Co2  1  0.630115  0.571872  0.743065  1
  Co  Co3  1  0.428128  0.058244  0.743065  1
  Co  Co4  1  0.941756  0.369885  0.743065  1
  Co  Co5  1  0.385079  0.436103  0.243036  1
  Co  Co6  1  0.563897  0.948976  0.243036  1
  Co  Co7  1  0.051024  0.614921  0.243036  1
  Co  Co8  1  0.122560  0.840930  0.743069  1
  Co  Co9  1  0.159070  0.281631  0.743069  1
  Co  Co10  1  0.718369  0.877440  0.743069  1
  Si  Si11  1  0.000000  0.000000  0.743130  1
  As  As12  1  0.887411  0.586521  0.743111  1
  As  As13  1  0.413479  0.300889  0.743111  1
  As  As14  1  0.699111  0.112589  0.743111  1
  As  As15  1  0.119268  0.408699  0.243010  1
  As  As16  1  0.591301  0.710570  0.243010  1
  As  As17  1  0.289430  0.880732  0.243010  1
  Rh  Rh18  1  0.905672  0.116277  0.243080  1
  Rh  Rh19  1  0.883723  0.789396  0.243080  1
  Rh  Rh20  1  0.210604  0.094328  0.243080  1
