# generated using pymatgen
data_Ho4Al18Ir4PtRh
_symmetry_space_group_name_H-M   'P 1'
_cell_length_a   7.58532576
_cell_length_b   7.58532659
_cell_length_c   9.46713500
_cell_angle_alpha   90.03904405
_cell_angle_beta   90.03904406
_cell_angle_gamma   119.91694256
_symmetry_Int_Tables_number   1
_chemical_formula_structural   Ho4Al18Ir4PtRh
_chemical_formula_sum   'Ho4 Al18 Ir4 Pt1 Rh1'
_cell_volume   472.12847237
_cell_formula_units_Z   1
loop_
 _symmetry_equiv_pos_site_id
 _symmetry_equiv_pos_as_xyz
  1  'x, y, z'
loop_
 _atom_site_type_symbol
 _atom_site_label
 _atom_site_symmetry_multiplicity
 _atom_site_fract_x
 _atom_site_fract_y
 _atom_site_fract_z
 _atom_site_occupancy
  Ho  Ho0  1  0.995863  0.669142  0.250001  1
  Ho  Ho1  1  0.004137  0.330858  0.749999  1
  Ho  Ho2  1  0.669142  0.995863  0.250001  1
  Ho  Ho3  1  0.330858  0.004137  0.749999  1
  Al  Al4  1  0.128584  0.128584  0.252812  1
  Al  Al5  1  0.871416  0.871416  0.747188  1
  Al  Al6  1  0.000826  0.337449  0.076516  1
  Al  Al7  1  0.999174  0.662551  0.923484  1
  Al  Al8  1  0.999870  0.665726  0.574501  1
  Al  Al9  1  0.334274  0.000130  0.425499  1
  Al  Al10  1  0.000130  0.334274  0.425499  1
  Al  Al11  1  0.665726  0.999870  0.574501  1
  Al  Al12  1  0.662551  0.999174  0.923484  1
  Al  Al13  1  0.337449  0.000826  0.076516  1
  Al  Al14  1  0.332769  0.332769  0.552045  1
  Al  Al15  1  0.667231  0.667231  0.447955  1
  Al  Al16  1  0.663800  0.663800  0.054331  1
  Al  Al17  1  0.336200  0.336200  0.945669  1
  Al  Al18  1  0.339045  0.548024  0.250348  1
  Al  Al19  1  0.660955  0.451976  0.749652  1
  Al  Al20  1  0.548024  0.339045  0.250348  1
  Al  Al21  1  0.451976  0.660955  0.749652  1
  Ir  Ir22  1  0.672228  0.327772  0.000000  1
  Ir  Ir23  1  0.327772  0.672228  0.000000  1
  Ir  Ir24  1  0.327692  0.672308  0.500000  1
  Ir  Ir25  1  0.672308  0.327692  0.500000  1
  Pt  Pt26  1  0.000000  0.000000  0.000000  1
  Rh  Rh27  1  0.000000  0.000000  0.500000  1
