# generated using pymatgen
data_Tb5Y(Tm2Sb3)2
_symmetry_space_group_name_H-M   'P 1'
_cell_length_a   8.96986754
_cell_length_b   8.97524596
_cell_length_c   6.27356200
_cell_angle_alpha   90.00000000
_cell_angle_beta   90.00000000
_cell_angle_gamma   120.01983997
_symmetry_Int_Tables_number   1
_chemical_formula_structural   Tb5Y(Tm2Sb3)2
_chemical_formula_sum   'Tb5 Y1 Tm4 Sb6'
_cell_volume   437.31095378
_cell_formula_units_Z   1
loop_
 _symmetry_equiv_pos_site_id
 _symmetry_equiv_pos_as_xyz
  1  'x, y, z'
loop_
 _atom_site_type_symbol
 _atom_site_label
 _atom_site_symmetry_multiplicity
 _atom_site_fract_x
 _atom_site_fract_y
 _atom_site_fract_z
 _atom_site_occupancy
  Tb  Tb0  1  0.000000  0.247531  0.250000  1
  Tb  Tb1  1  0.752510  0.752524  0.250000  1
  Tb  Tb2  1  0.752542  0.000069  0.750000  1
  Tb  Tb3  1  0.247458  0.247527  0.750000  1
  Tb  Tb4  1  0.247490  0.000014  0.250000  1
  Y  Y5  1  0.000000  0.752483  0.750000  1
  Tm  Tm6  1  0.333418  0.666690  0.499898  1
  Tm  Tm7  1  0.666582  0.333271  0.000102  1
  Tm  Tm8  1  0.666582  0.333271  0.499898  1
  Tm  Tm9  1  0.333418  0.666690  0.000102  1
  Sb  Sb10  1  0.389954  0.999811  0.750000  1
  Sb  Sb11  1  0.390180  0.390154  0.250000  1
  Sb  Sb12  1  0.000000  0.609825  0.250000  1
  Sb  Sb13  1  0.000000  0.390309  0.750000  1
  Sb  Sb14  1  0.610046  0.609858  0.750000  1
  Sb  Sb15  1  0.609820  0.999974  0.250000  1
