# generated using pymatgen
data_La2VN3
_symmetry_space_group_name_H-M   'P 1'
_cell_length_a   6.18770065
_cell_length_b   6.18770078
_cell_length_c   12.15351938
_cell_angle_alpha   88.29457744
_cell_angle_beta   88.29457936
_cell_angle_gamma   127.58855919
_symmetry_Int_Tables_number   1
_chemical_formula_structural   La2VN3
_chemical_formula_sum   'La8 V4 N12'
_cell_volume   367.89415769
_cell_formula_units_Z   4
loop_
 _symmetry_equiv_pos_site_id
 _symmetry_equiv_pos_as_xyz
  1  'x, y, z'
loop_
 _atom_site_type_symbol
 _atom_site_label
 _atom_site_symmetry_multiplicity
 _atom_site_fract_x
 _atom_site_fract_y
 _atom_site_fract_z
 _atom_site_occupancy
  La  La0  1  0.625494  0.845495  0.073900  1
  La  La1  1  0.475126  0.075232  0.350510  1
  La  La2  1  0.075232  0.475126  0.850510  1
  La  La3  1  0.524874  0.924768  0.649490  1
  La  La4  1  0.374506  0.154505  0.926100  1
  La  La5  1  0.845495  0.625494  0.573900  1
  La  La6  1  0.154505  0.374506  0.426100  1
  La  La7  1  0.924768  0.524874  0.149490  1
  V  V8  1  0.787055  0.786937  0.827288  1
  V  V9  1  0.213063  0.212945  0.672712  1
  V  V10  1  0.212945  0.213063  0.172712  1
  V  V11  1  0.786937  0.787055  0.327288  1
  N  N12  1  0.124373  0.875627  0.750000  1
  N  N13  1  0.875627  0.124373  0.250000  1
  N  N14  1  0.501199  0.498801  0.750000  1
  N  N15  1  0.498801  0.501199  0.250000  1
  N  N16  1  0.360314  0.030291  0.130706  1
  N  N17  1  0.969709  0.639686  0.369294  1
  N  N18  1  0.639686  0.969709  0.869294  1
  N  N19  1  0.030291  0.360314  0.630706  1
  N  N20  1  0.829938  0.648553  0.955229  1
  N  N21  1  0.648553  0.829938  0.455229  1
  N  N22  1  0.170062  0.351447  0.044771  1
  N  N23  1  0.351447  0.170062  0.544771  1
