# generated using pymatgen
data_AcEuAu4
_symmetry_space_group_name_H-M   'P 1'
_cell_length_a   6.08055840
_cell_length_b   6.08055876
_cell_length_c   6.08055829
_cell_angle_alpha   133.30340083
_cell_angle_beta   104.66904608
_cell_angle_gamma   93.49164119
_symmetry_Int_Tables_number   1
_chemical_formula_structural   AcEuAu4
_chemical_formula_sum   'Ac1 Eu1 Au4'
_cell_volume   149.22894833
_cell_formula_units_Z   1
loop_
 _symmetry_equiv_pos_site_id
 _symmetry_equiv_pos_as_xyz
  1  'x, y, z'
loop_
 _atom_site_type_symbol
 _atom_site_label
 _atom_site_symmetry_multiplicity
 _atom_site_fract_x
 _atom_site_fract_y
 _atom_site_fract_z
 _atom_site_occupancy
  Ac  Ac0  1  0.217496  0.467496  0.750000  1
  Eu  Eu1  1  0.780387  0.530387  0.250000  1
  Au  Au2  1  0.372753  0.835729  0.537024  1
  Au  Au3  1  0.631175  0.165330  0.465845  1
  Au  Au4  1  0.199485  0.165330  0.034155  1
  Au  Au5  1  0.798704  0.835729  0.962976  1
