# generated using pymatgen
data_Ce3TlF12
_symmetry_space_group_name_H-M   'P 1'
_cell_length_a   6.96939836
_cell_length_b   6.96939784
_cell_length_c   6.96939700
_cell_angle_alpha   108.78003721
_cell_angle_beta   108.78003575
_cell_angle_gamma   110.86260011
_symmetry_Int_Tables_number   1
_chemical_formula_structural   Ce3TlF12
_chemical_formula_sum   'Ce3 Tl1 F12'
_cell_volume   260.47813205
_cell_formula_units_Z   1
loop_
 _symmetry_equiv_pos_site_id
 _symmetry_equiv_pos_as_xyz
  1  'x, y, z'
loop_
 _atom_site_type_symbol
 _atom_site_label
 _atom_site_symmetry_multiplicity
 _atom_site_fract_x
 _atom_site_fract_y
 _atom_site_fract_z
 _atom_site_occupancy
  Ce  Ce0  1  0.250000  0.750000  0.500000  1
  Ce  Ce1  1  0.500000  0.500000  0.000000  1
  Ce  Ce2  1  0.750000  0.250000  0.500000  1
  Tl  Tl3  1  0.000000  0.000000  0.000000  1
  F  F4  1  0.556825  0.344836  0.249247  1
  F  F5  1  0.307576  0.556825  0.211987  1
  F  F6  1  0.344836  0.095590  0.788013  1
  F  F7  1  0.095590  0.307576  0.750753  1
  F  F8  1  0.343408  0.012289  0.355697  1
  F  F9  1  0.987711  0.343408  0.331119  1
  F  F10  1  0.012289  0.656592  0.668881  1
  F  F11  1  0.656592  0.987711  0.644303  1
  F  F12  1  0.904410  0.692424  0.249247  1
  F  F13  1  0.655164  0.904410  0.211987  1
  F  F14  1  0.692424  0.443175  0.788013  1
  F  F15  1  0.443175  0.655164  0.750753  1
