# generated using pymatgen
data_Yb(Ga3Pt)3
_symmetry_space_group_name_H-M   'P 1'
_cell_length_a   10.53290571
_cell_length_b   10.53290545
_cell_length_c   10.53290644
_cell_angle_alpha   42.05632748
_cell_angle_beta   42.05632862
_cell_angle_gamma   42.05632521
_symmetry_Int_Tables_number   1
_chemical_formula_structural   Yb(Ga3Pt)3
_chemical_formula_sum   'Yb2 Ga18 Pt6'
_cell_volume   474.35690017
_cell_formula_units_Z   2
loop_
 _symmetry_equiv_pos_site_id
 _symmetry_equiv_pos_as_xyz
  1  'x, y, z'
loop_
 _atom_site_type_symbol
 _atom_site_label
 _atom_site_symmetry_multiplicity
 _atom_site_fract_x
 _atom_site_fract_y
 _atom_site_fract_z
 _atom_site_occupancy
  Yb  Yb0  1  0.166746  0.166746  0.166746  1
  Yb  Yb1  1  0.833254  0.833254  0.833254  1
  Ga  Ga2  1  0.108326  0.437261  0.767311  1
  Ga  Ga3  1  0.437261  0.767311  0.108326  1
  Ga  Ga4  1  0.562739  0.891674  0.232689  1
  Ga  Ga5  1  0.951124  0.951124  0.951124  1
  Ga  Ga6  1  0.048876  0.048876  0.048876  1
  Ga  Ga7  1  0.296623  0.703377  0.500000  1
  Ga  Ga8  1  0.891674  0.232689  0.562739  1
  Ga  Ga9  1  0.383219  0.383219  0.383219  1
  Ga  Ga10  1  0.500000  0.296623  0.703377  1
  Ga  Ga11  1  0.232689  0.562739  0.891674  1
  Ga  Ga12  1  0.715101  0.715101  0.715101  1
  Ga  Ga13  1  0.616781  0.616781  0.616781  1
  Ga  Ga14  1  0.333644  0.000000  0.666356  1
  Ga  Ga15  1  0.703377  0.500000  0.296623  1
  Ga  Ga16  1  0.666356  0.333644  0.000000  1
  Ga  Ga17  1  0.284899  0.284899  0.284899  1
  Ga  Ga18  1  0.000000  0.666356  0.333644  1
  Ga  Ga19  1  0.767311  0.108326  0.437261  1
  Pt  Pt20  1  0.419276  0.077216  0.759140  1
  Pt  Pt21  1  0.580724  0.240860  0.922784  1
  Pt  Pt22  1  0.077216  0.759140  0.419276  1
  Pt  Pt23  1  0.759140  0.419276  0.077216  1
  Pt  Pt24  1  0.922784  0.580724  0.240860  1
  Pt  Pt25  1  0.240860  0.922784  0.580724  1
