# generated using pymatgen
data_La4Pr12Cd4Ir3Pt
_symmetry_space_group_name_H-M   'P 1'
_cell_length_a   10.09032212
_cell_length_b   10.09032088
_cell_length_c   10.09032203
_cell_angle_alpha   60.19813586
_cell_angle_beta   60.19813916
_cell_angle_gamma   60.19813856
_symmetry_Int_Tables_number   1
_chemical_formula_structural   La4Pr12Cd4Ir3Pt
_chemical_formula_sum   'La4 Pr12 Cd4 Ir3 Pt1'
_cell_volume   729.69975474
_cell_formula_units_Z   1
loop_
 _symmetry_equiv_pos_site_id
 _symmetry_equiv_pos_as_xyz
  1  'x, y, z'
loop_
 _atom_site_type_symbol
 _atom_site_label
 _atom_site_symmetry_multiplicity
 _atom_site_fract_x
 _atom_site_fract_y
 _atom_site_fract_z
 _atom_site_occupancy
  La  La0  1  0.346329  0.346329  0.346329  1
  La  La1  1  0.350534  0.350534  0.954490  1
  La  La2  1  0.350534  0.954490  0.350534  1
  La  La3  1  0.954490  0.350534  0.350534  1
  Pr  Pr4  1  0.806589  0.189858  0.189858  1
  Pr  Pr5  1  0.188696  0.810321  0.810321  1
  Pr  Pr6  1  0.189858  0.806589  0.189858  1
  Pr  Pr7  1  0.810321  0.188696  0.810321  1
  Pr  Pr8  1  0.189858  0.189858  0.806589  1
  Pr  Pr9  1  0.810321  0.810321  0.188696  1
  Pr  Pr10  1  0.938941  0.562959  0.562959  1
  Pr  Pr11  1  0.563637  0.937615  0.937615  1
  Pr  Pr12  1  0.562959  0.938941  0.562959  1
  Pr  Pr13  1  0.937615  0.563637  0.937615  1
  Pr  Pr14  1  0.562959  0.562959  0.938941  1
  Pr  Pr15  1  0.937615  0.937615  0.563637  1
  Cd  Cd16  1  0.580065  0.580065  0.580065  1
  Cd  Cd17  1  0.579859  0.579859  0.260269  1
  Cd  Cd18  1  0.579859  0.260269  0.579859  1
  Cd  Cd19  1  0.260269  0.579859  0.579859  1
  Ir  Ir20  1  0.142056  0.142056  0.572215  1
  Ir  Ir21  1  0.142056  0.572215  0.142056  1
  Ir  Ir22  1  0.572215  0.142056  0.142056  1
  Pt  Pt23  1  0.142366  0.142366  0.142366  1
