# generated using pymatgen
data_RbHfMnF7
_symmetry_space_group_name_H-M   'P 1'
_cell_length_a   6.49585035
_cell_length_b   6.49585092
_cell_length_c   8.36825700
_cell_angle_alpha   90.00000000
_cell_angle_beta   90.00000000
_cell_angle_gamma   117.62385888
_symmetry_Int_Tables_number   1
_chemical_formula_structural   RbHfMnF7
_chemical_formula_sum   'Rb2 Hf2 Mn2 F14'
_cell_volume   312.85707232
_cell_formula_units_Z   2
loop_
 _symmetry_equiv_pos_site_id
 _symmetry_equiv_pos_as_xyz
  1  'x, y, z'
loop_
 _atom_site_type_symbol
 _atom_site_label
 _atom_site_symmetry_multiplicity
 _atom_site_fract_x
 _atom_site_fract_y
 _atom_site_fract_z
 _atom_site_occupancy
  Rb  Rb0  1  0.500000  0.500000  0.500000  1
  Rb  Rb1  1  0.500000  0.500000  0.000000  1
  Hf  Hf2  1  0.807807  0.192193  0.250000  1
  Hf  Hf3  1  0.192193  0.807807  0.750000  1
  Mn  Mn4  1  0.189011  0.810989  0.250000  1
  Mn  Mn5  1  0.810989  0.189011  0.750000  1
  F  F6  1  0.844894  0.557531  0.750000  1
  F  F7  1  0.155106  0.442469  0.250000  1
  F  F8  1  0.166075  0.471138  0.750000  1
  F  F9  1  0.800174  0.199826  0.491457  1
  F  F10  1  0.442469  0.155106  0.750000  1
  F  F11  1  0.800174  0.199826  0.008543  1
  F  F12  1  0.199826  0.800174  0.991457  1
  F  F13  1  0.833925  0.528862  0.250000  1
  F  F14  1  0.557531  0.844894  0.250000  1
  F  F15  1  0.992143  0.007857  0.250000  1
  F  F16  1  0.007857  0.992143  0.750000  1
  F  F17  1  0.199826  0.800174  0.508543  1
  F  F18  1  0.528862  0.833925  0.750000  1
  F  F19  1  0.471138  0.166075  0.250000  1
