# generated using pymatgen
data_Yb4Al24SiPt8
_symmetry_space_group_name_H-M   'P 1'
_cell_length_a   7.51406002
_cell_length_b   7.53399409
_cell_length_c   13.31035728
_cell_angle_alpha   84.55825343
_cell_angle_beta   100.59492196
_cell_angle_gamma   119.73988845
_symmetry_Int_Tables_number   1
_chemical_formula_structural   Yb4Al24SiPt8
_chemical_formula_sum   'Yb4 Al24 Si1 Pt8'
_cell_volume   643.10349575
_cell_formula_units_Z   1
loop_
 _symmetry_equiv_pos_site_id
 _symmetry_equiv_pos_as_xyz
  1  'x, y, z'
loop_
 _atom_site_type_symbol
 _atom_site_label
 _atom_site_symmetry_multiplicity
 _atom_site_fract_x
 _atom_site_fract_y
 _atom_site_fract_z
 _atom_site_occupancy
  Yb  Yb0  1  0.436992  0.828258  0.808599  1
  Yb  Yb1  1  0.564607  0.169945  0.191977  1
  Yb  Yb2  1  0.764828  0.501130  0.808327  1
  Yb  Yb3  1  0.233358  0.500023  0.190312  1
  Al  Al4  1  0.483732  0.165755  0.948616  1
  Al  Al5  1  0.520156  0.834796  0.054279  1
  Al  Al6  1  0.007045  0.154587  0.556958  1
  Al  Al7  1  0.977214  0.832953  0.436098  1
  Al  Al8  1  0.351851  0.848341  0.555658  1
  Al  Al9  1  0.644351  0.166048  0.438252  1
  Al  Al10  1  0.617856  0.835968  0.325973  1
  Al  Al11  1  0.383673  0.159942  0.677031  1
  Al  Al12  1  0.053134  0.492940  0.676986  1
  Al  Al13  1  0.942039  0.506357  0.326881  1
  Al  Al14  1  0.740968  0.848465  0.676373  1
  Al  Al15  1  0.269913  0.159660  0.327646  1
  Al  Al16  1  0.148738  0.501550  0.948005  1
  Al  Al17  1  0.851881  0.501707  0.053752  1
  Al  Al18  1  0.817328  0.832994  0.955109  1
  Al  Al19  1  0.183643  0.166491  0.047829  1
  Al  Al20  1  0.309543  0.499712  0.432442  1
  Al  Al21  1  0.700300  0.498131  0.555549  1
  Al  Al22  1  0.102941  0.835677  0.183130  1
  Al  Al23  1  0.895550  0.164211  0.816886  1
  Al  Al24  1  0.303959  0.362957  0.822269  1
  Al  Al25  1  0.692949  0.631118  0.184426  1
  Al  Al26  1  0.103959  0.957349  0.816639  1
  Al  Al27  1  0.898250  0.041392  0.183432  1
  Si  Si28  1  0.386583  0.507351  0.641192  1
  Pt  Pt29  1  0.612921  0.493637  0.364020  1
  Pt  Pt30  1  0.170606  0.829832  0.998088  1
  Pt  Pt31  1  0.830219  0.172402  0.998745  1
  Pt  Pt32  1  0.294280  0.831517  0.363992  1
  Pt  Pt33  1  0.704819  0.166353  0.635399  1
  Pt  Pt34  1  0.044540  0.826099  0.633942  1
  Pt  Pt35  1  0.955736  0.174587  0.364632  1
  Pt  Pt36  1  0.499540  0.499764  0.000557  1
