# generated using pymatgen
data_LiEr3ThCo
_symmetry_space_group_name_H-M   'P 1'
_cell_length_a   9.56754027
_cell_length_b   9.56754109
_cell_length_c   9.56754100
_cell_angle_alpha   60.00000378
_cell_angle_beta   60.00000092
_cell_angle_gamma   60.00000347
_symmetry_Int_Tables_number   1
_chemical_formula_structural   LiEr3ThCo
_chemical_formula_sum   'Li4 Er12 Th4 Co4'
_cell_volume   619.27849058
_cell_formula_units_Z   4
loop_
 _symmetry_equiv_pos_site_id
 _symmetry_equiv_pos_as_xyz
  1  'x, y, z'
loop_
 _atom_site_type_symbol
 _atom_site_label
 _atom_site_symmetry_multiplicity
 _atom_site_fract_x
 _atom_site_fract_y
 _atom_site_fract_z
 _atom_site_occupancy
  Li  Li0  1  0.829195  0.829195  0.829195  1
  Li  Li1  1  0.829195  0.829195  0.512416  1
  Li  Li2  1  0.829195  0.512416  0.829195  1
  Li  Li3  1  0.512416  0.829195  0.829195  1
  Er  Er4  1  0.064863  0.435137  0.435137  1
  Er  Er5  1  0.435137  0.064863  0.064863  1
  Er  Er6  1  0.435137  0.064863  0.435137  1
  Er  Er7  1  0.064863  0.435137  0.064863  1
  Er  Er8  1  0.435137  0.435137  0.064863  1
  Er  Er9  1  0.064863  0.064863  0.435137  1
  Er  Er10  1  0.185002  0.814998  0.814998  1
  Er  Er11  1  0.814998  0.185002  0.185002  1
  Er  Er12  1  0.814998  0.185002  0.814998  1
  Er  Er13  1  0.185002  0.814998  0.185002  1
  Er  Er14  1  0.814998  0.814998  0.185002  1
  Er  Er15  1  0.185002  0.185002  0.814998  1
  Th  Th16  1  0.594260  0.594260  0.594260  1
  Th  Th17  1  0.594260  0.594260  0.217221  1
  Th  Th18  1  0.594260  0.217221  0.594260  1
  Th  Th19  1  0.217221  0.594260  0.594260  1
  Co  Co20  1  0.394670  0.394670  0.394670  1
  Co  Co21  1  0.394670  0.394670  0.815989  1
  Co  Co22  1  0.394670  0.815989  0.394670  1
  Co  Co23  1  0.815989  0.394670  0.394670  1
