# generated using pymatgen
data_ZnInF36
_symmetry_space_group_name_H-M   'P 1'
_cell_length_a   6.62854954
_cell_length_b   10.11622363
_cell_length_c   10.33569200
_cell_angle_alpha   90.55971218
_cell_angle_beta   97.13539671
_cell_angle_gamma   74.20145758
_symmetry_Int_Tables_number   1
_chemical_formula_structural   ZnInF36
_chemical_formula_sum   'Zn1 In1 F36'
_cell_volume   661.51353771
_cell_formula_units_Z   1
loop_
 _symmetry_equiv_pos_site_id
 _symmetry_equiv_pos_as_xyz
  1  'x, y, z'
loop_
 _atom_site_type_symbol
 _atom_site_label
 _atom_site_symmetry_multiplicity
 _atom_site_fract_x
 _atom_site_fract_y
 _atom_site_fract_z
 _atom_site_occupancy
  Zn  Zn0  1  0.659158  0.820989  0.833772  1
  In  In1  1  0.367134  0.171541  0.170313  1
  F  F2  1  0.276907  0.408328  0.877670  1
  F  F3  1  0.742984  0.583570  0.121929  1
  F  F4  1  0.307071  0.269193  0.580451  1
  F  F5  1  0.671969  0.726942  0.432205  1
  F  F6  1  0.889080  0.222034  0.807237  1
  F  F7  1  0.064068  0.793066  0.179937  1
  F  F8  1  0.656658  0.896728  0.004162  1
  F  F9  1  0.275160  0.125531  0.977367  1
  F  F10  1  0.817232  0.630153  0.876994  1
  F  F11  1  0.252645  0.385543  0.136113  1
  F  F12  1  0.459510  0.422440  0.825572  1
  F  F13  1  0.547813  0.582193  0.165675  1
  F  F14  1  0.712300  0.699719  0.691155  1
  F  F15  1  0.238390  0.304683  0.315685  1
  F  F16  1  0.749633  0.983939  0.540186  1
  F  F17  1  0.261208  0.007438  0.461864  1
  F  F18  1  0.262848  0.185555  0.677208  1
  F  F19  1  0.752184  0.788558  0.333761  1
  F  F20  1  0.814267  0.081308  0.625000  1
  F  F21  1  0.183381  0.921580  0.369062  1
  F  F22  1  0.869432  0.928901  0.890893  1
  F  F23  1  0.152398  0.053050  0.126659  1
  F  F24  1  0.872221  0.365529  0.801912  1
  F  F25  1  0.130107  0.646522  0.188099  1
  F  F26  1  0.259667  0.691916  0.935702  1
  F  F27  1  0.747724  0.307558  0.053008  1
  F  F28  1  0.429530  0.944076  0.741913  1
  F  F29  1  0.636233  0.052705  0.260271  1
  F  F30  1  0.118179  0.751227  0.567917  1
  F  F31  1  0.880985  0.254568  0.431996  1
  F  F32  1  0.155455  0.628956  0.644883  1
  F  F33  1  0.796736  0.374520  0.350330  1
  F  F34  1  0.295069  0.798776  0.856439  1
  F  F35  1  0.714768  0.198284  0.136110  1
  F  F36  1  0.515853  0.437401  0.547739  1
  F  F37  1  0.464043  0.554983  0.462812  1
