# generated using pymatgen
data_YTmZr4(SnRh)6
_symmetry_space_group_name_H-M   'P 1'
_cell_length_a   7.50676649
_cell_length_b   7.50761553
_cell_length_c   7.35922700
_cell_angle_alpha   90.00000000
_cell_angle_beta   90.00000000
_cell_angle_gamma   120.05459371
_symmetry_Int_Tables_number   1
_chemical_formula_structural   YTmZr4(SnRh)6
_chemical_formula_sum   'Y1 Tm1 Zr4 Sn6 Rh6'
_cell_volume   358.98688537
_cell_formula_units_Z   1
loop_
 _symmetry_equiv_pos_site_id
 _symmetry_equiv_pos_as_xyz
  1  'x, y, z'
loop_
 _atom_site_type_symbol
 _atom_site_label
 _atom_site_symmetry_multiplicity
 _atom_site_fract_x
 _atom_site_fract_y
 _atom_site_fract_z
 _atom_site_occupancy
  Y  Y0  1  0.404158  0.402639  0.250000  1
  Tm  Tm1  1  0.596485  0.998176  0.250000  1
  Zr  Zr2  1  0.609582  0.003899  0.750000  1
  Zr  Zr3  1  0.390143  0.394275  0.750000  1
  Zr  Zr4  1  0.000572  0.603511  0.750000  1
  Zr  Zr5  1  0.000150  0.600456  0.250000  1
  Sn  Sn6  1  0.267893  0.999421  0.993801  1
  Sn  Sn7  1  0.732630  0.732299  0.507844  1
  Sn  Sn8  1  0.998978  0.267968  0.496213  1
  Sn  Sn9  1  0.998978  0.267968  0.003787  1
  Sn  Sn10  1  0.732630  0.732299  0.992156  1
  Sn  Sn11  1  0.267893  0.999421  0.506199  1
  Rh  Rh12  1  0.671121  0.336209  0.974963  1
  Rh  Rh13  1  0.671121  0.336209  0.525037  1
  Rh  Rh14  1  0.329325  0.666541  0.975673  1
  Rh  Rh15  1  0.329325  0.666541  0.524327  1
  Rh  Rh16  1  0.001024  0.004505  0.750000  1
  Rh  Rh17  1  0.997992  0.987663  0.250000  1
