# generated using pymatgen
data_Ho6Zn19Au4S
_symmetry_space_group_name_H-M   'P 1'
_cell_length_a   9.09103006
_cell_length_b   9.09102998
_cell_length_c   9.09103000
_cell_angle_alpha   59.99999994
_cell_angle_beta   60.00000023
_cell_angle_gamma   60.00000196
_symmetry_Int_Tables_number   1
_chemical_formula_structural   Ho6Zn19Au4S
_chemical_formula_sum   'Ho6 Zn19 Au4 S1'
_cell_volume   531.28099932
_cell_formula_units_Z   1
loop_
 _symmetry_equiv_pos_site_id
 _symmetry_equiv_pos_as_xyz
  1  'x, y, z'
loop_
 _atom_site_type_symbol
 _atom_site_label
 _atom_site_symmetry_multiplicity
 _atom_site_fract_x
 _atom_site_fract_y
 _atom_site_fract_z
 _atom_site_occupancy
  Ho  Ho0  1  0.711334  0.288666  0.288666  1
  Ho  Ho1  1  0.711334  0.288666  0.711334  1
  Ho  Ho2  1  0.711334  0.711334  0.288666  1
  Ho  Ho3  1  0.288666  0.711334  0.711334  1
  Ho  Ho4  1  0.288666  0.711334  0.288666  1
  Ho  Ho5  1  0.288666  0.288666  0.711334  1
  Zn  Zn6  1  0.371338  0.876220  0.876220  1
  Zn  Zn7  1  0.876220  0.371338  0.876220  1
  Zn  Zn8  1  0.876220  0.876220  0.371338  1
  Zn  Zn9  1  0.876220  0.876220  0.876220  1
  Zn  Zn10  1  0.502078  0.997922  0.997922  1
  Zn  Zn11  1  0.502078  0.997922  0.502078  1
  Zn  Zn12  1  0.502078  0.502078  0.997922  1
  Zn  Zn13  1  0.997922  0.502078  0.502078  1
  Zn  Zn14  1  0.997922  0.502078  0.997922  1
  Zn  Zn15  1  0.997922  0.997922  0.502078  1
  Zn  Zn16  1  0.000000  0.000000  0.000000  1
  Zn  Zn17  1  0.005952  0.331349  0.331349  1
  Zn  Zn18  1  0.331349  0.005952  0.331349  1
  Zn  Zn19  1  0.331349  0.331349  0.005952  1
  Zn  Zn20  1  0.331349  0.331349  0.331349  1
  Zn  Zn21  1  0.992287  0.669238  0.669238  1
  Zn  Zn22  1  0.669238  0.992287  0.669238  1
  Zn  Zn23  1  0.669238  0.669238  0.992287  1
  Zn  Zn24  1  0.669238  0.669238  0.669238  1
  Au  Au25  1  0.640122  0.119960  0.119960  1
  Au  Au26  1  0.119960  0.640122  0.119960  1
  Au  Au27  1  0.119960  0.119960  0.640122  1
  Au  Au28  1  0.119960  0.119960  0.119960  1
  S  S29  1  0.500000  0.500000  0.500000  1
