# generated using pymatgen
data_K2Rb3CuAs2
_symmetry_space_group_name_H-M   'P 1'
_cell_length_a   5.91157300
_cell_length_b   5.91157327
_cell_length_c   19.44667400
_cell_angle_alpha   90.00000000
_cell_angle_beta   90.00000000
_cell_angle_gamma   119.99999287
_symmetry_Int_Tables_number   1
_chemical_formula_structural   K2Rb3CuAs2
_chemical_formula_sum   'K4 Rb6 Cu2 As4'
_cell_volume   588.54832864
_cell_formula_units_Z   2
loop_
 _symmetry_equiv_pos_site_id
 _symmetry_equiv_pos_as_xyz
  1  'x, y, z'
loop_
 _atom_site_type_symbol
 _atom_site_label
 _atom_site_symmetry_multiplicity
 _atom_site_fract_x
 _atom_site_fract_y
 _atom_site_fract_z
 _atom_site_occupancy
  K  K0  1  0.000000  0.000000  0.145745  1
  K  K1  1  0.000000  0.000000  0.645745  1
  K  K2  1  0.000000  0.000000  0.854255  1
  K  K3  1  0.000000  0.000000  0.354255  1
  Rb  Rb4  1  0.333333  0.666667  0.549780  1
  Rb  Rb5  1  0.666667  0.333333  0.049780  1
  Rb  Rb6  1  0.666667  0.333333  0.450220  1
  Rb  Rb7  1  0.333333  0.666667  0.950220  1
  Rb  Rb8  1  0.333333  0.666667  0.750000  1
  Rb  Rb9  1  0.666667  0.333333  0.250000  1
  Cu  Cu10  1  0.333333  0.666667  0.250000  1
  Cu  Cu11  1  0.666667  0.333333  0.750000  1
  As  As12  1  0.333333  0.666667  0.370539  1
  As  As13  1  0.666667  0.333333  0.870539  1
  As  As14  1  0.666667  0.333333  0.629461  1
  As  As15  1  0.333333  0.666667  0.129461  1
