# generated using pymatgen
data_Pa4Al4Ru3Pt
_symmetry_space_group_name_H-M   'P 1'
_cell_length_a   4.06498500
_cell_length_b   6.86543308
_cell_length_c   7.99184000
_cell_angle_alpha   90.19082124
_cell_angle_beta   90.00000000
_cell_angle_gamma   90.00000000
_symmetry_Int_Tables_number   1
_chemical_formula_structural   Pa4Al4Ru3Pt
_chemical_formula_sum   'Pa4 Al4 Ru3 Pt1'
_cell_volume   223.03409449
_cell_formula_units_Z   1
loop_
 _symmetry_equiv_pos_site_id
 _symmetry_equiv_pos_as_xyz
  1  'x, y, z'
loop_
 _atom_site_type_symbol
 _atom_site_label
 _atom_site_symmetry_multiplicity
 _atom_site_fract_x
 _atom_site_fract_y
 _atom_site_fract_z
 _atom_site_occupancy
  Pa  Pa0  1  0.250000  0.029179  0.672233  1
  Pa  Pa1  1  0.250000  0.545582  0.817459  1
  Pa  Pa2  1  0.750000  0.965083  0.320176  1
  Pa  Pa3  1  0.750000  0.472010  0.188672  1
  Al  Al4  1  0.250000  0.133913  0.059194  1
  Al  Al5  1  0.250000  0.634214  0.440812  1
  Al  Al6  1  0.750000  0.865050  0.938275  1
  Al  Al7  1  0.750000  0.362096  0.561971  1
  Ru  Ru8  1  0.250000  0.252626  0.375346  1
  Ru  Ru9  1  0.250000  0.751777  0.121720  1
  Ru  Ru10  1  0.750000  0.744311  0.621283  1
  Pt  Pt11  1  0.750000  0.244157  0.882859  1
