# generated using pymatgen
data_Nd6Al24Tc3Pt5
_symmetry_space_group_name_H-M   'P 1'
_cell_length_a   8.95209700
_cell_length_b   8.99834197
_cell_length_c   9.67326716
_cell_angle_alpha   90.28489809
_cell_angle_beta   90.00000000
_cell_angle_gamma   119.83015022
_symmetry_Int_Tables_number   1
_chemical_formula_structural   Nd6Al24Tc3Pt5
_chemical_formula_sum   'Nd6 Al24 Tc3 Pt5'
_cell_volume   675.96578659
_cell_formula_units_Z   1
loop_
 _symmetry_equiv_pos_site_id
 _symmetry_equiv_pos_as_xyz
  1  'x, y, z'
loop_
 _atom_site_type_symbol
 _atom_site_label
 _atom_site_symmetry_multiplicity
 _atom_site_fract_x
 _atom_site_fract_y
 _atom_site_fract_z
 _atom_site_occupancy
  Nd  Nd0  1  0.189598  0.379195  0.250971  1
  Nd  Nd1  1  0.810402  0.620805  0.749029  1
  Nd  Nd2  1  0.620719  0.811721  0.249954  1
  Nd  Nd3  1  0.379281  0.188279  0.750046  1
  Nd  Nd4  1  0.191003  0.811721  0.249954  1
  Nd  Nd5  1  0.808997  0.188279  0.750046  1
  Al  Al6  1  0.333359  0.666717  0.026303  1
  Al  Al7  1  0.666641  0.333283  0.973697  1
  Al  Al8  1  0.663675  0.327350  0.525780  1
  Al  Al9  1  0.336325  0.672650  0.474220  1
  Al  Al10  1  0.162085  0.324171  0.574110  1
  Al  Al11  1  0.837915  0.675829  0.425890  1
  Al  Al12  1  0.674543  0.842658  0.574805  1
  Al  Al13  1  0.838686  0.677371  0.075125  1
  Al  Al14  1  0.325457  0.157342  0.425195  1
  Al  Al15  1  0.161314  0.322629  0.924875  1
  Al  Al16  1  0.168116  0.842658  0.574805  1
  Al  Al17  1  0.323591  0.162445  0.078229  1
  Al  Al18  1  0.831884  0.157342  0.425195  1
  Al  Al19  1  0.676409  0.837555  0.921771  1
  Al  Al20  1  0.838855  0.162445  0.078229  1
  Al  Al21  1  0.161145  0.837555  0.921771  1
  Al  Al22  1  0.563930  0.127860  0.253562  1
  Al  Al23  1  0.436070  0.872140  0.746438  1
  Al  Al24  1  0.870797  0.434561  0.249651  1
  Al  Al25  1  0.129203  0.565439  0.750349  1
  Al  Al26  1  0.563764  0.434561  0.249651  1
  Al  Al27  1  0.436236  0.565439  0.750349  1
  Al  Al28  1  0.001526  0.003053  0.250277  1
  Al  Al29  1  0.998474  0.996947  0.749723  1
  Tc  Tc30  1  0.500000  0.000000  0.500000  1
  Tc  Tc31  1  0.000000  0.000000  0.000000  1
  Tc  Tc32  1  0.000000  0.000000  0.500000  1
  Pt  Pt33  1  0.500000  0.000000  0.000000  1
  Pt  Pt34  1  0.000000  0.500000  0.000000  1
  Pt  Pt35  1  0.500000  0.500000  0.000000  1
  Pt  Pt36  1  0.000000  0.500000  0.500000  1
  Pt  Pt37  1  0.500000  0.500000  0.500000  1
