# generated using pymatgen
data_NdHo7(Si4W3)4
_symmetry_space_group_name_H-M   'P 1'
_cell_length_a   6.78293154
_cell_length_b   6.94327201
_cell_length_c   12.91273020
_cell_angle_alpha   89.91251077
_cell_angle_beta   90.01026241
_cell_angle_gamma   89.94910933
_symmetry_Int_Tables_number   1
_chemical_formula_structural   NdHo7(Si4W3)4
_chemical_formula_sum   'Nd1 Ho7 Si16 W12'
_cell_volume   608.13360875
_cell_formula_units_Z   1
loop_
 _symmetry_equiv_pos_site_id
 _symmetry_equiv_pos_as_xyz
  1  'x, y, z'
loop_
 _atom_site_type_symbol
 _atom_site_label
 _atom_site_symmetry_multiplicity
 _atom_site_fract_x
 _atom_site_fract_y
 _atom_site_fract_z
 _atom_site_occupancy
  Nd  Nd0  1  0.996643  0.833378  0.592281  1
  Ho  Ho1  1  0.495416  0.667582  0.593516  1
  Ho  Ho2  1  0.995633  0.832186  0.906488  1
  Ho  Ho3  1  0.504806  0.331990  0.093577  1
  Ho  Ho4  1  0.005061  0.167604  0.405680  1
  Ho  Ho5  1  0.505027  0.332932  0.405841  1
  Ho  Ho6  1  0.004566  0.168058  0.093472  1
  Ho  Ho7  1  0.495398  0.667626  0.907570  1
  Si  Si8  1  0.660030  0.958122  0.451620  1
  Si  Si9  1  0.161964  0.542272  0.047075  1
  Si  Si10  1  0.337963  0.042132  0.953586  1
  Si  Si11  1  0.836838  0.454090  0.546477  1
  Si  Si12  1  0.341938  0.044666  0.546270  1
  Si  Si13  1  0.838241  0.458150  0.953255  1
  Si  Si14  1  0.661956  0.957804  0.047085  1
  Si  Si15  1  0.162425  0.540372  0.451619  1
  Si  Si16  1  0.463661  0.371070  0.750642  1
  Si  Si17  1  0.963274  0.131880  0.751289  1
  Si  Si18  1  0.535803  0.629268  0.249397  1
  Si  Si19  1  0.035903  0.870436  0.249934  1
  Si  Si20  1  0.694451  0.867042  0.751369  1
  Si  Si21  1  0.198573  0.631263  0.751379  1
  Si  Si22  1  0.303353  0.133549  0.249698  1
  Si  Si23  1  0.803004  0.366137  0.249568  1
  W  W24  1  0.666453  0.164522  0.626506  1
  W  W25  1  0.168443  0.336691  0.875368  1
  W  W26  1  0.331528  0.836480  0.125493  1
  W  W27  1  0.831052  0.661889  0.373452  1
  W  W28  1  0.332557  0.836274  0.373640  1
  W  W29  1  0.832038  0.663169  0.125458  1
  W  W30  1  0.667513  0.163994  0.875277  1
  W  W31  1  0.168292  0.336649  0.625729  1
  W  W32  1  0.833509  0.499128  0.750607  1
  W  W33  1  0.334292  0.001947  0.750883  1
  W  W34  1  0.166013  0.499932  0.249484  1
  W  W35  1  0.666378  0.999715  0.249414  1
