# generated using pymatgen
data_Zr3Pa(InNi2)2
_symmetry_space_group_name_H-M   'P 1'
_cell_length_a   7.28416668
_cell_length_b   7.28416762
_cell_length_c   3.40745900
_cell_angle_alpha   90.00000000
_cell_angle_beta   90.00000000
_cell_angle_gamma   91.92110448
_symmetry_Int_Tables_number   1
_chemical_formula_structural   Zr3Pa(InNi2)2
_chemical_formula_sum   'Zr3 Pa1 In2 Ni4'
_cell_volume   180.69505808
_cell_formula_units_Z   1
loop_
 _symmetry_equiv_pos_site_id
 _symmetry_equiv_pos_as_xyz
  1  'x, y, z'
loop_
 _atom_site_type_symbol
 _atom_site_label
 _atom_site_symmetry_multiplicity
 _atom_site_fract_x
 _atom_site_fract_y
 _atom_site_fract_z
 _atom_site_occupancy
  Zr  Zr0  1  0.171437  0.330953  0.500000  1
  Zr  Zr1  1  0.830953  0.671437  0.500000  1
  Zr  Zr2  1  0.323445  0.823445  0.500000  1
  Pa  Pa3  1  0.668926  0.168926  0.500000  1
  In  In4  1  0.010952  0.993819  0.000000  1
  In  In5  1  0.493819  0.510952  0.000000  1
  Ni  Ni6  1  0.869624  0.369624  0.000000  1
  Ni  Ni7  1  0.381607  0.128545  0.000000  1
  Ni  Ni8  1  0.628545  0.881607  0.000000  1
  Ni  Ni9  1  0.120692  0.620692  0.000000  1
