# generated using pymatgen
data_DyY3(Zn3Cd)3
_symmetry_space_group_name_H-M   'P 1'
_cell_length_a   4.42530100
_cell_length_b   7.13200903
_cell_length_c   10.03701301
_cell_angle_alpha   89.99686807
_cell_angle_beta   90.00000000
_cell_angle_gamma   90.00000000
_symmetry_Int_Tables_number   1
_chemical_formula_structural   DyY3(Zn3Cd)3
_chemical_formula_sum   'Dy1 Y3 Zn9 Cd3'
_cell_volume   316.78104447
_cell_formula_units_Z   1
loop_
 _symmetry_equiv_pos_site_id
 _symmetry_equiv_pos_as_xyz
  1  'x, y, z'
loop_
 _atom_site_type_symbol
 _atom_site_label
 _atom_site_symmetry_multiplicity
 _atom_site_fract_x
 _atom_site_fract_y
 _atom_site_fract_z
 _atom_site_occupancy
  Dy  Dy0  1  0.250000  0.805716  0.823513  1
  Y  Y1  1  0.250000  0.300926  0.672322  1
  Y  Y2  1  0.750000  0.700066  0.330059  1
  Y  Y3  1  0.750000  0.197263  0.172791  1
  Zn  Zn4  1  0.750000  0.965249  0.599602  1
  Zn  Zn5  1  0.750000  0.299136  0.465725  1
  Zn  Zn6  1  0.250000  0.694262  0.538253  1
  Zn  Zn7  1  0.750000  0.813318  0.035944  1
  Zn  Zn8  1  0.250000  0.185249  0.961522  1
  Zn  Zn9  1  0.750000  0.593384  0.642759  1
  Zn  Zn10  1  0.250000  0.415400  0.359384  1
  Zn  Zn11  1  0.750000  0.085182  0.846096  1
  Zn  Zn12  1  0.250000  0.913164  0.145736  1
  Cd  Cd13  1  0.250000  0.530881  0.098987  1
  Cd  Cd14  1  0.750000  0.468618  0.899969  1
  Cd  Cd15  1  0.250000  0.032186  0.407337  1
