# generated using pymatgen
data_Ho2AlAg6
_symmetry_space_group_name_H-M   'P 1'
_cell_length_a   5.36665194
_cell_length_b   5.36665160
_cell_length_c   14.17516100
_cell_angle_alpha   90.00000000
_cell_angle_beta   90.00000000
_cell_angle_gamma   117.97543541
_symmetry_Int_Tables_number   1
_chemical_formula_structural   Ho2AlAg6
_chemical_formula_sum   'Ho4 Al2 Ag12'
_cell_volume   360.55266536
_cell_formula_units_Z   2
loop_
 _symmetry_equiv_pos_site_id
 _symmetry_equiv_pos_as_xyz
  1  'x, y, z'
loop_
 _atom_site_type_symbol
 _atom_site_label
 _atom_site_symmetry_multiplicity
 _atom_site_fract_x
 _atom_site_fract_y
 _atom_site_fract_z
 _atom_site_occupancy
  Ho  Ho0  1  0.320854  0.320854  0.117382  1
  Ho  Ho1  1  0.679146  0.679146  0.617382  1
  Ho  Ho2  1  0.320854  0.320854  0.382618  1
  Ho  Ho3  1  0.679146  0.679146  0.882618  1
  Al  Al4  1  0.825438  0.825438  0.250000  1
  Al  Al5  1  0.174562  0.174562  0.750000  1
  Ag  Ag6  1  0.827002  0.330626  0.250000  1
  Ag  Ag7  1  0.172998  0.669374  0.750000  1
  Ag  Ag8  1  0.330626  0.827002  0.250000  1
  Ag  Ag9  1  0.669374  0.172998  0.750000  1
  Ag  Ag10  1  0.984748  0.666916  0.075723  1
  Ag  Ag11  1  0.015252  0.333084  0.575723  1
  Ag  Ag12  1  0.666916  0.984748  0.424277  1
  Ag  Ag13  1  0.333084  0.015252  0.924277  1
  Ag  Ag14  1  0.015252  0.333084  0.924277  1
  Ag  Ag15  1  0.984748  0.666916  0.424277  1
  Ag  Ag16  1  0.333084  0.015252  0.575723  1
  Ag  Ag17  1  0.666916  0.984748  0.075723  1
