# generated using pymatgen
data_YHo3Al18(Ir2Pd)2
_symmetry_space_group_name_H-M   'P 1'
_cell_length_a   7.57573121
_cell_length_b   7.57760735
_cell_length_c   9.45862702
_cell_angle_alpha   89.94912610
_cell_angle_beta   89.93161495
_cell_angle_gamma   119.61753716
_symmetry_Int_Tables_number   1
_chemical_formula_structural   YHo3Al18(Ir2Pd)2
_chemical_formula_sum   'Y1 Ho3 Al18 Ir4 Pd2'
_cell_volume   472.03622762
_cell_formula_units_Z   1
loop_
 _symmetry_equiv_pos_site_id
 _symmetry_equiv_pos_as_xyz
  1  'x, y, z'
loop_
 _atom_site_type_symbol
 _atom_site_label
 _atom_site_symmetry_multiplicity
 _atom_site_fract_x
 _atom_site_fract_y
 _atom_site_fract_z
 _atom_site_occupancy
  Y  Y0  1  0.995432  0.670646  0.251555  1
  Ho  Ho1  1  0.004529  0.329224  0.748400  1
  Ho  Ho2  1  0.670727  0.995524  0.251642  1
  Ho  Ho3  1  0.329312  0.004559  0.748385  1
  Al  Al4  1  0.127567  0.127723  0.250593  1
  Al  Al5  1  0.872476  0.872429  0.749397  1
  Al  Al6  1  0.000902  0.331381  0.077578  1
  Al  Al7  1  0.999099  0.668446  0.922141  1
  Al  Al8  1  0.000210  0.664938  0.574689  1
  Al  Al9  1  0.335218  0.999928  0.425577  1
  Al  Al10  1  0.999777  0.334873  0.425580  1
  Al  Al11  1  0.664960  0.000247  0.574506  1
  Al  Al12  1  0.668392  0.999141  0.922305  1
  Al  Al13  1  0.331774  0.001022  0.077589  1
  Al  Al14  1  0.332398  0.332385  0.550460  1
  Al  Al15  1  0.667461  0.667597  0.449644  1
  Al  Al16  1  0.668740  0.668843  0.058612  1
  Al  Al17  1  0.331116  0.331158  0.941253  1
  Al  Al18  1  0.340372  0.547502  0.252971  1
  Al  Al19  1  0.659775  0.452477  0.747022  1
  Al  Al20  1  0.547344  0.340068  0.252960  1
  Al  Al21  1  0.452424  0.659716  0.747042  1
  Ir  Ir22  1  0.328085  0.671994  0.500091  1
  Ir  Ir23  1  0.671875  0.327916  0.500058  1
  Ir  Ir24  1  0.000022  0.000130  0.999902  1
  Ir  Ir25  1  0.000031  0.000143  0.500106  1
  Pd  Pd26  1  0.672321  0.327618  0.999970  1
  Pd  Pd27  1  0.327659  0.672371  0.999972  1
