# generated using pymatgen
data_DyTm(AuCl6)2
_symmetry_space_group_name_H-M   'P 1'
_cell_length_a   7.90885246
_cell_length_b   9.94459190
_cell_length_c   14.09837500
_cell_angle_alpha   103.09171404
_cell_angle_beta   97.38073348
_cell_angle_gamma   112.83728863
_symmetry_Int_Tables_number   1
_chemical_formula_structural   DyTm(AuCl6)2
_chemical_formula_sum   'Dy2 Tm2 Au4 Cl24'
_cell_volume   966.01046993
_cell_formula_units_Z   2
loop_
 _symmetry_equiv_pos_site_id
 _symmetry_equiv_pos_as_xyz
  1  'x, y, z'
loop_
 _atom_site_type_symbol
 _atom_site_label
 _atom_site_symmetry_multiplicity
 _atom_site_fract_x
 _atom_site_fract_y
 _atom_site_fract_z
 _atom_site_occupancy
  Dy  Dy0  1  0.579039  0.927902  0.622686  1
  Dy  Dy1  1  0.030751  0.685475  0.127956  1
  Tm  Tm2  1  0.420402  0.070341  0.377655  1
  Tm  Tm3  1  0.968076  0.314605  0.871967  1
  Au  Au4  1  0.289781  0.633629  0.763738  1
  Au  Au5  1  0.500004  0.499805  0.499970  1
  Au  Au6  1  0.709913  0.366054  0.236318  1
  Au  Au7  1  0.999977  0.000172  0.999954  1
  Cl  Cl8  1  0.788100  0.105095  0.973077  1
  Cl  Cl9  1  0.717208  0.148515  0.266421  1
  Cl  Cl10  1  0.281642  0.851507  0.733975  1
  Cl  Cl11  1  0.776044  0.788237  0.028877  1
  Cl  Cl12  1  0.624925  0.194540  0.745255  1
  Cl  Cl13  1  0.294689  0.411859  0.789146  1
  Cl  Cl14  1  0.703759  0.587894  0.211204  1
  Cl  Cl15  1  0.309334  0.628716  0.499554  1
  Cl  Cl16  1  0.222586  0.211826  0.970744  1
  Cl  Cl17  1  0.755040  0.735637  0.529694  1
  Cl  Cl18  1  0.213188  0.896026  0.026353  1
  Cl  Cl19  1  0.715116  0.048502  0.483218  1
  Cl  Cl20  1  0.600398  0.732801  0.748467  1
  Cl  Cl21  1  0.937952  0.061705  0.733856  1
  Cl  Cl22  1  0.245991  0.263987  0.470009  1
  Cl  Cl23  1  0.378649  0.809045  0.257058  1
  Cl  Cl24  1  0.977808  0.535374  0.776283  1
  Cl  Cl25  1  0.772660  0.434943  0.977011  1
  Cl  Cl26  1  0.226381  0.561460  0.020545  1
  Cl  Cl27  1  0.022544  0.463324  0.224236  1
  Cl  Cl28  1  0.400076  0.266507  0.252091  1
  Cl  Cl29  1  0.283463  0.952887  0.514470  1
  Cl  Cl30  1  0.688634  0.369418  0.499589  1
  Cl  Cl31  1  0.065865  0.942213  0.268620  1
