# generated using pymatgen
data_La2Y6Hg2IrPt
_symmetry_space_group_name_H-M   'P 1'
_cell_length_a   9.84549686
_cell_length_b   9.84549624
_cell_length_c   9.83363900
_cell_angle_alpha   60.03983434
_cell_angle_beta   60.03983640
_cell_angle_gamma   60.11323913
_symmetry_Int_Tables_number   1
_chemical_formula_structural   La2Y6Hg2IrPt
_chemical_formula_sum   'La4 Y12 Hg4 Ir2 Pt2'
_cell_volume   675.00421450
_cell_formula_units_Z   2
loop_
 _symmetry_equiv_pos_site_id
 _symmetry_equiv_pos_as_xyz
  1  'x, y, z'
loop_
 _atom_site_type_symbol
 _atom_site_label
 _atom_site_symmetry_multiplicity
 _atom_site_fract_x
 _atom_site_fract_y
 _atom_site_fract_z
 _atom_site_occupancy
  La  La0  1  0.353142  0.353142  0.348102  1
  La  La1  1  0.353142  0.353142  0.945612  1
  La  La2  1  0.357998  0.938098  0.351951  1
  La  La3  1  0.938098  0.357998  0.351951  1
  Y  Y4  1  0.808883  0.187401  0.187769  1
  Y  Y5  1  0.187401  0.808883  0.815947  1
  Y  Y6  1  0.187401  0.808883  0.187769  1
  Y  Y7  1  0.808883  0.187401  0.815947  1
  Y  Y8  1  0.188878  0.188878  0.811122  1
  Y  Y9  1  0.813596  0.813596  0.186404  1
  Y  Y10  1  0.935867  0.567696  0.563285  1
  Y  Y11  1  0.567696  0.935867  0.933152  1
  Y  Y12  1  0.567696  0.935867  0.563285  1
  Y  Y13  1  0.935867  0.567696  0.933152  1
  Y  Y14  1  0.566417  0.566417  0.933583  1
  Y  Y15  1  0.935005  0.935005  0.564995  1
  Hg  Hg16  1  0.586901  0.586901  0.588283  1
  Hg  Hg17  1  0.586901  0.586901  0.237915  1
  Hg  Hg18  1  0.586351  0.239475  0.587088  1
  Hg  Hg19  1  0.239475  0.586351  0.587088  1
  Ir  Ir20  1  0.139189  0.576504  0.142154  1
  Ir  Ir21  1  0.576504  0.139189  0.142154  1
  Pt  Pt22  1  0.139355  0.139355  0.142483  1
  Pt  Pt23  1  0.139355  0.139355  0.578807  1
