# generated using pymatgen
data_Sc4Si2H5
_symmetry_space_group_name_H-M   'P 1'
_cell_length_a   5.48938260
_cell_length_b   6.75526233
_cell_length_c   5.48785453
_cell_angle_alpha   52.05357857
_cell_angle_beta   104.07951010
_cell_angle_gamma   128.01624388
_symmetry_Int_Tables_number   1
_chemical_formula_structural   Sc4Si2H5
_chemical_formula_sum   'Sc4 Si2 H5'
_cell_volume   123.38938687
_cell_formula_units_Z   1
loop_
 _symmetry_equiv_pos_site_id
 _symmetry_equiv_pos_as_xyz
  1  'x, y, z'
loop_
 _atom_site_type_symbol
 _atom_site_label
 _atom_site_symmetry_multiplicity
 _atom_site_fract_x
 _atom_site_fract_y
 _atom_site_fract_z
 _atom_site_occupancy
  Sc  Sc0  1  0.971004  0.795650  0.953884  1
  Sc  Sc1  1  0.136282  0.286989  0.138275  1
  Sc  Sc2  1  0.646237  0.472523  0.627347  1
  Sc  Sc3  1  0.461294  0.962529  0.462585  1
  Si  Si4  1  0.053568  0.378757  0.546640  1
  Si  Si5  1  0.553903  0.879837  0.045192  1
  H  H6  1  0.553066  0.378983  0.044462  1
  H  H7  1  0.782461  0.866848  0.559876  1
  H  H8  1  0.066227  0.892007  0.274445  1
  H  H9  1  0.325316  0.151429  0.531416  1
  H  H10  1  0.039912  0.607134  0.816757  1
