# generated using pymatgen
data_Pr12GaGe2AsBr12
_symmetry_space_group_name_H-M   'P 1'
_cell_length_a   10.53961529
_cell_length_b   10.54811153
_cell_length_c   10.54811203
_cell_angle_alpha   109.44101471
_cell_angle_beta   109.40338500
_cell_angle_gamma   109.40337938
_symmetry_Int_Tables_number   1
_chemical_formula_structural   Pr12GaGe2AsBr12
_chemical_formula_sum   'Pr12 Ga1 Ge2 As1 Br12'
_cell_volume   904.56168429
_cell_formula_units_Z   1
loop_
 _symmetry_equiv_pos_site_id
 _symmetry_equiv_pos_as_xyz
  1  'x, y, z'
loop_
 _atom_site_type_symbol
 _atom_site_label
 _atom_site_symmetry_multiplicity
 _atom_site_fract_x
 _atom_site_fract_y
 _atom_site_fract_z
 _atom_site_occupancy
  Pr  Pr0  1  0.479160  0.489491  0.239535  1
  Pr  Pr1  1  0.750000  0.239062  0.260938  1
  Pr  Pr2  1  0.750000  0.011078  0.488922  1
  Pr  Pr3  1  0.240128  0.480486  0.490070  1
  Pr  Pr4  1  0.261637  0.750009  0.238581  1
  Pr  Pr5  1  0.020840  0.260465  0.010509  1
  Pr  Pr6  1  0.009846  0.019686  0.259967  1
  Pr  Pr7  1  0.488195  0.749980  0.011792  1
  Pr  Pr8  1  0.490154  0.240033  0.480314  1
  Pr  Pr9  1  0.011805  0.488208  0.750020  1
  Pr  Pr10  1  0.259872  0.009930  0.019514  1
  Pr  Pr11  1  0.238363  0.261419  0.749991  1
  Ga  Ga12  1  0.250000  0.250039  0.249961  1
  Ge  Ge13  1  0.499695  0.000068  0.249894  1
  Ge  Ge14  1  0.000305  0.250106  0.499932  1
  As  As15  1  0.250000  0.499940  0.000060  1
  Br  Br16  1  0.250000  0.753226  0.746774  1
  Br  Br17  1  0.507522  0.504053  0.754694  1
  Br  Br18  1  0.992478  0.745306  0.995947  1
  Br  Br19  1  0.746780  0.250192  0.753554  1
  Br  Br20  1  0.996051  0.992652  0.745722  1
  Br  Br21  1  0.250000  0.995612  0.504388  1
  Br  Br22  1  0.754707  0.507933  0.504274  1
  Br  Br23  1  0.504179  0.250244  0.995669  1
  Br  Br24  1  0.753220  0.746446  0.249808  1
  Br  Br25  1  0.745293  0.995726  0.992067  1
  Br  Br26  1  0.995821  0.504331  0.249756  1
  Br  Br27  1  0.503949  0.754278  0.507348  1
