# generated using pymatgen
data_Ca6MnRuN6
_symmetry_space_group_name_H-M   'P 1'
_cell_length_a   6.68287881
_cell_length_b   6.68287870
_cell_length_c   5.01644200
_cell_angle_alpha   90.00000000
_cell_angle_beta   90.00000000
_cell_angle_gamma   101.38538785
_symmetry_Int_Tables_number   1
_chemical_formula_structural   Ca6MnRuN6
_chemical_formula_sum   'Ca6 Mn1 Ru1 N6'
_cell_volume   219.62992308
_cell_formula_units_Z   1
loop_
 _symmetry_equiv_pos_site_id
 _symmetry_equiv_pos_as_xyz
  1  'x, y, z'
loop_
 _atom_site_type_symbol
 _atom_site_label
 _atom_site_symmetry_multiplicity
 _atom_site_fract_x
 _atom_site_fract_y
 _atom_site_fract_z
 _atom_site_occupancy
  Ca  Ca0  1  0.669101  0.902313  0.750000  1
  Ca  Ca1  1  0.392706  0.607294  0.250000  1
  Ca  Ca2  1  0.902588  0.670634  0.250000  1
  Ca  Ca3  1  0.606787  0.393213  0.750000  1
  Ca  Ca4  1  0.329366  0.097412  0.250000  1
  Ca  Ca5  1  0.097687  0.330899  0.750000  1
  Mn  Mn6  1  0.198299  0.801701  0.750000  1
  Ru  Ru7  1  0.806677  0.193323  0.250000  1
  N  N8  1  0.674747  0.918437  0.250000  1
  N  N9  1  0.371470  0.628530  0.750000  1
  N  N10  1  0.618273  0.381727  0.250000  1
  N  N11  1  0.934858  0.684122  0.750000  1
  N  N12  1  0.315878  0.065142  0.750000  1
  N  N13  1  0.081563  0.325253  0.250000  1
