# generated using pymatgen
data_Nd4IrPd3
_symmetry_space_group_name_H-M   'P 1'
_cell_length_a   4.57877900
_cell_length_b   5.76647703
_cell_length_c   7.37472672
_cell_angle_alpha   89.78226118
_cell_angle_beta   90.00000000
_cell_angle_gamma   90.00000000
_symmetry_Int_Tables_number   1
_chemical_formula_structural   Nd4IrPd3
_chemical_formula_sum   'Nd4 Ir1 Pd3'
_cell_volume   194.71662991
_cell_formula_units_Z   1
loop_
 _symmetry_equiv_pos_site_id
 _symmetry_equiv_pos_as_xyz
  1  'x, y, z'
loop_
 _atom_site_type_symbol
 _atom_site_label
 _atom_site_symmetry_multiplicity
 _atom_site_fract_x
 _atom_site_fract_y
 _atom_site_fract_z
 _atom_site_occupancy
  Nd  Nd0  1  0.250000  0.363111  0.679049  1
  Nd  Nd1  1  0.250000  0.135453  0.184761  1
  Nd  Nd2  1  0.750000  0.646385  0.325681  1
  Nd  Nd3  1  0.750000  0.858259  0.808349  1
  Ir  Ir4  1  0.250000  0.843176  0.542814  1
  Pd  Pd5  1  0.250000  0.647584  0.043567  1
  Pd  Pd6  1  0.750000  0.155018  0.454020  1
  Pd  Pd7  1  0.750000  0.351013  0.961759  1
