# generated using pymatgen
data_Cs4TbDy11S20
_symmetry_space_group_name_H-M   'P 1'
_cell_length_a   4.01737800
_cell_length_b   12.03615959
_cell_length_c   21.45090405
_cell_angle_alpha   90.03586169
_cell_angle_beta   90.00000000
_cell_angle_gamma   90.00000000
_symmetry_Int_Tables_number   1
_chemical_formula_structural   Cs4TbDy11S20
_chemical_formula_sum   'Cs4 Tb1 Dy11 S20'
_cell_volume   1037.23257986
_cell_formula_units_Z   1
loop_
 _symmetry_equiv_pos_site_id
 _symmetry_equiv_pos_as_xyz
  1  'x, y, z'
loop_
 _atom_site_type_symbol
 _atom_site_label
 _atom_site_symmetry_multiplicity
 _atom_site_fract_x
 _atom_site_fract_y
 _atom_site_fract_z
 _atom_site_occupancy
  Cs  Cs0  1  0.250000  0.854143  0.093053  1
  Cs  Cs1  1  0.750000  0.145911  0.906964  1
  Cs  Cs2  1  0.750000  0.354156  0.406962  1
  Cs  Cs3  1  0.250000  0.645839  0.593026  1
  Tb  Tb4  1  0.750000  0.797314  0.825499  1
  Dy  Dy5  1  0.250000  0.202612  0.174544  1
  Dy  Dy6  1  0.250000  0.297378  0.674542  1
  Dy  Dy7  1  0.750000  0.702616  0.325461  1
  Dy  Dy8  1  0.250000  0.958188  0.697356  1
  Dy  Dy9  1  0.750000  0.041932  0.302555  1
  Dy  Dy10  1  0.750000  0.457862  0.802539  1
  Dy  Dy11  1  0.250000  0.541951  0.197451  1
  Dy  Dy12  1  0.750000  0.390874  0.052888  1
  Dy  Dy13  1  0.250000  0.608949  0.947229  1
  Dy  Dy14  1  0.250000  0.890883  0.447122  1
  Dy  Dy15  1  0.750000  0.109112  0.552885  1
  S  S16  1  0.250000  0.951381  0.568736  1
  S  S17  1  0.750000  0.048641  0.431238  1
  S  S18  1  0.750000  0.451368  0.931251  1
  S  S19  1  0.250000  0.548628  0.068758  1
  S  S20  1  0.750000  0.761761  0.951913  1
  S  S21  1  0.250000  0.238065  0.048514  1
  S  S22  1  0.250000  0.261931  0.548519  1
  S  S23  1  0.750000  0.738072  0.451480  1
  S  S24  1  0.250000  0.947319  0.824226  1
  S  S25  1  0.750000  0.053593  0.175685  1
  S  S26  1  0.750000  0.446416  0.675694  1
  S  S27  1  0.250000  0.553590  0.324306  1
  S  S28  1  0.750000  0.126148  0.682712  1
  S  S29  1  0.250000  0.873866  0.317282  1
  S  S30  1  0.250000  0.625562  0.817280  1
  S  S31  1  0.750000  0.373869  0.182713  1
  S  S32  1  0.750000  0.689565  0.198728  1
  S  S33  1  0.250000  0.310410  0.801274  1
  S  S34  1  0.250000  0.189574  0.301274  1
  S  S35  1  0.750000  0.810520  0.698339  1
