# generated using pymatgen
data_Pr2GaRhI
_symmetry_space_group_name_H-M   'P 1'
_cell_length_a   4.35246800
_cell_length_b   4.35246812
_cell_length_c   17.33632000
_cell_angle_alpha   90.00000000
_cell_angle_beta   90.00000000
_cell_angle_gamma   119.99999906
_symmetry_Int_Tables_number   1
_chemical_formula_structural   Pr2GaRhI
_chemical_formula_sum   'Pr4 Ga2 Rh2 I2'
_cell_volume   284.41908604
_cell_formula_units_Z   2
loop_
 _symmetry_equiv_pos_site_id
 _symmetry_equiv_pos_as_xyz
  1  'x, y, z'
loop_
 _atom_site_type_symbol
 _atom_site_label
 _atom_site_symmetry_multiplicity
 _atom_site_fract_x
 _atom_site_fract_y
 _atom_site_fract_z
 _atom_site_occupancy
  Pr  Pr0  1  0.000000  0.000000  0.394880  1
  Pr  Pr1  1  0.000000  0.000000  0.894880  1
  Pr  Pr2  1  0.000000  0.000000  0.608542  1
  Pr  Pr3  1  0.000000  0.000000  0.108542  1
  Ga  Ga4  1  0.333333  0.666667  0.504391  1
  Ga  Ga5  1  0.666667  0.333333  0.004391  1
  Rh  Rh6  1  0.666667  0.333333  0.494415  1
  Rh  Rh7  1  0.333333  0.666667  0.994415  1
  I  I8  1  0.333333  0.666667  0.247771  1
  I  I9  1  0.666667  0.333333  0.747771  1
