# generated using pymatgen
data_Tb13Er3(AgPd)4
_symmetry_space_group_name_H-M   'P 1'
_cell_length_a   9.56130726
_cell_length_b   9.50541183
_cell_length_c   9.54000400
_cell_angle_alpha   60.26803723
_cell_angle_beta   60.35975681
_cell_angle_gamma   60.04526319
_symmetry_Int_Tables_number   1
_chemical_formula_structural   Tb13Er3(AgPd)4
_chemical_formula_sum   'Tb13 Er3 Ag4 Pd4'
_cell_volume   616.19088757
_cell_formula_units_Z   1
loop_
 _symmetry_equiv_pos_site_id
 _symmetry_equiv_pos_as_xyz
  1  'x, y, z'
loop_
 _atom_site_type_symbol
 _atom_site_label
 _atom_site_symmetry_multiplicity
 _atom_site_fract_x
 _atom_site_fract_y
 _atom_site_fract_z
 _atom_site_occupancy
  Tb  Tb0  1  0.641444  0.073456  0.642605  1
  Tb  Tb1  1  0.065757  0.066371  0.434808  1
  Tb  Tb2  1  0.434808  0.433064  0.065757  1
  Tb  Tb3  1  0.642605  0.642493  0.641444  1
  Tb  Tb4  1  0.812059  0.188726  0.187184  1
  Tb  Tb5  1  0.187184  0.812031  0.812059  1
  Tb  Tb6  1  0.075386  0.641166  0.641351  1
  Tb  Tb7  1  0.434583  0.066362  0.065731  1
  Tb  Tb8  1  0.434074  0.065926  0.434074  1
  Tb  Tb9  1  0.066048  0.433952  0.066048  1
  Tb  Tb10  1  0.641351  0.642097  0.075386  1
  Tb  Tb11  1  0.188234  0.811766  0.188234  1
  Tb  Tb12  1  0.065731  0.433324  0.434583  1
  Er  Er13  1  0.812049  0.812253  0.186958  1
  Er  Er14  1  0.812130  0.187870  0.812130  1
  Er  Er15  1  0.186958  0.188740  0.812049  1
  Ag  Ag16  1  0.416770  0.417491  0.417032  1
  Ag  Ag17  1  0.416581  0.417032  0.749169  1
  Ag  Ag18  1  0.417032  0.748708  0.416770  1
  Ag  Ag19  1  0.749169  0.417218  0.416581  1
  Pd  Pd20  1  0.856076  0.436217  0.853175  1
  Pd  Pd21  1  0.853175  0.854532  0.856076  1
  Pd  Pd22  1  0.854527  0.853258  0.436270  1
  Pd  Pd23  1  0.436270  0.855945  0.854527  1
