# generated using pymatgen
data_Tb18YErPb16
_symmetry_space_group_name_H-M   'P 1'
_cell_length_a   8.24138600
_cell_length_b   8.30989209
_cell_length_c   15.70627500
_cell_angle_alpha   90.00000000
_cell_angle_beta   90.00000000
_cell_angle_gamma   90.01013419
_symmetry_Int_Tables_number   1
_chemical_formula_structural   Tb18YErPb16
_chemical_formula_sum   'Tb18 Y1 Er1 Pb16'
_cell_volume   1075.64467244
_cell_formula_units_Z   1
loop_
 _symmetry_equiv_pos_site_id
 _symmetry_equiv_pos_as_xyz
  1  'x, y, z'
loop_
 _atom_site_type_symbol
 _atom_site_label
 _atom_site_symmetry_multiplicity
 _atom_site_fract_x
 _atom_site_fract_y
 _atom_site_fract_z
 _atom_site_occupancy
  Tb  Tb0  1  0.377087  0.841810  0.879253  1
  Tb  Tb1  1  0.877107  0.658307  0.620969  1
  Tb  Tb2  1  0.622463  0.157924  0.378773  1
  Tb  Tb3  1  0.123165  0.341549  0.121174  1
  Tb  Tb4  1  0.622463  0.157924  0.121227  1
  Tb  Tb5  1  0.123165  0.341549  0.378826  1
  Tb  Tb6  1  0.377087  0.841810  0.620747  1
  Tb  Tb7  1  0.877107  0.658307  0.879031  1
  Tb  Tb8  1  0.535854  0.324626  0.899916  1
  Tb  Tb9  1  0.035889  0.175379  0.599949  1
  Tb  Tb10  1  0.463887  0.675806  0.399829  1
  Tb  Tb11  1  0.964457  0.824896  0.100156  1
  Tb  Tb12  1  0.463887  0.675806  0.100171  1
  Tb  Tb13  1  0.964457  0.824896  0.399844  1
  Tb  Tb14  1  0.535854  0.324626  0.600084  1
  Tb  Tb15  1  0.035889  0.175379  0.900051  1
  Tb  Tb16  1  0.209551  0.503745  0.750000  1
  Tb  Tb17  1  0.790424  0.496293  0.250000  1
  Y  Y18  1  0.709557  0.996284  0.750000  1
  Er  Er19  1  0.290241  0.004140  0.250000  1
  Pb  Pb20  1  0.281322  0.033231  0.043610  1
  Pb  Pb21  1  0.781179  0.466166  0.457094  1
  Pb  Pb22  1  0.718914  0.966341  0.542748  1
  Pb  Pb23  1  0.218757  0.533568  0.957246  1
  Pb  Pb24  1  0.718914  0.966341  0.957252  1
  Pb  Pb25  1  0.218757  0.533568  0.542754  1
  Pb  Pb26  1  0.281322  0.033231  0.456390  1
  Pb  Pb27  1  0.781179  0.466166  0.042906  1
  Pb  Pb28  1  0.572852  0.625429  0.750000  1
  Pb  Pb29  1  0.072935  0.874780  0.750000  1
  Pb  Pb30  1  0.426532  0.374040  0.250000  1
  Pb  Pb31  1  0.928071  0.124369  0.250000  1
  Pb  Pb32  1  0.348043  0.152990  0.750000  1
  Pb  Pb33  1  0.848179  0.346822  0.750000  1
  Pb  Pb34  1  0.650899  0.847178  0.250000  1
  Pb  Pb35  1  0.152554  0.654721  0.250000  1
