# generated using pymatgen
data_Sm3Ho3Al24GaOs7
_symmetry_space_group_name_H-M   'P 1'
_cell_length_a   8.89350314
_cell_length_b   8.88710899
_cell_length_c   9.58513103
_cell_angle_alpha   90.19849221
_cell_angle_beta   89.72844527
_cell_angle_gamma   119.96132004
_symmetry_Int_Tables_number   1
_chemical_formula_structural   Sm3Ho3Al24GaOs7
_chemical_formula_sum   'Sm3 Ho3 Al24 Ga1 Os7'
_cell_volume   656.33561229
_cell_formula_units_Z   1
loop_
 _symmetry_equiv_pos_site_id
 _symmetry_equiv_pos_as_xyz
  1  'x, y, z'
loop_
 _atom_site_type_symbol
 _atom_site_label
 _atom_site_symmetry_multiplicity
 _atom_site_fract_x
 _atom_site_fract_y
 _atom_site_fract_z
 _atom_site_occupancy
  Sm  Sm0  1  0.191953  0.382403  0.244281  1
  Sm  Sm1  1  0.807650  0.617701  0.755643  1
  Sm  Sm2  1  0.617448  0.807899  0.244703  1
  Ho  Ho3  1  0.386306  0.192761  0.754395  1
  Ho  Ho4  1  0.194588  0.804726  0.255980  1
  Ho  Ho5  1  0.804714  0.195102  0.743764  1
  Al  Al6  1  0.326592  0.673454  0.020062  1
  Al  Al7  1  0.672418  0.326843  0.978066  1
  Al  Al8  1  0.665406  0.333626  0.518782  1
  Al  Al9  1  0.333736  0.665720  0.482724  1
  Al  Al10  1  0.162251  0.325298  0.571946  1
  Al  Al11  1  0.838180  0.673791  0.429225  1
  Al  Al12  1  0.673763  0.837675  0.571889  1
  Al  Al13  1  0.853702  0.678419  0.082255  1
  Al  Al14  1  0.325847  0.161786  0.430077  1
  Al  Al15  1  0.146920  0.320917  0.916805  1
  Al  Al16  1  0.163098  0.837661  0.576102  1
  Al  Al17  1  0.321311  0.146408  0.080890  1
  Al  Al18  1  0.836959  0.163137  0.424729  1
  Al  Al19  1  0.678647  0.854175  0.917143  1
  Al  Al20  1  0.836376  0.163317  0.074832  1
  Al  Al21  1  0.163613  0.837812  0.923822  1
  Al  Al22  1  0.561185  0.120675  0.249250  1
  Al  Al23  1  0.437905  0.879925  0.750381  1
  Al  Al24  1  0.878927  0.438104  0.249644  1
  Al  Al25  1  0.120715  0.561572  0.750428  1
  Al  Al26  1  0.566462  0.433125  0.259244  1
  Al  Al27  1  0.432682  0.564861  0.741861  1
  Al  Al28  1  0.000896  0.999294  0.250839  1
  Al  Al29  1  0.002891  0.002782  0.749274  1
  Ga  Ga30  1  0.499660  0.499776  0.000015  1
  Os  Os31  1  0.499318  0.000861  0.998763  1
  Os  Os32  1  0.999720  0.499602  0.999837  1
  Os  Os33  1  0.499512  0.000549  0.500848  1
  Os  Os34  1  0.999367  0.499552  0.500303  1
  Os  Os35  1  0.499389  0.498639  0.501125  1
  Os  Os36  1  0.999912  0.999985  0.999710  1
  Os  Os37  1  0.999980  0.000067  0.500362  1
