# generated using pymatgen
data_AlV3I16
_symmetry_space_group_name_H-M   'P 1'
_cell_length_a   7.83603316
_cell_length_b   11.28374506
_cell_length_c   11.48132464
_cell_angle_alpha   79.01757399
_cell_angle_beta   90.58205560
_cell_angle_gamma   90.93437213
_symmetry_Int_Tables_number   1
_chemical_formula_structural   AlV3I16
_chemical_formula_sum   'Al1 V3 I16'
_cell_volume   996.42591730
_cell_formula_units_Z   1
loop_
 _symmetry_equiv_pos_site_id
 _symmetry_equiv_pos_as_xyz
  1  'x, y, z'
loop_
 _atom_site_type_symbol
 _atom_site_label
 _atom_site_symmetry_multiplicity
 _atom_site_fract_x
 _atom_site_fract_y
 _atom_site_fract_z
 _atom_site_occupancy
  Al  Al0  1  0.076693  0.247842  0.638423  1
  V  V1  1  0.571250  0.751620  0.860506  1
  V  V2  1  0.926276  0.750137  0.364237  1
  V  V3  1  0.426663  0.248600  0.135364  1
  I  I4  1  0.385813  0.309311  0.583107  1
  I  I5  1  0.870512  0.693459  0.918086  1
  I  I6  1  0.625165  0.690838  0.419517  1
  I  I7  1  0.127937  0.305026  0.077005  1
  I  I8  1  0.920348  0.192959  0.457723  1
  I  I9  1  0.423281  0.805855  0.034391  1
  I  I10  1  0.072828  0.817846  0.533829  1
  I  I11  1  0.574513  0.196412  0.961977  1
  I  I12  1  0.924205  0.422142  0.705746  1
  I  I13  1  0.415814  0.582004  0.793524  1
  I  I14  1  0.078561  0.576122  0.310536  1
  I  I15  1  0.580733  0.418378  0.202594  1
  I  I16  1  0.073901  0.063435  0.809387  1
  I  I17  1  0.578607  0.931847  0.698377  1
  I  I18  1  0.924339  0.923179  0.192563  1
  I  I19  1  0.422561  0.072988  0.303110  1
