# generated using pymatgen
data_Cs2YPa(CuSe3)2
_symmetry_space_group_name_H-M   'P 1'
_cell_length_a   4.19689000
_cell_length_b   8.36018802
_cell_length_c   10.74081487
_cell_angle_alpha   89.81630185
_cell_angle_beta   90.00000000
_cell_angle_gamma   75.46303742
_symmetry_Int_Tables_number   1
_chemical_formula_structural   Cs2YPa(CuSe3)2
_chemical_formula_sum   'Cs2 Y1 Pa1 Cu2 Se6'
_cell_volume   364.79385846
_cell_formula_units_Z   1
loop_
 _symmetry_equiv_pos_site_id
 _symmetry_equiv_pos_as_xyz
  1  'x, y, z'
loop_
 _atom_site_type_symbol
 _atom_site_label
 _atom_site_symmetry_multiplicity
 _atom_site_fract_x
 _atom_site_fract_y
 _atom_site_fract_z
 _atom_site_occupancy
  Cs  Cs0  1  0.743074  0.513855  0.234028  1
  Cs  Cs1  1  0.256928  0.486145  0.765972  1
  Y  Y2  1  0.000000  0.000000  0.000000  1
  Pa  Pa3  1  0.000000  0.000000  0.500000  1
  Cu  Cu4  1  0.465350  0.069302  0.252319  1
  Cu  Cu5  1  0.534651  0.930697  0.747681  1
  Se  Se6  1  0.385361  0.229281  0.060639  1
  Se  Se7  1  0.055149  0.889704  0.258734  1
  Se  Se8  1  0.386986  0.226031  0.446285  1
  Se  Se9  1  0.613015  0.773969  0.553716  1
  Se  Se10  1  0.944852  0.110296  0.741266  1
  Se  Se11  1  0.614640  0.770719  0.939362  1
