# generated using pymatgen
data_Er6MgFe(Co4P3)4
_symmetry_space_group_name_H-M   'P 1'
_cell_length_a   3.69719500
_cell_length_b   10.54177700
_cell_length_c   12.18638600
_cell_angle_alpha   90.00000000
_cell_angle_beta   90.00000000
_cell_angle_gamma   90.00000000
_symmetry_Int_Tables_number   1
_chemical_formula_structural   Er6MgFe(Co4P3)4
_chemical_formula_sum   'Er6 Mg1 Fe1 Co16 P12'
_cell_volume   474.96445791
_cell_formula_units_Z   1
loop_
 _symmetry_equiv_pos_site_id
 _symmetry_equiv_pos_as_xyz
  1  'x, y, z'
loop_
 _atom_site_type_symbol
 _atom_site_label
 _atom_site_symmetry_multiplicity
 _atom_site_fract_x
 _atom_site_fract_y
 _atom_site_fract_z
 _atom_site_occupancy
  Er  Er0  1  0.750000  0.250000  0.474101  1
  Er  Er1  1  0.250000  0.750000  0.521489  1
  Er  Er2  1  0.250000  0.927879  0.793464  1
  Er  Er3  1  0.250000  0.572121  0.793464  1
  Er  Er4  1  0.750000  0.067764  0.205337  1
  Er  Er5  1  0.750000  0.432236  0.205337  1
  Mg  Mg6  1  0.250000  0.250000  0.846280  1
  Fe  Fe7  1  0.750000  0.750000  0.159593  1
  Co  Co8  1  0.250000  0.250000  0.296385  1
  Co  Co9  1  0.750000  0.750000  0.703057  1
  Co  Co10  1  0.750000  0.250000  0.014077  1
  Co  Co11  1  0.250000  0.750000  0.988252  1
  Co  Co12  1  0.250000  0.420807  0.007360  1
  Co  Co13  1  0.250000  0.079193  0.007360  1
  Co  Co14  1  0.750000  0.586281  0.997904  1
  Co  Co15  1  0.750000  0.913719  0.997904  1
  Co  Co16  1  0.250000  0.454376  0.567016  1
  Co  Co17  1  0.250000  0.045624  0.567016  1
  Co  Co18  1  0.750000  0.547714  0.429884  1
  Co  Co19  1  0.750000  0.952286  0.429884  1
  Co  Co20  1  0.250000  0.870792  0.292120  1
  Co  Co21  1  0.250000  0.629208  0.292120  1
  Co  Co22  1  0.750000  0.126661  0.706361  1
  Co  Co23  1  0.750000  0.373339  0.706361  1
  P  P24  1  0.250000  0.250000  0.117283  1
  P  P25  1  0.750000  0.750000  0.883260  1
  P  P26  1  0.250000  0.250000  0.645146  1
  P  P27  1  0.750000  0.750000  0.344825  1
  P  P28  1  0.250000  0.439986  0.382551  1
  P  P29  1  0.250000  0.060014  0.382551  1
  P  P30  1  0.750000  0.561568  0.614653  1
  P  P31  1  0.750000  0.938432  0.614653  1
  P  P32  1  0.250000  0.901155  0.110830  1
  P  P33  1  0.250000  0.598845  0.110830  1
  P  P34  1  0.750000  0.086819  0.895647  1
  P  P35  1  0.750000  0.413181  0.895647  1
