# generated using pymatgen
data_TbPr9(In3Br)2
_symmetry_space_group_name_H-M   'P 1'
_cell_length_a   9.64231800
_cell_length_b   9.64231547
_cell_length_c   6.84337600
_cell_angle_alpha   90.00000000
_cell_angle_beta   90.00000000
_cell_angle_gamma   120.00000180
_symmetry_Int_Tables_number   1
_chemical_formula_structural   TbPr9(In3Br)2
_chemical_formula_sum   'Tb1 Pr9 In6 Br2'
_cell_volume   551.01549648
_cell_formula_units_Z   1
loop_
 _symmetry_equiv_pos_site_id
 _symmetry_equiv_pos_as_xyz
  1  'x, y, z'
loop_
 _atom_site_type_symbol
 _atom_site_label
 _atom_site_symmetry_multiplicity
 _atom_site_fract_x
 _atom_site_fract_y
 _atom_site_fract_z
 _atom_site_occupancy
  Tb  Tb0  1  0.666667  0.333333  0.000000  1
  Pr  Pr1  1  0.735198  0.733862  0.248976  1
  Pr  Pr2  1  0.998664  0.733862  0.751024  1
  Pr  Pr3  1  0.735198  0.001336  0.751024  1
  Pr  Pr4  1  0.333333  0.666667  0.500000  1
  Pr  Pr5  1  0.266138  0.264802  0.751024  1
  Pr  Pr6  1  0.998664  0.264802  0.248976  1
  Pr  Pr7  1  0.666667  0.333333  0.500000  1
  Pr  Pr8  1  0.266138  0.001336  0.248976  1
  Pr  Pr9  1  0.333333  0.666667  0.000000  1
  In  In10  1  0.394532  0.003010  0.751519  1
  In  In11  1  0.996990  0.605468  0.248481  1
  In  In12  1  0.608478  0.003010  0.248481  1
  In  In13  1  0.996990  0.391522  0.751519  1
  In  In14  1  0.394532  0.391522  0.248481  1
  In  In15  1  0.608478  0.605468  0.751519  1
  Br  Br16  1  0.000000  0.000000  0.500000  1
  Br  Br17  1  0.000000  0.000000  0.000000  1
