# generated using pymatgen
data_Nd2Cr2Ni10As7
_symmetry_space_group_name_H-M   'P 1'
_cell_length_a   3.86054700
_cell_length_b   9.41639727
_cell_length_c   9.44681459
_cell_angle_alpha   120.28978656
_cell_angle_beta   90.00000000
_cell_angle_gamma   90.00000000
_symmetry_Int_Tables_number   1
_chemical_formula_structural   Nd2Cr2Ni10As7
_chemical_formula_sum   'Nd2 Cr2 Ni10 As7'
_cell_volume   296.53369164
_cell_formula_units_Z   1
loop_
 _symmetry_equiv_pos_site_id
 _symmetry_equiv_pos_as_xyz
  1  'x, y, z'
loop_
 _atom_site_type_symbol
 _atom_site_label
 _atom_site_symmetry_multiplicity
 _atom_site_fract_x
 _atom_site_fract_y
 _atom_site_fract_z
 _atom_site_occupancy
  Nd  Nd0  1  0.000000  0.667676  0.335076  1
  Nd  Nd1  1  0.500000  0.333178  0.666141  1
  Cr  Cr2  1  0.500000  0.800403  0.908096  1
  Cr  Cr3  1  0.500000  0.107084  0.207504  1
  Ni  Ni4  1  0.000000  0.567567  0.940666  1
  Ni  Ni5  1  0.000000  0.372784  0.431625  1
  Ni  Ni6  1  0.000000  0.058304  0.621169  1
  Ni  Ni7  1  0.500000  0.098798  0.891386  1
  Ni  Ni8  1  0.000000  0.870141  0.150930  1
  Ni  Ni9  1  0.000000  0.279618  0.127508  1
  Ni  Ni10  1  0.000000  0.850744  0.721316  1
  Ni  Ni11  1  0.500000  0.948469  0.378456  1
  Ni  Ni12  1  0.500000  0.425143  0.048767  1
  Ni  Ni13  1  0.500000  0.620761  0.570895  1
  As  As14  1  0.000000  0.000042  0.000787  1
  As  As15  1  0.500000  0.704441  0.104705  1
  As  As16  1  0.500000  0.399805  0.294735  1
  As  As17  1  0.500000  0.894171  0.601483  1
  As  As18  1  0.000000  0.599161  0.709457  1
  As  As19  1  0.000000  0.110611  0.401466  1
  As  As20  1  0.000000  0.291096  0.887832  1
