# generated using pymatgen
data_La7Dy13Sn16
_symmetry_space_group_name_H-M   'P 1'
_cell_length_a   8.10238853
_cell_length_b   8.37164924
_cell_length_c   15.87409200
_cell_angle_alpha   89.98813930
_cell_angle_beta   90.24902252
_cell_angle_gamma   89.64026217
_symmetry_Int_Tables_number   1
_chemical_formula_structural   La7Dy13Sn16
_chemical_formula_sum   'La7 Dy13 Sn16'
_cell_volume   1076.71386926
_cell_formula_units_Z   1
loop_
 _symmetry_equiv_pos_site_id
 _symmetry_equiv_pos_as_xyz
  1  'x, y, z'
loop_
 _atom_site_type_symbol
 _atom_site_label
 _atom_site_symmetry_multiplicity
 _atom_site_fract_x
 _atom_site_fract_y
 _atom_site_fract_z
 _atom_site_occupancy
  La  La0  1  0.995786  0.822105  0.901476  1
  La  La1  1  0.504036  0.323350  0.096402  1
  La  La2  1  0.002381  0.179021  0.405492  1
  La  La3  1  0.506722  0.323782  0.404709  1
  La  La4  1  0.003368  0.177392  0.096138  1
  La  La5  1  0.495895  0.676033  0.903435  1
  La  La6  1  0.995968  0.820934  0.596179  1
  Dy  Dy7  1  0.322554  0.000254  0.748818  1
  Dy  Dy8  1  0.180097  0.500400  0.251044  1
  Dy  Dy9  1  0.677993  0.998788  0.250578  1
  Dy  Dy10  1  0.653627  0.167191  0.625566  1
  Dy  Dy11  1  0.155773  0.333043  0.874743  1
  Dy  Dy12  1  0.344057  0.832980  0.125181  1
  Dy  Dy13  1  0.847899  0.664676  0.378215  1
  Dy  Dy14  1  0.347338  0.832755  0.375508  1
  Dy  Dy15  1  0.845477  0.667150  0.123637  1
  Dy  Dy16  1  0.655222  0.166271  0.872952  1
  Dy  Dy17  1  0.153716  0.335541  0.622664  1
  Dy  Dy18  1  0.490376  0.677782  0.599144  1
  Dy  Dy19  1  0.820686  0.500341  0.748076  1
  Sn  Sn20  1  0.679699  0.956805  0.460918  1
  Sn  Sn21  1  0.182067  0.541273  0.040750  1
  Sn  Sn22  1  0.319889  0.039917  0.958467  1
  Sn  Sn23  1  0.805682  0.464453  0.544305  1
  Sn  Sn24  1  0.321011  0.036616  0.542065  1
  Sn  Sn25  1  0.818961  0.458278  0.957378  1
  Sn  Sn26  1  0.680007  0.959912  0.040245  1
  Sn  Sn27  1  0.192607  0.543894  0.460574  1
  Sn  Sn28  1  0.455636  0.378096  0.749034  1
  Sn  Sn29  1  0.958581  0.125370  0.748694  1
  Sn  Sn30  1  0.545716  0.624807  0.250267  1
  Sn  Sn31  1  0.041894  0.873902  0.251288  1
  Sn  Sn32  1  0.685816  0.854611  0.747090  1
  Sn  Sn33  1  0.191414  0.641123  0.748285  1
  Sn  Sn34  1  0.310288  0.141712  0.250416  1
  Sn  Sn35  1  0.811763  0.359438  0.250266  1
