# generated using pymatgen
data_Hf9Ti(Sn3Ge)2
_symmetry_space_group_name_H-M   'P 1'
_cell_length_a   8.62088000
_cell_length_b   8.62088029
_cell_length_c   5.80049000
_cell_angle_alpha   90.00000000
_cell_angle_beta   90.00000000
_cell_angle_gamma   119.99999120
_symmetry_Int_Tables_number   1
_chemical_formula_structural   Hf9Ti(Sn3Ge)2
_chemical_formula_sum   'Hf9 Ti1 Sn6 Ge2'
_cell_volume   373.33488005
_cell_formula_units_Z   1
loop_
 _symmetry_equiv_pos_site_id
 _symmetry_equiv_pos_as_xyz
  1  'x, y, z'
loop_
 _atom_site_type_symbol
 _atom_site_label
 _atom_site_symmetry_multiplicity
 _atom_site_fract_x
 _atom_site_fract_y
 _atom_site_fract_z
 _atom_site_occupancy
  Hf  Hf0  1  0.265661  0.000934  0.748343  1
  Hf  Hf1  1  0.735273  0.000934  0.251657  1
  Hf  Hf2  1  0.999066  0.264727  0.748343  1
  Hf  Hf3  1  0.999066  0.734339  0.251657  1
  Hf  Hf4  1  0.735273  0.734339  0.748343  1
  Hf  Hf5  1  0.265661  0.264727  0.251657  1
  Hf  Hf6  1  0.333333  0.666667  0.500000  1
  Hf  Hf7  1  0.666667  0.333333  0.500000  1
  Hf  Hf8  1  0.666667  0.333333  0.000000  1
  Ti  Ti9  1  0.333333  0.666667  0.000000  1
  Sn  Sn10  1  0.604472  0.995872  0.754301  1
  Sn  Sn11  1  0.391401  0.995872  0.245699  1
  Sn  Sn12  1  0.004128  0.608599  0.754301  1
  Sn  Sn13  1  0.004128  0.395528  0.245699  1
  Sn  Sn14  1  0.391401  0.395528  0.754301  1
  Sn  Sn15  1  0.604472  0.608599  0.245699  1
  Ge  Ge16  1  0.000000  0.000000  0.500000  1
  Ge  Ge17  1  0.000000  0.000000  0.000000  1
