# generated using pymatgen
data_Ho8MnOsI8
_symmetry_space_group_name_H-M   'P 1'
_cell_length_a   11.35307762
_cell_length_b   11.35307907
_cell_length_c   6.09688659
_cell_angle_alpha   89.89249187
_cell_angle_beta   89.89249165
_cell_angle_gamma   88.53630915
_symmetry_Int_Tables_number   1
_chemical_formula_structural   Ho8MnOsI8
_chemical_formula_sum   'Ho8 Mn1 Os1 I8'
_cell_volume   785.58316395
_cell_formula_units_Z   1
loop_
 _symmetry_equiv_pos_site_id
 _symmetry_equiv_pos_as_xyz
  1  'x, y, z'
loop_
 _atom_site_type_symbol
 _atom_site_label
 _atom_site_symmetry_multiplicity
 _atom_site_fract_x
 _atom_site_fract_y
 _atom_site_fract_z
 _atom_site_occupancy
  Ho  Ho0  1  0.193894  0.918164  0.004544  1
  Ho  Ho1  1  0.806018  0.081970  0.005099  1
  Ho  Ho2  1  0.081836  0.806106  0.495456  1
  Ho  Ho3  1  0.918030  0.193982  0.494901  1
  Ho  Ho4  1  0.805905  0.921356  0.496659  1
  Ho  Ho5  1  0.193991  0.078570  0.494283  1
  Ho  Ho6  1  0.078644  0.194095  0.003341  1
  Ho  Ho7  1  0.921430  0.806009  0.005717  1
  Mn  Mn8  1  0.999451  0.000549  0.250000  1
  Os  Os9  1  0.000095  0.999905  0.750000  1
  I  I10  1  0.355535  0.848702  0.491898  1
  I  I11  1  0.644469  0.150906  0.495753  1
  I  I12  1  0.151298  0.644465  0.008102  1
  I  I13  1  0.849094  0.355531  0.004247  1
  I  I14  1  0.351940  0.142846  0.006028  1
  I  I15  1  0.648287  0.857071  0.006467  1
  I  I16  1  0.857154  0.648060  0.493972  1
  I  I17  1  0.142929  0.351713  0.493533  1
