# generated using pymatgen
data_TaNb3V4Ge3P
_symmetry_space_group_name_H-M   'P 1'
_cell_length_a   3.44995800
_cell_length_b   6.61685010
_cell_length_c   7.97567196
_cell_angle_alpha   89.66130470
_cell_angle_beta   90.00000000
_cell_angle_gamma   90.00000000
_symmetry_Int_Tables_number   1
_chemical_formula_structural   TaNb3V4Ge3P
_chemical_formula_sum   'Ta1 Nb3 V4 Ge3 P1'
_cell_volume   182.06430142
_cell_formula_units_Z   1
loop_
 _symmetry_equiv_pos_site_id
 _symmetry_equiv_pos_as_xyz
  1  'x, y, z'
loop_
 _atom_site_type_symbol
 _atom_site_label
 _atom_site_symmetry_multiplicity
 _atom_site_fract_x
 _atom_site_fract_y
 _atom_site_fract_z
 _atom_site_occupancy
  Ta  Ta0  1  0.750000  0.972432  0.666066  1
  Nb  Nb1  1  0.250000  0.548111  0.165380  1
  Nb  Nb2  1  0.750000  0.447300  0.824673  1
  Nb  Nb3  1  0.250000  0.044447  0.339874  1
  V  V4  1  0.250000  0.619773  0.562245  1
  V  V5  1  0.750000  0.364280  0.448154  1
  V  V6  1  0.750000  0.871004  0.058794  1
  V  V7  1  0.250000  0.132374  0.933764  1
  Ge  Ge8  1  0.250000  0.754339  0.858022  1
  Ge  Ge9  1  0.750000  0.246839  0.140890  1
  Ge  Ge10  1  0.750000  0.743719  0.363892  1
  P  P11  1  0.250000  0.255382  0.638245  1
