# generated using pymatgen
data_NaZnCr(Sb6Os)2
_symmetry_space_group_name_H-M   'P 1'
_cell_length_a   8.23560550
_cell_length_b   8.26112046
_cell_length_c   8.22114858
_cell_angle_alpha   109.10641840
_cell_angle_beta   109.46688150
_cell_angle_gamma   109.44402143
_symmetry_Int_Tables_number   1
_chemical_formula_structural   NaZnCr(Sb6Os)2
_chemical_formula_sum   'Na1 Zn1 Cr1 Sb12 Os2'
_cell_volume   432.66055738
_cell_formula_units_Z   1
loop_
 _symmetry_equiv_pos_site_id
 _symmetry_equiv_pos_as_xyz
  1  'x, y, z'
loop_
 _atom_site_type_symbol
 _atom_site_label
 _atom_site_symmetry_multiplicity
 _atom_site_fract_x
 _atom_site_fract_y
 _atom_site_fract_z
 _atom_site_occupancy
  Na  Na0  1  0.000000  0.000000  0.000000  1
  Zn  Zn1  1  0.500000  0.000000  0.000000  1
  Cr  Cr2  1  0.000000  0.000000  0.500000  1
  Sb  Sb3  1  0.841522  0.662043  0.506340  1
  Sb  Sb4  1  0.158478  0.337957  0.493660  1
  Sb  Sb5  1  0.143345  0.642331  0.803820  1
  Sb  Sb6  1  0.856655  0.357669  0.196180  1
  Sb  Sb7  1  0.664878  0.508093  0.844437  1
  Sb  Sb8  1  0.335122  0.491907  0.155563  1
  Sb  Sb9  1  0.659753  0.802277  0.160140  1
  Sb  Sb10  1  0.340247  0.197723  0.839860  1
  Sb  Sb11  1  0.499429  0.837065  0.641950  1
  Sb  Sb12  1  0.500571  0.162935  0.358050  1
  Sb  Sb13  1  0.179013  0.840629  0.334321  1
  Sb  Sb14  1  0.820987  0.159371  0.665679  1
  Os  Os15  1  0.500000  0.500000  0.500000  1
  Os  Os16  1  0.000000  0.500000  0.000000  1
