# generated using pymatgen
data_Pr20Si9Ag2Ge
_symmetry_space_group_name_H-M   'P 1'
_cell_length_a   7.81124400
_cell_length_b   7.81124400
_cell_length_c   14.74908600
_cell_angle_alpha   90.00000000
_cell_angle_beta   90.00000000
_cell_angle_gamma   90.00000000
_symmetry_Int_Tables_number   1
_chemical_formula_structural   Pr20Si9Ag2Ge
_chemical_formula_sum   'Pr20 Si9 Ag2 Ge1'
_cell_volume   899.92334101
_cell_formula_units_Z   1
loop_
 _symmetry_equiv_pos_site_id
 _symmetry_equiv_pos_as_xyz
  1  'x, y, z'
loop_
 _atom_site_type_symbol
 _atom_site_label
 _atom_site_symmetry_multiplicity
 _atom_site_fract_x
 _atom_site_fract_y
 _atom_site_fract_z
 _atom_site_occupancy
  Pr  Pr0  1  0.821201  0.822753  0.606940  1
  Pr  Pr1  1  0.180393  0.825617  0.108960  1
  Pr  Pr2  1  0.160981  0.808326  0.391600  1
  Pr  Pr3  1  0.000000  0.500000  0.733734  1
  Pr  Pr4  1  0.839019  0.191674  0.391600  1
  Pr  Pr5  1  0.691674  0.660981  0.391600  1
  Pr  Pr6  1  0.677247  0.321201  0.606940  1
  Pr  Pr7  1  0.322753  0.678799  0.606940  1
  Pr  Pr8  1  0.000000  0.500000  0.231922  1
  Pr  Pr9  1  0.674383  0.680393  0.108960  1
  Pr  Pr10  1  0.688618  0.336952  0.889672  1
  Pr  Pr11  1  0.836952  0.811382  0.889672  1
  Pr  Pr12  1  0.308326  0.339019  0.391600  1
  Pr  Pr13  1  0.178799  0.177247  0.606940  1
  Pr  Pr14  1  0.819607  0.174383  0.108960  1
  Pr  Pr15  1  0.311382  0.663048  0.889672  1
  Pr  Pr16  1  0.325617  0.319607  0.108960  1
  Pr  Pr17  1  0.500000  0.000000  0.277404  1
  Pr  Pr18  1  0.163048  0.188618  0.889672  1
  Pr  Pr19  1  0.500000  0.000000  0.772376  1
  Si  Si20  1  0.612658  0.384142  0.249956  1
  Si  Si21  1  0.115938  0.887791  0.747566  1
  Si  Si22  1  0.387791  0.384062  0.747566  1
  Si  Si23  1  0.387342  0.615858  0.249956  1
  Si  Si24  1  0.884142  0.887342  0.249956  1
  Si  Si25  1  0.612209  0.615938  0.747566  1
  Si  Si26  1  0.000000  0.500000  0.508084  1
  Si  Si27  1  0.884062  0.112209  0.747566  1
  Si  Si28  1  0.115858  0.112658  0.249956  1
  Ag  Ag29  1  0.500000  0.000000  0.496802  1
  Ag  Ag30  1  0.500000  0.000000  0.995799  1
  Ge  Ge31  1  0.000000  0.500000  0.005099  1
