# generated using pymatgen
data_Pr3Si2IrPd
_symmetry_space_group_name_H-M   'P 1'
_cell_length_a   5.83062421
_cell_length_b   5.83062482
_cell_length_c   13.81527400
_cell_angle_alpha   90.00000000
_cell_angle_beta   90.00000000
_cell_angle_gamma   138.07579510
_symmetry_Int_Tables_number   1
_chemical_formula_structural   Pr3Si2IrPd
_chemical_formula_sum   'Pr6 Si4 Ir2 Pd2'
_cell_volume   313.80628055
_cell_formula_units_Z   2
loop_
 _symmetry_equiv_pos_site_id
 _symmetry_equiv_pos_as_xyz
  1  'x, y, z'
loop_
 _atom_site_type_symbol
 _atom_site_label
 _atom_site_symmetry_multiplicity
 _atom_site_fract_x
 _atom_site_fract_y
 _atom_site_fract_z
 _atom_site_occupancy
  Pr  Pr0  1  0.774024  0.225976  0.599728  1
  Pr  Pr1  1  0.517384  0.482616  0.250000  1
  Pr  Pr2  1  0.225976  0.774024  0.400272  1
  Pr  Pr3  1  0.774024  0.225976  0.900272  1
  Pr  Pr4  1  0.482616  0.517384  0.750000  1
  Pr  Pr5  1  0.225976  0.774024  0.099728  1
  Si  Si6  1  0.058488  0.941512  0.585333  1
  Si  Si7  1  0.058488  0.941512  0.914667  1
  Si  Si8  1  0.941512  0.058488  0.414667  1
  Si  Si9  1  0.941512  0.058488  0.085333  1
  Ir  Ir10  1  0.500000  0.500000  0.000000  1
  Ir  Ir11  1  0.500000  0.500000  0.500000  1
  Pd  Pd12  1  0.816270  0.183730  0.250000  1
  Pd  Pd13  1  0.183730  0.816270  0.750000  1
