# generated using pymatgen
data_Dy4TmLu11(CdPt)4
_symmetry_space_group_name_H-M   'P 1'
_cell_length_a   9.53967633
_cell_length_b   9.52661255
_cell_length_c   9.52661203
_cell_angle_alpha   60.08633755
_cell_angle_beta   59.95827283
_cell_angle_gamma   59.95827730
_symmetry_Int_Tables_number   1
_chemical_formula_structural   Dy4TmLu11(CdPt)4
_chemical_formula_sum   'Dy4 Tm1 Lu11 Cd4 Pt4'
_cell_volume   612.21456059
_cell_formula_units_Z   1
loop_
 _symmetry_equiv_pos_site_id
 _symmetry_equiv_pos_as_xyz
  1  'x, y, z'
loop_
 _atom_site_type_symbol
 _atom_site_label
 _atom_site_symmetry_multiplicity
 _atom_site_fract_x
 _atom_site_fract_y
 _atom_site_fract_z
 _atom_site_occupancy
  Dy  Dy0  1  0.564992  0.934989  0.564968  1
  Dy  Dy1  1  0.935044  0.564906  0.935081  1
  Dy  Dy2  1  0.564992  0.564968  0.934989  1
  Dy  Dy3  1  0.935044  0.935081  0.564906  1
  Tm  Tm4  1  0.353274  0.352344  0.352344  1
  Lu  Lu5  1  0.352181  0.353032  0.942610  1
  Lu  Lu6  1  0.352181  0.942610  0.353032  1
  Lu  Lu7  1  0.942615  0.352160  0.352160  1
  Lu  Lu8  1  0.811365  0.188712  0.188712  1
  Lu  Lu9  1  0.188831  0.811189  0.811189  1
  Lu  Lu10  1  0.188498  0.811572  0.188494  1
  Lu  Lu11  1  0.811421  0.188604  0.811427  1
  Lu  Lu12  1  0.188498  0.188494  0.811572  1
  Lu  Lu13  1  0.811421  0.811427  0.188604  1
  Lu  Lu14  1  0.938732  0.561220  0.561220  1
  Lu  Lu15  1  0.561104  0.938855  0.938855  1
  Cd  Cd16  1  0.583190  0.580961  0.580961  1
  Cd  Cd17  1  0.581045  0.583291  0.254839  1
  Cd  Cd18  1  0.581045  0.254839  0.583291  1
  Cd  Cd19  1  0.254841  0.581055  0.581055  1
  Pt  Pt20  1  0.144577  0.142605  0.142605  1
  Pt  Pt21  1  0.142234  0.144212  0.570643  1
  Pt  Pt22  1  0.142234  0.570643  0.144212  1
  Pt  Pt23  1  0.570642  0.142232  0.142232  1
