# generated using pymatgen
data_Th5NbRh10
_symmetry_space_group_name_H-M   'P 1'
_cell_length_a   5.95826014
_cell_length_b   5.95826092
_cell_length_c   9.10030900
_cell_angle_alpha   90.00000000
_cell_angle_beta   90.00000000
_cell_angle_gamma   102.68315704
_symmetry_Int_Tables_number   1
_chemical_formula_structural   Th5NbRh10
_chemical_formula_sum   'Th5 Nb1 Rh10'
_cell_volume   315.18571179
_cell_formula_units_Z   1
loop_
 _symmetry_equiv_pos_site_id
 _symmetry_equiv_pos_as_xyz
  1  'x, y, z'
loop_
 _atom_site_type_symbol
 _atom_site_label
 _atom_site_symmetry_multiplicity
 _atom_site_fract_x
 _atom_site_fract_y
 _atom_site_fract_z
 _atom_site_occupancy
  Th  Th0  1  0.374301  0.374301  0.250000  1
  Th  Th1  1  0.797901  0.211367  0.504495  1
  Th  Th2  1  0.211367  0.797901  0.995505  1
  Th  Th3  1  0.211367  0.797901  0.504495  1
  Th  Th4  1  0.797901  0.211367  0.995505  1
  Nb  Nb5  1  0.615644  0.615644  0.750000  1
  Rh  Rh6  1  0.694336  0.694336  0.034118  1
  Rh  Rh7  1  0.694336  0.694336  0.465882  1
  Rh  Rh8  1  0.330630  0.330630  0.918103  1
  Rh  Rh9  1  0.330630  0.330630  0.581897  1
  Rh  Rh10  1  0.501873  0.008098  0.750000  1
  Rh  Rh11  1  0.501601  0.951397  0.250000  1
  Rh  Rh12  1  0.981210  0.981210  0.250000  1
  Rh  Rh13  1  0.997408  0.997408  0.750000  1
  Rh  Rh14  1  0.008098  0.501873  0.750000  1
  Rh  Rh15  1  0.951397  0.501601  0.250000  1
