# generated using pymatgen
data_PrNd3(DyPb)6
_symmetry_space_group_name_H-M   'P 1'
_cell_length_a   9.20603550
_cell_length_b   9.20021176
_cell_length_c   6.76041100
_cell_angle_alpha   90.00000000
_cell_angle_beta   90.00000000
_cell_angle_gamma   119.56791204
_symmetry_Int_Tables_number   1
_chemical_formula_structural   PrNd3(DyPb)6
_chemical_formula_sum   'Pr1 Nd3 Dy6 Pb6'
_cell_volume   498.02219923
_cell_formula_units_Z   1
loop_
 _symmetry_equiv_pos_site_id
 _symmetry_equiv_pos_as_xyz
  1  'x, y, z'
loop_
 _atom_site_type_symbol
 _atom_site_label
 _atom_site_symmetry_multiplicity
 _atom_site_fract_x
 _atom_site_fract_y
 _atom_site_fract_z
 _atom_site_occupancy
  Pr  Pr0  1  0.999383  0.762082  0.250000  1
  Nd  Nd1  1  0.238710  0.000738  0.750000  1
  Nd  Nd2  1  0.000559  0.238090  0.750000  1
  Nd  Nd3  1  0.761480  0.999386  0.250000  1
  Dy  Dy4  1  0.666451  0.333544  0.999898  1
  Dy  Dy5  1  0.333557  0.666399  0.999895  1
  Dy  Dy6  1  0.333557  0.666399  0.500105  1
  Dy  Dy7  1  0.666451  0.333544  0.500102  1
  Dy  Dy8  1  0.757691  0.757886  0.750000  1
  Dy  Dy9  1  0.242192  0.242202  0.250000  1
  Pb  Pb10  1  0.399999  0.400044  0.750000  1
  Pb  Pb11  1  0.603781  0.997832  0.750000  1
  Pb  Pb12  1  0.997756  0.603762  0.750000  1
  Pb  Pb13  1  0.598761  0.599451  0.250000  1
  Pb  Pb14  1  0.397427  0.002961  0.250000  1
  Pb  Pb15  1  0.002245  0.395683  0.250000  1
