# generated using pymatgen
data_Sr2RhC2
_symmetry_space_group_name_H-M   'P 1'
_cell_length_a   4.81836700
_cell_length_b   4.81836619
_cell_length_c   5.36001600
_cell_angle_alpha   90.00000000
_cell_angle_beta   90.00000000
_cell_angle_gamma   120.00001244
_symmetry_Int_Tables_number   1
_chemical_formula_structural   Sr2RhC2
_chemical_formula_sum   'Sr2 Rh1 C2'
_cell_volume   107.76961756
_cell_formula_units_Z   1
loop_
 _symmetry_equiv_pos_site_id
 _symmetry_equiv_pos_as_xyz
  1  'x, y, z'
loop_
 _atom_site_type_symbol
 _atom_site_label
 _atom_site_symmetry_multiplicity
 _atom_site_fract_x
 _atom_site_fract_y
 _atom_site_fract_z
 _atom_site_occupancy
  Sr  Sr0  1  0.333333  0.666667  0.256384  1
  Sr  Sr1  1  0.666667  0.333333  0.743616  1
  Rh  Rh2  1  0.000000  0.000000  0.000000  1
  C  C3  1  0.000000  0.000000  0.378183  1
  C  C4  1  0.000000  0.000000  0.621817  1
