# generated using pymatgen
data_Dy2Al2PtRh
_symmetry_space_group_name_H-M   'P 1'
_cell_length_a   4.37238900
_cell_length_b   6.82089621
_cell_length_c   7.85796370
_cell_angle_alpha   90.07190450
_cell_angle_beta   90.00000000
_cell_angle_gamma   90.00000000
_symmetry_Int_Tables_number   1
_chemical_formula_structural   Dy2Al2PtRh
_chemical_formula_sum   'Dy4 Al4 Pt2 Rh2'
_cell_volume   234.35267271
_cell_formula_units_Z   2
loop_
 _symmetry_equiv_pos_site_id
 _symmetry_equiv_pos_as_xyz
  1  'x, y, z'
loop_
 _atom_site_type_symbol
 _atom_site_label
 _atom_site_symmetry_multiplicity
 _atom_site_fract_x
 _atom_site_fract_y
 _atom_site_fract_z
 _atom_site_occupancy
  Dy  Dy0  1  0.250000  0.466975  0.183279  1
  Dy  Dy1  1  0.750000  0.533025  0.816721  1
  Dy  Dy2  1  0.750000  0.030012  0.678699  1
  Dy  Dy3  1  0.250000  0.969988  0.321301  1
  Al  Al4  1  0.250000  0.856501  0.937105  1
  Al  Al5  1  0.750000  0.143499  0.062895  1
  Al  Al6  1  0.750000  0.638498  0.437235  1
  Al  Al7  1  0.250000  0.361502  0.562765  1
  Pt  Pt8  1  0.750000  0.770030  0.119119  1
  Pt  Pt9  1  0.250000  0.229970  0.880881  1
  Rh  Rh10  1  0.250000  0.735264  0.615974  1
  Rh  Rh11  1  0.750000  0.264736  0.384026  1
