# generated using pymatgen
data_Ga8BiSb3Se16
_symmetry_space_group_name_H-M   'P 1'
_cell_length_a   7.88165100
_cell_length_b   7.88165100
_cell_length_c   12.78253400
_cell_angle_alpha   90.00000000
_cell_angle_beta   90.00000000
_cell_angle_gamma   90.00000000
_symmetry_Int_Tables_number   1
_chemical_formula_structural   Ga8BiSb3Se16
_chemical_formula_sum   'Ga8 Bi1 Sb3 Se16'
_cell_volume   794.05641252
_cell_formula_units_Z   1
loop_
 _symmetry_equiv_pos_site_id
 _symmetry_equiv_pos_as_xyz
  1  'x, y, z'
loop_
 _atom_site_type_symbol
 _atom_site_label
 _atom_site_symmetry_multiplicity
 _atom_site_fract_x
 _atom_site_fract_y
 _atom_site_fract_z
 _atom_site_occupancy
  Ga  Ga0  1  0.500000  0.000000  0.750305  1
  Ga  Ga1  1  0.000000  0.500000  0.750305  1
  Ga  Ga2  1  0.000000  0.500000  0.000147  1
  Ga  Ga3  1  0.000000  0.500000  0.249921  1
  Ga  Ga4  1  0.500000  0.000000  0.499955  1
  Ga  Ga5  1  0.500000  0.000000  0.249921  1
  Ga  Ga6  1  0.000000  0.500000  0.499955  1
  Ga  Ga7  1  0.500000  0.000000  0.000147  1
  Bi  Bi8  1  0.500000  0.500000  0.620416  1
  Sb  Sb9  1  0.000000  0.000000  0.119668  1
  Sb  Sb10  1  0.000000  0.000000  0.880235  1
  Sb  Sb11  1  0.500000  0.500000  0.376752  1
  Se  Se12  1  0.666981  0.831576  0.876251  1
  Se  Se13  1  0.162055  0.327970  0.624649  1
  Se  Se14  1  0.837945  0.672030  0.624649  1
  Se  Se15  1  0.167189  0.667717  0.375772  1
  Se  Se16  1  0.672030  0.162055  0.624649  1
  Se  Se17  1  0.831576  0.333019  0.876251  1
  Se  Se18  1  0.667717  0.832811  0.375772  1
  Se  Se19  1  0.667167  0.168080  0.123897  1
  Se  Se20  1  0.168080  0.332833  0.123897  1
  Se  Se21  1  0.327970  0.837945  0.624649  1
  Se  Se22  1  0.168424  0.666981  0.876251  1
  Se  Se23  1  0.832811  0.332283  0.375772  1
  Se  Se24  1  0.831920  0.667167  0.123897  1
  Se  Se25  1  0.333019  0.168424  0.876251  1
  Se  Se26  1  0.332283  0.167189  0.375772  1
  Se  Se27  1  0.332833  0.831920  0.123897  1
