# generated using pymatgen
data_Eu4Zr3WO14
_symmetry_space_group_name_H-M   'P 1'
_cell_length_a   7.65575602
_cell_length_b   7.61317261
_cell_length_c   7.61317200
_cell_angle_alpha   59.99999398
_cell_angle_beta   60.18382259
_cell_angle_gamma   60.18382128
_symmetry_Int_Tables_number   1
_chemical_formula_structural   Eu4Zr3WO14
_chemical_formula_sum   'Eu4 Zr3 W1 O14'
_cell_volume   314.63388068
_cell_formula_units_Z   1
loop_
 _symmetry_equiv_pos_site_id
 _symmetry_equiv_pos_as_xyz
  1  'x, y, z'
loop_
 _atom_site_type_symbol
 _atom_site_label
 _atom_site_symmetry_multiplicity
 _atom_site_fract_x
 _atom_site_fract_y
 _atom_site_fract_z
 _atom_site_occupancy
  Eu  Eu0  1  0.625000  0.125000  0.625000  1
  Eu  Eu1  1  0.625000  0.625000  0.125000  1
  Eu  Eu2  1  0.125000  0.625000  0.625000  1
  Eu  Eu3  1  0.625000  0.625000  0.625000  1
  Zr  Zr4  1  0.125000  0.125000  0.125000  1
  Zr  Zr5  1  0.125000  0.125000  0.625000  1
  Zr  Zr6  1  0.125000  0.625000  0.125000  1
  W  W7  1  0.625000  0.125000  0.125000  1
  O  O8  1  0.217362  0.791885  0.791885  1
  O  O9  1  0.794647  0.821116  0.192118  1
  O  O10  1  0.794647  0.192118  0.821116  1
  O  O11  1  0.217362  0.791885  0.198867  1
  O  O12  1  0.217362  0.198867  0.791885  1
  O  O13  1  0.794647  0.192118  0.192118  1
  O  O14  1  0.455353  0.057882  0.057882  1
  O  O15  1  0.032638  0.051133  0.458115  1
  O  O16  1  0.032638  0.458115  0.051133  1
  O  O17  1  0.455353  0.057882  0.428884  1
  O  O18  1  0.743852  0.752050  0.752050  1
  O  O19  1  0.455353  0.428884  0.057882  1
  O  O20  1  0.032638  0.458115  0.458115  1
  O  O21  1  0.506148  0.497950  0.497950  1
