# generated using pymatgen
data_La5Pr2Y3Si8O3
_symmetry_space_group_name_H-M   'P 1'
_cell_length_a   10.75908400
_cell_length_b   10.77684804
_cell_length_c   4.54436400
_cell_angle_alpha   90.00000000
_cell_angle_beta   90.00000000
_cell_angle_gamma   119.94549406
_symmetry_Int_Tables_number   1
_chemical_formula_structural   La5Pr2Y3Si8O3
_chemical_formula_sum   'La5 Pr2 Y3 Si8 O3'
_cell_volume   456.57178400
_cell_formula_units_Z   1
loop_
 _symmetry_equiv_pos_site_id
 _symmetry_equiv_pos_as_xyz
  1  'x, y, z'
loop_
 _atom_site_type_symbol
 _atom_site_label
 _atom_site_symmetry_multiplicity
 _atom_site_fract_x
 _atom_site_fract_y
 _atom_site_fract_z
 _atom_site_occupancy
  La  La0  1  0.788040  0.576081  0.000000  1
  La  La1  1  0.999842  0.999683  0.000000  1
  La  La2  1  0.212083  0.424165  0.000000  1
  La  La3  1  0.423894  0.211640  0.000000  1
  La  La4  1  0.787744  0.211640  0.000000  1
  Pr  Pr5  1  0.211895  0.788694  0.000000  1
  Pr  Pr6  1  0.576801  0.788694  0.000000  1
  Y  Y7  1  0.000622  0.500836  0.500000  1
  Y  Y8  1  0.500214  0.500836  0.500000  1
  Y  Y9  1  0.499360  0.998720  0.500000  1
  Si  Si10  1  0.000133  0.776644  0.500000  1
  Si  Si11  1  0.999819  0.222812  0.500000  1
  Si  Si12  1  0.222993  0.222812  0.500000  1
  Si  Si13  1  0.776496  0.999742  0.500000  1
  Si  Si14  1  0.333545  0.667090  0.500000  1
  Si  Si15  1  0.223246  0.999742  0.500000  1
  Si  Si16  1  0.666663  0.333325  0.500000  1
  Si  Si17  1  0.776512  0.776644  0.500000  1
  O  O18  1  0.000255  0.500127  0.000000  1
  O  O19  1  0.499872  0.500127  0.000000  1
  O  O20  1  0.499972  0.999944  0.000000  1
