# generated using pymatgen
data_Hf2NbReSi3Ru2
_symmetry_space_group_name_H-M   'P 1'
_cell_length_a   7.56412942
_cell_length_b   7.56412877
_cell_length_c   7.56412967
_cell_angle_alpha   126.79200803
_cell_angle_beta   122.85944641
_cell_angle_gamma   81.86580636
_symmetry_Int_Tables_number   1
_chemical_formula_structural   Hf2NbReSi3Ru2
_chemical_formula_sum   'Hf4 Nb2 Re2 Si6 Ru4'
_cell_volume   280.09523260
_cell_formula_units_Z   2
loop_
 _symmetry_equiv_pos_site_id
 _symmetry_equiv_pos_as_xyz
  1  'x, y, z'
loop_
 _atom_site_type_symbol
 _atom_site_label
 _atom_site_symmetry_multiplicity
 _atom_site_fract_x
 _atom_site_fract_y
 _atom_site_fract_z
 _atom_site_occupancy
  Hf  Hf0  1  0.555858  0.097187  0.041329  1
  Hf  Hf1  1  0.444142  0.485471  0.541329  1
  Hf  Hf2  1  0.967209  0.486531  0.019322  1
  Hf  Hf3  1  0.032791  0.052112  0.519322  1
  Nb  Nb4  1  0.752921  0.920698  0.667777  1
  Nb  Nb5  1  0.247079  0.914855  0.167777  1
  Re  Re6  1  0.500000  0.250591  0.750591  1
  Re  Re7  1  0.000000  0.250591  0.250591  1
  Si  Si8  1  0.777985  0.549239  0.271254  1
  Si  Si9  1  0.222015  0.493269  0.771254  1
  Si  Si10  1  0.341305  0.824243  0.496605  1
  Si  Si11  1  0.658695  0.155298  0.482937  1
  Si  Si12  1  0.827638  0.824243  0.982937  1
  Si  Si13  1  0.172362  0.155298  0.996605  1
  Ru  Ru14  1  0.153899  0.745898  0.649287  1
  Ru  Ru15  1  0.846101  0.495388  0.591999  1
  Ru  Ru16  1  0.596610  0.745898  0.091999  1
  Ru  Ru17  1  0.403390  0.495388  0.149287  1
