# generated using pymatgen
data_Y2FeCo9As7Ru2
_symmetry_space_group_name_H-M   'P 1'
_cell_length_a   3.79744100
_cell_length_b   9.40263762
_cell_length_c   9.37981126
_cell_angle_alpha   120.33436985
_cell_angle_beta   90.00000000
_cell_angle_gamma   90.00000000
_symmetry_Int_Tables_number   1
_chemical_formula_structural   Y2FeCo9As7Ru2
_chemical_formula_sum   'Y2 Fe1 Co9 As7 Ru2'
_cell_volume   289.06286303
_cell_formula_units_Z   1
loop_
 _symmetry_equiv_pos_site_id
 _symmetry_equiv_pos_as_xyz
  1  'x, y, z'
loop_
 _atom_site_type_symbol
 _atom_site_label
 _atom_site_symmetry_multiplicity
 _atom_site_fract_x
 _atom_site_fract_y
 _atom_site_fract_z
 _atom_site_occupancy
  Y  Y0  1  0.000000  0.668693  0.336789  1
  Y  Y1  1  0.500000  0.335255  0.666569  1
  Fe  Fe2  1  0.500000  0.101635  0.880334  1
  Co  Co3  1  0.000000  0.568365  0.941740  1
  Co  Co4  1  0.000000  0.370795  0.429619  1
  Co  Co5  1  0.000000  0.059146  0.626571  1
  Co  Co6  1  0.000000  0.876057  0.157573  1
  Co  Co7  1  0.000000  0.279106  0.121815  1
  Co  Co8  1  0.000000  0.841384  0.719210  1
  Co  Co9  1  0.500000  0.946840  0.381131  1
  Co  Co10  1  0.500000  0.431796  0.050579  1
  Co  Co11  1  0.500000  0.617499  0.564561  1
  As  As12  1  0.000000  0.999734  0.998813  1
  As  As13  1  0.500000  0.705769  0.117114  1
  As  As14  1  0.500000  0.409518  0.291272  1
  As  As15  1  0.500000  0.888277  0.596444  1
  As  As16  1  0.000000  0.588810  0.702765  1
  As  As17  1  0.000000  0.113323  0.412058  1
  As  As18  1  0.000000  0.296499  0.884592  1
  Ru  Ru19  1  0.500000  0.781276  0.902441  1
  Ru  Ru20  1  0.500000  0.120222  0.218014  1
