# generated using pymatgen
data_K6Li4TiSiP6
_symmetry_space_group_name_H-M   'P 1'
_cell_length_a   9.72901975
_cell_length_b   9.72901780
_cell_length_c   14.75331500
_cell_angle_alpha   90.00000000
_cell_angle_beta   90.00000000
_cell_angle_gamma   142.72690973
_symmetry_Int_Tables_number   1
_chemical_formula_structural   K6Li4TiSiP6
_chemical_formula_sum   'K12 Li8 Ti2 Si2 P12'
_cell_volume   845.71518141
_cell_formula_units_Z   2
loop_
 _symmetry_equiv_pos_site_id
 _symmetry_equiv_pos_as_xyz
  1  'x, y, z'
loop_
 _atom_site_type_symbol
 _atom_site_label
 _atom_site_symmetry_multiplicity
 _atom_site_fract_x
 _atom_site_fract_y
 _atom_site_fract_z
 _atom_site_occupancy
  K  K0  1  0.106392  0.448632  0.671965  1
  K  K1  1  0.718020  0.716172  0.679766  1
  K  K2  1  0.216172  0.218020  0.820234  1
  K  K3  1  0.781980  0.783828  0.179766  1
  K  K4  1  0.948632  0.606392  0.828035  1
  K  K5  1  0.551368  0.893608  0.328035  1
  K  K6  1  0.393608  0.051368  0.171965  1
  K  K7  1  0.056997  0.395029  0.170312  1
  K  K8  1  0.895029  0.556997  0.329688  1
  K  K9  1  0.443003  0.104971  0.670312  1
  K  K10  1  0.604971  0.943004  0.829688  1
  K  K11  1  0.283828  0.281980  0.320234  1
  Li  Li12  1  0.916777  0.083223  0.000000  1
  Li  Li13  1  0.583223  0.416777  0.500000  1
  Li  Li14  1  0.081282  0.918718  0.000000  1
  Li  Li15  1  0.418718  0.581282  0.500000  1
  Li  Li16  1  0.752158  0.247842  0.000000  1
  Li  Li17  1  0.747842  0.252158  0.500000  1
  Li  Li18  1  0.249409  0.750591  0.000000  1
  Li  Li19  1  0.250591  0.749409  0.500000  1
  Ti  Ti20  1  0.916662  0.083338  0.500000  1
  Ti  Ti21  1  0.583338  0.416662  0.000000  1
  Si  Si22  1  0.085358  0.914642  0.500000  1
  Si  Si23  1  0.414642  0.585358  0.000000  1
  P  P24  1  0.883905  0.565355  0.090251  1
  P  P25  1  0.434645  0.116095  0.909749  1
  P  P26  1  0.616095  0.934645  0.590251  1
  P  P27  1  0.937600  0.625310  0.588292  1
  P  P28  1  0.125310  0.437600  0.911708  1
  P  P29  1  0.562400  0.874690  0.088292  1
  P  P30  1  0.374690  0.062400  0.411708  1
  P  P31  1  0.217263  0.210292  0.585252  1
  P  P32  1  0.710292  0.717263  0.914748  1
  P  P33  1  0.282737  0.289708  0.085252  1
  P  P34  1  0.065355  0.383905  0.409749  1
  P  P35  1  0.789708  0.782737  0.414748  1
