# generated using pymatgen
data_Dy3MgSc2Ir3
_symmetry_space_group_name_H-M   'P 1'
_cell_length_a   7.27762647
_cell_length_b   7.32013810
_cell_length_c   4.22939100
_cell_angle_alpha   90.00000000
_cell_angle_beta   90.00000000
_cell_angle_gamma   120.19342955
_symmetry_Int_Tables_number   1
_chemical_formula_structural   Dy3MgSc2Ir3
_chemical_formula_sum   'Dy3 Mg1 Sc2 Ir3'
_cell_volume   194.74562312
_cell_formula_units_Z   1
loop_
 _symmetry_equiv_pos_site_id
 _symmetry_equiv_pos_as_xyz
  1  'x, y, z'
loop_
 _atom_site_type_symbol
 _atom_site_label
 _atom_site_symmetry_multiplicity
 _atom_site_fract_x
 _atom_site_fract_y
 _atom_site_fract_z
 _atom_site_occupancy
  Dy  Dy0  1  0.403760  0.993426  0.500001  1
  Dy  Dy1  1  0.000000  0.421554  0.500001  1
  Dy  Dy2  1  0.596240  0.589666  0.500001  1
  Mg  Mg3  1  0.000000  0.750938  0.000000  1
  Sc  Sc4  1  0.750391  0.998703  0.000000  1
  Sc  Sc5  1  0.249609  0.248314  0.000000  1
  Ir  Ir6  1  0.658188  0.318363  0.000000  1
  Ir  Ir7  1  0.341813  0.660176  0.000000  1
  Ir  Ir8  1  0.000000  0.018859  0.500001  1
