# generated using pymatgen
data_DyHo2MgFeSb3O14
_symmetry_space_group_name_H-M   'P 1'
_cell_length_a   7.18808623
_cell_length_b   7.18901382
_cell_length_c   7.18903500
_cell_angle_alpha   118.21043670
_cell_angle_beta   61.80888716
_cell_angle_gamma   118.19106546
_symmetry_Int_Tables_number   1
_chemical_formula_structural   DyHo2MgFeSb3O14
_chemical_formula_sum   'Dy1 Ho2 Mg1 Fe1 Sb3 O14'
_cell_volume   273.29248512
_cell_formula_units_Z   1
loop_
 _symmetry_equiv_pos_site_id
 _symmetry_equiv_pos_as_xyz
  1  'x, y, z'
loop_
 _atom_site_type_symbol
 _atom_site_label
 _atom_site_symmetry_multiplicity
 _atom_site_fract_x
 _atom_site_fract_y
 _atom_site_fract_z
 _atom_site_occupancy
  Dy  Dy0  1  0.000015  0.500010  0.999997  1
  Ho  Ho1  1  0.499979  0.999959  0.999974  1
  Ho  Ho2  1  0.499993  0.500048  0.500030  1
  Mg  Mg3  1  0.999977  0.999959  0.500005  1
  Fe  Fe4  1  0.500165  0.500120  0.999954  1
  Sb  Sb5  1  0.499983  0.999993  0.500020  1
  Sb  Sb6  1  0.999997  0.499990  0.500003  1
  Sb  Sb7  1  0.000014  0.999983  0.000005  1
  O  O8  1  0.615312  0.380327  0.118502  1
  O  O9  1  0.384727  0.619671  0.881498  1
  O  O10  1  0.082569  0.326915  0.172777  1
  O  O11  1  0.674163  0.923042  0.174290  1
  O  O12  1  0.673226  0.326400  0.580339  1
  O  O13  1  0.917406  0.673081  0.827228  1
  O  O14  1  0.325768  0.076841  0.825662  1
  O  O15  1  0.326730  0.673628  0.419744  1
  O  O16  1  0.652961  0.908307  0.591121  1
  O  O17  1  0.092254  0.347957  0.591492  1
  O  O18  1  0.091621  0.908575  0.152741  1
  O  O19  1  0.347075  0.091723  0.408837  1
  O  O20  1  0.907727  0.652056  0.408517  1
  O  O21  1  0.908343  0.091420  0.847264  1
