# generated using pymatgen
data_Nd3DyRe4F28
_symmetry_space_group_name_H-M   'P 1'
_cell_length_a   5.73526039
_cell_length_b   9.13819224
_cell_length_c   12.29384056
_cell_angle_alpha   62.34584169
_cell_angle_beta   89.92623486
_cell_angle_gamma   89.99295557
_symmetry_Int_Tables_number   1
_chemical_formula_structural   Nd3DyRe4F28
_chemical_formula_sum   'Nd3 Dy1 Re4 F28'
_cell_volume   570.71492022
_cell_formula_units_Z   1
loop_
 _symmetry_equiv_pos_site_id
 _symmetry_equiv_pos_as_xyz
  1  'x, y, z'
loop_
 _atom_site_type_symbol
 _atom_site_label
 _atom_site_symmetry_multiplicity
 _atom_site_fract_x
 _atom_site_fract_y
 _atom_site_fract_z
 _atom_site_occupancy
  Nd  Nd0  1  0.757887  0.809909  0.765500  1
  Nd  Nd1  1  0.258039  0.188850  0.734479  1
  Nd  Nd2  1  0.241898  0.184442  0.235005  1
  Dy  Dy3  1  0.741163  0.810710  0.264893  1
  Re  Re4  1  0.755745  0.269894  0.958800  1
  Re  Re5  1  0.256983  0.727731  0.539508  1
  Re  Re6  1  0.242646  0.727659  0.046688  1
  Re  Re7  1  0.743358  0.276776  0.455064  1
  F  F8  1  0.442780  0.707761  0.922839  1
  F  F9  1  0.942931  0.294688  0.579500  1
  F  F10  1  0.555446  0.291563  0.081600  1
  F  F11  1  0.051260  0.709418  0.416873  1
  F  F12  1  0.454691  0.282558  0.542456  1
  F  F13  1  0.957658  0.719659  0.957739  1
  F  F14  1  0.546453  0.722545  0.450445  1
  F  F15  1  0.044708  0.278848  0.044614  1
  F  F16  1  0.769207  0.513841  0.861388  1
  F  F17  1  0.270610  0.484751  0.637856  1
  F  F18  1  0.230530  0.483645  0.141270  1
  F  F19  1  0.731299  0.522109  0.358708  1
  F  F20  1  0.757458  0.025945  0.055327  1
  F  F21  1  0.256651  0.971657  0.447095  1
  F  F22  1  0.242337  0.971121  0.950126  1
  F  F23  1  0.742651  0.032979  0.550101  1
  F  F24  1  0.980659  0.728393  0.635871  1
  F  F25  1  0.477736  0.270791  0.863580  1
  F  F26  1  0.021575  0.272134  0.361304  1
  F  F27  1  0.521441  0.731287  0.141707  1
  F  F28  1  0.041163  0.747632  0.171760  1
  F  F29  1  0.549018  0.256819  0.329134  1
  F  F30  1  0.949424  0.254291  0.830933  1
  F  F31  1  0.451129  0.744637  0.667099  1
  F  F32  1  0.427717  0.964314  0.233002  1
  F  F33  1  0.913397  0.021299  0.267731  1
  F  F34  1  0.586834  0.031460  0.768824  1
  F  F35  1  0.085519  0.967887  0.731179  1
