# generated using pymatgen
data_Tb5Hf2Zr(Co4As3)4
_symmetry_space_group_name_H-M   'P 1'
_cell_length_a   12.72274929
_cell_length_b   12.72748323
_cell_length_c   3.83286000
_cell_angle_alpha   90.00000000
_cell_angle_beta   90.00000000
_cell_angle_gamma   120.01231954
_symmetry_Int_Tables_number   1
_chemical_formula_structural   Tb5Hf2Zr(Co4As3)4
_chemical_formula_sum   'Tb5 Hf2 Zr1 Co16 As12'
_cell_volume   537.43155743
_cell_formula_units_Z   1
loop_
 _symmetry_equiv_pos_site_id
 _symmetry_equiv_pos_as_xyz
  1  'x, y, z'
loop_
 _atom_site_type_symbol
 _atom_site_label
 _atom_site_symmetry_multiplicity
 _atom_site_fract_x
 _atom_site_fract_y
 _atom_site_fract_z
 _atom_site_occupancy
  Tb  Tb0  1  0.183519  0.183422  0.500000  1
  Tb  Tb1  1  0.816481  0.999903  0.500000  1
  Tb  Tb2  1  0.000000  0.817012  0.500000  1
  Tb  Tb3  1  0.333363  0.666687  0.000000  1
  Tb  Tb4  1  0.666637  0.333323  0.000000  1
  Hf  Hf5  1  0.562203  0.562325  0.000000  1
  Hf  Hf6  1  0.437797  0.000122  0.000000  1
  Zr  Zr7  1  0.000000  0.438488  0.000000  1
  Co  Co8  1  0.718679  0.718617  0.500000  1
  Co  Co9  1  0.281321  0.999938  0.500000  1
  Co  Co10  1  0.000000  0.280081  0.500000  1
  Co  Co11  1  0.178295  0.374005  0.000000  1
  Co  Co12  1  0.625514  0.802853  0.000000  1
  Co  Co13  1  0.197297  0.823002  0.000000  1
  Co  Co14  1  0.802703  0.625705  0.000000  1
  Co  Co15  1  0.821705  0.195709  0.000000  1
  Co  Co16  1  0.374486  0.177339  0.000000  1
  Co  Co17  1  0.358842  0.480513  0.500000  1
  Co  Co18  1  0.519597  0.877829  0.500000  1
  Co  Co19  1  0.122623  0.643086  0.500000  1
  Co  Co20  1  0.877377  0.520462  0.500000  1
  Co  Co21  1  0.641158  0.121671  0.500000  1
  Co  Co22  1  0.480403  0.358231  0.500000  1
  Co  Co23  1  0.000000  0.000027  0.000000  1
  As  As24  1  0.822345  0.822511  0.000000  1
  As  As25  1  0.177655  0.000167  0.000000  1
  As  As26  1  0.000000  0.177564  0.000000  1
  As  As27  1  0.173632  0.481392  0.500000  1
  As  As28  1  0.518349  0.691281  0.500000  1
  As  As29  1  0.309093  0.827277  0.500000  1
  As  As30  1  0.690907  0.518183  0.500000  1
  As  As31  1  0.826368  0.307758  0.500000  1
  As  As32  1  0.481651  0.172931  0.500000  1
  As  As33  1  0.353829  0.353409  0.000000  1
  As  As34  1  0.646171  0.999581  0.000000  1
  As  As35  1  0.000000  0.647594  0.000000  1
