# generated using pymatgen
data_NdTh3(Ge2Ir)4
_symmetry_space_group_name_H-M   'P 1'
_cell_length_a   9.61318303
_cell_length_b   9.61318337
_cell_length_c   9.61318244
_cell_angle_alpha   153.29555615
_cell_angle_beta   124.53944823
_cell_angle_gamma   62.59288928
_symmetry_Int_Tables_number   1
_chemical_formula_structural   NdTh3(Ge2Ir)4
_chemical_formula_sum   'Nd1 Th3 Ge8 Ir4'
_cell_volume   326.29033907
_cell_formula_units_Z   1
loop_
 _symmetry_equiv_pos_site_id
 _symmetry_equiv_pos_as_xyz
  1  'x, y, z'
loop_
 _atom_site_type_symbol
 _atom_site_label
 _atom_site_symmetry_multiplicity
 _atom_site_fract_x
 _atom_site_fract_y
 _atom_site_fract_z
 _atom_site_occupancy
  Nd  Nd0  1  0.265784  0.000000  0.265784  1
  Th  Th1  1  0.706910  0.207094  0.499816  1
  Th  Th2  1  0.292722  0.792906  0.499816  1
  Th  Th3  1  0.731355  0.000000  0.731355  1
  Ge  Ge4  1  0.422223  0.423747  0.998476  1
  Ge  Ge5  1  0.574730  0.576253  0.998476  1
  Ge  Ge6  1  0.925056  0.422800  0.502256  1
  Ge  Ge7  1  0.079456  0.577200  0.502256  1
  Ge  Ge8  1  0.042263  0.196862  0.845402  1
  Ge  Ge9  1  0.957567  0.802242  0.155324  1
  Ge  Ge10  1  0.648540  0.803138  0.845402  1
  Ge  Ge11  1  0.353083  0.197758  0.155324  1
  Ir  Ir12  1  0.097285  0.350008  0.747277  1
  Ir  Ir13  1  0.899070  0.646191  0.252879  1
  Ir  Ir14  1  0.397268  0.649992  0.747277  1
  Ir  Ir15  1  0.606689  0.353809  0.252879  1
