# generated using pymatgen
data_CeHf(SnRh)2
_symmetry_space_group_name_H-M   'P 1'
_cell_length_a   7.43394600
_cell_length_b   7.43394679
_cell_length_c   7.77251000
_cell_angle_alpha   90.00000000
_cell_angle_beta   90.00000000
_cell_angle_gamma   120.00000419
_symmetry_Int_Tables_number   1
_chemical_formula_structural   CeHf(SnRh)2
_chemical_formula_sum   'Ce3 Hf3 Sn6 Rh6'
_cell_volume   371.98956151
_cell_formula_units_Z   3
loop_
 _symmetry_equiv_pos_site_id
 _symmetry_equiv_pos_as_xyz
  1  'x, y, z'
loop_
 _atom_site_type_symbol
 _atom_site_label
 _atom_site_symmetry_multiplicity
 _atom_site_fract_x
 _atom_site_fract_y
 _atom_site_fract_z
 _atom_site_occupancy
  Ce  Ce0  1  0.999654  0.407595  0.750000  1
  Ce  Ce1  1  0.592405  0.592059  0.750000  1
  Ce  Ce2  1  0.407941  0.000346  0.750000  1
  Hf  Hf3  1  0.999190  0.393780  0.250000  1
  Hf  Hf4  1  0.606220  0.605410  0.250000  1
  Hf  Hf5  1  0.394590  0.000810  0.250000  1
  Sn  Sn6  1  0.263485  0.264112  0.487737  1
  Sn  Sn7  1  0.000627  0.736515  0.487737  1
  Sn  Sn8  1  0.000627  0.736515  0.012263  1
  Sn  Sn9  1  0.735888  0.999373  0.487737  1
  Sn  Sn10  1  0.735888  0.999373  0.012263  1
  Sn  Sn11  1  0.263485  0.264112  0.012263  1
  Rh  Rh12  1  0.333333  0.666667  0.457492  1
  Rh  Rh13  1  0.666667  0.333333  0.459271  1
  Rh  Rh14  1  0.333333  0.666667  0.042508  1
  Rh  Rh15  1  0.000000  0.000000  0.750000  1
  Rh  Rh16  1  0.000000  0.000000  0.250000  1
  Rh  Rh17  1  0.666667  0.333333  0.040729  1
