# generated using pymatgen
data_Dy4Tm2TaCo17P12
_symmetry_space_group_name_H-M   'P 1'
_cell_length_a   3.69210400
_cell_length_b   10.53557300
_cell_length_c   12.23250100
_cell_angle_alpha   90.00000000
_cell_angle_beta   90.00000000
_cell_angle_gamma   90.00000000
_symmetry_Int_Tables_number   1
_chemical_formula_structural   Dy4Tm2TaCo17P12
_chemical_formula_sum   'Dy4 Tm2 Ta1 Co17 P12'
_cell_volume   475.82509874
_cell_formula_units_Z   1
loop_
 _symmetry_equiv_pos_site_id
 _symmetry_equiv_pos_as_xyz
  1  'x, y, z'
loop_
 _atom_site_type_symbol
 _atom_site_label
 _atom_site_symmetry_multiplicity
 _atom_site_fract_x
 _atom_site_fract_y
 _atom_site_fract_z
 _atom_site_occupancy
  Dy  Dy0  1  0.000000  0.500000  0.526946  1
  Dy  Dy1  1  0.500000  0.000000  0.477162  1
  Dy  Dy2  1  0.000000  0.683020  0.796310  1
  Dy  Dy3  1  0.000000  0.316980  0.796310  1
  Tm  Tm4  1  0.500000  0.820294  0.206880  1
  Tm  Tm5  1  0.500000  0.179706  0.206880  1
  Ta  Ta6  1  0.500000  0.500000  0.154363  1
  Co  Co7  1  0.000000  0.000000  0.838751  1
  Co  Co8  1  0.500000  0.500000  0.702237  1
  Co  Co9  1  0.000000  0.000000  0.295739  1
  Co  Co10  1  0.000000  0.500000  0.986109  1
  Co  Co11  1  0.500000  0.000000  0.015545  1
  Co  Co12  1  0.500000  0.329676  0.990949  1
  Co  Co13  1  0.500000  0.670324  0.990949  1
  Co  Co14  1  0.000000  0.163501  0.004736  1
  Co  Co15  1  0.000000  0.836499  0.004736  1
  Co  Co16  1  0.500000  0.294898  0.431673  1
  Co  Co17  1  0.500000  0.705102  0.431673  1
  Co  Co18  1  0.000000  0.202061  0.569204  1
  Co  Co19  1  0.000000  0.797939  0.569204  1
  Co  Co20  1  0.500000  0.879821  0.708291  1
  Co  Co21  1  0.500000  0.120179  0.708291  1
  Co  Co22  1  0.000000  0.623215  0.292262  1
  Co  Co23  1  0.000000  0.376785  0.292262  1
  P  P24  1  0.500000  0.500000  0.881355  1
  P  P25  1  0.000000  0.000000  0.118041  1
  P  P26  1  0.500000  0.500000  0.356131  1
  P  P27  1  0.000000  0.000000  0.655506  1
  P  P28  1  0.500000  0.309463  0.616866  1
  P  P29  1  0.500000  0.690537  0.616866  1
  P  P30  1  0.000000  0.187982  0.384301  1
  P  P31  1  0.000000  0.812018  0.384301  1
  P  P32  1  0.500000  0.851685  0.890366  1
  P  P33  1  0.500000  0.148315  0.890366  1
  P  P34  1  0.000000  0.662078  0.104220  1
  P  P35  1  0.000000  0.337922  0.104220  1
