# generated using pymatgen
data_DyYRe4(BC)2
_symmetry_space_group_name_H-M   'P 1'
_cell_length_a   5.77607000
_cell_length_b   5.77606989
_cell_length_c   7.26490700
_cell_angle_alpha   90.00000000
_cell_angle_beta   90.00000000
_cell_angle_gamma   145.17493482
_symmetry_Int_Tables_number   1
_chemical_formula_structural   DyYRe4(BC)2
_chemical_formula_sum   'Dy1 Y1 Re4 B2 C2'
_cell_volume   138.41602628
_cell_formula_units_Z   1
loop_
 _symmetry_equiv_pos_site_id
 _symmetry_equiv_pos_as_xyz
  1  'x, y, z'
loop_
 _atom_site_type_symbol
 _atom_site_label
 _atom_site_symmetry_multiplicity
 _atom_site_fract_x
 _atom_site_fract_y
 _atom_site_fract_z
 _atom_site_occupancy
  Dy  Dy0  1  0.544672  0.455328  0.250000  1
  Y  Y1  1  0.455290  0.544710  0.750000  1
  Re  Re2  1  0.827085  0.172915  0.066751  1
  Re  Re3  1  0.172917  0.827083  0.933389  1
  Re  Re4  1  0.172917  0.827083  0.566611  1
  Re  Re5  1  0.827085  0.172915  0.433249  1
  B  B6  1  0.261392  0.738608  0.250000  1
  B  B7  1  0.738540  0.261460  0.750000  1
  C  C8  1  0.000051  0.999949  0.000227  1
  C  C9  1  0.000051  0.999949  0.499773  1
