# generated using pymatgen
data_YbHo2Tm(Al8Pt3)3
_symmetry_space_group_name_H-M   'P 1'
_cell_length_a   7.52057251
_cell_length_b   7.54367782
_cell_length_c   13.18138878
_cell_angle_alpha   84.59032307
_cell_angle_beta   79.10262955
_cell_angle_gamma   59.90920751
_symmetry_Int_Tables_number   1
_chemical_formula_structural   YbHo2Tm(Al8Pt3)3
_chemical_formula_sum   'Yb1 Ho2 Tm1 Al24 Pt9'
_cell_volume   635.36716467
_cell_formula_units_Z   1
loop_
 _symmetry_equiv_pos_site_id
 _symmetry_equiv_pos_as_xyz
  1  'x, y, z'
loop_
 _atom_site_type_symbol
 _atom_site_label
 _atom_site_symmetry_multiplicity
 _atom_site_fract_x
 _atom_site_fract_y
 _atom_site_fract_z
 _atom_site_occupancy
  Yb  Yb0  1  0.734174  0.498607  0.807447  1
  Ho  Ho1  1  0.393639  0.168657  0.807819  1
  Ho  Ho2  1  0.606383  0.831109  0.192134  1
  Tm  Tm3  1  0.266394  0.501236  0.192671  1
  Al  Al4  1  0.684073  0.833817  0.944683  1
  Al  Al5  1  0.315589  0.166668  0.056455  1
  Al  Al6  1  0.146843  0.832289  0.561026  1
  Al  Al7  1  0.853358  0.167914  0.438207  1
  Al  Al8  1  0.480227  0.166351  0.558406  1
  Al  Al9  1  0.520418  0.833299  0.440769  1
  Al  Al10  1  0.217241  0.165433  0.328776  1
  Al  Al11  1  0.782793  0.834044  0.670590  1
  Al  Al12  1  0.437595  0.506814  0.670653  1
  Al  Al13  1  0.563103  0.493401  0.328531  1
  Al  Al14  1  0.108793  0.160850  0.669204  1
  Al  Al15  1  0.890847  0.839510  0.330223  1
  Al  Al16  1  0.352831  0.499335  0.945034  1
  Al  Al17  1  0.646694  0.500544  0.055426  1
  Al  Al18  1  0.015651  0.167928  0.953697  1
  Al  Al19  1  0.984377  0.831422  0.047480  1
  Al  Al20  1  0.186457  0.499440  0.440757  1
  Al  Al21  1  0.813583  0.500395  0.558881  1
  Al  Al22  1  0.732693  0.165160  0.183475  1
  Al  Al23  1  0.264801  0.838029  0.816932  1
  Al  Al24  1  0.063851  0.630215  0.815923  1
  Al  Al25  1  0.938730  0.369380  0.184561  1
  Al  Al26  1  0.853932  0.040454  0.816510  1
  Al  Al27  1  0.144989  0.957842  0.183851  1
  Pt  Pt28  1  0.120579  0.492043  0.638310  1
  Pt  Pt29  1  0.880352  0.508290  0.361045  1
  Pt  Pt30  1  0.657065  0.171065  0.000513  1
  Pt  Pt31  1  0.342427  0.828752  0.000736  1
  Pt  Pt32  1  0.537412  0.166955  0.360938  1
  Pt  Pt33  1  0.461898  0.833371  0.638244  1
  Pt  Pt34  1  0.778882  0.174555  0.637002  1
  Pt  Pt35  1  0.221438  0.824684  0.362403  1
  Pt  Pt36  1  0.999886  0.500143  0.000687  1
