# generated using pymatgen
data_Er6CoNi13B4
_symmetry_space_group_name_H-M   'P 1'
_cell_length_a   5.02772000
_cell_length_b   5.02771967
_cell_length_c   14.32939311
_cell_angle_alpha   90.07691463
_cell_angle_beta   89.92308466
_cell_angle_gamma   120.23768036
_symmetry_Int_Tables_number   1
_chemical_formula_structural   Er6CoNi13B4
_chemical_formula_sum   'Er6 Co1 Ni13 B4'
_cell_volume   312.93555506
_cell_formula_units_Z   1
loop_
 _symmetry_equiv_pos_site_id
 _symmetry_equiv_pos_as_xyz
  1  'x, y, z'
loop_
 _atom_site_type_symbol
 _atom_site_label
 _atom_site_symmetry_multiplicity
 _atom_site_fract_x
 _atom_site_fract_y
 _atom_site_fract_z
 _atom_site_occupancy
  Er  Er0  1  0.333026  0.666974  0.465261  1
  Er  Er1  1  0.666394  0.333606  0.967682  1
  Er  Er2  1  0.666519  0.333481  0.530505  1
  Er  Er3  1  0.333733  0.666267  0.033621  1
  Er  Er4  1  0.666215  0.333785  0.749208  1
  Er  Er5  1  0.333758  0.666242  0.250772  1
  Co  Co6  1  0.836095  0.163905  0.350265  1
  Ni  Ni7  1  0.835337  0.667608  0.352244  1
  Ni  Ni8  1  0.000198  0.999802  0.999817  1
  Ni  Ni9  1  0.997906  0.002094  0.500361  1
  Ni  Ni10  1  0.834060  0.667765  0.149061  1
  Ni  Ni11  1  0.165400  0.834600  0.648359  1
  Ni  Ni12  1  0.668793  0.834923  0.648508  1
  Ni  Ni13  1  0.332235  0.165940  0.149061  1
  Ni  Ni14  1  0.834223  0.165777  0.148432  1
  Ni  Ni15  1  0.164817  0.331436  0.851086  1
  Ni  Ni16  1  0.165196  0.834804  0.851008  1
  Ni  Ni17  1  0.165077  0.331207  0.648508  1
  Ni  Ni18  1  0.668564  0.835183  0.851086  1
  Ni  Ni19  1  0.332392  0.164663  0.352244  1
  B  B20  1  0.669893  0.330107  0.251867  1
  B  B21  1  0.332934  0.667066  0.749703  1
  B  B22  1  0.000179  0.999821  0.749790  1
  B  B23  1  0.997056  0.002944  0.251551  1
