# generated using pymatgen
data_Tb3YAl18(CoNi)3
_symmetry_space_group_name_H-M   'P 1'
_cell_length_a   7.42304730
_cell_length_b   7.42307712
_cell_length_c   9.29175816
_cell_angle_alpha   89.98742977
_cell_angle_beta   89.99126799
_cell_angle_gamma   119.44396757
_symmetry_Int_Tables_number   1
_chemical_formula_structural   Tb3YAl18(CoNi)3
_chemical_formula_sum   'Tb3 Y1 Al18 Co3 Ni3'
_cell_volume   445.86241522
_cell_formula_units_Z   1
loop_
 _symmetry_equiv_pos_site_id
 _symmetry_equiv_pos_as_xyz
  1  'x, y, z'
loop_
 _atom_site_type_symbol
 _atom_site_label
 _atom_site_symmetry_multiplicity
 _atom_site_fract_x
 _atom_site_fract_y
 _atom_site_fract_z
 _atom_site_occupancy
  Tb  Tb0  1  0.993321  0.671453  0.250204  1
  Tb  Tb1  1  0.006183  0.328117  0.749914  1
  Tb  Tb2  1  0.671893  0.993874  0.250079  1
  Y  Y3  1  0.328457  0.006611  0.749762  1
  Al  Al4  1  0.127381  0.126509  0.250463  1
  Al  Al5  1  0.873674  0.872823  0.749485  1
  Al  Al6  1  0.334180  0.334149  0.543436  1
  Al  Al7  1  0.665163  0.667836  0.044876  1
  Al  Al8  1  0.332073  0.334602  0.955107  1
  Al  Al9  1  0.665828  0.665949  0.456623  1
  Al  Al10  1  0.339629  0.554269  0.250276  1
  Al  Al11  1  0.660919  0.447257  0.747093  1
  Al  Al12  1  0.552514  0.338992  0.252968  1
  Al  Al13  1  0.445738  0.660444  0.749705  1
  Al  Al14  1  0.000334  0.337456  0.072658  1
  Al  Al15  1  0.002702  0.662498  0.571162  1
  Al  Al16  1  0.337689  0.997391  0.428957  1
  Al  Al17  1  0.662424  0.999645  0.927286  1
  Al  Al18  1  0.005128  0.665868  0.927408  1
  Al  Al19  1  0.997597  0.337424  0.428503  1
  Al  Al20  1  0.662519  0.002471  0.571571  1
  Al  Al21  1  0.334231  0.994814  0.072464  1
  Co  Co22  1  0.329172  0.670850  0.500080  1
  Co  Co23  1  0.329142  0.670763  0.999879  1
  Co  Co24  1  0.671126  0.328917  0.500086  1
  Ni  Ni25  1  0.999875  0.000081  0.999966  1
  Ni  Ni26  1  0.000177  0.999912  0.500021  1
  Ni  Ni27  1  0.670929  0.329024  0.999970  1
