# generated using pymatgen
data_Rb3Nd(PO4)2
_symmetry_space_group_name_H-M   'P 1'
_cell_length_a   5.87169800
_cell_length_b   5.87169659
_cell_length_c   8.18423300
_cell_angle_alpha   90.00000000
_cell_angle_beta   90.00000000
_cell_angle_gamma   120.00000796
_symmetry_Int_Tables_number   1
_chemical_formula_structural   Rb3Nd(PO4)2
_chemical_formula_sum   'Rb3 Nd1 P2 O8'
_cell_volume   244.36325308
_cell_formula_units_Z   1
loop_
 _symmetry_equiv_pos_site_id
 _symmetry_equiv_pos_as_xyz
  1  'x, y, z'
loop_
 _atom_site_type_symbol
 _atom_site_label
 _atom_site_symmetry_multiplicity
 _atom_site_fract_x
 _atom_site_fract_y
 _atom_site_fract_z
 _atom_site_occupancy
  Rb  Rb0  1  0.333333  0.666667  0.743134  1
  Rb  Rb1  1  0.666667  0.333333  0.256866  1
  Rb  Rb2  1  0.000000  0.000000  0.000000  1
  Nd  Nd3  1  0.000000  0.000000  0.500000  1
  P  P4  1  0.333333  0.666667  0.263913  1
  P  P5  1  0.666667  0.333333  0.736087  1
  O  O6  1  0.333333  0.666667  0.077747  1
  O  O7  1  0.666667  0.333333  0.922253  1
  O  O8  1  0.188766  0.811234  0.332085  1
  O  O9  1  0.811234  0.188766  0.667915  1
  O  O10  1  0.188766  0.377532  0.332085  1
  O  O11  1  0.811234  0.622468  0.667915  1
  O  O12  1  0.622468  0.811234  0.332085  1
  O  O13  1  0.377532  0.188766  0.667915  1
