# generated using pymatgen
data_Sm2Er3ReRuO12
_symmetry_space_group_name_H-M   'P 1'
_cell_length_a   6.86160587
_cell_length_b   6.86160665
_cell_length_c   7.53408803
_cell_angle_alpha   74.12697060
_cell_angle_beta   74.12696769
_cell_angle_gamma   49.04540599
_symmetry_Int_Tables_number   1
_chemical_formula_structural   Sm2Er3ReRuO12
_chemical_formula_sum   'Sm2 Er3 Re1 Ru1 O12'
_cell_volume   255.50086352
_cell_formula_units_Z   1
loop_
 _symmetry_equiv_pos_site_id
 _symmetry_equiv_pos_as_xyz
  1  'x, y, z'
loop_
 _atom_site_type_symbol
 _atom_site_label
 _atom_site_symmetry_multiplicity
 _atom_site_fract_x
 _atom_site_fract_y
 _atom_site_fract_z
 _atom_site_occupancy
  Sm  Sm0  1  0.710218  0.681655  0.645091  1
  Sm  Sm1  1  0.318345  0.289782  0.354909  1
  Er  Er2  1  0.690173  0.680942  0.171341  1
  Er  Er3  1  0.319058  0.309827  0.828659  1
  Er  Er4  1  0.007828  0.992172  0.500000  1
  Re  Re5  1  0.203084  0.796916  0.000000  1
  Ru  Ru6  1  0.770492  0.229508  0.000000  1
  O  O7  1  0.003475  0.996606  0.204206  1
  O  O8  1  0.003394  0.996525  0.795794  1
  O  O9  1  0.571049  0.082325  0.078347  1
  O  O10  1  0.402080  0.914422  0.918487  1
  O  O11  1  0.917675  0.428951  0.921653  1
  O  O12  1  0.085578  0.597920  0.081513  1
  O  O13  1  0.488005  0.515274  0.171937  1
  O  O14  1  0.484726  0.511995  0.828063  1
  O  O15  1  0.406062  0.889976  0.425220  1
  O  O16  1  0.601436  0.092701  0.582639  1
  O  O17  1  0.110024  0.593938  0.574780  1
  O  O18  1  0.907299  0.398564  0.417361  1
