# generated using pymatgen
data_Ho4Er6InSb5
_symmetry_space_group_name_H-M   'P 1'
_cell_length_a   8.91383076
_cell_length_b   8.90862407
_cell_length_c   6.33882800
_cell_angle_alpha   90.00000000
_cell_angle_beta   90.00000000
_cell_angle_gamma   119.91431779
_symmetry_Int_Tables_number   1
_chemical_formula_structural   Ho4Er6InSb5
_chemical_formula_sum   'Ho4 Er6 In1 Sb5'
_cell_volume   436.30373896
_cell_formula_units_Z   1
loop_
 _symmetry_equiv_pos_site_id
 _symmetry_equiv_pos_as_xyz
  1  'x, y, z'
loop_
 _atom_site_type_symbol
 _atom_site_label
 _atom_site_symmetry_multiplicity
 _atom_site_fract_x
 _atom_site_fract_y
 _atom_site_fract_z
 _atom_site_occupancy
  Ho  Ho0  1  0.753540  0.755827  0.250000  1
  Ho  Ho1  1  0.997607  0.244273  0.250000  1
  Ho  Ho2  1  0.246343  0.242078  0.750000  1
  Ho  Ho3  1  0.241925  0.999587  0.250000  1
  Er  Er4  1  0.333867  0.669000  0.000932  1
  Er  Er5  1  0.664652  0.330906  0.498651  1
  Er  Er6  1  0.664652  0.330906  0.001349  1
  Er  Er7  1  0.333867  0.669000  0.499068  1
  Er  Er8  1  0.756860  0.000009  0.750000  1
  Er  Er9  1  0.004389  0.759110  0.750000  1
  In  In10  1  0.394774  0.999043  0.750000  1
  Sb  Sb11  1  0.388638  0.389913  0.250000  1
  Sb  Sb12  1  0.997999  0.609255  0.250000  1
  Sb  Sb13  1  0.000369  0.390128  0.750000  1
  Sb  Sb14  1  0.612231  0.611145  0.750000  1
  Sb  Sb15  1  0.608289  0.999819  0.250000  1
