# generated using pymatgen
data_Pr2Y4IrRh17
_symmetry_space_group_name_H-M   'P 1'
_cell_length_a   5.31347707
_cell_length_b   5.31347678
_cell_length_c   17.52172630
_cell_angle_alpha   90.01840211
_cell_angle_beta   89.98159929
_cell_angle_gamma   119.92979106
_symmetry_Int_Tables_number   1
_chemical_formula_structural   Pr2Y4IrRh17
_chemical_formula_sum   'Pr2 Y4 Ir1 Rh17'
_cell_volume   428.71818781
_cell_formula_units_Z   1
loop_
 _symmetry_equiv_pos_site_id
 _symmetry_equiv_pos_as_xyz
  1  'x, y, z'
loop_
 _atom_site_type_symbol
 _atom_site_label
 _atom_site_symmetry_multiplicity
 _atom_site_fract_x
 _atom_site_fract_y
 _atom_site_fract_z
 _atom_site_occupancy
  Pr  Pr0  1  0.333334  0.666666  0.749965  1
  Pr  Pr1  1  0.666629  0.333371  0.250121  1
  Y  Y2  1  0.333261  0.666739  0.958550  1
  Y  Y3  1  0.666736  0.333264  0.041452  1
  Y  Y4  1  0.667075  0.332925  0.458547  1
  Y  Y5  1  0.333121  0.666879  0.541252  1
  Ir  Ir6  1  0.166761  0.833239  0.374575  1
  Rh  Rh7  1  0.166758  0.335096  0.374800  1
  Rh  Rh8  1  0.664904  0.833242  0.374800  1
  Rh  Rh9  1  0.832729  0.167271  0.625163  1
  Rh  Rh10  1  0.832680  0.665469  0.625214  1
  Rh  Rh11  1  0.334531  0.167320  0.625214  1
  Rh  Rh12  1  0.832801  0.167199  0.874905  1
  Rh  Rh13  1  0.832753  0.665554  0.874844  1
  Rh  Rh14  1  0.334446  0.167247  0.874844  1
  Rh  Rh15  1  0.167256  0.832744  0.124837  1
  Rh  Rh16  1  0.167102  0.334495  0.125191  1
  Rh  Rh17  1  0.665505  0.832898  0.125191  1
  Rh  Rh18  1  0.332812  0.667188  0.250081  1
  Rh  Rh19  1  0.666743  0.333257  0.750120  1
  Rh  Rh20  1  0.001152  0.998848  0.250219  1
  Rh  Rh21  1  0.999816  0.000184  0.749973  1
  Rh  Rh22  1  0.001086  0.998914  0.500090  1
  Rh  Rh23  1  0.000009  0.999991  0.000050  1
