# generated using pymatgen
data_Sr(Yb2Ag3)2
_symmetry_space_group_name_H-M   'P 1'
_cell_length_a   16.09887138
_cell_length_b   16.09887119
_cell_length_c   4.10244700
_cell_angle_alpha   90.00000000
_cell_angle_beta   90.00000000
_cell_angle_gamma   164.00066362
_symmetry_Int_Tables_number   1
_chemical_formula_structural   Sr(Yb2Ag3)2
_chemical_formula_sum   'Sr1 Yb4 Ag6'
_cell_volume   293.05853059
_cell_formula_units_Z   1
loop_
 _symmetry_equiv_pos_site_id
 _symmetry_equiv_pos_as_xyz
  1  'x, y, z'
loop_
 _atom_site_type_symbol
 _atom_site_label
 _atom_site_symmetry_multiplicity
 _atom_site_fract_x
 _atom_site_fract_y
 _atom_site_fract_z
 _atom_site_occupancy
  Sr  Sr0  1  0.000000  0.000000  0.000000  1
  Yb  Yb1  1  0.619910  0.380088  0.000000  1
  Yb  Yb2  1  0.380088  0.619910  0.000000  1
  Yb  Yb3  1  0.801053  0.198945  0.500001  1
  Yb  Yb4  1  0.198945  0.801053  0.500001  1
  Ag  Ag5  1  0.720228  0.279770  0.000000  1
  Ag  Ag6  1  0.279770  0.720228  0.000000  1
  Ag  Ag7  1  0.900827  0.099172  0.500001  1
  Ag  Ag8  1  0.544832  0.455166  0.500001  1
  Ag  Ag9  1  0.455166  0.544832  0.500001  1
  Ag  Ag10  1  0.099172  0.900827  0.500001  1
