# generated using pymatgen
data_Y3LuCo15P12Ru5
_symmetry_space_group_name_H-M   'P 1'
_cell_length_a   3.70235400
_cell_length_b   10.41282995
_cell_length_c   11.80352021
_cell_angle_alpha   89.77141137
_cell_angle_beta   90.00000000
_cell_angle_gamma   90.00000000
_symmetry_Int_Tables_number   1
_chemical_formula_structural   Y3LuCo15P12Ru5
_chemical_formula_sum   'Y3 Lu1 Co15 P12 Ru5'
_cell_volume   455.04548452
_cell_formula_units_Z   1
loop_
 _symmetry_equiv_pos_site_id
 _symmetry_equiv_pos_as_xyz
  1  'x, y, z'
loop_
 _atom_site_type_symbol
 _atom_site_label
 _atom_site_symmetry_multiplicity
 _atom_site_fract_x
 _atom_site_fract_y
 _atom_site_fract_z
 _atom_site_occupancy
  Y  Y0  1  0.250000  0.912766  0.205890  1
  Y  Y1  1  0.750000  0.414270  0.296114  1
  Y  Y2  1  0.250000  0.585769  0.703473  1
  Lu  Lu3  1  0.750000  0.085922  0.791969  1
  Co  Co4  1  0.750000  0.903104  0.012062  1
  Co  Co5  1  0.750000  0.591180  0.509991  1
  Co  Co6  1  0.250000  0.408842  0.489807  1
  Co  Co7  1  0.250000  0.277747  0.675745  1
  Co  Co8  1  0.750000  0.721460  0.323448  1
  Co  Co9  1  0.750000  0.777693  0.821863  1
  Co  Co10  1  0.250000  0.224510  0.180260  1
  Co  Co11  1  0.250000  0.613233  0.202256  1
  Co  Co12  1  0.750000  0.385173  0.797259  1
  Co  Co13  1  0.750000  0.112960  0.299132  1
  Co  Co14  1  0.250000  0.886254  0.701257  1
  Co  Co15  1  0.250000  0.035093  0.432080  1
  Co  Co16  1  0.750000  0.965523  0.570199  1
  Co  Co17  1  0.750000  0.536760  0.068412  1
  Co  Co18  1  0.250000  0.464393  0.930542  1
  P  P19  1  0.250000  0.079579  0.613260  1
  P  P20  1  0.750000  0.919908  0.389388  1
  P  P21  1  0.750000  0.579019  0.886850  1
  P  P22  1  0.250000  0.421488  0.112145  1
  P  P23  1  0.250000  0.228828  0.369158  1
  P  P24  1  0.750000  0.771066  0.631687  1
  P  P25  1  0.750000  0.728925  0.133150  1
  P  P26  1  0.250000  0.272284  0.863737  1
  P  P27  1  0.250000  0.901084  0.886530  1
  P  P28  1  0.750000  0.097712  0.112782  1
  P  P29  1  0.750000  0.404003  0.609351  1
  P  P30  1  0.250000  0.596089  0.390082  1
  Ru  Ru31  1  0.250000  0.782855  0.492017  1
  Ru  Ru32  1  0.750000  0.217188  0.507755  1
  Ru  Ru33  1  0.750000  0.290644  0.013314  1
  Ru  Ru34  1  0.250000  0.714420  0.990162  1
  Ru  Ru35  1  0.250000  0.092260  0.986869  1
