# generated using pymatgen
data_Pr10Os3Pt
_symmetry_space_group_name_H-M   'P 1'
_cell_length_a   9.06306062
_cell_length_b   9.01989822
_cell_length_c   7.47909110
_cell_angle_alpha   83.72895238
_cell_angle_beta   83.74558976
_cell_angle_gamma   43.67701750
_symmetry_Int_Tables_number   1
_chemical_formula_structural   Pr10Os3Pt
_chemical_formula_sum   'Pr10 Os3 Pt1'
_cell_volume   419.30215046
_cell_formula_units_Z   1
loop_
 _symmetry_equiv_pos_site_id
 _symmetry_equiv_pos_as_xyz
  1  'x, y, z'
loop_
 _atom_site_type_symbol
 _atom_site_label
 _atom_site_symmetry_multiplicity
 _atom_site_fract_x
 _atom_site_fract_y
 _atom_site_fract_z
 _atom_site_occupancy
  Pr  Pr0  1  0.026096  0.792637  0.911960  1
  Pr  Pr1  1  0.200263  0.983009  0.585048  1
  Pr  Pr2  1  0.985484  0.202084  0.084128  1
  Pr  Pr3  1  0.803295  0.015469  0.421421  1
  Pr  Pr4  1  0.349692  0.211036  0.815108  1
  Pr  Pr5  1  0.787313  0.647258  0.683099  1
  Pr  Pr6  1  0.646548  0.781647  0.182673  1
  Pr  Pr7  1  0.203358  0.359491  0.321389  1
  Pr  Pr8  1  0.570431  0.434013  0.744232  1
  Pr  Pr9  1  0.429766  0.571815  0.251454  1
  Os  Os10  1  0.177291  0.601248  0.573920  1
  Os  Os11  1  0.398332  0.823133  0.927863  1
  Os  Os12  1  0.824066  0.397889  0.424297  1
  Pt  Pt13  1  0.598065  0.179275  0.073410  1
