# generated using pymatgen
data_Tm5Zr3(As3Rh4)4
_symmetry_space_group_name_H-M   'P 1'
_cell_length_a   13.31543500
_cell_length_b   13.31543527
_cell_length_c   3.98680900
_cell_angle_alpha   90.00000000
_cell_angle_beta   90.00000000
_cell_angle_gamma   120.00000180
_symmetry_Int_Tables_number   1
_chemical_formula_structural   Tm5Zr3(As3Rh4)4
_chemical_formula_sum   'Tm5 Zr3 As12 Rh16'
_cell_volume   612.16258257
_cell_formula_units_Z   1
loop_
 _symmetry_equiv_pos_site_id
 _symmetry_equiv_pos_as_xyz
  1  'x, y, z'
loop_
 _atom_site_type_symbol
 _atom_site_label
 _atom_site_symmetry_multiplicity
 _atom_site_fract_x
 _atom_site_fract_y
 _atom_site_fract_z
 _atom_site_occupancy
  Tm  Tm0  1  0.187405  0.187405  0.500000  1
  Tm  Tm1  1  0.812595  0.000000  0.500000  1
  Tm  Tm2  1  0.000000  0.812595  0.500000  1
  Tm  Tm3  1  0.333333  0.666667  0.000000  1
  Tm  Tm4  1  0.666667  0.333333  0.000000  1
  Zr  Zr5  1  0.555482  0.555482  0.000000  1
  Zr  Zr6  1  0.444518  0.000000  0.000000  1
  Zr  Zr7  1  0.000000  0.444518  0.000000  1
  As  As8  1  0.825333  0.825333  0.000000  1
  As  As9  1  0.174667  0.000000  0.000000  1
  As  As10  1  0.000000  0.174667  0.000000  1
  As  As11  1  0.171061  0.486437  0.500000  1
  As  As12  1  0.513563  0.684624  0.500000  1
  As  As13  1  0.315376  0.828939  0.500000  1
  As  As14  1  0.684624  0.513563  0.500000  1
  As  As15  1  0.828939  0.315376  0.500000  1
  As  As16  1  0.486437  0.171061  0.500000  1
  As  As17  1  0.352815  0.352815  0.000000  1
  As  As18  1  0.647185  0.000000  0.000000  1
  As  As19  1  0.000000  0.647185  0.000000  1
  Rh  Rh20  1  0.719656  0.719656  0.500000  1
  Rh  Rh21  1  0.280344  0.000000  0.500000  1
  Rh  Rh22  1  0.000000  0.280344  0.500000  1
  Rh  Rh23  1  0.176433  0.372983  0.000000  1
  Rh  Rh24  1  0.627017  0.803450  0.000000  1
  Rh  Rh25  1  0.196550  0.823567  0.000000  1
  Rh  Rh26  1  0.803450  0.627017  0.000000  1
  Rh  Rh27  1  0.823567  0.196550  0.000000  1
  Rh  Rh28  1  0.372983  0.176433  0.000000  1
  Rh  Rh29  1  0.354681  0.483239  0.500000  1
  Rh  Rh30  1  0.516761  0.871443  0.500000  1
  Rh  Rh31  1  0.128557  0.645319  0.500000  1
  Rh  Rh32  1  0.871443  0.516761  0.500000  1
  Rh  Rh33  1  0.645319  0.128557  0.500000  1
  Rh  Rh34  1  0.483239  0.354681  0.500000  1
  Rh  Rh35  1  0.000000  0.000000  0.000000  1
