# generated using pymatgen
data_IrRu(SeF6)4
_symmetry_space_group_name_H-M   'P 1'
_cell_length_a   6.14964100
_cell_length_b   7.84891461
_cell_length_c   9.92324700
_cell_angle_alpha   89.20129191
_cell_angle_beta   90.00000000
_cell_angle_gamma   90.00000000
_symmetry_Int_Tables_number   1
_chemical_formula_structural   IrRu(SeF6)4
_chemical_formula_sum   'Ir1 Ru1 Se4 F24'
_cell_volume   478.92881874
_cell_formula_units_Z   1
loop_
 _symmetry_equiv_pos_site_id
 _symmetry_equiv_pos_as_xyz
  1  'x, y, z'
loop_
 _atom_site_type_symbol
 _atom_site_label
 _atom_site_symmetry_multiplicity
 _atom_site_fract_x
 _atom_site_fract_y
 _atom_site_fract_z
 _atom_site_occupancy
  Ir  Ir0  1  0.000000  0.500000  0.000000  1
  Ru  Ru1  1  0.500000  0.000000  0.500000  1
  Se  Se2  1  0.500000  0.592855  0.242546  1
  Se  Se3  1  0.500000  0.407145  0.757454  1
  Se  Se4  1  0.000000  0.096546  0.251848  1
  Se  Se5  1  0.000000  0.903454  0.748152  1
  F  F6  1  0.225210  0.358920  0.916671  1
  F  F7  1  0.225210  0.641080  0.083329  1
  F  F8  1  0.277272  0.860565  0.583847  1
  F  F9  1  0.277272  0.139435  0.416153  1
  F  F10  1  0.774790  0.641080  0.083329  1
  F  F11  1  0.774790  0.358920  0.916671  1
  F  F12  1  0.794842  0.948063  0.862740  1
  F  F13  1  0.794842  0.051937  0.137260  1
  F  F14  1  0.704737  0.454558  0.641972  1
  F  F15  1  0.704737  0.545442  0.358028  1
  F  F16  1  0.205158  0.051937  0.137260  1
  F  F17  1  0.205158  0.948063  0.862740  1
  F  F18  1  0.295263  0.545442  0.358028  1
  F  F19  1  0.295263  0.454558  0.641972  1
  F  F20  1  0.000000  0.644908  0.831583  1
  F  F21  1  0.000000  0.355092  0.168417  1
  F  F22  1  0.500000  0.141165  0.661314  1
  F  F23  1  0.500000  0.858835  0.338686  1
  F  F24  1  0.500000  0.614853  0.817897  1
  F  F25  1  0.500000  0.385147  0.182103  1
  F  F26  1  0.000000  0.114408  0.687081  1
  F  F27  1  0.000000  0.885592  0.312919  1
  F  F28  1  0.722728  0.860565  0.583847  1
  F  F29  1  0.722728  0.139435  0.416153  1
