# generated using pymatgen
data_Ba2PrU3S10
_symmetry_space_group_name_H-M   'P 1'
_cell_length_a   7.64960500
_cell_length_b   8.36361495
_cell_length_c   11.98795500
_cell_angle_alpha   89.64565046
_cell_angle_beta   90.00000000
_cell_angle_gamma   90.00000000
_symmetry_Int_Tables_number   1
_chemical_formula_structural   Ba2PrU3S10
_chemical_formula_sum   'Ba4 Pr2 U6 S20'
_cell_volume   766.95492173
_cell_formula_units_Z   2
loop_
 _symmetry_equiv_pos_site_id
 _symmetry_equiv_pos_as_xyz
  1  'x, y, z'
loop_
 _atom_site_type_symbol
 _atom_site_label
 _atom_site_symmetry_multiplicity
 _atom_site_fract_x
 _atom_site_fract_y
 _atom_site_fract_z
 _atom_site_occupancy
  Ba  Ba0  1  0.053693  0.493160  0.332783  1
  Ba  Ba1  1  0.553693  0.506840  0.167217  1
  Ba  Ba2  1  0.941574  0.508031  0.670183  1
  Ba  Ba3  1  0.441574  0.491969  0.829817  1
  Pr  Pr4  1  0.038862  0.000443  0.321468  1
  Pr  Pr5  1  0.538862  0.999557  0.178532  1
  U  U6  1  0.969470  0.000911  0.676561  1
  U  U7  1  0.469470  0.999089  0.823439  1
  U  U8  1  0.056339  0.754440  0.002919  1
  U  U9  1  0.556339  0.245560  0.497081  1
  U  U10  1  0.939320  0.241005  0.991679  1
  U  U11  1  0.439320  0.758995  0.508321  1
  S  S12  1  0.664398  0.962035  0.414779  1
  S  S13  1  0.164398  0.037965  0.085221  1
  S  S14  1  0.333924  0.042526  0.600423  1
  S  S15  1  0.833924  0.957474  0.899577  1
  S  S16  1  0.442590  0.786046  0.994280  1
  S  S17  1  0.942590  0.213954  0.505720  1
  S  S18  1  0.557635  0.211666  0.988370  1
  S  S19  1  0.057635  0.788334  0.511630  1
  S  S20  1  0.851021  0.771047  0.185396  1
  S  S21  1  0.351021  0.228953  0.314604  1
  S  S22  1  0.147775  0.216596  0.807089  1
  S  S23  1  0.647775  0.783404  0.692911  1
  S  S24  1  0.326688  0.766821  0.294375  1
  S  S25  1  0.826688  0.233179  0.205625  1
  S  S26  1  0.677067  0.218863  0.712474  1
  S  S27  1  0.177067  0.781137  0.787526  1
  S  S28  1  0.173953  0.464774  0.066395  1
  S  S29  1  0.673953  0.535226  0.433605  1
  S  S30  1  0.825692  0.534336  0.925781  1
  S  S31  1  0.325692  0.465664  0.574219  1
