# generated using pymatgen
data_Er20Fe3Bi8Ir
_symmetry_space_group_name_H-M   'P 1'
_cell_length_a   7.90933152
_cell_length_b   8.90933200
_cell_length_c   12.38179041
_cell_angle_alpha   90.00000000
_cell_angle_beta   89.79001696
_cell_angle_gamma   90.00000000
_symmetry_Int_Tables_number   1
_chemical_formula_structural   Er20Fe3Bi8Ir
_chemical_formula_sum   'Er20 Fe3 Bi8 Ir1'
_cell_volume   872.50003727
_cell_formula_units_Z   1
loop_
 _symmetry_equiv_pos_site_id
 _symmetry_equiv_pos_as_xyz
  1  'x, y, z'
loop_
 _atom_site_type_symbol
 _atom_site_label
 _atom_site_symmetry_multiplicity
 _atom_site_fract_x
 _atom_site_fract_y
 _atom_site_fract_z
 _atom_site_occupancy
  Er  Er0  1  0.657679  0.750000  0.707265  1
  Er  Er1  1  0.344927  0.250000  0.300402  1
  Er  Er2  1  0.155265  0.250000  0.798169  1
  Er  Er3  1  0.847144  0.750000  0.197801  1
  Er  Er4  1  0.118241  0.750000  0.815047  1
  Er  Er5  1  0.883652  0.250000  0.185539  1
  Er  Er6  1  0.618954  0.250000  0.685623  1
  Er  Er7  1  0.377237  0.750000  0.311061  1
  Er  Er8  1  0.555708  0.750000  0.995577  1
  Er  Er9  1  0.440337  0.250000  0.005098  1
  Er  Er10  1  0.053673  0.250000  0.504073  1
  Er  Er11  1  0.942440  0.750000  0.495492  1
  Er  Er12  1  0.828669  0.463898  0.936975  1
  Er  Er13  1  0.172329  0.536547  0.062820  1
  Er  Er14  1  0.327134  0.530184  0.564327  1
  Er  Er15  1  0.172329  0.963453  0.062820  1
  Er  Er16  1  0.675064  0.454163  0.434256  1
  Er  Er17  1  0.828669  0.036102  0.936975  1
  Er  Er18  1  0.675064  0.045837  0.434256  1
  Er  Er19  1  0.327134  0.969816  0.564327  1
  Fe  Fe20  1  0.929895  0.750000  0.990216  1
  Fe  Fe21  1  0.069247  0.250000  0.007270  1
  Fe  Fe22  1  0.429943  0.250000  0.509049  1
  Bi  Bi23  1  0.933011  0.005992  0.673259  1
  Bi  Bi24  1  0.067242  0.992379  0.326775  1
  Bi  Bi25  1  0.432607  0.993927  0.827503  1
  Bi  Bi26  1  0.067242  0.507621  0.326775  1
  Bi  Bi27  1  0.567537  0.006853  0.173439  1
  Bi  Bi28  1  0.933011  0.494008  0.673259  1
  Bi  Bi29  1  0.567537  0.493147  0.173439  1
  Bi  Bi30  1  0.432607  0.506073  0.827503  1
  Ir  Ir31  1  0.568472  0.750000  0.493608  1
