# generated using pymatgen
data_YbYSi4Tc3
_symmetry_space_group_name_H-M   'P 1'
_cell_length_a   6.80848000
_cell_length_b   6.68776833
_cell_length_c   6.79400068
_cell_angle_alpha   70.44706543
_cell_angle_beta   90.00000000
_cell_angle_gamma   90.00000000
_symmetry_Int_Tables_number   1
_chemical_formula_structural   YbYSi4Tc3
_chemical_formula_sum   'Yb2 Y2 Si8 Tc6'
_cell_volume   291.51521698
_cell_formula_units_Z   2
loop_
 _symmetry_equiv_pos_site_id
 _symmetry_equiv_pos_as_xyz
  1  'x, y, z'
loop_
 _atom_site_type_symbol
 _atom_site_label
 _atom_site_symmetry_multiplicity
 _atom_site_fract_x
 _atom_site_fract_y
 _atom_site_fract_z
 _atom_site_occupancy
  Yb  Yb0  1  0.166570  0.944286  0.186672  1
  Yb  Yb1  1  0.333430  0.444286  0.186672  1
  Y  Y2  1  0.833583  0.058289  0.809305  1
  Y  Y3  1  0.666417  0.558289  0.809305  1
  Si  Si4  1  0.546039  0.118840  0.106132  1
  Si  Si5  1  0.357088  0.632924  0.506207  1
  Si  Si6  1  0.863219  0.867553  0.487534  1
  Si  Si7  1  0.050126  0.379907  0.899383  1
  Si  Si8  1  0.142912  0.132924  0.506207  1
  Si  Si9  1  0.636781  0.367553  0.487534  1
  Si  Si10  1  0.953961  0.618840  0.106132  1
  Si  Si11  1  0.449874  0.879907  0.899383  1
  Tc  Tc12  1  0.842512  0.243477  0.240169  1
  Tc  Tc13  1  0.344224  0.256624  0.761000  1
  Tc  Tc14  1  0.155776  0.756624  0.761000  1
  Tc  Tc15  1  0.657488  0.743477  0.240169  1
  Tc  Tc16  1  0.502015  0.998100  0.503597  1
  Tc  Tc17  1  0.997985  0.498100  0.503597  1
