# generated using pymatgen
data_Y5Ho15(SnPb)8
_symmetry_space_group_name_H-M   'P 1'
_cell_length_a   8.08993701
_cell_length_b   8.20518236
_cell_length_c   15.51631600
_cell_angle_alpha   89.97734755
_cell_angle_beta   90.00245049
_cell_angle_gamma   89.97609160
_symmetry_Int_Tables_number   1
_chemical_formula_structural   Y5Ho15(SnPb)8
_chemical_formula_sum   'Y5 Ho15 Sn8 Pb8'
_cell_volume   1029.96370538
_cell_formula_units_Z   1
loop_
 _symmetry_equiv_pos_site_id
 _symmetry_equiv_pos_as_xyz
  1  'x, y, z'
loop_
 _atom_site_type_symbol
 _atom_site_label
 _atom_site_symmetry_multiplicity
 _atom_site_fract_x
 _atom_site_fract_y
 _atom_site_fract_z
 _atom_site_occupancy
  Y  Y0  1  0.975276  0.822002  0.100940  1
  Y  Y1  1  0.475409  0.677843  0.100663  1
  Y  Y2  1  0.975043  0.822225  0.399215  1
  Y  Y3  1  0.524605  0.322126  0.600861  1
  Y  Y4  1  0.024404  0.178054  0.899176  1
  Ho  Ho5  1  0.368958  0.838576  0.875779  1
  Ho  Ho6  1  0.869354  0.661314  0.624150  1
  Ho  Ho7  1  0.630637  0.161349  0.375818  1
  Ho  Ho8  1  0.130789  0.338616  0.124331  1
  Ho  Ho9  1  0.630665  0.161495  0.124340  1
  Ho  Ho10  1  0.130324  0.338568  0.375831  1
  Ho  Ho11  1  0.369505  0.838597  0.624115  1
  Ho  Ho12  1  0.869129  0.661332  0.875752  1
  Ho  Ho13  1  0.525427  0.322377  0.898675  1
  Ho  Ho14  1  0.025736  0.177510  0.601450  1
  Ho  Ho15  1  0.474288  0.677550  0.398625  1
  Ho  Ho16  1  0.199712  0.503259  0.749886  1
  Ho  Ho17  1  0.699627  0.996732  0.750007  1
  Ho  Ho18  1  0.800242  0.496648  0.250081  1
  Ho  Ho19  1  0.300466  0.003422  0.250175  1
  Sn  Sn20  1  0.565087  0.620523  0.750024  1
  Sn  Sn21  1  0.065018  0.879408  0.749871  1
  Sn  Sn22  1  0.435002  0.379514  0.250108  1
  Sn  Sn23  1  0.935013  0.120730  0.250044  1
  Sn  Sn24  1  0.332914  0.149165  0.750196  1
  Sn  Sn25  1  0.832996  0.350729  0.749831  1
  Sn  Sn26  1  0.666861  0.850760  0.250203  1
  Sn  Sn27  1  0.167555  0.648987  0.250100  1
  Pb  Pb28  1  0.290156  0.037685  0.041128  1
  Pb  Pb29  1  0.789119  0.463088  0.458698  1
  Pb  Pb30  1  0.710855  0.963043  0.541197  1
  Pb  Pb31  1  0.210435  0.536996  0.958936  1
  Pb  Pb32  1  0.709432  0.962375  0.959204  1
  Pb  Pb33  1  0.210004  0.537648  0.540664  1
  Pb  Pb34  1  0.289894  0.037821  0.459090  1
  Pb  Pb35  1  0.790065  0.461929  0.040838  1
