# generated using pymatgen
data_Ho2MgCdSn2
_symmetry_space_group_name_H-M   'P 1'
_cell_length_a   4.37453083
_cell_length_b   4.38659485
_cell_length_c   8.52265160
_cell_angle_alpha   104.91283107
_cell_angle_beta   104.87087083
_cell_angle_gamma   89.99999556
_symmetry_Int_Tables_number   1
_chemical_formula_structural   Ho2MgCdSn2
_chemical_formula_sum   'Ho2 Mg1 Cd1 Sn2'
_cell_volume   152.35974165
_cell_formula_units_Z   1
loop_
 _symmetry_equiv_pos_site_id
 _symmetry_equiv_pos_as_xyz
  1  'x, y, z'
loop_
 _atom_site_type_symbol
 _atom_site_label
 _atom_site_symmetry_multiplicity
 _atom_site_fract_x
 _atom_site_fract_y
 _atom_site_fract_z
 _atom_site_occupancy
  Ho  Ho0  1  0.666383  0.666383  0.332767  1
  Ho  Ho1  1  0.333616  0.333616  0.667232  1
  Mg  Mg2  1  0.000000  0.499999  0.000000  1
  Cd  Cd3  1  0.499999  0.000000  0.000000  1
  Sn  Sn4  1  0.138268  0.138268  0.276536  1
  Sn  Sn5  1  0.861730  0.861730  0.723463  1
