# generated using pymatgen
data_TmNb8RhSe16
_symmetry_space_group_name_H-M   'P 1'
_cell_length_a   7.00964100
_cell_length_b   7.00964060
_cell_length_c   13.50169300
_cell_angle_alpha   90.00000000
_cell_angle_beta   90.00000000
_cell_angle_gamma   119.99999719
_symmetry_Int_Tables_number   1
_chemical_formula_structural   TmNb8RhSe16
_chemical_formula_sum   'Tm1 Nb8 Rh1 Se16'
_cell_volume   574.52694274
_cell_formula_units_Z   1
loop_
 _symmetry_equiv_pos_site_id
 _symmetry_equiv_pos_as_xyz
  1  'x, y, z'
loop_
 _atom_site_type_symbol
 _atom_site_label
 _atom_site_symmetry_multiplicity
 _atom_site_fract_x
 _atom_site_fract_y
 _atom_site_fract_z
 _atom_site_occupancy
  Tm  Tm0  1  0.000000  0.000000  0.500000  1
  Nb  Nb1  1  0.000000  0.000000  0.234055  1
  Nb  Nb2  1  0.000000  0.000000  0.765945  1
  Nb  Nb3  1  0.509404  0.018810  0.234294  1
  Nb  Nb4  1  0.981190  0.490596  0.234294  1
  Nb  Nb5  1  0.509404  0.490596  0.234294  1
  Nb  Nb6  1  0.490596  0.981190  0.765706  1
  Nb  Nb7  1  0.018810  0.509404  0.765706  1
  Nb  Nb8  1  0.490596  0.509404  0.765706  1
  Rh  Rh9  1  0.000000  0.000000  0.000000  1
  Se  Se10  1  0.333333  0.666667  0.895314  1
  Se  Se11  1  0.666667  0.333333  0.104686  1
  Se  Se12  1  0.666667  0.333333  0.365685  1
  Se  Se13  1  0.333333  0.666667  0.634315  1
  Se  Se14  1  0.168930  0.831070  0.358278  1
  Se  Se15  1  0.168930  0.337861  0.358278  1
  Se  Se16  1  0.662139  0.831070  0.358278  1
  Se  Se17  1  0.831070  0.168930  0.641722  1
  Se  Se18  1  0.831070  0.662139  0.641722  1
  Se  Se19  1  0.337861  0.168930  0.641722  1
  Se  Se20  1  0.831206  0.168794  0.887063  1
  Se  Se21  1  0.831206  0.662414  0.887063  1
  Se  Se22  1  0.337586  0.168794  0.887063  1
  Se  Se23  1  0.168794  0.831206  0.112937  1
  Se  Se24  1  0.168794  0.337586  0.112937  1
  Se  Se25  1  0.662414  0.831206  0.112937  1
