# generated using pymatgen
data_Nd4YPt3
_symmetry_space_group_name_H-M   'P 1'
_cell_length_a   11.30869800
_cell_length_b   11.30869800
_cell_length_c   6.67559600
_cell_angle_alpha   90.00000000
_cell_angle_beta   90.00000000
_cell_angle_gamma   90.00000000
_symmetry_Int_Tables_number   1
_chemical_formula_structural   Nd4YPt3
_chemical_formula_sum   'Nd16 Y4 Pt12'
_cell_volume   853.71961223
_cell_formula_units_Z   4
loop_
 _symmetry_equiv_pos_site_id
 _symmetry_equiv_pos_as_xyz
  1  'x, y, z'
loop_
 _atom_site_type_symbol
 _atom_site_label
 _atom_site_symmetry_multiplicity
 _atom_site_fract_x
 _atom_site_fract_y
 _atom_site_fract_z
 _atom_site_occupancy
  Nd  Nd0  1  0.290572  0.088135  0.380026  1
  Nd  Nd1  1  0.290572  0.911865  0.880026  1
  Nd  Nd2  1  0.709428  0.088135  0.880026  1
  Nd  Nd3  1  0.709428  0.911865  0.380026  1
  Nd  Nd4  1  0.588135  0.790572  0.880026  1
  Nd  Nd5  1  0.588135  0.209428  0.380026  1
  Nd  Nd6  1  0.411865  0.790572  0.380026  1
  Nd  Nd7  1  0.411865  0.209428  0.880026  1
  Nd  Nd8  1  0.209428  0.411865  0.619974  1
  Nd  Nd9  1  0.209428  0.588135  0.119974  1
  Nd  Nd10  1  0.790572  0.411865  0.119974  1
  Nd  Nd11  1  0.790572  0.588135  0.619974  1
  Nd  Nd12  1  0.911865  0.709428  0.119974  1
  Nd  Nd13  1  0.911865  0.290572  0.619974  1
  Nd  Nd14  1  0.088135  0.709428  0.619974  1
  Nd  Nd15  1  0.088135  0.290572  0.119974  1
  Y  Y16  1  0.000000  0.000000  0.500000  1
  Y  Y17  1  0.000000  0.000000  0.000000  1
  Y  Y18  1  0.500000  0.500000  0.000000  1
  Y  Y19  1  0.500000  0.500000  0.500000  1
  Pt  Pt20  1  0.850093  0.149907  0.250000  1
  Pt  Pt21  1  0.850093  0.850093  0.750000  1
  Pt  Pt22  1  0.149907  0.149907  0.750000  1
  Pt  Pt23  1  0.149907  0.850093  0.250000  1
  Pt  Pt24  1  0.649907  0.350093  0.750000  1
  Pt  Pt25  1  0.649907  0.649907  0.250000  1
  Pt  Pt26  1  0.350093  0.350093  0.250000  1
  Pt  Pt27  1  0.350093  0.649907  0.750000  1
  Pt  Pt28  1  0.500000  0.000000  0.119508  1
  Pt  Pt29  1  0.500000  0.000000  0.619508  1
  Pt  Pt30  1  0.000000  0.500000  0.880492  1
  Pt  Pt31  1  0.000000  0.500000  0.380492  1
