# generated using pymatgen
data_Ti4Tc2As2P
_symmetry_space_group_name_H-M   'P 1'
_cell_length_a   6.82792917
_cell_length_b   6.84099609
_cell_length_c   3.31140100
_cell_angle_alpha   90.00000000
_cell_angle_beta   90.00000000
_cell_angle_gamma   120.06331970
_symmetry_Int_Tables_number   1
_chemical_formula_structural   Ti4Tc2As2P
_chemical_formula_sum   'Ti4 Tc2 As2 P1'
_cell_volume   133.86692905
_cell_formula_units_Z   1
loop_
 _symmetry_equiv_pos_site_id
 _symmetry_equiv_pos_as_xyz
  1  'x, y, z'
loop_
 _atom_site_type_symbol
 _atom_site_label
 _atom_site_symmetry_multiplicity
 _atom_site_fract_x
 _atom_site_fract_y
 _atom_site_fract_z
 _atom_site_occupancy
  Ti  Ti0  1  0.000000  0.747435  0.000000  1
  Ti  Ti1  1  0.396769  0.999076  0.500000  1
  Ti  Ti2  1  0.000000  0.397350  0.500000  1
  Ti  Ti3  1  0.603231  0.602308  0.500000  1
  Tc  Tc4  1  0.750168  0.000708  0.000000  1
  Tc  Tc5  1  0.249832  0.250540  0.000000  1
  As  As6  1  0.666603  0.334078  0.000000  1
  As  As7  1  0.333397  0.667476  0.000000  1
  P  P8  1  0.000000  0.001027  0.500000  1
