# generated using pymatgen
data_LaNd3(Sn2Rh)4
_symmetry_space_group_name_H-M   'P 1'
_cell_length_a   8.84469404
_cell_length_b   8.84469429
_cell_length_c   9.72734567
_cell_angle_alpha   89.93491053
_cell_angle_beta   90.06508796
_cell_angle_gamma   149.33895177
_symmetry_Int_Tables_number   1
_chemical_formula_structural   LaNd3(Sn2Rh)4
_chemical_formula_sum   'La1 Nd3 Sn8 Rh4'
_cell_volume   388.05591083
_cell_formula_units_Z   1
loop_
 _symmetry_equiv_pos_site_id
 _symmetry_equiv_pos_as_xyz
  1  'x, y, z'
loop_
 _atom_site_type_symbol
 _atom_site_label
 _atom_site_symmetry_multiplicity
 _atom_site_fract_x
 _atom_site_fract_y
 _atom_site_fract_z
 _atom_site_occupancy
  La  La0  1  0.500000  0.500000  0.000000  1
  Nd  Nd1  1  0.500000  0.500000  0.500000  1
  Nd  Nd2  1  0.296522  0.703478  0.250235  1
  Nd  Nd3  1  0.703478  0.296522  0.749765  1
  Sn  Sn4  1  0.908088  0.091912  0.749363  1
  Sn  Sn5  1  0.925137  0.074863  0.250981  1
  Sn  Sn6  1  0.091912  0.908088  0.250637  1
  Sn  Sn7  1  0.074863  0.925137  0.749019  1
  Sn  Sn8  1  0.697307  0.302693  0.410457  1
  Sn  Sn9  1  0.302693  0.697307  0.589543  1
  Sn  Sn10  1  0.302026  0.697974  0.910355  1
  Sn  Sn11  1  0.697974  0.302026  0.089645  1
  Rh  Rh12  1  0.146983  0.853017  0.504937  1
  Rh  Rh13  1  0.853080  0.146920  0.005028  1
  Rh  Rh14  1  0.146920  0.853080  0.994972  1
  Rh  Rh15  1  0.853017  0.146983  0.495063  1
