# generated using pymatgen
data_Ba7Ta2Nb4O21
_symmetry_space_group_name_H-M   'P 1'
_cell_length_a   17.09376012
_cell_length_b   17.09376011
_cell_length_c   17.09376003
_cell_angle_alpha   19.78963980
_cell_angle_beta   19.78963961
_cell_angle_gamma   19.78963744
_symmetry_Int_Tables_number   1
_chemical_formula_structural   Ba7Ta2Nb4O21
_chemical_formula_sum   'Ba7 Ta2 Nb4 O21'
_cell_volume   500.76011563
_cell_formula_units_Z   1
loop_
 _symmetry_equiv_pos_site_id
 _symmetry_equiv_pos_as_xyz
  1  'x, y, z'
loop_
 _atom_site_type_symbol
 _atom_site_label
 _atom_site_symmetry_multiplicity
 _atom_site_fract_x
 _atom_site_fract_y
 _atom_site_fract_z
 _atom_site_occupancy
  Ba  Ba0  1  0.764816  0.764816  0.764816  1
  Ba  Ba1  1  0.235184  0.235184  0.235184  1
  Ba  Ba2  1  0.850480  0.850480  0.850480  1
  Ba  Ba3  1  0.149520  0.149520  0.149520  1
  Ba  Ba4  1  0.617739  0.617739  0.617739  1
  Ba  Ba5  1  0.382261  0.382261  0.382261  1
  Ba  Ba6  1  0.000000  0.000000  0.000000  1
  Ta  Ta7  1  0.927731  0.927731  0.927731  1
  Ta  Ta8  1  0.072269  0.072269  0.072269  1
  Nb  Nb9  1  0.543560  0.543560  0.543560  1
  Nb  Nb10  1  0.456440  0.456440  0.456440  1
  Nb  Nb11  1  0.690130  0.690130  0.690130  1
  Nb  Nb12  1  0.309870  0.309870  0.309870  1
  O  O13  1  0.743054  0.234078  0.743054  1
  O  O14  1  0.743054  0.743054  0.234078  1
  O  O15  1  0.234078  0.743054  0.743054  1
  O  O16  1  0.256946  0.765922  0.256946  1
  O  O17  1  0.256946  0.256946  0.765922  1
  O  O18  1  0.765922  0.256946  0.256946  1
  O  O19  1  0.883449  0.374859  0.883449  1
  O  O20  1  0.883449  0.883449  0.374859  1
  O  O21  1  0.374859  0.883449  0.883449  1
  O  O22  1  0.116551  0.625141  0.116551  1
  O  O23  1  0.116551  0.116551  0.625141  1
  O  O24  1  0.625141  0.116551  0.116551  1
  O  O25  1  0.637320  0.145757  0.637320  1
  O  O26  1  0.637320  0.637320  0.145757  1
  O  O27  1  0.145757  0.637320  0.637320  1
  O  O28  1  0.362680  0.854243  0.362680  1
  O  O29  1  0.362680  0.362680  0.854243  1
  O  O30  1  0.854243  0.362680  0.362680  1
  O  O31  1  0.500000  0.500000  0.000000  1
  O  O32  1  0.000000  0.500000  0.500000  1
  O  O33  1  0.500000  0.000000  0.500000  1
