# generated using pymatgen
data_PrHo12Th7Sn16
_symmetry_space_group_name_H-M   'P 1'
_cell_length_a   8.12725022
_cell_length_b   8.23019678
_cell_length_c   15.55207027
_cell_angle_alpha   90.09999726
_cell_angle_beta   90.16643230
_cell_angle_gamma   89.92734346
_symmetry_Int_Tables_number   1
_chemical_formula_structural   PrHo12Th7Sn16
_chemical_formula_sum   'Pr1 Ho12 Th7 Sn16'
_cell_volume   1040.25358213
_cell_formula_units_Z   1
loop_
 _symmetry_equiv_pos_site_id
 _symmetry_equiv_pos_as_xyz
  1  'x, y, z'
loop_
 _atom_site_type_symbol
 _atom_site_label
 _atom_site_symmetry_multiplicity
 _atom_site_fract_x
 _atom_site_fract_y
 _atom_site_fract_z
 _atom_site_occupancy
  Pr  Pr0  1  0.519716  0.321895  0.902462  1
  Ho  Ho1  1  0.361256  0.835861  0.875903  1
  Ho  Ho2  1  0.861228  0.663183  0.623675  1
  Ho  Ho3  1  0.638256  0.163680  0.376434  1
  Ho  Ho4  1  0.137720  0.336379  0.123728  1
  Ho  Ho5  1  0.638832  0.163837  0.123912  1
  Ho  Ho6  1  0.138975  0.336521  0.376396  1
  Ho  Ho7  1  0.361307  0.836592  0.623686  1
  Ho  Ho8  1  0.862704  0.663231  0.875874  1
  Ho  Ho9  1  0.191005  0.499053  0.749830  1
  Ho  Ho10  1  0.692107  0.000466  0.749455  1
  Ho  Ho11  1  0.808814  0.501747  0.250271  1
  Ho  Ho12  1  0.308883  0.998233  0.250093  1
  Th  Th13  1  0.019103  0.179208  0.596423  1
  Th  Th14  1  0.481048  0.679190  0.403202  1
  Th  Th15  1  0.981004  0.820720  0.096928  1
  Th  Th16  1  0.481536  0.680437  0.097561  1
  Th  Th17  1  0.981433  0.820651  0.403570  1
  Th  Th18  1  0.518312  0.320540  0.596042  1
  Th  Th19  1  0.017971  0.177371  0.903163  1
  Sn  Sn20  1  0.296868  0.036602  0.043183  1
  Sn  Sn21  1  0.798181  0.461040  0.457908  1
  Sn  Sn22  1  0.701607  0.961321  0.541902  1
  Sn  Sn23  1  0.200610  0.540381  0.958635  1
  Sn  Sn24  1  0.702343  0.958579  0.958396  1
  Sn  Sn25  1  0.201456  0.539548  0.541669  1
  Sn  Sn26  1  0.297989  0.038874  0.457883  1
  Sn  Sn27  1  0.799722  0.462334  0.043571  1
  Sn  Sn28  1  0.558421  0.623929  0.748669  1
  Sn  Sn29  1  0.057971  0.878043  0.749883  1
  Sn  Sn30  1  0.441773  0.377418  0.249991  1
  Sn  Sn31  1  0.941678  0.122484  0.250046  1
  Sn  Sn32  1  0.325096  0.142903  0.749813  1
  Sn  Sn33  1  0.825799  0.357593  0.749496  1
  Sn  Sn34  1  0.674992  0.857820  0.250238  1
  Sn  Sn35  1  0.174280  0.642337  0.250111  1
