# generated using pymatgen
data_Dy4Er4Sc11Si16Ru
_symmetry_space_group_name_H-M   'P 1'
_cell_length_a   6.98199813
_cell_length_b   7.34057131
_cell_length_c   13.84323815
_cell_angle_alpha   90.00698050
_cell_angle_beta   89.98464554
_cell_angle_gamma   90.06058047
_symmetry_Int_Tables_number   1
_chemical_formula_structural   Dy4Er4Sc11Si16Ru
_chemical_formula_sum   'Dy4 Er4 Sc11 Si16 Ru1'
_cell_volume   709.49120993
_cell_formula_units_Z   1
loop_
 _symmetry_equiv_pos_site_id
 _symmetry_equiv_pos_as_xyz
  1  'x, y, z'
loop_
 _atom_site_type_symbol
 _atom_site_label
 _atom_site_symmetry_multiplicity
 _atom_site_fract_x
 _atom_site_fract_y
 _atom_site_fract_z
 _atom_site_occupancy
  Dy  Dy0  1  0.512492  0.322834  0.094153  1
  Dy  Dy1  1  0.012913  0.178097  0.407332  1
  Dy  Dy2  1  0.512696  0.323268  0.405015  1
  Dy  Dy3  1  0.488238  0.673407  0.597552  1
  Er  Er4  1  0.013107  0.178702  0.092562  1
  Er  Er5  1  0.991536  0.817610  0.901167  1
  Er  Er6  1  0.487822  0.673440  0.902424  1
  Er  Er7  1  0.991616  0.817555  0.599657  1
  Sc  Sc8  1  0.842935  0.496363  0.249659  1
  Sc  Sc9  1  0.343733  0.003279  0.249573  1
  Sc  Sc10  1  0.655222  0.995874  0.750186  1
  Sc  Sc11  1  0.323784  0.176162  0.627655  1
  Sc  Sc12  1  0.673885  0.825255  0.374217  1
  Sc  Sc13  1  0.173766  0.673779  0.376619  1
  Sc  Sc14  1  0.673690  0.825068  0.125052  1
  Sc  Sc15  1  0.825032  0.331290  0.629276  1
  Sc  Sc16  1  0.323993  0.176046  0.872814  1
  Sc  Sc17  1  0.824501  0.330793  0.871540  1
  Sc  Sc18  1  0.173739  0.673502  0.122801  1
  Si  Si19  1  0.026526  0.113591  0.750482  1
  Si  Si20  1  0.974846  0.886083  0.249506  1
  Si  Si21  1  0.470491  0.615972  0.249596  1
  Si  Si22  1  0.513076  0.395961  0.750595  1
  Si  Si23  1  0.282773  0.861466  0.750550  1
  Si  Si24  1  0.719101  0.129655  0.249287  1
  Si  Si25  1  0.215766  0.370792  0.249406  1
  Si  Si26  1  0.793269  0.630594  0.750697  1
  Si  Si27  1  0.155387  0.466100  0.548145  1
  Si  Si28  1  0.844229  0.536888  0.463975  1
  Si  Si29  1  0.346278  0.964661  0.463032  1
  Si  Si30  1  0.844237  0.535881  0.036190  1
  Si  Si31  1  0.659173  0.034529  0.540402  1
  Si  Si32  1  0.156177  0.466208  0.951461  1
  Si  Si33  1  0.658612  0.033271  0.959409  1
  Si  Si34  1  0.344880  0.964122  0.036716  1
  Ru  Ru35  1  0.150478  0.501905  0.751299  1
