# generated using pymatgen
data_Y13Ho7Cd6IrRu
_symmetry_space_group_name_H-M   'P 1'
_cell_length_a   9.63875710
_cell_length_b   9.63673154
_cell_length_c   9.84801539
_cell_angle_alpha   90.00010625
_cell_angle_beta   89.94712082
_cell_angle_gamma   119.99281360
_symmetry_Int_Tables_number   1
_chemical_formula_structural   Y13Ho7Cd6IrRu
_chemical_formula_sum   'Y13 Ho7 Cd6 Ir1 Ru1'
_cell_volume   792.24835423
_cell_formula_units_Z   1
loop_
 _symmetry_equiv_pos_site_id
 _symmetry_equiv_pos_as_xyz
  1  'x, y, z'
loop_
 _atom_site_type_symbol
 _atom_site_label
 _atom_site_symmetry_multiplicity
 _atom_site_fract_x
 _atom_site_fract_y
 _atom_site_fract_z
 _atom_site_occupancy
  Y  Y0  1  0.418744  0.209373  0.559646  1
  Y  Y1  1  0.790690  0.209320  0.939939  1
  Y  Y2  1  0.790692  0.581374  0.939942  1
  Y  Y3  1  0.418668  0.209331  0.940154  1
  Y  Y4  1  0.208995  0.790937  0.059537  1
  Y  Y5  1  0.208997  0.418054  0.059540  1
  Y  Y6  1  0.582019  0.791009  0.059522  1
  Y  Y7  1  0.541245  0.458925  0.250555  1
  Y  Y8  1  0.541245  0.082324  0.250561  1
  Y  Y9  1  0.917563  0.458782  0.250805  1
  Y  Y10  1  0.458814  0.541459  0.749404  1
  Y  Y11  1  0.458813  0.917357  0.749403  1
  Y  Y12  1  0.082374  0.541185  0.749255  1
  Ho  Ho13  1  0.999635  0.999817  0.499472  1
  Ho  Ho14  1  0.999998  0.999999  0.000417  1
  Ho  Ho15  1  0.209457  0.790072  0.440195  1
  Ho  Ho16  1  0.209459  0.419384  0.440195  1
  Ho  Ho17  1  0.580627  0.790312  0.440279  1
  Ho  Ho18  1  0.790383  0.209973  0.560326  1
  Ho  Ho19  1  0.790380  0.580408  0.560323  1
  Cd  Cd20  1  0.885625  0.114436  0.250037  1
  Cd  Cd21  1  0.885625  0.771190  0.250038  1
  Cd  Cd22  1  0.228834  0.114417  0.250042  1
  Cd  Cd23  1  0.114463  0.885493  0.749944  1
  Cd  Cd24  1  0.114463  0.228969  0.749945  1
  Cd  Cd25  1  0.771048  0.885523  0.749962  1
  Ir  Ir26  1  0.333392  0.666697  0.252254  1
  Ru  Ru27  1  0.667757  0.333877  0.748306  1
