# generated using pymatgen
data_Y2ErPa(InNi2)2
_symmetry_space_group_name_H-M   'P 1'
_cell_length_a   7.46337565
_cell_length_b   7.46337530
_cell_length_c   3.56854300
_cell_angle_alpha   90.00000000
_cell_angle_beta   90.00000000
_cell_angle_gamma   92.62981054
_symmetry_Int_Tables_number   1
_chemical_formula_structural   Y2ErPa(InNi2)2
_chemical_formula_sum   'Y2 Er1 Pa1 In2 Ni4'
_cell_volume   198.56554446
_cell_formula_units_Z   1
loop_
 _symmetry_equiv_pos_site_id
 _symmetry_equiv_pos_as_xyz
  1  'x, y, z'
loop_
 _atom_site_type_symbol
 _atom_site_label
 _atom_site_symmetry_multiplicity
 _atom_site_fract_x
 _atom_site_fract_y
 _atom_site_fract_z
 _atom_site_occupancy
  Y  Y0  1  0.174746  0.329497  0.500000  1
  Y  Y1  1  0.829497  0.674746  0.500000  1
  Er  Er2  1  0.324278  0.824278  0.500000  1
  Pa  Pa3  1  0.669711  0.169711  0.500000  1
  In  In4  1  0.498121  0.506039  0.000000  1
  In  In5  1  0.006039  0.998121  0.000000  1
  Ni  Ni6  1  0.115182  0.615182  0.000000  1
  Ni  Ni7  1  0.858914  0.358914  0.000000  1
  Ni  Ni8  1  0.627989  0.895523  0.000000  1
  Ni  Ni9  1  0.395523  0.127989  0.000000  1
