# generated using pymatgen
data_Th2Fe9P7Os3
_symmetry_space_group_name_H-M   'P 1'
_cell_length_a   9.09336900
_cell_length_b   9.09337000
_cell_length_c   3.76814200
_cell_angle_alpha   90.00000000
_cell_angle_beta   90.00000000
_cell_angle_gamma   119.99999274
_symmetry_Int_Tables_number   1
_chemical_formula_structural   Th2Fe9P7Os3
_chemical_formula_sum   'Th2 Fe9 P7 Os3'
_cell_volume   269.84079086
_cell_formula_units_Z   1
loop_
 _symmetry_equiv_pos_site_id
 _symmetry_equiv_pos_as_xyz
  1  'x, y, z'
loop_
 _atom_site_type_symbol
 _atom_site_label
 _atom_site_symmetry_multiplicity
 _atom_site_fract_x
 _atom_site_fract_y
 _atom_site_fract_z
 _atom_site_occupancy
  Th  Th0  1  0.333333  0.666667  0.000000  1
  Th  Th1  1  0.000000  0.000000  0.500000  1
  Fe  Fe2  1  0.031791  0.270385  0.000000  1
  Fe  Fe3  1  0.729615  0.761405  0.000000  1
  Fe  Fe4  1  0.238595  0.968209  0.000000  1
  Fe  Fe5  1  0.546751  0.061874  0.000000  1
  Fe  Fe6  1  0.938126  0.484877  0.000000  1
  Fe  Fe7  1  0.515123  0.453249  0.000000  1
  Fe  Fe8  1  0.612071  0.897361  0.500000  1
  Fe  Fe9  1  0.102639  0.714709  0.500000  1
  Fe  Fe10  1  0.285291  0.387929  0.500000  1
  P  P11  1  0.767054  0.024843  0.000000  1
  P  P12  1  0.975157  0.742211  0.000000  1
  P  P13  1  0.257789  0.232946  0.000000  1
  P  P14  1  0.372020  0.930417  0.500000  1
  P  P15  1  0.069583  0.441604  0.500000  1
  P  P16  1  0.558396  0.627980  0.500000  1
  P  P17  1  0.666667  0.333333  0.000000  1
  Os  Os18  1  0.785690  0.234473  0.500000  1
  Os  Os19  1  0.765527  0.551216  0.500000  1
  Os  Os20  1  0.448784  0.214310  0.500000  1
