# generated using pymatgen
data_Ni3B(OF)3
_symmetry_space_group_name_H-M   'P 1'
_cell_length_a   8.87175500
_cell_length_b   8.87175646
_cell_length_c   3.13806300
_cell_angle_alpha   90.00000000
_cell_angle_beta   90.00000000
_cell_angle_gamma   119.99999963
_symmetry_Int_Tables_number   1
_chemical_formula_structural   Ni3B(OF)3
_chemical_formula_sum   'Ni6 B2 O6 F6'
_cell_volume   213.90032434
_cell_formula_units_Z   2
loop_
 _symmetry_equiv_pos_site_id
 _symmetry_equiv_pos_as_xyz
  1  'x, y, z'
loop_
 _atom_site_type_symbol
 _atom_site_label
 _atom_site_symmetry_multiplicity
 _atom_site_fract_x
 _atom_site_fract_y
 _atom_site_fract_z
 _atom_site_occupancy
  Ni  Ni0  1  0.371175  0.030581  0.250000  1
  Ni  Ni1  1  0.030581  0.659407  0.750000  1
  Ni  Ni2  1  0.628825  0.969419  0.750000  1
  Ni  Ni3  1  0.659407  0.628825  0.250000  1
  Ni  Ni4  1  0.969419  0.340593  0.250000  1
  Ni  Ni5  1  0.340593  0.371175  0.750000  1
  B  B6  1  0.333333  0.666667  0.250000  1
  B  B7  1  0.666667  0.333333  0.750000  1
  O  O8  1  0.448505  0.845552  0.250000  1
  O  O9  1  0.845552  0.397047  0.750000  1
  O  O10  1  0.397047  0.551495  0.250000  1
  O  O11  1  0.602953  0.448505  0.750000  1
  O  O12  1  0.551495  0.154448  0.750000  1
  O  O13  1  0.154448  0.602953  0.250000  1
  F  F14  1  0.702459  0.790963  0.750000  1
  F  F15  1  0.209037  0.911496  0.750000  1
  F  F16  1  0.297541  0.209037  0.250000  1
  F  F17  1  0.911496  0.702459  0.250000  1
  F  F18  1  0.790963  0.088504  0.250000  1
  F  F19  1  0.088504  0.297541  0.750000  1
