# generated using pymatgen
data_Ho2ErSn3HgRh2
_symmetry_space_group_name_H-M   'P 1'
_cell_length_a   7.69941814
_cell_length_b   7.69610508
_cell_length_c   3.89439700
_cell_angle_alpha   90.00000000
_cell_angle_beta   90.00000000
_cell_angle_gamma   120.03586987
_symmetry_Int_Tables_number   1
_chemical_formula_structural   Ho2ErSn3HgRh2
_chemical_formula_sum   'Ho2 Er1 Sn3 Hg1 Rh2'
_cell_volume   199.77569943
_cell_formula_units_Z   1
loop_
 _symmetry_equiv_pos_site_id
 _symmetry_equiv_pos_as_xyz
  1  'x, y, z'
loop_
 _atom_site_type_symbol
 _atom_site_label
 _atom_site_symmetry_multiplicity
 _atom_site_fract_x
 _atom_site_fract_y
 _atom_site_fract_z
 _atom_site_occupancy
  Ho  Ho0  1  0.389367  0.411038  0.000000  1
  Ho  Ho1  1  0.021835  0.610783  0.000000  1
  Er  Er2  1  0.589039  0.977837  0.000000  1
  Sn  Sn3  1  0.741671  0.748900  0.500000  1
  Sn  Sn4  1  0.006739  0.257967  0.500000  1
  Sn  Sn5  1  0.251361  0.993091  0.500000  1
  Hg  Hg6  1  0.666544  0.332764  0.500000  1
  Rh  Rh7  1  0.999484  0.999985  0.000000  1
  Rh  Rh8  1  0.333957  0.667637  0.500000  1
