# generated using pymatgen
data_Nd3Dy2P12Ru17Pt2
_symmetry_space_group_name_H-M   'P 1'
_cell_length_a   12.66318898
_cell_length_b   12.58039905
_cell_length_c   4.00221900
_cell_angle_alpha   90.00000000
_cell_angle_beta   90.00000000
_cell_angle_gamma   119.63957420
_symmetry_Int_Tables_number   1
_chemical_formula_structural   Nd3Dy2P12Ru17Pt2
_chemical_formula_sum   'Nd3 Dy2 P12 Ru17 Pt2'
_cell_volume   554.15960635
_cell_formula_units_Z   1
loop_
 _symmetry_equiv_pos_site_id
 _symmetry_equiv_pos_as_xyz
  1  'x, y, z'
loop_
 _atom_site_type_symbol
 _atom_site_label
 _atom_site_symmetry_multiplicity
 _atom_site_fract_x
 _atom_site_fract_y
 _atom_site_fract_z
 _atom_site_occupancy
  Nd  Nd0  1  0.816269  0.000087  0.500000  1
  Nd  Nd1  1  0.185200  0.185941  0.500000  1
  Nd  Nd2  1  0.000111  0.816540  0.500000  1
  Dy  Dy3  1  0.664755  0.328050  0.000000  1
  Dy  Dy4  1  0.334541  0.668728  0.000000  1
  P  P5  1  0.625752  0.997642  0.000000  1
  P  P6  1  0.362798  0.375819  0.000000  1
  P  P7  1  0.013135  0.638365  0.000000  1
  P  P8  1  0.696207  0.526333  0.500000  1
  P  P9  1  0.823642  0.295384  0.500000  1
  P  P10  1  0.306050  0.827160  0.500000  1
  P  P11  1  0.521198  0.694067  0.500000  1
  P  P12  1  0.187733  0.003149  0.000000  1
  P  P13  1  0.812937  0.813076  0.000000  1
  P  P14  1  0.000920  0.187921  0.000000  1
  P  P15  1  0.476731  0.163336  0.500000  1
  P  P16  1  0.173461  0.480398  0.500000  1
  Ru  Ru17  1  0.619049  0.802073  0.000000  1
  Ru  Ru18  1  0.181036  0.383789  0.000000  1
  Ru  Ru19  1  0.381254  0.189091  0.000000  1
  Ru  Ru20  1  0.201144  0.820162  0.000000  1
  Ru  Ru21  1  0.806206  0.617705  0.000000  1
  Ru  Ru22  1  0.633456  0.123968  0.500000  1
  Ru  Ru23  1  0.124948  0.634173  0.500000  1
  Ru  Ru24  1  0.366266  0.491897  0.500000  1
  Ru  Ru25  1  0.505884  0.873001  0.500000  1
  Ru  Ru26  1  0.999417  0.999847  0.000000  1
  Ru  Ru27  1  0.713819  0.713435  0.500000  1
  Ru  Ru28  1  0.000405  0.287828  0.500000  1
  Ru  Ru29  1  0.449219  0.005151  0.000000  1
  Ru  Ru30  1  0.552559  0.548243  0.000000  1
  Ru  Ru31  1  0.995367  0.448016  0.000000  1
  Ru  Ru32  1  0.815932  0.194321  0.000000  1
  Ru  Ru33  1  0.285706  0.001863  0.500000  1
  Pt  Pt34  1  0.867305  0.498172  0.500000  1
  Pt  Pt35  1  0.499585  0.365268  0.500000  1
