# generated using pymatgen
data_DyHo3(P3Rh4)2
_symmetry_space_group_name_H-M   'P 1'
_cell_length_a   3.96406600
_cell_length_b   11.35280100
_cell_length_c   12.98691000
_cell_angle_alpha   90.00000000
_cell_angle_beta   90.00000000
_cell_angle_gamma   90.00000000
_symmetry_Int_Tables_number   1
_chemical_formula_structural   DyHo3(P3Rh4)2
_chemical_formula_sum   'Dy2 Ho6 P12 Rh16'
_cell_volume   584.45318926
_cell_formula_units_Z   2
loop_
 _symmetry_equiv_pos_site_id
 _symmetry_equiv_pos_as_xyz
  1  'x, y, z'
loop_
 _atom_site_type_symbol
 _atom_site_label
 _atom_site_symmetry_multiplicity
 _atom_site_fract_x
 _atom_site_fract_y
 _atom_site_fract_z
 _atom_site_occupancy
  Dy  Dy0  1  0.500000  0.500000  0.161162  1
  Dy  Dy1  1  0.000000  0.000000  0.838838  1
  Ho  Ho2  1  0.000000  0.500000  0.524148  1
  Ho  Ho3  1  0.500000  0.000000  0.475852  1
  Ho  Ho4  1  0.500000  0.821357  0.203576  1
  Ho  Ho5  1  0.500000  0.178643  0.203576  1
  Ho  Ho6  1  0.000000  0.678643  0.796424  1
  Ho  Ho7  1  0.000000  0.321357  0.796424  1
  P  P8  1  0.500000  0.313124  0.616592  1
  P  P9  1  0.500000  0.686876  0.616592  1
  P  P10  1  0.000000  0.186876  0.383408  1
  P  P11  1  0.000000  0.813124  0.383408  1
  P  P12  1  0.500000  0.500000  0.881072  1
  P  P13  1  0.000000  0.000000  0.118928  1
  P  P14  1  0.500000  0.837157  0.888411  1
  P  P15  1  0.500000  0.162843  0.888411  1
  P  P16  1  0.000000  0.662843  0.111589  1
  P  P17  1  0.000000  0.337157  0.111589  1
  P  P18  1  0.500000  0.500000  0.367768  1
  P  P19  1  0.000000  0.000000  0.632232  1
  Rh  Rh20  1  0.000000  0.500000  0.983048  1
  Rh  Rh21  1  0.500000  0.000000  0.016952  1
  Rh  Rh22  1  0.500000  0.289270  0.432640  1
  Rh  Rh23  1  0.500000  0.710730  0.432640  1
  Rh  Rh24  1  0.000000  0.210730  0.567360  1
  Rh  Rh25  1  0.000000  0.789270  0.567360  1
  Rh  Rh26  1  0.500000  0.872466  0.703314  1
  Rh  Rh27  1  0.500000  0.127534  0.703314  1
  Rh  Rh28  1  0.000000  0.627534  0.296686  1
  Rh  Rh29  1  0.000000  0.372466  0.296686  1
  Rh  Rh30  1  0.500000  0.331090  0.990429  1
  Rh  Rh31  1  0.500000  0.668910  0.990429  1
  Rh  Rh32  1  0.000000  0.168910  0.009571  1
  Rh  Rh33  1  0.000000  0.831090  0.009571  1
  Rh  Rh34  1  0.500000  0.500000  0.702294  1
  Rh  Rh35  1  0.000000  0.000000  0.297706  1
