# generated using pymatgen
data_Y(ErHg2)5
_symmetry_space_group_name_H-M   'P 1'
_cell_length_a   6.34234645
_cell_length_b   6.34234644
_cell_length_c   10.15494735
_cell_angle_alpha   90.10319741
_cell_angle_beta   90.10319467
_cell_angle_gamma   105.00486181
_symmetry_Int_Tables_number   1
_chemical_formula_structural   Y(ErHg2)5
_chemical_formula_sum   'Y1 Er5 Hg10'
_cell_volume   394.55686096
_cell_formula_units_Z   1
loop_
 _symmetry_equiv_pos_site_id
 _symmetry_equiv_pos_as_xyz
  1  'x, y, z'
loop_
 _atom_site_type_symbol
 _atom_site_label
 _atom_site_symmetry_multiplicity
 _atom_site_fract_x
 _atom_site_fract_y
 _atom_site_fract_z
 _atom_site_occupancy
  Y  Y0  1  0.212125  0.787875  0.500000  1
  Er  Er1  1  0.586395  0.585692  0.250071  1
  Er  Er2  1  0.414308  0.413605  0.749929  1
  Er  Er3  1  0.212725  0.787275  0.000000  1
  Er  Er4  1  0.788064  0.211936  0.500000  1
  Er  Er5  1  0.786954  0.213046  0.000000  1
  Hg  Hg6  1  0.984283  0.984474  0.249033  1
  Hg  Hg7  1  0.015526  0.015717  0.750967  1
  Hg  Hg8  1  0.297503  0.297227  0.032806  1
  Hg  Hg9  1  0.702773  0.702497  0.967194  1
  Hg  Hg10  1  0.297818  0.298782  0.466130  1
  Hg  Hg11  1  0.701218  0.702182  0.533870  1
  Hg  Hg12  1  0.490990  0.049168  0.249431  1
  Hg  Hg13  1  0.950832  0.509010  0.750569  1
  Hg  Hg14  1  0.511488  0.953003  0.751452  1
  Hg  Hg15  1  0.046997  0.488512  0.248548  1
