# generated using pymatgen
data_SmHo5CoBr10
_symmetry_space_group_name_H-M   'P 1'
_cell_length_a   7.34408809
_cell_length_b   9.22812736
_cell_length_c   9.14333097
_cell_angle_alpha   107.98037197
_cell_angle_beta   104.53626269
_cell_angle_gamma   96.91836316
_symmetry_Int_Tables_number   1
_chemical_formula_structural   SmHo5CoBr10
_chemical_formula_sum   'Sm1 Ho5 Co1 Br10'
_cell_volume   557.19342173
_cell_formula_units_Z   1
loop_
 _symmetry_equiv_pos_site_id
 _symmetry_equiv_pos_as_xyz
  1  'x, y, z'
loop_
 _atom_site_type_symbol
 _atom_site_label
 _atom_site_symmetry_multiplicity
 _atom_site_fract_x
 _atom_site_fract_y
 _atom_site_fract_z
 _atom_site_occupancy
  Sm  Sm0  1  0.969437  0.091240  0.288531  1
  Ho  Ho1  1  0.352639  0.174931  0.125604  1
  Ho  Ho2  1  0.032040  0.912235  0.721047  1
  Ho  Ho3  1  0.120137  0.757425  0.047495  1
  Ho  Ho4  1  0.646863  0.824541  0.871374  1
  Ho  Ho5  1  0.876977  0.242150  0.953744  1
  Co  Co6  1  0.999008  0.000586  0.002301  1
  Br  Br7  1  0.451560  0.081906  0.818076  1
  Br  Br8  1  0.750598  0.541628  0.912844  1
  Br  Br9  1  0.246309  0.456761  0.081362  1
  Br  Br10  1  0.914091  0.169804  0.634158  1
  Br  Br11  1  0.657063  0.729708  0.554533  1
  Br  Br12  1  0.541810  0.913455  0.175950  1
  Br  Br13  1  0.089248  0.824358  0.371691  1
  Br  Br14  1  0.773245  0.348719  0.246575  1
  Br  Br15  1  0.218512  0.656698  0.748669  1
  Br  Br16  1  0.360460  0.273857  0.446045  1
