# generated using pymatgen
data_AcZn3Ge
_symmetry_space_group_name_H-M   'P 1'
_cell_length_a   6.27033871
_cell_length_b   6.27033981
_cell_length_c   6.27033743
_cell_angle_alpha   138.83473199
_cell_angle_beta   138.83473521
_cell_angle_gamma   59.62694106
_symmetry_Int_Tables_number   1
_chemical_formula_structural   AcZn3Ge
_chemical_formula_sum   'Ac1 Zn3 Ge1'
_cell_volume   105.74761551
_cell_formula_units_Z   1
loop_
 _symmetry_equiv_pos_site_id
 _symmetry_equiv_pos_as_xyz
  1  'x, y, z'
loop_
 _atom_site_type_symbol
 _atom_site_label
 _atom_site_symmetry_multiplicity
 _atom_site_fract_x
 _atom_site_fract_y
 _atom_site_fract_z
 _atom_site_occupancy
  Ac  Ac0  1  0.000312  0.000312  0.000000  1
  Zn  Zn1  1  0.754570  0.254570  0.500000  1
  Zn  Zn2  1  0.254570  0.754570  0.500000  1
  Zn  Zn3  1  0.376136  0.376136  0.000000  1
  Ge  Ge4  1  0.614413  0.614413  0.000000  1
