# generated using pymatgen
data_Sm4ZnGa19Pt11
_symmetry_space_group_name_H-M   'P 1'
_cell_length_a   4.21351748
_cell_length_b   11.00129488
_cell_length_c   13.73647808
_cell_angle_alpha   82.46050786
_cell_angle_beta   81.18960484
_cell_angle_gamma   78.94799263
_symmetry_Int_Tables_number   1
_chemical_formula_structural   Sm4ZnGa19Pt11
_chemical_formula_sum   'Sm4 Zn1 Ga19 Pt11'
_cell_volume   614.14513103
_cell_formula_units_Z   1
loop_
 _symmetry_equiv_pos_site_id
 _symmetry_equiv_pos_as_xyz
  1  'x, y, z'
loop_
 _atom_site_type_symbol
 _atom_site_label
 _atom_site_symmetry_multiplicity
 _atom_site_fract_x
 _atom_site_fract_y
 _atom_site_fract_z
 _atom_site_occupancy
  Sm  Sm0  1  0.121144  0.088704  0.668992  1
  Sm  Sm1  1  0.878037  0.911515  0.332419  1
  Sm  Sm2  1  0.775473  0.628542  0.820509  1
  Sm  Sm3  1  0.225559  0.369932  0.178986  1
  Zn  Zn4  1  0.006092  0.073494  0.914371  1
  Ga  Ga5  1  0.993005  0.930131  0.083733  1
  Ga  Ga6  1  0.065702  0.674551  0.194018  1
  Ga  Ga7  1  0.935022  0.323075  0.806961  1
  Ga  Ga8  1  0.101181  0.343187  0.454419  1
  Ga  Ga9  1  0.898509  0.656847  0.546109  1
  Ga  Ga10  1  0.202102  0.603876  0.991838  1
  Ga  Ga11  1  0.798387  0.394869  0.008442  1
  Ga  Ga12  1  0.257969  0.782856  0.701231  1
  Ga  Ga13  1  0.741160  0.218066  0.299677  1
  Ga  Ga14  1  0.301457  0.900589  0.496431  1
  Ga  Ga15  1  0.698125  0.099766  0.504041  1
  Ga  Ga16  1  0.388085  0.522369  0.701407  1
  Ga  Ga17  1  0.611878  0.476317  0.299884  1
  Ga  Ga18  1  0.401546  0.196713  0.000206  1
  Ga  Ga19  1  0.602528  0.797960  0.996984  1
  Ga  Ga20  1  0.543215  0.286108  0.627481  1
  Ga  Ga21  1  0.457020  0.714964  0.370943  1
  Ga  Ga22  1  0.632376  0.937703  0.797557  1
  Ga  Ga23  1  0.364188  0.065917  0.205756  1
  Pt  Pt24  1  0.501320  0.497917  0.499429  1
  Pt  Pt25  1  0.027190  0.575854  0.369651  1
  Pt  Pt26  1  0.971447  0.425986  0.631038  1
  Pt  Pt27  1  0.139359  0.832772  0.888574  1
  Pt  Pt28  1  0.861897  0.164645  0.111656  1
  Pt  Pt29  1  0.239623  0.129004  0.391980  1
  Pt  Pt30  1  0.760133  0.871149  0.608466  1
  Pt  Pt31  1  0.345348  0.415016  0.894457  1
  Pt  Pt32  1  0.653910  0.584935  0.107127  1
  Pt  Pt33  1  0.505091  0.173880  0.815903  1
  Pt  Pt34  1  0.494923  0.830791  0.179325  1
