# generated using pymatgen
data_K4Rb2AgSn8Au
_symmetry_space_group_name_H-M   'P 1'
_cell_length_a   6.76935700
_cell_length_b   7.01063600
_cell_length_c   12.83835200
_cell_angle_alpha   90.00000000
_cell_angle_beta   90.00000000
_cell_angle_gamma   90.00000000
_symmetry_Int_Tables_number   1
_chemical_formula_structural   K4Rb2AgSn8Au
_chemical_formula_sum   'K4 Rb2 Ag1 Sn8 Au1'
_cell_volume   609.27606284
_cell_formula_units_Z   1
loop_
 _symmetry_equiv_pos_site_id
 _symmetry_equiv_pos_as_xyz
  1  'x, y, z'
loop_
 _atom_site_type_symbol
 _atom_site_label
 _atom_site_symmetry_multiplicity
 _atom_site_fract_x
 _atom_site_fract_y
 _atom_site_fract_z
 _atom_site_occupancy
  K  K0  1  0.828446  0.500000  0.746856  1
  K  K1  1  0.828446  0.500000  0.253144  1
  K  K2  1  0.171774  0.000000  0.753004  1
  K  K3  1  0.171774  0.000000  0.246996  1
  Rb  Rb4  1  0.557879  0.000000  0.000000  1
  Rb  Rb5  1  0.441743  0.500000  0.500000  1
  Ag  Ag6  1  0.688348  0.500000  0.000000  1
  Sn  Sn7  1  0.329518  0.500000  0.878499  1
  Sn  Sn8  1  0.329518  0.500000  0.121501  1
  Sn  Sn9  1  0.042292  0.269482  0.000000  1
  Sn  Sn10  1  0.042292  0.730518  0.000000  1
  Sn  Sn11  1  0.958711  0.770056  0.500000  1
  Sn  Sn12  1  0.958711  0.229944  0.500000  1
  Sn  Sn13  1  0.669380  0.000000  0.378372  1
  Sn  Sn14  1  0.669380  0.000000  0.621628  1
  Au  Au15  1  0.311788  0.000000  0.500000  1
