# generated using pymatgen
data_ZrSc(SiNi5)4
_symmetry_space_group_name_H-M   'P 1'
_cell_length_a   8.08484700
_cell_length_b   8.08484700
_cell_length_c   4.63937000
_cell_angle_alpha   90.00000000
_cell_angle_beta   90.00000000
_cell_angle_gamma   90.00000000
_symmetry_Int_Tables_number   1
_chemical_formula_structural   ZrSc(SiNi5)4
_chemical_formula_sum   'Zr1 Sc1 Si4 Ni20'
_cell_volume   303.25126491
_cell_formula_units_Z   1
loop_
 _symmetry_equiv_pos_site_id
 _symmetry_equiv_pos_as_xyz
  1  'x, y, z'
loop_
 _atom_site_type_symbol
 _atom_site_label
 _atom_site_symmetry_multiplicity
 _atom_site_fract_x
 _atom_site_fract_y
 _atom_site_fract_z
 _atom_site_occupancy
  Zr  Zr0  1  0.500000  0.000000  0.781739  1
  Sc  Sc1  1  0.000000  0.500000  0.221268  1
  Si  Si2  1  0.750453  0.749547  0.498939  1
  Si  Si3  1  0.249547  0.749547  0.498939  1
  Si  Si4  1  0.750453  0.250453  0.498939  1
  Si  Si5  1  0.249547  0.250453  0.498939  1
  Ni  Ni6  1  0.749712  0.249712  0.999072  1
  Ni  Ni7  1  0.749712  0.750288  0.999072  1
  Ni  Ni8  1  0.250288  0.249712  0.999072  1
  Ni  Ni9  1  0.250288  0.750288  0.999072  1
  Ni  Ni10  1  0.350987  0.500000  0.241355  1
  Ni  Ni11  1  0.000000  0.149013  0.241355  1
  Ni  Ni12  1  0.000000  0.850987  0.241355  1
  Ni  Ni13  1  0.649013  0.500000  0.241355  1
  Ni  Ni14  1  0.149163  0.000000  0.759500  1
  Ni  Ni15  1  0.850837  0.000000  0.759500  1
  Ni  Ni16  1  0.500000  0.350837  0.759500  1
  Ni  Ni17  1  0.500000  0.649163  0.759500  1
  Ni  Ni18  1  0.781918  0.500000  0.730207  1
  Ni  Ni19  1  0.000000  0.718082  0.730207  1
  Ni  Ni20  1  0.000000  0.281918  0.730207  1
  Ni  Ni21  1  0.218082  0.500000  0.730207  1
  Ni  Ni22  1  0.717492  0.000000  0.270177  1
  Ni  Ni23  1  0.282508  0.000000  0.270177  1
  Ni  Ni24  1  0.500000  0.782508  0.270177  1
  Ni  Ni25  1  0.500000  0.217492  0.270177  1
