# generated using pymatgen
data_Nd2P2Pd
_symmetry_space_group_name_H-M   'P 1'
_cell_length_a   4.20623100
_cell_length_b   4.20622997
_cell_length_c   14.74132300
_cell_angle_alpha   90.00000000
_cell_angle_beta   90.00000000
_cell_angle_gamma   120.00000023
_symmetry_Int_Tables_number   1
_chemical_formula_structural   Nd2P2Pd
_chemical_formula_sum   'Nd4 P4 Pd2'
_cell_volume   225.86723023
_cell_formula_units_Z   2
loop_
 _symmetry_equiv_pos_site_id
 _symmetry_equiv_pos_as_xyz
  1  'x, y, z'
loop_
 _atom_site_type_symbol
 _atom_site_label
 _atom_site_symmetry_multiplicity
 _atom_site_fract_x
 _atom_site_fract_y
 _atom_site_fract_z
 _atom_site_occupancy
  Nd  Nd0  1  0.333333  0.666667  0.114284  1
  Nd  Nd1  1  0.333333  0.666667  0.385716  1
  Nd  Nd2  1  0.666667  0.333332  0.614284  1
  Nd  Nd3  1  0.666667  0.333332  0.885716  1
  P  P4  1  0.000000  0.000000  0.000000  1
  P  P5  1  0.666667  0.333332  0.250000  1
  P  P6  1  0.000000  0.000000  0.500000  1
  P  P7  1  0.333333  0.666667  0.750000  1
  Pd  Pd8  1  0.000000  0.000000  0.250000  1
  Pd  Pd9  1  0.000000  0.000000  0.750000  1
