# generated using pymatgen
data_Hf10Re3Ir
_symmetry_space_group_name_H-M   'P 1'
_cell_length_a   8.78346400
_cell_length_b   8.78346454
_cell_length_c   8.50977700
_cell_angle_alpha   90.00000000
_cell_angle_beta   90.00000000
_cell_angle_gamma   120.00000551
_symmetry_Int_Tables_number   1
_chemical_formula_structural   Hf10Re3Ir
_chemical_formula_sum   'Hf20 Re6 Ir2'
_cell_volume   568.56544933
_cell_formula_units_Z   2
loop_
 _symmetry_equiv_pos_site_id
 _symmetry_equiv_pos_as_xyz
  1  'x, y, z'
loop_
 _atom_site_type_symbol
 _atom_site_label
 _atom_site_symmetry_multiplicity
 _atom_site_fract_x
 _atom_site_fract_y
 _atom_site_fract_z
 _atom_site_occupancy
  Hf  Hf0  1  0.198519  0.801481  0.444959  1
  Hf  Hf1  1  0.198519  0.397037  0.444959  1
  Hf  Hf2  1  0.602963  0.801481  0.444959  1
  Hf  Hf3  1  0.801481  0.198519  0.555041  1
  Hf  Hf4  1  0.801481  0.602963  0.555041  1
  Hf  Hf5  1  0.397037  0.198519  0.555041  1
  Hf  Hf6  1  0.801481  0.198519  0.944959  1
  Hf  Hf7  1  0.801481  0.602963  0.944959  1
  Hf  Hf8  1  0.397037  0.198519  0.944959  1
  Hf  Hf9  1  0.198519  0.801481  0.055041  1
  Hf  Hf10  1  0.198519  0.397037  0.055041  1
  Hf  Hf11  1  0.602963  0.801481  0.055041  1
  Hf  Hf12  1  0.542903  0.457097  0.250000  1
  Hf  Hf13  1  0.542903  0.085806  0.250000  1
  Hf  Hf14  1  0.914194  0.457097  0.250000  1
  Hf  Hf15  1  0.457097  0.542903  0.750000  1
  Hf  Hf16  1  0.457097  0.914194  0.750000  1
  Hf  Hf17  1  0.085806  0.542903  0.750000  1
  Hf  Hf18  1  0.000000  0.000000  0.500000  1
  Hf  Hf19  1  0.000000  0.000000  0.000000  1
  Re  Re20  1  0.882662  0.117338  0.250000  1
  Re  Re21  1  0.882662  0.765323  0.250000  1
  Re  Re22  1  0.234677  0.117338  0.250000  1
  Re  Re23  1  0.117338  0.882662  0.750000  1
  Re  Re24  1  0.117338  0.234677  0.750000  1
  Re  Re25  1  0.765323  0.882662  0.750000  1
  Ir  Ir26  1  0.333333  0.666667  0.250000  1
  Ir  Ir27  1  0.666667  0.333333  0.750000  1
