# generated using pymatgen
data_Nd6TiAl23(OsRu3)2
_symmetry_space_group_name_H-M   'P 1'
_cell_length_a   8.93734600
_cell_length_b   8.90997409
_cell_length_c   9.70206861
_cell_angle_alpha   89.96520132
_cell_angle_beta   90.00000000
_cell_angle_gamma   120.10168227
_symmetry_Int_Tables_number   1
_chemical_formula_structural   Nd6TiAl23(OsRu3)2
_chemical_formula_sum   'Nd6 Ti1 Al23 Os2 Ru6'
_cell_volume   668.39621223
_cell_formula_units_Z   1
loop_
 _symmetry_equiv_pos_site_id
 _symmetry_equiv_pos_as_xyz
  1  'x, y, z'
loop_
 _atom_site_type_symbol
 _atom_site_label
 _atom_site_symmetry_multiplicity
 _atom_site_fract_x
 _atom_site_fract_y
 _atom_site_fract_z
 _atom_site_occupancy
  Nd  Nd0  1  0.192487  0.384972  0.248689  1
  Nd  Nd1  1  0.807330  0.614661  0.749819  1
  Nd  Nd2  1  0.617098  0.807199  0.249572  1
  Nd  Nd3  1  0.383620  0.192568  0.750259  1
  Nd  Nd4  1  0.190102  0.807199  0.249572  1
  Nd  Nd5  1  0.808946  0.192568  0.750259  1
  Ti  Ti6  1  0.334788  0.669577  0.989608  1
  Al  Al7  1  0.666903  0.333805  0.988140  1
  Al  Al8  1  0.666532  0.333063  0.512846  1
  Al  Al9  1  0.333247  0.666494  0.486086  1
  Al  Al10  1  0.162584  0.325168  0.574824  1
  Al  Al11  1  0.836891  0.673783  0.424613  1
  Al  Al12  1  0.674895  0.837839  0.574599  1
  Al  Al13  1  0.836825  0.673651  0.076866  1
  Al  Al14  1  0.325555  0.162356  0.424788  1
  Al  Al15  1  0.160279  0.320557  0.925979  1
  Al  Al16  1  0.162946  0.837839  0.574599  1
  Al  Al17  1  0.325505  0.162976  0.077210  1
  Al  Al18  1  0.836800  0.162356  0.424788  1
  Al  Al19  1  0.681683  0.839837  0.925670  1
  Al  Al20  1  0.837471  0.162976  0.077210  1
  Al  Al21  1  0.158154  0.839837  0.925670  1
  Al  Al22  1  0.562072  0.124144  0.252327  1
  Al  Al23  1  0.439253  0.878506  0.748746  1
  Al  Al24  1  0.874612  0.437052  0.252646  1
  Al  Al25  1  0.122278  0.561434  0.749459  1
  Al  Al26  1  0.562440  0.437052  0.252646  1
  Al  Al27  1  0.439156  0.561434  0.749459  1
  Al  Al28  1  0.000446  0.000891  0.250050  1
  Al  Al29  1  0.000230  0.000461  0.749942  1
  Os  Os30  1  0.003972  0.501802  0.002616  1
  Os  Os31  1  0.497830  0.501802  0.002616  1
  Ru  Ru32  1  0.497583  0.995165  0.002494  1
  Ru  Ru33  1  0.499077  0.998154  0.501156  1
  Ru  Ru34  1  0.001619  0.500432  0.501955  1
  Ru  Ru35  1  0.498813  0.500432  0.501955  1
  Ru  Ru36  1  0.000059  0.000117  0.001328  1
  Ru  Ru37  1  0.999921  0.999841  0.498939  1
