# generated using pymatgen
data_CeEuI6
_symmetry_space_group_name_H-M   'P 1'
_cell_length_a   8.67373100
_cell_length_b   8.67373128
_cell_length_c   4.59530000
_cell_angle_alpha   90.00000000
_cell_angle_beta   90.00000000
_cell_angle_gamma   119.99999513
_symmetry_Int_Tables_number   1
_chemical_formula_structural   CeEuI6
_chemical_formula_sum   'Ce1 Eu1 I6'
_cell_volume   299.40319768
_cell_formula_units_Z   1
loop_
 _symmetry_equiv_pos_site_id
 _symmetry_equiv_pos_as_xyz
  1  'x, y, z'
loop_
 _atom_site_type_symbol
 _atom_site_label
 _atom_site_symmetry_multiplicity
 _atom_site_fract_x
 _atom_site_fract_y
 _atom_site_fract_z
 _atom_site_occupancy
  Ce  Ce0  1  0.333333  0.666667  0.250000  1
  Eu  Eu1  1  0.666667  0.333333  0.750000  1
  I  I2  1  0.918046  0.618408  0.250000  1
  I  I3  1  0.093967  0.389646  0.750000  1
  I  I4  1  0.610354  0.704322  0.750000  1
  I  I5  1  0.381592  0.299638  0.250000  1
  I  I6  1  0.295678  0.906033  0.750000  1
  I  I7  1  0.700362  0.081954  0.250000  1
