# generated using pymatgen
data_MgMn3(SeO4)6
_symmetry_space_group_name_H-M   'P 1'
_cell_length_a   9.31532938
_cell_length_b   9.31532863
_cell_length_c   9.31532871
_cell_angle_alpha   55.04773031
_cell_angle_beta   55.04773633
_cell_angle_gamma   55.04773760
_symmetry_Int_Tables_number   1
_chemical_formula_structural   MgMn3(SeO4)6
_chemical_formula_sum   'Mg1 Mn3 Se6 O24'
_cell_volume   505.73596562
_cell_formula_units_Z   1
loop_
 _symmetry_equiv_pos_site_id
 _symmetry_equiv_pos_as_xyz
  1  'x, y, z'
loop_
 _atom_site_type_symbol
 _atom_site_label
 _atom_site_symmetry_multiplicity
 _atom_site_fract_x
 _atom_site_fract_y
 _atom_site_fract_z
 _atom_site_occupancy
  Mg  Mg0  1  0.642542  0.642542  0.642542  1
  Mn  Mn1  1  0.844835  0.844835  0.844835  1
  Mn  Mn2  1  0.358860  0.358860  0.358860  1
  Mn  Mn3  1  0.154673  0.154673  0.154673  1
  Se  Se4  1  0.542742  0.959759  0.240401  1
  Se  Se5  1  0.763434  0.455274  0.037602  1
  Se  Se6  1  0.037602  0.763434  0.455274  1
  Se  Se7  1  0.959759  0.240401  0.542742  1
  Se  Se8  1  0.240401  0.542742  0.959759  1
  Se  Se9  1  0.455274  0.037602  0.763434  1
  O  O10  1  0.679648  0.991427  0.010698  1
  O  O11  1  0.320445  0.983608  0.293516  1
  O  O12  1  0.709278  0.675568  0.016863  1
  O  O13  1  0.000964  0.995083  0.320435  1
  O  O14  1  0.267617  0.530074  0.127147  1
  O  O15  1  0.623321  0.746253  0.382980  1
  O  O16  1  0.995083  0.320435  0.000964  1
  O  O17  1  0.254919  0.627797  0.369140  1
  O  O18  1  0.875750  0.725916  0.471435  1
  O  O19  1  0.471435  0.875750  0.725916  1
  O  O20  1  0.627797  0.369140  0.254919  1
  O  O21  1  0.016863  0.709278  0.675568  1
  O  O22  1  0.983608  0.293516  0.320445  1
  O  O23  1  0.382980  0.623321  0.746253  1
  O  O24  1  0.530074  0.127147  0.267617  1
  O  O25  1  0.127147  0.267617  0.530074  1
  O  O26  1  0.746253  0.382980  0.623321  1
  O  O27  1  0.010698  0.679648  0.991427  1
  O  O28  1  0.369140  0.254919  0.627797  1
  O  O29  1  0.725916  0.471435  0.875750  1
  O  O30  1  0.991427  0.010698  0.679648  1
  O  O31  1  0.293516  0.320445  0.983608  1
  O  O32  1  0.675568  0.016863  0.709278  1
  O  O33  1  0.320435  0.000964  0.995083  1
