# generated using pymatgen
data_Dy3Ho5(SiBr6)2
_symmetry_space_group_name_H-M   'P 1'
_cell_length_a   4.04449700
_cell_length_b   13.22578907
_cell_length_c   13.99417222
_cell_angle_alpha   90.06952299
_cell_angle_beta   90.00000000
_cell_angle_gamma   90.00000000
_symmetry_Int_Tables_number   1
_chemical_formula_structural   Dy3Ho5(SiBr6)2
_chemical_formula_sum   'Dy3 Ho5 Si2 Br12'
_cell_volume   748.57101066
_cell_formula_units_Z   1
loop_
 _symmetry_equiv_pos_site_id
 _symmetry_equiv_pos_as_xyz
  1  'x, y, z'
loop_
 _atom_site_type_symbol
 _atom_site_label
 _atom_site_symmetry_multiplicity
 _atom_site_fract_x
 _atom_site_fract_y
 _atom_site_fract_z
 _atom_site_occupancy
  Dy  Dy0  1  0.000000  0.882374  0.421740  1
  Dy  Dy1  1  0.000000  0.617800  0.921583  1
  Dy  Dy2  1  0.000000  0.382144  0.078279  1
  Ho  Ho3  1  0.500000  0.117841  0.341881  1
  Ho  Ho4  1  0.500000  0.882428  0.658331  1
  Ho  Ho5  1  0.500000  0.617755  0.158251  1
  Ho  Ho6  1  0.500000  0.382031  0.841519  1
  Ho  Ho7  1  0.000000  0.117350  0.578062  1
  Si  Si8  1  0.500000  0.000209  0.500149  1
  Si  Si9  1  0.500000  0.499919  0.999838  1
  Br  Br10  1  0.500000  0.244338  0.163836  1
  Br  Br11  1  0.500000  0.755942  0.836283  1
  Br  Br12  1  0.500000  0.744795  0.336588  1
  Br  Br13  1  0.500000  0.254494  0.663548  1
  Br  Br14  1  0.000000  0.254699  0.411376  1
  Br  Br15  1  0.000000  0.745458  0.589308  1
  Br  Br16  1  0.000000  0.754711  0.089419  1
  Br  Br17  1  0.000000  0.245161  0.910421  1
  Br  Br18  1  0.000000  0.002935  0.243515  1
  Br  Br19  1  0.000000  0.997944  0.756307  1
  Br  Br20  1  0.000000  0.502948  0.256676  1
  Br  Br21  1  0.000000  0.496723  0.743091  1
