# generated using pymatgen
data_Ho3Tm13(In3Cu)2
_symmetry_space_group_name_H-M   'P 1'
_cell_length_a   10.43348800
_cell_length_b   10.43348743
_cell_length_c   6.78505000
_cell_angle_alpha   90.00000000
_cell_angle_beta   90.00000000
_cell_angle_gamma   120.00000181
_symmetry_Int_Tables_number   1
_chemical_formula_structural   Ho3Tm13(In3Cu)2
_chemical_formula_sum   'Ho3 Tm13 In6 Cu2'
_cell_volume   639.65042712
_cell_formula_units_Z   1
loop_
 _symmetry_equiv_pos_site_id
 _symmetry_equiv_pos_as_xyz
  1  'x, y, z'
loop_
 _atom_site_type_symbol
 _atom_site_label
 _atom_site_symmetry_multiplicity
 _atom_site_fract_x
 _atom_site_fract_y
 _atom_site_fract_z
 _atom_site_occupancy
  Ho  Ho0  1  0.526063  0.052127  0.518343  1
  Ho  Ho1  1  0.947873  0.473937  0.518343  1
  Ho  Ho2  1  0.526063  0.473937  0.518343  1
  Tm  Tm3  1  0.473929  0.947856  0.018347  1
  Tm  Tm4  1  0.052144  0.526071  0.018347  1
  Tm  Tm5  1  0.473929  0.526071  0.018347  1
  Tm  Tm6  1  0.175678  0.351354  0.729031  1
  Tm  Tm7  1  0.648646  0.824322  0.729031  1
  Tm  Tm8  1  0.175678  0.824322  0.729031  1
  Tm  Tm9  1  0.824350  0.648702  0.228813  1
  Tm  Tm10  1  0.351298  0.175650  0.228813  1
  Tm  Tm11  1  0.824350  0.175650  0.228813  1
  Tm  Tm12  1  0.666667  0.333333  0.890583  1
  Tm  Tm13  1  0.333333  0.666667  0.390222  1
  Tm  Tm14  1  0.000000  0.000000  0.496313  1
  Tm  Tm15  1  0.000000  0.000000  0.996385  1
  In  In16  1  0.836256  0.672511  0.752977  1
  In  In17  1  0.327489  0.163744  0.752977  1
  In  In18  1  0.836256  0.163744  0.752977  1
  In  In19  1  0.163793  0.327586  0.252897  1
  In  In20  1  0.672414  0.836207  0.252897  1
  In  In21  1  0.163793  0.836207  0.252897  1
  Cu  Cu22  1  0.666667  0.333333  0.291542  1
  Cu  Cu23  1  0.333333  0.666667  0.791738  1
