# generated using pymatgen
data_Sc4Ni13Ge
_symmetry_space_group_name_H-M   'P 1'
_cell_length_a   4.77327301
_cell_length_b   4.83155490
_cell_length_c   12.28050446
_cell_angle_alpha   78.65499016
_cell_angle_beta   78.89337643
_cell_angle_gamma   59.59528382
_symmetry_Int_Tables_number   1
_chemical_formula_structural   Sc4Ni13Ge
_chemical_formula_sum   'Sc4 Ni13 Ge1'
_cell_volume   238.03874348
_cell_formula_units_Z   1
loop_
 _symmetry_equiv_pos_site_id
 _symmetry_equiv_pos_as_xyz
  1  'x, y, z'
loop_
 _atom_site_type_symbol
 _atom_site_label
 _atom_site_symmetry_multiplicity
 _atom_site_fract_x
 _atom_site_fract_y
 _atom_site_fract_z
 _atom_site_occupancy
  Sc  Sc0  1  0.947013  0.947046  0.158894  1
  Sc  Sc1  1  0.052987  0.052954  0.841106  1
  Sc  Sc2  1  0.853017  0.851798  0.443386  1
  Sc  Sc3  1  0.146983  0.148202  0.556614  1
  Ni  Ni4  1  0.500000  0.500000  0.500000  1
  Ni  Ni5  1  0.722920  0.722986  0.831108  1
  Ni  Ni6  1  0.277080  0.277014  0.168892  1
  Ni  Ni7  1  0.611177  0.609831  0.169160  1
  Ni  Ni8  1  0.388823  0.390169  0.830840  1
  Ni  Ni9  1  0.500000  0.000000  0.000000  1
  Ni  Ni10  1  0.500000  0.500000  0.000000  1
  Ni  Ni11  1  0.389102  0.386996  0.333857  1
  Ni  Ni12  1  0.892625  0.385840  0.335696  1
  Ni  Ni13  1  0.389102  0.890046  0.333857  1
  Ni  Ni14  1  0.610898  0.613004  0.666143  1
  Ni  Ni15  1  0.107375  0.614160  0.664304  1
  Ni  Ni16  1  0.610898  0.109954  0.666143  1
  Ge  Ge17  1  0.000000  0.500000  0.000000  1
