# generated using pymatgen
data_Nd3SnGeIrRh
_symmetry_space_group_name_H-M   'P 1'
_cell_length_a   5.77250441
_cell_length_b   8.39007296
_cell_length_c   13.67717200
_cell_angle_alpha   89.98950989
_cell_angle_beta   89.86897339
_cell_angle_gamma   90.32097750
_symmetry_Int_Tables_number   1
_chemical_formula_structural   Nd3SnGeIrRh
_chemical_formula_sum   'Nd12 Sn4 Ge4 Ir4 Rh4'
_cell_volume   662.39700621
_cell_formula_units_Z   4
loop_
 _symmetry_equiv_pos_site_id
 _symmetry_equiv_pos_as_xyz
  1  'x, y, z'
loop_
 _atom_site_type_symbol
 _atom_site_label
 _atom_site_symmetry_multiplicity
 _atom_site_fract_x
 _atom_site_fract_y
 _atom_site_fract_z
 _atom_site_occupancy
  Nd  Nd0  1  0.641681  0.251842  0.249988  1
  Nd  Nd1  1  0.358981  0.750679  0.750122  1
  Nd  Nd2  1  0.359720  0.750962  0.250113  1
  Nd  Nd3  1  0.640993  0.246488  0.749906  1
  Nd  Nd4  1  0.159439  0.392794  0.101272  1
  Nd  Nd5  1  0.840129  0.607005  0.898197  1
  Nd  Nd6  1  0.839649  0.606051  0.601726  1
  Nd  Nd7  1  0.839770  0.893975  0.399466  1
  Nd  Nd8  1  0.156397  0.395032  0.397970  1
  Nd  Nd9  1  0.156660  0.104781  0.600585  1
  Nd  Nd10  1  0.156974  0.103793  0.899299  1
  Nd  Nd11  1  0.842440  0.896175  0.101191  1
  Sn  Sn12  1  0.657589  0.250874  0.000105  1
  Sn  Sn13  1  0.342061  0.749236  0.000055  1
  Sn  Sn14  1  0.341008  0.749323  0.500179  1
  Sn  Sn15  1  0.657061  0.250725  0.499948  1
  Ge  Ge16  1  0.141193  0.105070  0.250778  1
  Ge  Ge17  1  0.860453  0.895473  0.750021  1
  Ge  Ge18  1  0.860428  0.604853  0.249173  1
  Ge  Ge19  1  0.140935  0.394461  0.750058  1
  Ir  Ir20  1  0.369965  0.038868  0.097757  1
  Ir  Ir21  1  0.630425  0.961281  0.902395  1
  Ir  Ir22  1  0.631688  0.960257  0.597681  1
  Ir  Ir23  1  0.628853  0.540227  0.401557  1
  Rh  Rh24  1  0.371535  0.038197  0.403359  1
  Rh  Rh25  1  0.373409  0.461427  0.597232  1
  Rh  Rh26  1  0.372549  0.460785  0.902819  1
  Rh  Rh27  1  0.628015  0.539364  0.097049  1
