# generated using pymatgen
data_Ba2CeZrN4
_symmetry_space_group_name_H-M   'P 1'
_cell_length_a   4.26740000
_cell_length_b   4.26740000
_cell_length_c   8.75418900
_cell_angle_alpha   90.00000000
_cell_angle_beta   90.00000000
_cell_angle_gamma   90.00000000
_symmetry_Int_Tables_number   1
_chemical_formula_structural   Ba2CeZrN4
_chemical_formula_sum   'Ba2 Ce1 Zr1 N4'
_cell_volume   159.41993378
_cell_formula_units_Z   1
loop_
 _symmetry_equiv_pos_site_id
 _symmetry_equiv_pos_as_xyz
  1  'x, y, z'
loop_
 _atom_site_type_symbol
 _atom_site_label
 _atom_site_symmetry_multiplicity
 _atom_site_fract_x
 _atom_site_fract_y
 _atom_site_fract_z
 _atom_site_occupancy
  Ba  Ba0  1  0.000000  0.500000  0.127903  1
  Ba  Ba1  1  0.500000  0.000000  0.833582  1
  Ce  Ce2  1  0.500000  0.000000  0.405226  1
  Zr  Zr3  1  0.000000  0.500000  0.599247  1
  N  N4  1  0.000000  0.500000  0.829401  1
  N  N5  1  0.500000  0.000000  0.159721  1
  N  N6  1  0.000000  0.000000  0.522460  1
  N  N7  1  0.500000  0.500000  0.522460  1
