# generated using pymatgen
data_La10IrPb6Cl
_symmetry_space_group_name_H-M   'P 1'
_cell_length_a   9.69020900
_cell_length_b   9.69020911
_cell_length_c   7.28959200
_cell_angle_alpha   90.00000000
_cell_angle_beta   90.00000000
_cell_angle_gamma   120.00000304
_symmetry_Int_Tables_number   1
_chemical_formula_structural   La10IrPb6Cl
_chemical_formula_sum   'La10 Ir1 Pb6 Cl1'
_cell_volume   592.78899564
_cell_formula_units_Z   1
loop_
 _symmetry_equiv_pos_site_id
 _symmetry_equiv_pos_as_xyz
  1  'x, y, z'
loop_
 _atom_site_type_symbol
 _atom_site_label
 _atom_site_symmetry_multiplicity
 _atom_site_fract_x
 _atom_site_fract_y
 _atom_site_fract_z
 _atom_site_occupancy
  La  La0  1  0.758757  0.758757  0.761337  1
  La  La1  1  0.241243  0.000000  0.761337  1
  La  La2  1  0.000000  0.241243  0.761337  1
  La  La3  1  0.241243  0.241243  0.238663  1
  La  La4  1  0.758757  0.000000  0.238663  1
  La  La5  1  0.000000  0.758757  0.238663  1
  La  La6  1  0.666667  0.333333  0.000000  1
  La  La7  1  0.333333  0.666667  0.000000  1
  La  La8  1  0.333333  0.666667  0.500000  1
  La  La9  1  0.666667  0.333333  0.500000  1
  Ir  Ir10  1  0.000000  0.000000  0.000000  1
  Pb  Pb11  1  0.399709  0.399709  0.746790  1
  Pb  Pb12  1  0.600291  0.000000  0.746790  1
  Pb  Pb13  1  0.000000  0.600291  0.746790  1
  Pb  Pb14  1  0.600291  0.600291  0.253210  1
  Pb  Pb15  1  0.399709  0.000000  0.253210  1
  Pb  Pb16  1  0.000000  0.399709  0.253210  1
  Cl  Cl17  1  0.000000  0.000000  0.500000  1
