# generated using pymatgen
data_Dy5OsWC7
_symmetry_space_group_name_H-M   'P 1'
_cell_length_a   8.30676757
_cell_length_b   8.30676825
_cell_length_c   3.48249600
_cell_angle_alpha   90.00000000
_cell_angle_beta   90.00000000
_cell_angle_gamma   122.53596274
_symmetry_Int_Tables_number   1
_chemical_formula_structural   Dy5OsWC7
_chemical_formula_sum   'Dy5 Os1 W1 C7'
_cell_volume   202.58635489
_cell_formula_units_Z   1
loop_
 _symmetry_equiv_pos_site_id
 _symmetry_equiv_pos_as_xyz
  1  'x, y, z'
loop_
 _atom_site_type_symbol
 _atom_site_label
 _atom_site_symmetry_multiplicity
 _atom_site_fract_x
 _atom_site_fract_y
 _atom_site_fract_z
 _atom_site_occupancy
  Dy  Dy0  1  0.501740  0.498260  0.000000  1
  Dy  Dy1  1  0.072459  0.333391  0.500000  1
  Dy  Dy2  1  0.922972  0.663990  0.500000  1
  Dy  Dy3  1  0.666609  0.927541  0.500000  1
  Dy  Dy4  1  0.336010  0.077028  0.500000  1
  Os  Os5  1  0.710915  0.289085  0.000000  1
  W  W6  1  0.286635  0.713365  0.000000  1
  C  C7  1  0.633043  0.366957  0.500000  1
  C  C8  1  0.375063  0.624937  0.500000  1
  C  C9  1  0.999254  0.000746  0.000000  1
  C  C10  1  0.169180  0.170756  0.000000  1
  C  C11  1  0.829244  0.830820  0.000000  1
  C  C12  1  0.998715  0.501837  0.000000  1
  C  C13  1  0.498163  0.001285  0.000000  1
