# generated using pymatgen
data_La3Pd5
_symmetry_space_group_name_H-M   'P 1'
_cell_length_a   7.16959300
_cell_length_b   7.16959303
_cell_length_c   4.11627600
_cell_angle_alpha   90.00000000
_cell_angle_beta   90.00000000
_cell_angle_gamma   119.99999523
_symmetry_Int_Tables_number   1
_chemical_formula_structural   La3Pd5
_chemical_formula_sum   'La3 Pd5'
_cell_volume   183.24163011
_cell_formula_units_Z   1
loop_
 _symmetry_equiv_pos_site_id
 _symmetry_equiv_pos_as_xyz
  1  'x, y, z'
loop_
 _atom_site_type_symbol
 _atom_site_label
 _atom_site_symmetry_multiplicity
 _atom_site_fract_x
 _atom_site_fract_y
 _atom_site_fract_z
 _atom_site_occupancy
  La  La0  1  0.647381  0.000000  0.500000  1
  La  La1  1  0.000000  0.647381  0.500000  1
  La  La2  1  0.352619  0.352619  0.500000  1
  Pd  Pd3  1  0.228772  0.000000  0.000000  1
  Pd  Pd4  1  0.000000  0.228772  0.000000  1
  Pd  Pd5  1  0.771228  0.771228  0.000000  1
  Pd  Pd6  1  0.333333  0.666667  0.000000  1
  Pd  Pd7  1  0.666667  0.333333  0.000000  1
