# generated using pymatgen
data_CaMn2Fe3(AsO4)4
_symmetry_space_group_name_H-M   'P 1'
_cell_length_a   5.48210291
_cell_length_b   8.18852011
_cell_length_c   8.97367352
_cell_angle_alpha   90.02050489
_cell_angle_beta   89.71745614
_cell_angle_gamma   94.89338600
_symmetry_Int_Tables_number   1
_chemical_formula_structural   CaMn2Fe3(AsO4)4
_chemical_formula_sum   'Ca1 Mn2 Fe3 As4 O16'
_cell_volume   401.35784626
_cell_formula_units_Z   1
loop_
 _symmetry_equiv_pos_site_id
 _symmetry_equiv_pos_as_xyz
  1  'x, y, z'
loop_
 _atom_site_type_symbol
 _atom_site_label
 _atom_site_symmetry_multiplicity
 _atom_site_fract_x
 _atom_site_fract_y
 _atom_site_fract_z
 _atom_site_occupancy
  Ca  Ca0  1  0.998215  0.499253  0.500243  1
  Mn  Mn1  1  0.501855  0.999390  0.999421  1
  Mn  Mn2  1  0.414456  0.889747  0.642128  1
  Fe  Fe3  1  0.902579  0.389899  0.859558  1
  Fe  Fe4  1  0.585504  0.110957  0.352283  1
  Fe  Fe5  1  0.098239  0.609598  0.141232  1
  As  As6  1  0.458388  0.293457  0.703578  1
  As  As7  1  0.965576  0.800762  0.811052  1
  As  As8  1  0.543308  0.708645  0.294055  1
  As  As9  1  0.033218  0.198030  0.191511  1
  O  O10  1  0.452474  0.138960  0.571703  1
  O  O11  1  0.950500  0.635089  0.931657  1
  O  O12  1  0.552271  0.865838  0.423357  1
  O  O13  1  0.049507  0.363121  0.070715  1
  O  O14  1  0.673296  0.451814  0.661685  1
  O  O15  1  0.191907  0.950985  0.856770  1
  O  O16  1  0.325882  0.553357  0.340684  1
  O  O17  1  0.809534  0.046833  0.144534  1
  O  O18  1  0.571875  0.232865  0.873383  1
  O  O19  1  0.069524  0.743141  0.637634  1
  O  O20  1  0.428846  0.766037  0.123866  1
  O  O21  1  0.922780  0.252722  0.364602  1
  O  O22  1  0.171058  0.361899  0.709133  1
  O  O23  1  0.682663  0.875629  0.806126  1
  O  O24  1  0.827995  0.636499  0.290497  1
  O  O25  1  0.318551  0.125471  0.198593  1
