# generated using pymatgen
data_Sm3Dy2Hf3(Co4P3)4
_symmetry_space_group_name_H-M   'P 1'
_cell_length_a   12.35965845
_cell_length_b   12.35965737
_cell_length_c   3.74105700
_cell_angle_alpha   90.00000000
_cell_angle_beta   90.00000000
_cell_angle_gamma   120.05550805
_symmetry_Int_Tables_number   1
_chemical_formula_structural   Sm3Dy2Hf3(Co4P3)4
_chemical_formula_sum   'Sm3 Dy2 Hf3 Co16 P12'
_cell_volume   494.64619157
_cell_formula_units_Z   1
loop_
 _symmetry_equiv_pos_site_id
 _symmetry_equiv_pos_as_xyz
  1  'x, y, z'
loop_
 _atom_site_type_symbol
 _atom_site_label
 _atom_site_symmetry_multiplicity
 _atom_site_fract_x
 _atom_site_fract_y
 _atom_site_fract_z
 _atom_site_occupancy
  Sm  Sm0  1  0.666691  0.333296  0.000000  1
  Sm  Sm1  1  0.333296  0.666691  0.000000  1
  Sm  Sm2  1  0.182179  0.182179  0.500000  1
  Dy  Dy3  1  0.816864  0.999798  0.500000  1
  Dy  Dy4  1  0.999798  0.816864  0.500000  1
  Hf  Hf5  1  0.560231  0.560231  0.000000  1
  Hf  Hf6  1  0.441016  0.999864  0.000000  1
  Hf  Hf7  1  0.999864  0.441016  0.000000  1
  Co  Co8  1  0.821990  0.195145  0.000000  1
  Co  Co9  1  0.804951  0.627514  0.000000  1
  Co  Co10  1  0.373785  0.177255  0.000000  1
  Co  Co11  1  0.195145  0.821990  0.000000  1
  Co  Co12  1  0.627514  0.804951  0.000000  1
  Co  Co13  1  0.177255  0.373785  0.000000  1
  Co  Co14  1  0.644482  0.123132  0.500000  1
  Co  Co15  1  0.877005  0.521694  0.500000  1
  Co  Co16  1  0.479373  0.356009  0.500000  1
  Co  Co17  1  0.123132  0.644482  0.500000  1
  Co  Co18  1  0.521694  0.877005  0.500000  1
  Co  Co19  1  0.356009  0.479373  0.500000  1
  Co  Co20  1  0.722132  0.722132  0.500000  1
  Co  Co21  1  0.278347  0.998991  0.500000  1
  Co  Co22  1  0.998991  0.278347  0.500000  1
  Co  Co23  1  0.998851  0.998851  0.000000  1
  P  P24  1  0.354245  0.354245  0.000000  1
  P  P25  1  0.647662  0.999978  0.000000  1
  P  P26  1  0.999978  0.647662  0.000000  1
  P  P27  1  0.829844  0.306434  0.500000  1
  P  P28  1  0.693908  0.523974  0.500000  1
  P  P29  1  0.476110  0.169745  0.500000  1
  P  P30  1  0.306434  0.829844  0.500000  1
  P  P31  1  0.523974  0.693908  0.500000  1
  P  P32  1  0.169745  0.476110  0.500000  1
  P  P33  1  0.822027  0.822027  0.000000  1
  P  P34  1  0.177519  0.997957  0.000000  1
  P  P35  1  0.997957  0.177519  0.000000  1
