# generated using pymatgen
data_Ni3Mo2Ir2Pt
_symmetry_space_group_name_H-M   'P 1'
_cell_length_a   4.31034300
_cell_length_b   4.68826415
_cell_length_c   5.37565280
_cell_angle_alpha   90.50929052
_cell_angle_beta   90.00000000
_cell_angle_gamma   90.00000000
_symmetry_Int_Tables_number   1
_chemical_formula_structural   Ni3Mo2Ir2Pt
_chemical_formula_sum   'Ni3 Mo2 Ir2 Pt1'
_cell_volume   108.62704310
_cell_formula_units_Z   1
loop_
 _symmetry_equiv_pos_site_id
 _symmetry_equiv_pos_as_xyz
  1  'x, y, z'
loop_
 _atom_site_type_symbol
 _atom_site_label
 _atom_site_symmetry_multiplicity
 _atom_site_fract_x
 _atom_site_fract_y
 _atom_site_fract_z
 _atom_site_occupancy
  Ni  Ni0  1  0.500000  0.170269  0.250096  1
  Ni  Ni1  1  0.000000  0.335455  0.490693  1
  Ni  Ni2  1  0.500000  0.662853  0.006517  1
  Mo  Mo3  1  0.500000  0.657126  0.493103  1
  Mo  Mo4  1  0.000000  0.344985  0.008424  1
  Ir  Ir5  1  0.000000  0.821147  0.755174  1
  Ir  Ir6  1  0.000000  0.835988  0.251065  1
  Pt  Pt7  1  0.500000  0.172175  0.744929  1
