# generated using pymatgen
data_Tb5Ho3(GeBr6)2
_symmetry_space_group_name_H-M   'P 1'
_cell_length_a   4.08548400
_cell_length_b   13.28932316
_cell_length_c   14.07395749
_cell_angle_alpha   90.10110683
_cell_angle_beta   90.00000000
_cell_angle_gamma   90.00000000
_symmetry_Int_Tables_number   1
_chemical_formula_structural   Tb5Ho3(GeBr6)2
_chemical_formula_sum   'Tb5 Ho3 Ge2 Br12'
_cell_volume   764.12064780
_cell_formula_units_Z   1
loop_
 _symmetry_equiv_pos_site_id
 _symmetry_equiv_pos_as_xyz
  1  'x, y, z'
loop_
 _atom_site_type_symbol
 _atom_site_label
 _atom_site_symmetry_multiplicity
 _atom_site_fract_x
 _atom_site_fract_y
 _atom_site_fract_z
 _atom_site_occupancy
  Tb  Tb0  1  0.500000  0.118587  0.340515  1
  Tb  Tb1  1  0.000000  0.119222  0.578925  1
  Tb  Tb2  1  0.000000  0.880986  0.420779  1
  Tb  Tb3  1  0.000000  0.619114  0.920962  1
  Tb  Tb4  1  0.000000  0.381046  0.078907  1
  Ho  Ho5  1  0.500000  0.881222  0.659756  1
  Ho  Ho6  1  0.500000  0.618512  0.159335  1
  Ho  Ho7  1  0.500000  0.381563  0.840598  1
  Ge  Ge8  1  0.500000  0.999413  0.500771  1
  Ge  Ge9  1  0.500000  0.500062  0.999922  1
  Br  Br10  1  0.500000  0.244289  0.162853  1
  Br  Br11  1  0.500000  0.756470  0.836005  1
  Br  Br12  1  0.500000  0.743288  0.335861  1
  Br  Br13  1  0.500000  0.256628  0.664280  1
  Br  Br14  1  0.000000  0.255699  0.411449  1
  Br  Br15  1  0.000000  0.745919  0.590086  1
  Br  Br16  1  0.000000  0.753987  0.090106  1
  Br  Br17  1  0.000000  0.246043  0.909784  1
  Br  Br18  1  0.000000  0.001551  0.242943  1
  Br  Br19  1  0.000000  0.996346  0.756231  1
  Br  Br20  1  0.000000  0.503777  0.256102  1
  Br  Br21  1  0.000000  0.496275  0.743829  1
