# generated using pymatgen
data_Ce2Nd2PdRh3Pb2
_symmetry_space_group_name_H-M   'P 1'
_cell_length_a   7.85082474
_cell_length_b   7.86454268
_cell_length_c   3.76174700
_cell_angle_alpha   90.00000000
_cell_angle_beta   90.00000000
_cell_angle_gamma   89.59428473
_symmetry_Int_Tables_number   1
_chemical_formula_structural   Ce2Nd2PdRh3Pb2
_chemical_formula_sum   'Ce2 Nd2 Pd1 Rh3 Pb2'
_cell_volume   232.25627217
_cell_formula_units_Z   1
loop_
 _symmetry_equiv_pos_site_id
 _symmetry_equiv_pos_as_xyz
  1  'x, y, z'
loop_
 _atom_site_type_symbol
 _atom_site_label
 _atom_site_symmetry_multiplicity
 _atom_site_fract_x
 _atom_site_fract_y
 _atom_site_fract_z
 _atom_site_occupancy
  Ce  Ce0  1  0.828091  0.684554  0.500000  1
  Ce  Ce1  1  0.319211  0.831154  0.500000  1
  Nd  Nd2  1  0.663029  0.169432  0.500000  1
  Nd  Nd3  1  0.179905  0.327480  0.500000  1
  Pd  Pd4  1  0.876620  0.387008  0.000000  1
  Rh  Rh5  1  0.373223  0.096159  0.000000  1
  Rh  Rh6  1  0.129507  0.650091  0.000000  1
  Rh  Rh7  1  0.639361  0.844509  0.000000  1
  Pb  Pb8  1  0.995010  0.006237  0.000000  1
  Pb  Pb9  1  0.496042  0.503377  0.000000  1
