# generated using pymatgen
data_CaPr3(Tm4Bi3)4
_symmetry_space_group_name_H-M   'P 1'
_cell_length_a   8.27001947
_cell_length_b   9.47271500
_cell_length_c   12.04270600
_cell_angle_alpha   90.00000000
_cell_angle_beta   90.01921864
_cell_angle_gamma   90.00000000
_symmetry_Int_Tables_number   1
_chemical_formula_structural   CaPr3(Tm4Bi3)4
_chemical_formula_sum   'Ca1 Pr3 Tm16 Bi12'
_cell_volume   943.41996448
_cell_formula_units_Z   1
loop_
 _symmetry_equiv_pos_site_id
 _symmetry_equiv_pos_as_xyz
  1  'x, y, z'
loop_
 _atom_site_type_symbol
 _atom_site_label
 _atom_site_symmetry_multiplicity
 _atom_site_fract_x
 _atom_site_fract_y
 _atom_site_fract_z
 _atom_site_occupancy
  Ca  Ca0  1  0.185113  0.750000  0.718906  1
  Pr  Pr1  1  0.316586  0.250000  0.218925  1
  Pr  Pr2  1  0.816521  0.250000  0.280396  1
  Pr  Pr3  1  0.683312  0.750000  0.781236  1
  Tm  Tm4  1  0.351477  0.750000  0.218479  1
  Tm  Tm5  1  0.851707  0.750000  0.281476  1
  Tm  Tm6  1  0.647643  0.250000  0.780534  1
  Tm  Tm7  1  0.148644  0.250000  0.719223  1
  Tm  Tm8  1  0.690188  0.565840  0.061201  1
  Tm  Tm9  1  0.191453  0.935595  0.437148  1
  Tm  Tm10  1  0.309113  0.066928  0.938513  1
  Tm  Tm11  1  0.806837  0.434385  0.561119  1
  Tm  Tm12  1  0.309113  0.433072  0.938513  1
  Tm  Tm13  1  0.806837  0.065615  0.561119  1
  Tm  Tm14  1  0.690188  0.934160  0.061201  1
  Tm  Tm15  1  0.191453  0.564405  0.437148  1
  Tm  Tm16  1  0.476933  0.250000  0.489441  1
  Tm  Tm17  1  0.978414  0.250000  0.010595  1
  Tm  Tm18  1  0.524320  0.750000  0.511504  1
  Tm  Tm19  1  0.021005  0.750000  0.990044  1
  Bi  Bi20  1  0.399437  0.750000  0.963795  1
  Bi  Bi21  1  0.907656  0.750000  0.537837  1
  Bi  Bi22  1  0.598027  0.250000  0.035114  1
  Bi  Bi23  1  0.096274  0.250000  0.465259  1
  Bi  Bi24  1  0.565823  0.990055  0.329042  1
  Bi  Bi25  1  0.064961  0.510071  0.172074  1
  Bi  Bi26  1  0.432741  0.492205  0.671460  1
  Bi  Bi27  1  0.937350  0.008046  0.828060  1
  Bi  Bi28  1  0.432741  0.007795  0.671460  1
  Bi  Bi29  1  0.937350  0.491954  0.828060  1
  Bi  Bi30  1  0.565823  0.509945  0.329042  1
  Bi  Bi31  1  0.064961  0.989929  0.172074  1
