# generated using pymatgen
data_Th14Tc4IrPt
_symmetry_space_group_name_H-M   'P 1'
_cell_length_a   10.01972740
_cell_length_b   9.99136606
_cell_length_c   6.32013942
_cell_angle_alpha   90.07629267
_cell_angle_beta   89.82433232
_cell_angle_gamma   119.61313989
_symmetry_Int_Tables_number   1
_chemical_formula_structural   Th14Tc4IrPt
_chemical_formula_sum   'Th14 Tc4 Ir1 Pt1'
_cell_volume   550.06731946
_cell_formula_units_Z   1
loop_
 _symmetry_equiv_pos_site_id
 _symmetry_equiv_pos_as_xyz
  1  'x, y, z'
loop_
 _atom_site_type_symbol
 _atom_site_label
 _atom_site_symmetry_multiplicity
 _atom_site_fract_x
 _atom_site_fract_y
 _atom_site_fract_z
 _atom_site_occupancy
  Th  Th0  1  0.466013  0.543621  0.294381  1
  Th  Th1  1  0.074266  0.540699  0.290058  1
  Th  Th2  1  0.917120  0.458684  0.798954  1
  Th  Th3  1  0.260653  0.126428  0.504119  1
  Th  Th4  1  0.542384  0.081075  0.799767  1
  Th  Th5  1  0.753515  0.876920  0.001872  1
  Th  Th6  1  0.665933  0.333918  0.285468  1
  Th  Th7  1  0.125056  0.875812  0.002042  1
  Th  Th8  1  0.459346  0.916478  0.294023  1
  Th  Th9  1  0.543973  0.461444  0.798705  1
  Th  Th10  1  0.865717  0.121526  0.503300  1
  Th  Th11  1  0.123677  0.245113  0.007802  1
  Th  Th12  1  0.871597  0.748892  0.503806  1
  Th  Th13  1  0.337455  0.670843  0.799236  1
  Tc  Tc14  1  0.816008  0.630667  0.048948  1
  Tc  Tc15  1  0.819130  0.187338  0.047568  1
  Tc  Tc16  1  0.621074  0.809362  0.550559  1
  Tc  Tc17  1  0.368786  0.187668  0.047149  1
  Ir  Ir18  1  0.183753  0.807977  0.551280  1
  Pt  Pt19  1  0.184546  0.375539  0.554964  1
