# generated using pymatgen
data_Ho7Tm(WO6)4
_symmetry_space_group_name_H-M   'P 1'
_cell_length_a   5.37466575
_cell_length_b   7.68078202
_cell_length_c   11.42554809
_cell_angle_alpha   75.41318154
_cell_angle_beta   89.98160337
_cell_angle_gamma   89.93972622
_symmetry_Int_Tables_number   1
_chemical_formula_structural   Ho7Tm(WO6)4
_chemical_formula_sum   'Ho7 Tm1 W4 O24'
_cell_volume   456.46194034
_cell_formula_units_Z   1
loop_
 _symmetry_equiv_pos_site_id
 _symmetry_equiv_pos_as_xyz
  1  'x, y, z'
loop_
 _atom_site_type_symbol
 _atom_site_label
 _atom_site_symmetry_multiplicity
 _atom_site_fract_x
 _atom_site_fract_y
 _atom_site_fract_z
 _atom_site_occupancy
  Ho  Ho0  1  0.740034  0.000150  0.749263  1
  Ho  Ho1  1  0.259877  0.000425  0.250933  1
  Ho  Ho2  1  0.183201  0.794557  0.577982  1
  Ho  Ho3  1  0.815831  0.794510  0.078055  1
  Ho  Ho4  1  0.684316  0.499670  0.749674  1
  Ho  Ho5  1  0.316271  0.499637  0.250699  1
  Ho  Ho6  1  0.184714  0.205308  0.921908  1
  Tm  Tm7  1  0.816546  0.206691  0.421406  1
  W  W8  1  0.255857  0.723359  0.885243  1
  W  W9  1  0.744016  0.723383  0.385268  1
  W  W10  1  0.256075  0.276522  0.613975  1
  W  W11  1  0.744847  0.276323  0.115396  1
  O  O12  1  0.043028  0.939920  0.895273  1
  O  O13  1  0.533782  0.847917  0.930622  1
  O  O14  1  0.953115  0.941732  0.395582  1
  O  O15  1  0.458604  0.791051  0.726649  1
  O  O16  1  0.463641  0.846096  0.430695  1
  O  O17  1  0.979826  0.709872  0.771402  1
  O  O18  1  0.540944  0.790454  0.226989  1
  O  O19  1  0.848440  0.634303  0.548879  1
  O  O20  1  0.362474  0.489307  0.885272  1
  O  O21  1  0.020495  0.710745  0.271835  1
  O  O22  1  0.361898  0.510336  0.613867  1
  O  O23  1  0.849115  0.365301  0.951648  1
  O  O24  1  0.151262  0.633969  0.048869  1
  O  O25  1  0.640303  0.488522  0.385437  1
  O  O26  1  0.980726  0.289914  0.728422  1
  O  O27  1  0.638208  0.510319  0.114918  1
  O  O28  1  0.149152  0.365404  0.450525  1
  O  O29  1  0.459037  0.208708  0.772472  1
  O  O30  1  0.019696  0.289541  0.229911  1
  O  O31  1  0.536021  0.153798  0.567574  1
  O  O32  1  0.542949  0.208660  0.274663  1
  O  O33  1  0.043066  0.060867  0.603479  1
  O  O34  1  0.465483  0.152800  0.070286  1
  O  O35  1  0.957152  0.059930  0.104930  1
