# generated using pymatgen
data_Yb3Y(B4Ru5)2
_symmetry_space_group_name_H-M   'P 1'
_cell_length_a   3.01332500
_cell_length_b   8.72113579
_cell_length_c   10.20820092
_cell_angle_alpha   89.90533199
_cell_angle_beta   90.00000000
_cell_angle_gamma   90.00000000
_symmetry_Int_Tables_number   1
_chemical_formula_structural   Yb3Y(B4Ru5)2
_chemical_formula_sum   'Yb3 Y1 B8 Ru10'
_cell_volume   268.26723922
_cell_formula_units_Z   1
loop_
 _symmetry_equiv_pos_site_id
 _symmetry_equiv_pos_as_xyz
  1  'x, y, z'
loop_
 _atom_site_type_symbol
 _atom_site_label
 _atom_site_symmetry_multiplicity
 _atom_site_fract_x
 _atom_site_fract_y
 _atom_site_fract_z
 _atom_site_occupancy
  Yb  Yb0  1  0.500000  0.841551  0.180597  1
  Yb  Yb1  1  0.500000  0.157824  0.817305  1
  Yb  Yb2  1  0.500000  0.658089  0.683864  1
  Y  Y3  1  0.500000  0.341766  0.317994  1
  B  B4  1  0.500000  0.964553  0.590105  1
  B  B5  1  0.500000  0.032594  0.411802  1
  B  B6  1  0.500000  0.853239  0.899045  1
  B  B7  1  0.500000  0.145790  0.097948  1
  B  B8  1  0.500000  0.649106  0.400335  1
  B  B9  1  0.500000  0.353454  0.602445  1
  B  B10  1  0.500000  0.466241  0.910149  1
  B  B11  1  0.500000  0.536404  0.087568  1
  Ru  Ru12  1  0.000000  0.656818  0.954605  1
  Ru  Ru13  1  0.000000  0.342895  0.045459  1
  Ru  Ru14  1  0.000000  0.843101  0.454763  1
  Ru  Ru15  1  0.000000  0.157032  0.545379  1
  Ru  Ru16  1  0.000000  0.999711  0.999652  1
  Ru  Ru17  1  0.000000  0.404647  0.760433  1
  Ru  Ru18  1  0.000000  0.597460  0.239376  1
  Ru  Ru19  1  0.000000  0.501841  0.501550  1
  Ru  Ru20  1  0.000000  0.904370  0.740018  1
  Ru  Ru21  1  0.000000  0.091516  0.259609  1
