# generated using pymatgen
data_Ti8Al14GeRu3Rh4
_symmetry_space_group_name_H-M   'P 1'
_cell_length_a   8.64328756
_cell_length_b   8.65664104
_cell_length_c   8.64328730
_cell_angle_alpha   120.09101024
_cell_angle_beta   119.79237061
_cell_angle_gamma   90.05675325
_symmetry_Int_Tables_number   1
_chemical_formula_structural   Ti8Al14GeRu3Rh4
_chemical_formula_sum   'Ti8 Al14 Ge1 Ru3 Rh4'
_cell_volume   457.86663736
_cell_formula_units_Z   1
loop_
 _symmetry_equiv_pos_site_id
 _symmetry_equiv_pos_as_xyz
  1  'x, y, z'
loop_
 _atom_site_type_symbol
 _atom_site_label
 _atom_site_symmetry_multiplicity
 _atom_site_fract_x
 _atom_site_fract_y
 _atom_site_fract_z
 _atom_site_occupancy
  Ti  Ti0  1  0.792083  0.293746  0.080884  1
  Ti  Ti1  1  0.212862  0.293746  0.501663  1
  Ti  Ti2  1  0.205075  0.708488  0.503413  1
  Ti  Ti3  1  0.215992  0.715569  0.919831  1
  Ti  Ti4  1  0.795738  0.715569  0.499577  1
  Ti  Ti5  1  0.785826  0.281779  0.495952  1
  Ti  Ti6  1  0.377454  0.122032  0.744578  1
  Ti  Ti7  1  0.380765  0.635831  0.255066  1
  Al  Al8  1  0.156033  0.341638  0.185605  1
  Al  Al9  1  0.157450  0.974606  0.817156  1
  Al  Al10  1  0.152765  0.343874  0.809179  1
  Al  Al11  1  0.534694  0.343874  0.191109  1
  Al  Al12  1  0.844369  0.654045  0.809677  1
  Al  Al13  1  0.843564  0.030082  0.186520  1
  Al  Al14  1  0.841281  0.657280  0.183427  1
  Al  Al15  1  0.473852  0.657280  0.815999  1
  Al  Al16  1  0.380700  0.120629  0.259558  1
  Al  Al17  1  0.861071  0.120629  0.739929  1
  Al  Al18  1  0.620815  0.877145  0.256330  1
  Al  Al19  1  0.619787  0.362774  0.742988  1
  Al  Al20  1  0.619214  0.878866  0.742119  1
  Al  Al21  1  0.136747  0.878866  0.259651  1
  Ge  Ge22  1  0.996019  0.496184  0.500165  1
  Ru  Ru23  1  0.001358  0.000171  0.501700  1
  Ru  Ru24  1  0.498471  0.000171  0.998813  1
  Ru  Ru25  1  0.497326  0.497873  0.000548  1
  Rh  Rh26  1  0.499077  0.499917  0.498854  1
  Rh  Rh27  1  0.001064  0.499917  0.000840  1
  Rh  Rh28  1  0.999803  0.999257  0.999454  1
  Rh  Rh29  1  0.498742  0.998158  0.499416  1
