# generated using pymatgen
data_LaPa3(CoP)4
_symmetry_space_group_name_H-M   'P 1'
_cell_length_a   3.94053300
_cell_length_b   3.94053353
_cell_length_c   15.41629000
_cell_angle_alpha   90.00000000
_cell_angle_beta   90.00000000
_cell_angle_gamma   120.00000399
_symmetry_Int_Tables_number   1
_chemical_formula_structural   LaPa3(CoP)4
_chemical_formula_sum   'La1 Pa3 Co4 P4'
_cell_volume   207.31010957
_cell_formula_units_Z   1
loop_
 _symmetry_equiv_pos_site_id
 _symmetry_equiv_pos_as_xyz
  1  'x, y, z'
loop_
 _atom_site_type_symbol
 _atom_site_label
 _atom_site_symmetry_multiplicity
 _atom_site_fract_x
 _atom_site_fract_y
 _atom_site_fract_z
 _atom_site_occupancy
  La  La0  1  0.000000  0.000000  0.500000  1
  Pa  Pa1  1  0.000000  0.000000  0.246890  1
  Pa  Pa2  1  0.000000  0.000000  0.753110  1
  Pa  Pa3  1  0.000000  0.000000  0.000000  1
  Co  Co4  1  0.333333  0.666667  0.109583  1
  Co  Co5  1  0.666667  0.333333  0.890417  1
  Co  Co6  1  0.666667  0.333333  0.651046  1
  Co  Co7  1  0.333333  0.666667  0.348954  1
  P  P8  1  0.333333  0.666667  0.631479  1
  P  P9  1  0.666667  0.333333  0.368521  1
  P  P10  1  0.666667  0.333333  0.128768  1
  P  P11  1  0.333333  0.666667  0.871232  1
