# generated using pymatgen
data_Tb2Mg(P3Pd10)2
_symmetry_space_group_name_H-M   'P 1'
_cell_length_a   8.65874648
_cell_length_b   8.65874959
_cell_length_c   8.65898100
_cell_angle_alpha   59.99911974
_cell_angle_beta   59.99910788
_cell_angle_gamma   60.00405604
_symmetry_Int_Tables_number   1
_chemical_formula_structural   Tb2Mg(P3Pd10)2
_chemical_formula_sum   'Tb2 Mg1 P6 Pd20'
_cell_volume   459.06003598
_cell_formula_units_Z   1
loop_
 _symmetry_equiv_pos_site_id
 _symmetry_equiv_pos_as_xyz
  1  'x, y, z'
loop_
 _atom_site_type_symbol
 _atom_site_label
 _atom_site_symmetry_multiplicity
 _atom_site_fract_x
 _atom_site_fract_y
 _atom_site_fract_z
 _atom_site_occupancy
  Tb  Tb0  1  0.250003  0.250005  0.249996  1
  Tb  Tb1  1  0.749997  0.749995  0.750004  1
  Mg  Mg2  1  0.000000  0.000000  0.000000  1
  P  P3  1  0.737421  0.262579  0.262576  1
  P  P4  1  0.262579  0.737421  0.737424  1
  P  P5  1  0.262579  0.737421  0.262576  1
  P  P6  1  0.737421  0.262579  0.737424  1
  P  P7  1  0.262592  0.262592  0.737408  1
  P  P8  1  0.737408  0.737408  0.262592  1
  Pd  Pd9  1  0.384821  0.384824  0.384777  1
  Pd  Pd10  1  0.615179  0.615176  0.615223  1
  Pd  Pd11  1  0.384821  0.384824  0.845578  1
  Pd  Pd12  1  0.384778  0.845589  0.384816  1
  Pd  Pd13  1  0.615179  0.615176  0.154422  1
  Pd  Pd14  1  0.615222  0.154411  0.615184  1
  Pd  Pd15  1  0.845589  0.384780  0.384816  1
  Pd  Pd16  1  0.154411  0.615220  0.615184  1
  Pd  Pd17  1  0.343812  0.999969  0.000027  1
  Pd  Pd18  1  0.656188  0.000031  0.999973  1
  Pd  Pd19  1  0.999968  0.343814  0.656192  1
  Pd  Pd20  1  0.000032  0.656186  0.343808  1
  Pd  Pd21  1  0.999968  0.343814  0.000026  1
  Pd  Pd22  1  0.656188  0.000031  0.343808  1
  Pd  Pd23  1  0.000032  0.656186  0.999974  1
  Pd  Pd24  1  0.343812  0.999969  0.656192  1
  Pd  Pd25  1  0.000000  0.000000  0.343912  1
  Pd  Pd26  1  0.000000  0.000000  0.656088  1
  Pd  Pd27  1  0.656098  0.343905  0.999999  1
  Pd  Pd28  1  0.343902  0.656095  0.000001  1
