# generated using pymatgen
data_CeDy7(CoHg)2
_symmetry_space_group_name_H-M   'P 1'
_cell_length_a   9.32143125
_cell_length_b   9.54862964
_cell_length_c   9.56209134
_cell_angle_alpha   58.38677064
_cell_angle_beta   60.73438467
_cell_angle_gamma   60.69170170
_symmetry_Int_Tables_number   1
_chemical_formula_structural   CeDy7(CoHg)2
_chemical_formula_sum   'Ce2 Dy14 Co4 Hg4'
_cell_volume   600.30972801
_cell_formula_units_Z   2
loop_
 _symmetry_equiv_pos_site_id
 _symmetry_equiv_pos_as_xyz
  1  'x, y, z'
loop_
 _atom_site_type_symbol
 _atom_site_label
 _atom_site_symmetry_multiplicity
 _atom_site_fract_x
 _atom_site_fract_y
 _atom_site_fract_z
 _atom_site_occupancy
  Ce  Ce0  1  0.815811  0.183972  0.184032  1
  Ce  Ce1  1  0.183972  0.815811  0.816185  1
  Dy  Dy2  1  0.191188  0.808656  0.191479  1
  Dy  Dy3  1  0.808656  0.191188  0.808677  1
  Dy  Dy4  1  0.191328  0.191328  0.808672  1
  Dy  Dy5  1  0.808668  0.808668  0.191332  1
  Dy  Dy6  1  0.926463  0.573660  0.573077  1
  Dy  Dy7  1  0.573660  0.926463  0.926800  1
  Dy  Dy8  1  0.558132  0.941936  0.557301  1
  Dy  Dy9  1  0.941936  0.558132  0.942631  1
  Dy  Dy10  1  0.557754  0.557754  0.942246  1
  Dy  Dy11  1  0.942276  0.942276  0.557724  1
  Dy  Dy12  1  0.337045  0.352258  0.351658  1
  Dy  Dy13  1  0.352258  0.337045  0.959038  1
  Dy  Dy14  1  0.351521  0.960745  0.336795  1
  Dy  Dy15  1  0.960745  0.351521  0.350940  1
  Co  Co16  1  0.097310  0.153818  0.154740  1
  Co  Co17  1  0.153818  0.097310  0.594133  1
  Co  Co18  1  0.153995  0.593097  0.097970  1
  Co  Co19  1  0.593097  0.153995  0.154938  1
  Hg  Hg20  1  0.586615  0.583809  0.583949  1
  Hg  Hg21  1  0.583809  0.586615  0.245627  1
  Hg  Hg22  1  0.583478  0.246465  0.586432  1
  Hg  Hg23  1  0.246465  0.583478  0.583625  1
