# generated using pymatgen
data_CeDy7MgCo2Hg
_symmetry_space_group_name_H-M   'P 1'
_cell_length_a   9.37135533
_cell_length_b   9.60325623
_cell_length_c   9.57778617
_cell_angle_alpha   58.51530831
_cell_angle_beta   60.89089570
_cell_angle_gamma   61.18835563
_symmetry_Int_Tables_number   1
_chemical_formula_structural   CeDy7MgCo2Hg
_chemical_formula_sum   'Ce2 Dy14 Mg2 Co4 Hg2'
_cell_volume   611.44835915
_cell_formula_units_Z   2
loop_
 _symmetry_equiv_pos_site_id
 _symmetry_equiv_pos_as_xyz
  1  'x, y, z'
loop_
 _atom_site_type_symbol
 _atom_site_label
 _atom_site_symmetry_multiplicity
 _atom_site_fract_x
 _atom_site_fract_y
 _atom_site_fract_z
 _atom_site_occupancy
  Ce  Ce0  1  0.817638  0.181843  0.183822  1
  Ce  Ce1  1  0.181838  0.817715  0.816623  1
  Dy  Dy2  1  0.189075  0.808561  0.190167  1
  Dy  Dy3  1  0.808557  0.189052  0.812210  1
  Dy  Dy4  1  0.187579  0.187576  0.812434  1
  Dy  Dy5  1  0.806201  0.806206  0.193793  1
  Dy  Dy6  1  0.925247  0.573959  0.575856  1
  Dy  Dy7  1  0.573928  0.925271  0.924971  1
  Dy  Dy8  1  0.557655  0.939072  0.558674  1
  Dy  Dy9  1  0.939092  0.557675  0.944590  1
  Dy  Dy10  1  0.557247  0.557274  0.942738  1
  Dy  Dy11  1  0.941280  0.941254  0.558744  1
  Dy  Dy12  1  0.333476  0.349706  0.348615  1
  Dy  Dy13  1  0.349708  0.333502  0.968194  1
  Dy  Dy14  1  0.353129  0.963411  0.333021  1
  Dy  Dy15  1  0.963448  0.353108  0.350447  1
  Mg  Mg16  1  0.579150  0.271917  0.575307  1
  Mg  Mg17  1  0.271905  0.579127  0.573646  1
  Co  Co18  1  0.094238  0.155479  0.157223  1
  Co  Co19  1  0.155505  0.094131  0.593131  1
  Co  Co20  1  0.153334  0.595599  0.094618  1
  Co  Co21  1  0.595503  0.153308  0.156442  1
  Hg  Hg22  1  0.585216  0.580051  0.586395  1
  Hg  Hg23  1  0.580052  0.585200  0.248339  1
