# generated using pymatgen
data_Tb12Dy4InAg3Rh4
_symmetry_space_group_name_H-M   'P 1'
_cell_length_a   9.57336175
_cell_length_b   9.57336217
_cell_length_c   9.57253050
_cell_angle_alpha   60.26995327
_cell_angle_beta   60.26995075
_cell_angle_gamma   60.26778827
_symmetry_Int_Tables_number   1
_chemical_formula_structural   Tb12Dy4InAg3Rh4
_chemical_formula_sum   'Tb12 Dy4 In1 Ag3 Rh4'
_cell_volume   624.13587156
_cell_formula_units_Z   1
loop_
 _symmetry_equiv_pos_site_id
 _symmetry_equiv_pos_as_xyz
  1  'x, y, z'
loop_
 _atom_site_type_symbol
 _atom_site_label
 _atom_site_symmetry_multiplicity
 _atom_site_fract_x
 _atom_site_fract_y
 _atom_site_fract_z
 _atom_site_occupancy
  Tb  Tb0  1  0.688534  0.312451  0.312599  1
  Tb  Tb1  1  0.689886  0.689886  0.310251  1
  Tb  Tb2  1  0.312451  0.688534  0.312599  1
  Tb  Tb3  1  0.935528  0.935528  0.560509  1
  Tb  Tb4  1  0.148328  0.148328  0.554751  1
  Tb  Tb5  1  0.562912  0.935911  0.563087  1
  Tb  Tb6  1  0.147857  0.147857  0.147763  1
  Tb  Tb7  1  0.312696  0.312696  0.688570  1
  Tb  Tb8  1  0.935911  0.562912  0.563087  1
  Tb  Tb9  1  0.562897  0.562897  0.935862  1
  Tb  Tb10  1  0.560438  0.935669  0.935492  1
  Tb  Tb11  1  0.935669  0.560438  0.935492  1
  Dy  Dy12  1  0.148591  0.554435  0.148290  1
  Dy  Dy13  1  0.310140  0.689659  0.689988  1
  Dy  Dy14  1  0.689659  0.310140  0.689988  1
  Dy  Dy15  1  0.554435  0.148591  0.148290  1
  In  In16  1  0.921131  0.921131  0.921263  1
  Ag  Ag17  1  0.916967  0.916967  0.248732  1
  Ag  Ag18  1  0.248823  0.916819  0.917079  1
  Ag  Ag19  1  0.916819  0.248823  0.917079  1
  Rh  Rh20  1  0.357432  0.357432  0.356729  1
  Rh  Rh21  1  0.929667  0.356567  0.356422  1
  Rh  Rh22  1  0.356662  0.356662  0.929660  1
  Rh  Rh23  1  0.356567  0.929667  0.356422  1
