# generated using pymatgen
data_Zr5Re(B2Ru5)2
_symmetry_space_group_name_H-M   'P 1'
_cell_length_a   9.53078300
_cell_length_b   9.53078300
_cell_length_c   3.10329700
_cell_angle_alpha   90.00000000
_cell_angle_beta   90.00000000
_cell_angle_gamma   90.00000000
_symmetry_Int_Tables_number   1
_chemical_formula_structural   Zr5Re(B2Ru5)2
_chemical_formula_sum   'Zr5 Re1 B4 Ru10'
_cell_volume   281.89054195
_cell_formula_units_Z   1
loop_
 _symmetry_equiv_pos_site_id
 _symmetry_equiv_pos_as_xyz
  1  'x, y, z'
loop_
 _atom_site_type_symbol
 _atom_site_label
 _atom_site_symmetry_multiplicity
 _atom_site_fract_x
 _atom_site_fract_y
 _atom_site_fract_z
 _atom_site_occupancy
  Zr  Zr0  1  0.824014  0.675837  0.000000  1
  Zr  Zr1  1  0.175986  0.324163  0.000000  1
  Zr  Zr2  1  0.324163  0.824014  0.000000  1
  Zr  Zr3  1  0.675837  0.175986  0.000000  1
  Zr  Zr4  1  0.500000  0.500000  0.000000  1
  Re  Re5  1  0.000000  0.000000  0.000000  1
  B  B6  1  0.619197  0.877525  0.000000  1
  B  B7  1  0.380803  0.122475  0.000000  1
  B  B8  1  0.122475  0.619197  0.000000  1
  B  B9  1  0.877525  0.380803  0.000000  1
  Ru  Ru10  1  0.575418  0.723157  0.500000  1
  Ru  Ru11  1  0.424582  0.276843  0.500000  1
  Ru  Ru12  1  0.067193  0.784604  0.500000  1
  Ru  Ru13  1  0.932807  0.215396  0.500000  1
  Ru  Ru14  1  0.276843  0.575418  0.500000  1
  Ru  Ru15  1  0.723157  0.424582  0.500000  1
  Ru  Ru16  1  0.215396  0.067193  0.500000  1
  Ru  Ru17  1  0.784604  0.932807  0.500000  1
  Ru  Ru18  1  0.500000  0.000000  0.500000  1
  Ru  Ru19  1  0.000000  0.500000  0.500000  1
