# generated using pymatgen
data_Hf3(Zn2Ni)2
_symmetry_space_group_name_H-M   'P 1'
_cell_length_a   7.03035100
_cell_length_b   7.03034926
_cell_length_c   3.31514200
_cell_angle_alpha   90.00000000
_cell_angle_beta   90.00000000
_cell_angle_gamma   119.99998465
_symmetry_Int_Tables_number   1
_chemical_formula_structural   Hf3(Zn2Ni)2
_chemical_formula_sum   'Hf3 Zn4 Ni2'
_cell_volume   141.90142075
_cell_formula_units_Z   1
loop_
 _symmetry_equiv_pos_site_id
 _symmetry_equiv_pos_as_xyz
  1  'x, y, z'
loop_
 _atom_site_type_symbol
 _atom_site_label
 _atom_site_symmetry_multiplicity
 _atom_site_fract_x
 _atom_site_fract_y
 _atom_site_fract_z
 _atom_site_occupancy
  Hf  Hf0  1  0.000000  0.589826  0.500000  1
  Hf  Hf1  1  0.410174  0.410174  0.500000  1
  Hf  Hf2  1  0.589826  0.000000  0.500000  1
  Zn  Zn3  1  0.000000  0.000000  0.500000  1
  Zn  Zn4  1  0.268992  0.000000  0.000000  1
  Zn  Zn5  1  0.731008  0.731008  0.000000  1
  Zn  Zn6  1  0.000000  0.268992  0.000000  1
  Ni  Ni7  1  0.666667  0.333333  0.000000  1
  Ni  Ni8  1  0.333333  0.666667  0.000000  1
