# generated using pymatgen
data_La4Pr5NdIr4
_symmetry_space_group_name_H-M   'P 1'
_cell_length_a   9.17085234
_cell_length_b   9.17085130
_cell_length_c   7.36954978
_cell_angle_alpha   84.04503881
_cell_angle_beta   84.04503894
_cell_angle_gamma   43.21259233
_symmetry_Int_Tables_number   1
_chemical_formula_structural   La4Pr5NdIr4
_chemical_formula_sum   'La4 Pr5 Nd1 Ir4'
_cell_volume   421.73965523
_cell_formula_units_Z   1
loop_
 _symmetry_equiv_pos_site_id
 _symmetry_equiv_pos_as_xyz
  1  'x, y, z'
loop_
 _atom_site_type_symbol
 _atom_site_label
 _atom_site_symmetry_multiplicity
 _atom_site_fract_x
 _atom_site_fract_y
 _atom_site_fract_z
 _atom_site_occupancy
  La  La0  1  0.016132  0.796594  0.914998  1
  La  La1  1  0.203406  0.983868  0.585002  1
  La  La2  1  0.983895  0.203300  0.085132  1
  La  La3  1  0.796700  0.016105  0.414868  1
  Pr  Pr4  1  0.353723  0.213235  0.818210  1
  Pr  Pr5  1  0.786765  0.646277  0.681790  1
  Pr  Pr6  1  0.646122  0.786742  0.181798  1
  Pr  Pr7  1  0.213258  0.353878  0.318202  1
  Pr  Pr8  1  0.569353  0.430647  0.750000  1
  Nd  Nd9  1  0.430921  0.569079  0.250000  1
  Ir  Ir10  1  0.177735  0.599450  0.578327  1
  Ir  Ir11  1  0.400550  0.822265  0.921673  1
  Ir  Ir12  1  0.822137  0.400699  0.421124  1
  Ir  Ir13  1  0.599301  0.177863  0.078876  1
