# generated using pymatgen
data_Nd4MgTi7O20
_symmetry_space_group_name_H-M   'P 1'
_cell_length_a   5.88161900
_cell_length_b   7.70368719
_cell_length_c   8.79844021
_cell_angle_alpha   90.22710632
_cell_angle_beta   90.00000000
_cell_angle_gamma   90.00000000
_symmetry_Int_Tables_number   1
_chemical_formula_structural   Nd4MgTi7O20
_chemical_formula_sum   'Nd4 Mg1 Ti7 O20'
_cell_volume   398.65553990
_cell_formula_units_Z   1
loop_
 _symmetry_equiv_pos_site_id
 _symmetry_equiv_pos_as_xyz
  1  'x, y, z'
loop_
 _atom_site_type_symbol
 _atom_site_label
 _atom_site_symmetry_multiplicity
 _atom_site_fract_x
 _atom_site_fract_y
 _atom_site_fract_z
 _atom_site_occupancy
  Nd  Nd0  1  0.000135  0.360972  0.671411  1
  Nd  Nd1  1  0.000135  0.639028  0.328589  1
  Nd  Nd2  1  0.002764  0.857341  0.828284  1
  Nd  Nd3  1  0.002764  0.142659  0.171716  1
  Mg  Mg4  1  0.256596  0.500000  0.000000  1
  Ti  Ti5  1  0.501666  0.119128  0.859119  1
  Ti  Ti6  1  0.501666  0.880872  0.140881  1
  Ti  Ti7  1  0.495325  0.614981  0.645094  1
  Ti  Ti8  1  0.495325  0.385019  0.354906  1
  Ti  Ti9  1  0.747338  0.000000  0.500000  1
  Ti  Ti10  1  0.765596  0.500000  0.000000  1
  Ti  Ti11  1  0.252951  0.000000  0.500000  1
  O  O12  1  0.255629  0.896515  0.288812  1
  O  O13  1  0.255629  0.103485  0.711188  1
  O  O14  1  0.745689  0.399337  0.208917  1
  O  O15  1  0.745689  0.600663  0.791083  1
  O  O16  1  0.744137  0.102124  0.710607  1
  O  O17  1  0.744137  0.897876  0.289393  1
  O  O18  1  0.250667  0.605388  0.782531  1
  O  O19  1  0.250667  0.394612  0.217469  1
  O  O20  1  0.505770  0.338166  0.923558  1
  O  O21  1  0.505770  0.661834  0.076442  1
  O  O22  1  0.499404  0.835528  0.577059  1
  O  O23  1  0.499404  0.164472  0.422941  1
  O  O24  1  0.281963  0.000000  0.000000  1
  O  O25  1  0.718913  0.500000  0.500000  1
  O  O26  1  0.717848  0.000000  0.000000  1
  O  O27  1  0.281999  0.500000  0.500000  1
  O  O28  1  0.999704  0.162594  0.447100  1
  O  O29  1  0.999704  0.837406  0.552900  1
  O  O30  1  0.987509  0.665015  0.054488  1
  O  O31  1  0.987509  0.334985  0.945512  1
