# generated using pymatgen
data_Tm8TcOsI8
_symmetry_space_group_name_H-M   'P 1'
_cell_length_a   11.26159728
_cell_length_b   11.26159905
_cell_length_c   6.11448815
_cell_angle_alpha   89.24984513
_cell_angle_beta   89.24984591
_cell_angle_gamma   88.69010932
_symmetry_Int_Tables_number   1
_chemical_formula_structural   Tm8TcOsI8
_chemical_formula_sum   'Tm8 Tc1 Os1 I8'
_cell_volume   775.12878672
_cell_formula_units_Z   1
loop_
 _symmetry_equiv_pos_site_id
 _symmetry_equiv_pos_as_xyz
  1  'x, y, z'
loop_
 _atom_site_type_symbol
 _atom_site_label
 _atom_site_symmetry_multiplicity
 _atom_site_fract_x
 _atom_site_fract_y
 _atom_site_fract_z
 _atom_site_occupancy
  Tm  Tm0  1  0.195883  0.917387  0.996114  1
  Tm  Tm1  1  0.804099  0.082613  0.004921  1
  Tm  Tm2  1  0.082613  0.804117  0.503886  1
  Tm  Tm3  1  0.917387  0.195901  0.495079  1
  Tm  Tm4  1  0.805976  0.922209  0.506574  1
  Tm  Tm5  1  0.194029  0.077798  0.492354  1
  Tm  Tm6  1  0.077791  0.194024  0.993426  1
  Tm  Tm7  1  0.922202  0.805971  0.007646  1
  Tc  Tc8  1  0.000260  0.999740  0.250000  1
  Os  Os9  1  0.999751  0.000249  0.750000  1
  I  I10  1  0.357154  0.848250  0.512989  1
  I  I11  1  0.642847  0.151740  0.487361  1
  I  I12  1  0.151750  0.642846  0.987011  1
  I  I13  1  0.848260  0.357153  0.012639  1
  I  I14  1  0.352132  0.145307  0.995447  1
  I  I15  1  0.647874  0.854699  0.004221  1
  I  I16  1  0.854693  0.647868  0.504553  1
  I  I17  1  0.145301  0.352126  0.495779  1
