# generated using pymatgen
data_Lu10Sn6PAu
_symmetry_space_group_name_H-M   'P 1'
_cell_length_a   8.91504400
_cell_length_b   8.91504350
_cell_length_c   6.57090100
_cell_angle_alpha   90.00000000
_cell_angle_beta   90.00000000
_cell_angle_gamma   120.00000186
_symmetry_Int_Tables_number   1
_chemical_formula_structural   Lu10Sn6PAu
_chemical_formula_sum   'Lu10 Sn6 P1 Au1'
_cell_volume   452.27491948
_cell_formula_units_Z   1
loop_
 _symmetry_equiv_pos_site_id
 _symmetry_equiv_pos_as_xyz
  1  'x, y, z'
loop_
 _atom_site_type_symbol
 _atom_site_label
 _atom_site_symmetry_multiplicity
 _atom_site_fract_x
 _atom_site_fract_y
 _atom_site_fract_z
 _atom_site_occupancy
  Lu  Lu0  1  0.252975  0.000000  0.730665  1
  Lu  Lu1  1  0.747025  0.000000  0.269335  1
  Lu  Lu2  1  0.000000  0.252975  0.730665  1
  Lu  Lu3  1  0.000000  0.747025  0.269335  1
  Lu  Lu4  1  0.747025  0.747025  0.730665  1
  Lu  Lu5  1  0.252975  0.252975  0.269335  1
  Lu  Lu6  1  0.333333  0.666667  0.500000  1
  Lu  Lu7  1  0.666667  0.333333  0.500000  1
  Lu  Lu8  1  0.666667  0.333333  0.000000  1
  Lu  Lu9  1  0.333333  0.666667  0.000000  1
  Sn  Sn10  1  0.605765  0.000000  0.750864  1
  Sn  Sn11  1  0.394235  0.000000  0.249136  1
  Sn  Sn12  1  0.000000  0.605765  0.750864  1
  Sn  Sn13  1  0.000000  0.394235  0.249136  1
  Sn  Sn14  1  0.394235  0.394235  0.750864  1
  Sn  Sn15  1  0.605765  0.605765  0.249136  1
  P  P16  1  0.000000  0.000000  0.500000  1
  Au  Au17  1  0.000000  0.000000  0.000000  1
