# generated using pymatgen
data_Er3LuIn2HgAu3
_symmetry_space_group_name_H-M   'P 1'
_cell_length_a   8.01699374
_cell_length_b   8.01699331
_cell_length_c   3.69332400
_cell_angle_alpha   90.00000000
_cell_angle_beta   90.00000000
_cell_angle_gamma   90.18898270
_symmetry_Int_Tables_number   1
_chemical_formula_structural   Er3LuIn2HgAu3
_chemical_formula_sum   'Er3 Lu1 In2 Hg1 Au3'
_cell_volume   237.37671290
_cell_formula_units_Z   1
loop_
 _symmetry_equiv_pos_site_id
 _symmetry_equiv_pos_as_xyz
  1  'x, y, z'
loop_
 _atom_site_type_symbol
 _atom_site_label
 _atom_site_symmetry_multiplicity
 _atom_site_fract_x
 _atom_site_fract_y
 _atom_site_fract_z
 _atom_site_occupancy
  Er  Er0  1  0.341087  0.841087  0.500000  1
  Er  Er1  1  0.163589  0.317959  0.500000  1
  Er  Er2  1  0.817959  0.663589  0.500000  1
  Lu  Lu3  1  0.670923  0.170923  0.500000  1
  In  In4  1  0.502019  0.498033  0.000000  1
  In  In5  1  0.998033  0.002019  0.000000  1
  Hg  Hg6  1  0.129288  0.629288  0.000000  1
  Au  Au7  1  0.869579  0.369579  0.000000  1
  Au  Au8  1  0.632315  0.875206  0.000000  1
  Au  Au9  1  0.375206  0.132315  0.000000  1
