# generated using pymatgen
data_SrLiP2Pd
_symmetry_space_group_name_H-M   'P 1'
_cell_length_a   5.85484202
_cell_length_b   5.85484182
_cell_length_c   5.85484144
_cell_angle_alpha   138.02185728
_cell_angle_beta   138.02185189
_cell_angle_gamma   60.86953318
_symmetry_Int_Tables_number   1
_chemical_formula_structural   SrLiP2Pd
_chemical_formula_sum   'Sr1 Li1 P2 Pd1'
_cell_volume   88.80622320
_cell_formula_units_Z   1
loop_
 _symmetry_equiv_pos_site_id
 _symmetry_equiv_pos_as_xyz
  1  'x, y, z'
loop_
 _atom_site_type_symbol
 _atom_site_label
 _atom_site_symmetry_multiplicity
 _atom_site_fract_x
 _atom_site_fract_y
 _atom_site_fract_z
 _atom_site_occupancy
  Sr  Sr0  1  0.000000  0.000000  0.000000  1
  Li  Li1  1  0.750000  0.250000  0.500000  1
  P  P2  1  0.612108  0.612108  0.000000  1
  P  P3  1  0.387892  0.387892  0.000000  1
  Pd  Pd4  1  0.250000  0.750000  0.500000  1
