# generated using pymatgen
data_Zr10In3B2Sb3
_symmetry_space_group_name_H-M   'P 1'
_cell_length_a   8.59120400
_cell_length_b   8.59120408
_cell_length_c   5.81861600
_cell_angle_alpha   90.00000000
_cell_angle_beta   90.00000000
_cell_angle_gamma   119.99999971
_symmetry_Int_Tables_number   1
_chemical_formula_structural   Zr10In3B2Sb3
_chemical_formula_sum   'Zr10 In3 B2 Sb3'
_cell_volume   371.92759065
_cell_formula_units_Z   1
loop_
 _symmetry_equiv_pos_site_id
 _symmetry_equiv_pos_as_xyz
  1  'x, y, z'
loop_
 _atom_site_type_symbol
 _atom_site_label
 _atom_site_symmetry_multiplicity
 _atom_site_fract_x
 _atom_site_fract_y
 _atom_site_fract_z
 _atom_site_occupancy
  Zr  Zr0  1  0.666667  0.333333  0.000007  1
  Zr  Zr1  1  0.333333  0.666667  0.000007  1
  Zr  Zr2  1  0.333333  0.666667  0.499993  1
  Zr  Zr3  1  0.666667  0.333333  0.499993  1
  Zr  Zr4  1  0.771994  0.771994  0.750000  1
  Zr  Zr5  1  0.228006  0.000000  0.750000  1
  Zr  Zr6  1  0.000000  0.228006  0.750000  1
  Zr  Zr7  1  0.229708  0.229708  0.250000  1
  Zr  Zr8  1  0.770292  0.000000  0.250000  1
  Zr  Zr9  1  0.000000  0.770292  0.250000  1
  In  In10  1  0.602959  0.602959  0.250000  1
  In  In11  1  0.397041  0.000000  0.250000  1
  In  In12  1  0.000000  0.397041  0.250000  1
  B  B13  1  0.000000  0.000000  0.003069  1
  B  B14  1  0.000000  0.000000  0.496931  1
  Sb  Sb15  1  0.399422  0.399422  0.750000  1
  Sb  Sb16  1  0.600578  0.000000  0.750000  1
  Sb  Sb17  1  0.000000  0.600578  0.750000  1
