# generated using pymatgen
data_K2Rb2NiP4Pd
_symmetry_space_group_name_H-M   'P 1'
_cell_length_a   7.62310323
_cell_length_b   7.62310217
_cell_length_c   5.91774768
_cell_angle_alpha   91.51307992
_cell_angle_beta   88.48692046
_cell_angle_gamma   128.13469138
_symmetry_Int_Tables_number   1
_chemical_formula_structural   K2Rb2NiP4Pd
_chemical_formula_sum   'K2 Rb2 Ni1 P4 Pd1'
_cell_volume   270.37420928
_cell_formula_units_Z   1
loop_
 _symmetry_equiv_pos_site_id
 _symmetry_equiv_pos_as_xyz
  1  'x, y, z'
loop_
 _atom_site_type_symbol
 _atom_site_label
 _atom_site_symmetry_multiplicity
 _atom_site_fract_x
 _atom_site_fract_y
 _atom_site_fract_z
 _atom_site_occupancy
  K  K0  1  0.786713  0.213287  0.245730  1
  K  K1  1  0.213287  0.786713  0.754270  1
  Rb  Rb2  1  0.411788  0.588212  0.251008  1
  Rb  Rb3  1  0.588212  0.411788  0.748992  1
  Ni  Ni4  1  0.000000  0.000000  0.500000  1
  P  P5  1  0.942587  0.730407  0.267151  1
  P  P6  1  0.057413  0.269593  0.732849  1
  P  P7  1  0.269593  0.057413  0.267151  1
  P  P8  1  0.730407  0.942587  0.732849  1
  Pd  Pd9  1  0.000000  0.000000  0.000000  1
