# generated using pymatgen
data_Nd2Y2Cu3Ir
_symmetry_space_group_name_H-M   'P 1'
_cell_length_a   4.46583600
_cell_length_b   5.56792128
_cell_length_c   7.31704797
_cell_angle_alpha   91.12756905
_cell_angle_beta   90.00000000
_cell_angle_gamma   90.00000000
_symmetry_Int_Tables_number   1
_chemical_formula_structural   Nd2Y2Cu3Ir
_chemical_formula_sum   'Nd2 Y2 Cu3 Ir1'
_cell_volume   181.90626392
_cell_formula_units_Z   1
loop_
 _symmetry_equiv_pos_site_id
 _symmetry_equiv_pos_as_xyz
  1  'x, y, z'
loop_
 _atom_site_type_symbol
 _atom_site_label
 _atom_site_symmetry_multiplicity
 _atom_site_fract_x
 _atom_site_fract_y
 _atom_site_fract_z
 _atom_site_occupancy
  Nd  Nd0  1  0.750000  0.867100  0.807676  1
  Nd  Nd1  1  0.250000  0.126424  0.185813  1
  Y  Y2  1  0.250000  0.371003  0.673291  1
  Y  Y3  1  0.750000  0.638880  0.330915  1
  Cu  Cu4  1  0.750000  0.136755  0.463094  1
  Cu  Cu5  1  0.750000  0.387914  0.968447  1
  Cu  Cu6  1  0.250000  0.612131  0.037297  1
  Ir  Ir7  1  0.250000  0.859794  0.533467  1
