# generated using pymatgen
data_YTm2Si5N9O
_symmetry_space_group_name_H-M   'P 1'
_cell_length_a   4.98267800
_cell_length_b   10.63871800
_cell_length_c   16.23532400
_cell_angle_alpha   90.00000000
_cell_angle_beta   90.00000000
_cell_angle_gamma   90.00000000
_symmetry_Int_Tables_number   1
_chemical_formula_structural   YTm2Si5N9O
_chemical_formula_sum   'Y4 Tm8 Si20 N36 O4'
_cell_volume   860.62325998
_cell_formula_units_Z   4
loop_
 _symmetry_equiv_pos_site_id
 _symmetry_equiv_pos_as_xyz
  1  'x, y, z'
loop_
 _atom_site_type_symbol
 _atom_site_label
 _atom_site_symmetry_multiplicity
 _atom_site_fract_x
 _atom_site_fract_y
 _atom_site_fract_z
 _atom_site_occupancy
  Y  Y0  1  0.703583  0.750000  0.795618  1
  Y  Y1  1  0.296417  0.250000  0.204382  1
  Y  Y2  1  0.296417  0.750000  0.295618  1
  Y  Y3  1  0.703583  0.250000  0.704382  1
  Tm  Tm4  1  0.664723  0.929492  0.600683  1
  Tm  Tm5  1  0.335277  0.070508  0.399317  1
  Tm  Tm6  1  0.335277  0.429492  0.399317  1
  Tm  Tm7  1  0.335277  0.570508  0.100683  1
  Tm  Tm8  1  0.664723  0.570508  0.600683  1
  Tm  Tm9  1  0.664723  0.429492  0.899317  1
  Tm  Tm10  1  0.664723  0.070508  0.899317  1
  Tm  Tm11  1  0.335277  0.929492  0.100683  1
  Si  Si12  1  0.253962  0.750000  0.667926  1
  Si  Si13  1  0.746038  0.250000  0.332074  1
  Si  Si14  1  0.746038  0.750000  0.167926  1
  Si  Si15  1  0.253962  0.250000  0.832074  1
  Si  Si16  1  0.894723  0.897219  0.423466  1
  Si  Si17  1  0.105277  0.102781  0.576534  1
  Si  Si18  1  0.105277  0.397219  0.576534  1
  Si  Si19  1  0.105277  0.602781  0.923466  1
  Si  Si20  1  0.894723  0.602781  0.423466  1
  Si  Si21  1  0.894723  0.397219  0.076534  1
  Si  Si22  1  0.894723  0.102781  0.076534  1
  Si  Si23  1  0.105277  0.897219  0.923466  1
  Si  Si24  1  0.608630  0.750000  0.972021  1
  Si  Si25  1  0.391370  0.250000  0.027979  1
  Si  Si26  1  0.391370  0.750000  0.472021  1
  Si  Si27  1  0.608630  0.250000  0.527979  1
  Si  Si28  1  0.182442  0.000000  0.750000  1
  Si  Si29  1  0.817558  0.000000  0.250000  1
  Si  Si30  1  0.817558  0.500000  0.250000  1
  Si  Si31  1  0.182442  0.500000  0.750000  1
  N  N32  1  0.973569  0.945387  0.829363  1
  N  N33  1  0.026431  0.054613  0.170637  1
  N  N34  1  0.026431  0.445387  0.170637  1
  N  N35  1  0.026431  0.554613  0.329363  1
  N  N36  1  0.973569  0.554613  0.829363  1
  N  N37  1  0.973569  0.445387  0.670637  1
  N  N38  1  0.973569  0.054613  0.670637  1
  N  N39  1  0.026431  0.945387  0.329363  1
  N  N40  1  0.942495  0.750000  0.937042  1
  N  N41  1  0.057505  0.250000  0.062958  1
  N  N42  1  0.057505  0.750000  0.437042  1
  N  N43  1  0.942495  0.250000  0.562958  1
  N  N44  1  0.415701  0.750000  0.574745  1
  N  N45  1  0.584299  0.250000  0.425255  1
  N  N46  1  0.584299  0.750000  0.074745  1
  N  N47  1  0.415701  0.250000  0.925255  1
  N  N48  1  0.450405  0.881622  0.929998  1
  N  N49  1  0.549595  0.118378  0.070002  1
  N  N50  1  0.549595  0.381622  0.070002  1
  N  N51  1  0.549595  0.618378  0.429998  1
  N  N52  1  0.450405  0.618378  0.929998  1
  N  N53  1  0.450405  0.381622  0.570002  1
  N  N54  1  0.450405  0.118378  0.570002  1
  N  N55  1  0.549595  0.881622  0.429998  1
  N  N56  1  0.000000  0.000000  0.000000  1
  N  N57  1  0.000000  0.500000  0.000000  1
  N  N58  1  0.000000  0.500000  0.500000  1
  N  N59  1  0.000000  0.000000  0.500000  1
  N  N60  1  0.392357  0.880097  0.715744  1
  N  N61  1  0.607643  0.119903  0.284256  1
  N  N62  1  0.607643  0.380097  0.284256  1
  N  N63  1  0.607643  0.619903  0.215744  1
  N  N64  1  0.392357  0.619903  0.715744  1
  N  N65  1  0.392357  0.380097  0.784256  1
  N  N66  1  0.392357  0.119903  0.784256  1
  N  N67  1  0.607643  0.880097  0.215744  1
  O  O68  1  0.918664  0.750000  0.664758  1
  O  O69  1  0.081336  0.250000  0.335242  1
  O  O70  1  0.081336  0.750000  0.164758  1
  O  O71  1  0.918664  0.250000  0.835242  1
