# generated using pymatgen
data_Tb3YbYInPd4
_symmetry_space_group_name_H-M   'P 1'
_cell_length_a   7.98043727
_cell_length_b   7.97469728
_cell_length_c   3.67911200
_cell_angle_alpha   90.00000000
_cell_angle_beta   90.00000000
_cell_angle_gamma   90.03009305
_symmetry_Int_Tables_number   1
_chemical_formula_structural   Tb3YbYInPd4
_chemical_formula_sum   'Tb3 Yb1 Y1 In1 Pd4'
_cell_volume   234.14443671
_cell_formula_units_Z   1
loop_
 _symmetry_equiv_pos_site_id
 _symmetry_equiv_pos_as_xyz
  1  'x, y, z'
loop_
 _atom_site_type_symbol
 _atom_site_label
 _atom_site_symmetry_multiplicity
 _atom_site_fract_x
 _atom_site_fract_y
 _atom_site_fract_z
 _atom_site_occupancy
  Tb  Tb0  1  0.684134  0.139474  0.500000  1
  Tb  Tb1  1  0.315891  0.860444  0.500000  1
  Tb  Tb2  1  0.139484  0.315932  0.500000  1
  Yb  Yb3  1  0.500040  0.500054  0.000000  1
  Y  Y4  1  0.860456  0.684244  0.500000  1
  In  In5  1  0.999911  0.999935  0.000000  1
  Pd  Pd6  1  0.143582  0.621295  0.000000  1
  Pd  Pd7  1  0.856588  0.378584  0.000000  1
  Pd  Pd8  1  0.621263  0.856613  0.000000  1
  Pd  Pd9  1  0.378653  0.143427  0.000000  1
