# generated using pymatgen
data_SrTb5DyFeI12
_symmetry_space_group_name_H-M   'P 1'
_cell_length_a   9.78055931
_cell_length_b   9.85184784
_cell_length_c   9.78377217
_cell_angle_alpha   106.55996523
_cell_angle_beta   106.12781778
_cell_angle_gamma   106.23387884
_symmetry_Int_Tables_number   1
_chemical_formula_structural   SrTb5DyFeI12
_chemical_formula_sum   'Sr1 Tb5 Dy1 Fe1 I12'
_cell_volume   799.47907680
_cell_formula_units_Z   1
loop_
 _symmetry_equiv_pos_site_id
 _symmetry_equiv_pos_as_xyz
  1  'x, y, z'
loop_
 _atom_site_type_symbol
 _atom_site_label
 _atom_site_symmetry_multiplicity
 _atom_site_fract_x
 _atom_site_fract_y
 _atom_site_fract_z
 _atom_site_occupancy
  Sr  Sr0  1  0.499980  0.500008  0.499963  1
  Tb  Tb1  1  0.020570  0.089666  0.284290  1
  Tb  Tb2  1  0.283243  0.020161  0.090180  1
  Tb  Tb3  1  0.905976  0.702430  0.979762  1
  Tb  Tb4  1  0.979667  0.910937  0.715913  1
  Tb  Tb5  1  0.716995  0.980213  0.909951  1
  Dy  Dy6  1  0.093607  0.296142  0.020224  1
  Fe  Fe7  1  0.999885  0.999836  0.999856  1
  I  I8  1  0.447291  0.366699  0.134543  1
  I  I9  1  0.134318  0.446681  0.367265  1
  I  I10  1  0.368568  0.136275  0.448195  1
  I  I11  1  0.551548  0.633375  0.864983  1
  I  I12  1  0.865659  0.553303  0.631750  1
  I  I13  1  0.631470  0.863772  0.551863  1
  I  I14  1  0.775391  0.318584  0.925891  1
  I  I15  1  0.926565  0.777333  0.320127  1
  I  I16  1  0.318225  0.926091  0.775937  1
  I  I17  1  0.225608  0.681212  0.074352  1
  I  I18  1  0.073659  0.223330  0.680895  1
  I  I19  1  0.681774  0.073953  0.224059  1
