# generated using pymatgen
data_Ba4PrOsO8
_symmetry_space_group_name_H-M   'P 1'
_cell_length_a   7.48600542
_cell_length_b   7.48600448
_cell_length_c   6.11902900
_cell_angle_alpha   90.00000000
_cell_angle_beta   90.00000000
_cell_angle_gamma   132.09418452
_symmetry_Int_Tables_number   1
_chemical_formula_structural   Ba4PrOsO8
_chemical_formula_sum   'Ba4 Pr1 Os1 O8'
_cell_volume   254.45578066
_cell_formula_units_Z   1
loop_
 _symmetry_equiv_pos_site_id
 _symmetry_equiv_pos_as_xyz
  1  'x, y, z'
loop_
 _atom_site_type_symbol
 _atom_site_label
 _atom_site_symmetry_multiplicity
 _atom_site_fract_x
 _atom_site_fract_y
 _atom_site_fract_z
 _atom_site_occupancy
  Ba  Ba0  1  0.355625  0.644375  0.000000  1
  Ba  Ba1  1  0.852414  0.147586  0.500000  1
  Ba  Ba2  1  0.147586  0.852414  0.500000  1
  Ba  Ba3  1  0.644375  0.355625  0.000000  1
  Pr  Pr4  1  0.000000  0.000000  0.000000  1
  Os  Os5  1  0.500000  0.500000  0.500000  1
  O  O6  1  0.266971  0.266971  0.725524  1
  O  O7  1  0.733029  0.733029  0.274476  1
  O  O8  1  0.733029  0.733029  0.725524  1
  O  O9  1  0.266971  0.266971  0.274476  1
  O  O10  1  0.172117  0.827883  0.000000  1
  O  O11  1  0.648942  0.351058  0.500000  1
  O  O12  1  0.351058  0.648942  0.500000  1
  O  O13  1  0.827883  0.172117  0.000000  1
