# generated using pymatgen
data_Y2Ho10OsRu3
_symmetry_space_group_name_H-M   'P 1'
_cell_length_a   6.28399226
_cell_length_b   7.32301849
_cell_length_c   9.10368600
_cell_angle_alpha   90.00000000
_cell_angle_beta   90.00000000
_cell_angle_gamma   90.07282045
_symmetry_Int_Tables_number   1
_chemical_formula_structural   Y2Ho10OsRu3
_chemical_formula_sum   'Y2 Ho10 Os1 Ru3'
_cell_volume   418.93118591
_cell_formula_units_Z   1
loop_
 _symmetry_equiv_pos_site_id
 _symmetry_equiv_pos_as_xyz
  1  'x, y, z'
loop_
 _atom_site_type_symbol
 _atom_site_label
 _atom_site_symmetry_multiplicity
 _atom_site_fract_x
 _atom_site_fract_y
 _atom_site_fract_z
 _atom_site_occupancy
  Y  Y0  1  0.869322  0.538735  0.250000  1
  Y  Y1  1  0.630707  0.038578  0.250000  1
  Ho  Ho2  1  0.332324  0.675712  0.061959  1
  Ho  Ho3  1  0.168812  0.175937  0.436541  1
  Ho  Ho4  1  0.669003  0.324203  0.564287  1
  Ho  Ho5  1  0.830149  0.823315  0.934886  1
  Ho  Ho6  1  0.669003  0.324203  0.935713  1
  Ho  Ho7  1  0.830149  0.823315  0.565114  1
  Ho  Ho8  1  0.332324  0.675712  0.438041  1
  Ho  Ho9  1  0.168812  0.175937  0.063459  1
  Ho  Ho10  1  0.130582  0.460742  0.750000  1
  Ho  Ho11  1  0.367794  0.961795  0.750000  1
  Os  Os12  1  0.539428  0.615945  0.750000  1
  Ru  Ru13  1  0.043215  0.885423  0.250000  1
  Ru  Ru14  1  0.456334  0.384844  0.250000  1
  Ru  Ru15  1  0.962041  0.115609  0.750000  1
