# generated using pymatgen
data_Hf4NbSi3N
_symmetry_space_group_name_H-M   'P 1'
_cell_length_a   7.78877600
_cell_length_b   7.78877560
_cell_length_c   5.47827400
_cell_angle_alpha   90.00000000
_cell_angle_beta   90.00000000
_cell_angle_gamma   119.99999319
_symmetry_Int_Tables_number   1
_chemical_formula_structural   Hf4NbSi3N
_chemical_formula_sum   'Hf8 Nb2 Si6 N2'
_cell_volume   287.81459786
_cell_formula_units_Z   2
loop_
 _symmetry_equiv_pos_site_id
 _symmetry_equiv_pos_as_xyz
  1  'x, y, z'
loop_
 _atom_site_type_symbol
 _atom_site_label
 _atom_site_symmetry_multiplicity
 _atom_site_fract_x
 _atom_site_fract_y
 _atom_site_fract_z
 _atom_site_occupancy
  Hf  Hf0  1  0.235460  0.000000  0.250347  1
  Hf  Hf1  1  0.764540  0.000000  0.749653  1
  Hf  Hf2  1  0.000000  0.235460  0.250347  1
  Hf  Hf3  1  0.000000  0.764540  0.749653  1
  Hf  Hf4  1  0.764540  0.764540  0.250347  1
  Hf  Hf5  1  0.235460  0.235460  0.749653  1
  Hf  Hf6  1  0.333333  0.666667  0.000000  1
  Hf  Hf7  1  0.666667  0.333333  0.000000  1
  Nb  Nb8  1  0.666667  0.333333  0.500000  1
  Nb  Nb9  1  0.333333  0.666667  0.500000  1
  Si  Si10  1  0.593008  0.000000  0.259596  1
  Si  Si11  1  0.406992  0.000000  0.740404  1
  Si  Si12  1  0.000000  0.593008  0.259596  1
  Si  Si13  1  0.000000  0.406992  0.740404  1
  Si  Si14  1  0.406992  0.406992  0.259596  1
  Si  Si15  1  0.593008  0.593008  0.740404  1
  N  N16  1  0.000000  0.000000  0.000000  1
  N  N17  1  0.000000  0.000000  0.500000  1
