# generated using pymatgen
data_Co4Br7F
_symmetry_space_group_name_H-M   'P 1'
_cell_length_a   7.55137113
_cell_length_b   7.55137006
_cell_length_c   7.55137100
_cell_angle_alpha   57.84047477
_cell_angle_beta   57.84047989
_cell_angle_gamma   57.84047514
_symmetry_Int_Tables_number   1
_chemical_formula_structural   Co4Br7F
_chemical_formula_sum   'Co4 Br7 F1'
_cell_volume   289.38649322
_cell_formula_units_Z   1
loop_
 _symmetry_equiv_pos_site_id
 _symmetry_equiv_pos_as_xyz
  1  'x, y, z'
loop_
 _atom_site_type_symbol
 _atom_site_label
 _atom_site_symmetry_multiplicity
 _atom_site_fract_x
 _atom_site_fract_y
 _atom_site_fract_z
 _atom_site_occupancy
  Co  Co0  1  0.614190  0.135418  0.135418  1
  Co  Co1  1  0.127250  0.127250  0.127250  1
  Co  Co2  1  0.135418  0.135418  0.614190  1
  Co  Co3  1  0.135418  0.614190  0.135418  1
  Br  Br4  1  0.374361  0.374361  0.883478  1
  Br  Br5  1  0.886435  0.886435  0.886435  1
  Br  Br6  1  0.880126  0.880126  0.370325  1
  Br  Br7  1  0.370325  0.880126  0.880126  1
  Br  Br8  1  0.374361  0.883478  0.374361  1
  Br  Br9  1  0.880126  0.370325  0.880126  1
  Br  Br10  1  0.883478  0.374361  0.374361  1
  F  F11  1  0.338512  0.338512  0.338512  1
