# generated using pymatgen
data_Hf2MgNbPt12
_symmetry_space_group_name_H-M   'P 1'
_cell_length_a   5.67709100
_cell_length_b   5.67709123
_cell_length_c   9.24180900
_cell_angle_alpha   90.00000000
_cell_angle_beta   90.00000000
_cell_angle_gamma   120.00000450
_symmetry_Int_Tables_number   1
_chemical_formula_structural   Hf2MgNbPt12
_chemical_formula_sum   'Hf2 Mg1 Nb1 Pt12'
_cell_volume   257.95225550
_cell_formula_units_Z   1
loop_
 _symmetry_equiv_pos_site_id
 _symmetry_equiv_pos_as_xyz
  1  'x, y, z'
loop_
 _atom_site_type_symbol
 _atom_site_label
 _atom_site_symmetry_multiplicity
 _atom_site_fract_x
 _atom_site_fract_y
 _atom_site_fract_z
 _atom_site_occupancy
  Hf  Hf0  1  0.333333  0.666667  0.248737  1
  Hf  Hf1  1  0.000000  0.000000  0.997249  1
  Mg  Mg2  1  0.666667  0.333333  0.750570  1
  Nb  Nb3  1  0.000000  0.000000  0.504311  1
  Pt  Pt4  1  0.168755  0.337510  0.747901  1
  Pt  Pt5  1  0.001106  0.500554  0.000735  1
  Pt  Pt6  1  0.831544  0.663090  0.251868  1
  Pt  Pt7  1  0.336910  0.168456  0.251868  1
  Pt  Pt8  1  0.499446  0.500554  0.000735  1
  Pt  Pt9  1  0.831544  0.168456  0.251868  1
  Pt  Pt10  1  0.499442  0.500558  0.499207  1
  Pt  Pt11  1  0.499442  0.998885  0.499207  1
  Pt  Pt12  1  0.168755  0.831245  0.747901  1
  Pt  Pt13  1  0.662490  0.831245  0.747901  1
  Pt  Pt14  1  0.499446  0.998894  0.000735  1
  Pt  Pt15  1  0.001115  0.500558  0.499207  1
