# generated using pymatgen
data_Er4Tm4Sc12Ga7Si9
_symmetry_space_group_name_H-M   'P 1'
_cell_length_a   7.12956143
_cell_length_b   7.38634015
_cell_length_c   14.19458300
_cell_angle_alpha   89.99705402
_cell_angle_beta   89.93664456
_cell_angle_gamma   90.04081898
_symmetry_Int_Tables_number   1
_chemical_formula_structural   Er4Tm4Sc12Ga7Si9
_chemical_formula_sum   'Er4 Tm4 Sc12 Ga7 Si9'
_cell_volume   747.50548155
_cell_formula_units_Z   1
loop_
 _symmetry_equiv_pos_site_id
 _symmetry_equiv_pos_as_xyz
  1  'x, y, z'
loop_
 _atom_site_type_symbol
 _atom_site_label
 _atom_site_symmetry_multiplicity
 _atom_site_fract_x
 _atom_site_fract_y
 _atom_site_fract_z
 _atom_site_occupancy
  Er  Er0  1  0.012373  0.174513  0.098621  1
  Er  Er1  1  0.989809  0.822957  0.901715  1
  Er  Er2  1  0.488470  0.676930  0.901917  1
  Er  Er3  1  0.989590  0.823280  0.599291  1
  Tm  Tm4  1  0.510303  0.322247  0.098824  1
  Tm  Tm5  1  0.010161  0.176337  0.400413  1
  Tm  Tm6  1  0.510500  0.323065  0.400390  1
  Tm  Tm7  1  0.489637  0.676638  0.599276  1
  Sc  Sc8  1  0.163968  0.503144  0.749916  1
  Sc  Sc9  1  0.836760  0.497690  0.249866  1
  Sc  Sc10  1  0.336020  0.003174  0.249028  1
  Sc  Sc11  1  0.663378  0.997313  0.749678  1
  Sc  Sc12  1  0.330339  0.173562  0.625822  1
  Sc  Sc13  1  0.669251  0.826805  0.373872  1
  Sc  Sc14  1  0.169520  0.673742  0.373769  1
  Sc  Sc15  1  0.668061  0.825321  0.126231  1
  Sc  Sc16  1  0.830077  0.326477  0.626039  1
  Sc  Sc17  1  0.329832  0.174136  0.874963  1
  Sc  Sc18  1  0.829242  0.326566  0.874372  1
  Sc  Sc19  1  0.171959  0.675565  0.125116  1
  Ga  Ga20  1  0.161938  0.463914  0.539524  1
  Ga  Ga21  1  0.838063  0.535777  0.460219  1
  Ga  Ga22  1  0.337969  0.963727  0.460386  1
  Ga  Ga23  1  0.838231  0.537182  0.040191  1
  Ga  Ga24  1  0.661806  0.036223  0.539326  1
  Ga  Ga25  1  0.161108  0.463110  0.960724  1
  Ga  Ga26  1  0.660495  0.037056  0.961070  1
  Si  Si27  1  0.031838  0.112249  0.750775  1
  Si  Si28  1  0.967792  0.886989  0.249619  1
  Si  Si29  1  0.467589  0.611800  0.249562  1
  Si  Si30  1  0.532028  0.387468  0.750148  1
  Si  Si31  1  0.284444  0.872770  0.750540  1
  Si  Si32  1  0.715872  0.127728  0.249249  1
  Si  Si33  1  0.215386  0.371974  0.249610  1
  Si  Si34  1  0.784133  0.627699  0.750376  1
  Si  Si35  1  0.342058  0.964870  0.039563  1
