# generated using pymatgen
data_LaYb2CdHg2Pd3
_symmetry_space_group_name_H-M   'P 1'
_cell_length_a   7.72015004
_cell_length_b   7.74408470
_cell_length_c   4.02807600
_cell_angle_alpha   90.00000000
_cell_angle_beta   90.00000000
_cell_angle_gamma   120.45536184
_symmetry_Int_Tables_number   1
_chemical_formula_structural   LaYb2CdHg2Pd3
_chemical_formula_sum   'La1 Yb2 Cd1 Hg2 Pd3'
_cell_volume   207.59314394
_cell_formula_units_Z   1
loop_
 _symmetry_equiv_pos_site_id
 _symmetry_equiv_pos_as_xyz
  1  'x, y, z'
loop_
 _atom_site_type_symbol
 _atom_site_label
 _atom_site_symmetry_multiplicity
 _atom_site_fract_x
 _atom_site_fract_y
 _atom_site_fract_z
 _atom_site_occupancy
  La  La0  1  0.001898  0.599346  0.500000  1
  Yb  Yb1  1  0.392557  0.392661  0.500000  1
  Yb  Yb2  1  0.602276  0.002330  0.500000  1
  Cd  Cd3  1  0.729704  0.741366  0.000000  1
  Hg  Hg4  1  0.274724  0.011184  0.000000  1
  Hg  Hg5  1  0.998309  0.251252  0.000000  1
  Pd  Pd6  1  0.673081  0.344489  0.000000  1
  Pd  Pd7  1  0.332451  0.665930  0.000000  1
  Pd  Pd8  1  0.995001  0.991442  0.500000  1
