# generated using pymatgen
data_UI6
_symmetry_space_group_name_H-M   'P 1'
_cell_length_a   13.53732700
_cell_length_b   13.53732668
_cell_length_c   7.38900500
_cell_angle_alpha   90.00000000
_cell_angle_beta   90.00000000
_cell_angle_gamma   119.99999834
_symmetry_Int_Tables_number   1
_chemical_formula_structural   UI6
_chemical_formula_sum   'U3 I18'
_cell_volume   1172.68785759
_cell_formula_units_Z   3
loop_
 _symmetry_equiv_pos_site_id
 _symmetry_equiv_pos_as_xyz
  1  'x, y, z'
loop_
 _atom_site_type_symbol
 _atom_site_label
 _atom_site_symmetry_multiplicity
 _atom_site_fract_x
 _atom_site_fract_y
 _atom_site_fract_z
 _atom_site_occupancy
  U  U0  1  0.666667  0.333333  0.515144  1
  U  U1  1  0.333333  0.666667  0.484856  1
  U  U2  1  0.000000  0.000000  0.000000  1
  I  I3  1  0.233173  0.766827  0.709967  1
  I  I4  1  0.233173  0.466346  0.709967  1
  I  I5  1  0.533654  0.766827  0.709967  1
  I  I6  1  0.100061  0.899939  0.225448  1
  I  I7  1  0.100061  0.200122  0.225448  1
  I  I8  1  0.799878  0.899939  0.225448  1
  I  I9  1  0.200122  0.100061  0.774552  1
  I  I10  1  0.899939  0.799878  0.774552  1
  I  I11  1  0.899939  0.100061  0.774552  1
  I  I12  1  0.433670  0.566330  0.260764  1
  I  I13  1  0.433670  0.867339  0.260764  1
  I  I14  1  0.132661  0.566330  0.260764  1
  I  I15  1  0.867339  0.433670  0.739236  1
  I  I16  1  0.566330  0.132661  0.739236  1
  I  I17  1  0.566330  0.433670  0.739236  1
  I  I18  1  0.766827  0.233173  0.290033  1
  I  I19  1  0.766827  0.533654  0.290033  1
  I  I20  1  0.466346  0.233173  0.290033  1
