# generated using pymatgen
data_Ho3Lu(Hf4Pb5)2
_symmetry_space_group_name_H-M   'P 1'
_cell_length_a   6.04065654
_cell_length_b   9.16567412
_cell_length_c   11.30917853
_cell_angle_alpha   113.94731283
_cell_angle_beta   105.48992096
_cell_angle_gamma   90.00000077
_symmetry_Int_Tables_number   1
_chemical_formula_structural   Ho3Lu(Hf4Pb5)2
_chemical_formula_sum   'Ho3 Lu1 Hf8 Pb10'
_cell_volume   547.27324565
_cell_formula_units_Z   1
loop_
 _symmetry_equiv_pos_site_id
 _symmetry_equiv_pos_as_xyz
  1  'x, y, z'
loop_
 _atom_site_type_symbol
 _atom_site_label
 _atom_site_symmetry_multiplicity
 _atom_site_fract_x
 _atom_site_fract_y
 _atom_site_fract_z
 _atom_site_occupancy
  Ho  Ho0  1  0.143874  0.253914  0.287749  1
  Ho  Ho1  1  0.856196  0.746542  0.712392  1
  Ho  Ho2  1  0.643862  0.033837  0.287724  1
  Lu  Lu3  1  0.356087  0.965962  0.712174  1
  Hf  Hf4  1  0.562242  0.312419  0.624484  1
  Hf  Hf5  1  0.437834  0.687849  0.375612  1
  Hf  Hf6  1  0.937778  0.687849  0.375612  1
  Hf  Hf7  1  0.062243  0.312419  0.624484  1
  Hf  Hf8  1  0.434306  0.671936  0.868612  1
  Hf  Hf9  1  0.565847  0.328344  0.131693  1
  Hf  Hf10  1  0.934223  0.196255  0.868445  1
  Hf  Hf11  1  0.065684  0.803348  0.131368  1
  Pb  Pb12  1  0.289034  0.591086  0.578068  1
  Pb  Pb13  1  0.711195  0.410385  0.422390  1
  Pb  Pb14  1  0.788800  0.987703  0.577601  1
  Pb  Pb15  1  0.211514  0.011938  0.423028  1
  Pb  Pb16  1  0.250127  0.000026  0.999612  1
  Pb  Pb17  1  0.749485  0.000026  0.999612  1
  Pb  Pb18  1  0.066818  0.462111  0.133636  1
  Pb  Pb19  1  0.933167  0.537914  0.866334  1
  Pb  Pb20  1  0.566809  0.671466  0.133617  1
  Pb  Pb21  1  0.432876  0.326669  0.865752  1
