# generated using pymatgen
data_Ca3Ir4(O6F)2
_symmetry_space_group_name_H-M   'P 1'
_cell_length_a   7.20810333
_cell_length_b   7.20810305
_cell_length_c   7.20810201
_cell_angle_alpha   60.92605605
_cell_angle_beta   60.92605665
_cell_angle_gamma   60.92606064
_symmetry_Int_Tables_number   1
_chemical_formula_structural   Ca3Ir4(O6F)2
_chemical_formula_sum   'Ca3 Ir4 O12 F2'
_cell_volume   270.34494411
_cell_formula_units_Z   1
loop_
 _symmetry_equiv_pos_site_id
 _symmetry_equiv_pos_as_xyz
  1  'x, y, z'
loop_
 _atom_site_type_symbol
 _atom_site_label
 _atom_site_symmetry_multiplicity
 _atom_site_fract_x
 _atom_site_fract_y
 _atom_site_fract_z
 _atom_site_occupancy
  Ca  Ca0  1  0.000000  0.500000  0.500000  1
  Ca  Ca1  1  0.500000  0.500000  0.000000  1
  Ca  Ca2  1  0.500000  0.000000  0.500000  1
  Ir  Ir3  1  0.000000  0.000000  0.000000  1
  Ir  Ir4  1  0.500000  0.000000  0.000000  1
  Ir  Ir5  1  0.000000  0.000000  0.500000  1
  Ir  Ir6  1  0.000000  0.500000  0.000000  1
  O  O7  1  0.935080  0.319502  0.319502  1
  O  O8  1  0.327314  0.920865  0.920865  1
  O  O9  1  0.319502  0.319502  0.935080  1
  O  O10  1  0.920865  0.920865  0.327314  1
  O  O11  1  0.920865  0.327314  0.920865  1
  O  O12  1  0.319502  0.935080  0.319502  1
  O  O13  1  0.064920  0.680498  0.680498  1
  O  O14  1  0.672686  0.079135  0.079135  1
  O  O15  1  0.680498  0.680498  0.064920  1
  O  O16  1  0.079135  0.079135  0.672686  1
  O  O17  1  0.079135  0.672686  0.079135  1
  O  O18  1  0.680498  0.064920  0.680498  1
  F  F19  1  0.369165  0.369165  0.369165  1
  F  F20  1  0.630835  0.630835  0.630835  1
