# generated using pymatgen
data_Ho10Tl7Hg
_symmetry_space_group_name_H-M   'P 1'
_cell_length_a   9.23107500
_cell_length_b   9.23107386
_cell_length_c   6.76433200
_cell_angle_alpha   90.00000000
_cell_angle_beta   90.00000000
_cell_angle_gamma   119.99999335
_symmetry_Int_Tables_number   1
_chemical_formula_structural   Ho10Tl7Hg
_chemical_formula_sum   'Ho10 Tl7 Hg1'
_cell_volume   499.18333831
_cell_formula_units_Z   1
loop_
 _symmetry_equiv_pos_site_id
 _symmetry_equiv_pos_as_xyz
  1  'x, y, z'
loop_
 _atom_site_type_symbol
 _atom_site_label
 _atom_site_symmetry_multiplicity
 _atom_site_fract_x
 _atom_site_fract_y
 _atom_site_fract_z
 _atom_site_occupancy
  Ho  Ho0  1  0.333333  0.666667  0.500000  1
  Ho  Ho1  1  0.666667  0.333333  0.500000  1
  Ho  Ho2  1  0.666667  0.333333  0.000000  1
  Ho  Ho3  1  0.333333  0.666667  0.000000  1
  Ho  Ho4  1  0.286880  0.000000  0.747833  1
  Ho  Ho5  1  0.713120  0.000000  0.252167  1
  Ho  Ho6  1  0.000000  0.286880  0.747833  1
  Ho  Ho7  1  0.000000  0.713120  0.252167  1
  Ho  Ho8  1  0.713120  0.713120  0.747833  1
  Ho  Ho9  1  0.286880  0.286880  0.252167  1
  Tl  Tl10  1  0.000000  0.000000  0.000000  1
  Tl  Tl11  1  0.626412  0.000000  0.749701  1
  Tl  Tl12  1  0.373588  0.000000  0.250299  1
  Tl  Tl13  1  0.000000  0.626412  0.749701  1
  Tl  Tl14  1  0.000000  0.373588  0.250299  1
  Tl  Tl15  1  0.373588  0.373588  0.749701  1
  Tl  Tl16  1  0.626412  0.626412  0.250299  1
  Hg  Hg17  1  0.000000  0.000000  0.500000  1
