# generated using pymatgen
data_Na6In4AgPt
_symmetry_space_group_name_H-M   'P 1'
_cell_length_a   9.55396131
_cell_length_b   9.61612242
_cell_length_c   9.61612182
_cell_angle_alpha   60.65459904
_cell_angle_beta   60.21359943
_cell_angle_gamma   60.21360552
_symmetry_Int_Tables_number   1
_chemical_formula_structural   Na6In4AgPt
_chemical_formula_sum   'Na12 In8 Ag2 Pt2'
_cell_volume   629.76648645
_cell_formula_units_Z   2
loop_
 _symmetry_equiv_pos_site_id
 _symmetry_equiv_pos_as_xyz
  1  'x, y, z'
loop_
 _atom_site_type_symbol
 _atom_site_label
 _atom_site_symmetry_multiplicity
 _atom_site_fract_x
 _atom_site_fract_y
 _atom_site_fract_z
 _atom_site_occupancy
  Na  Na0  1  0.049428  0.452881  0.043797  1
  Na  Na1  1  0.798106  0.201894  0.201894  1
  Na  Na2  1  0.204573  0.795427  0.795427  1
  Na  Na3  1  0.796106  0.206203  0.797119  1
  Na  Na4  1  0.200572  0.206203  0.797119  1
  Na  Na5  1  0.796106  0.797119  0.206203  1
  Na  Na6  1  0.049428  0.043797  0.452881  1
  Na  Na7  1  0.451894  0.048106  0.048106  1
  Na  Na8  1  0.045427  0.454573  0.454573  1
  Na  Na9  1  0.453894  0.452881  0.043797  1
  Na  Na10  1  0.200572  0.797119  0.206203  1
  Na  Na11  1  0.453894  0.043797  0.452881  1
  In  In12  1  0.844233  0.826525  0.826525  1
  In  In13  1  0.747284  0.423475  0.423475  1
  In  In14  1  0.411897  0.749805  0.426402  1
  In  In15  1  0.411897  0.426402  0.749805  1
  In  In16  1  0.838103  0.500195  0.823598  1
  In  In17  1  0.838103  0.823598  0.500195  1
  In  In18  1  0.502716  0.826525  0.826525  1
  In  In19  1  0.405767  0.423475  0.423475  1
  Ag  Ag20  1  0.625000  0.125000  0.625000  1
  Ag  Ag21  1  0.625000  0.625000  0.125000  1
  Pt  Pt22  1  0.625000  0.625000  0.625000  1
  Pt  Pt23  1  0.125000  0.625000  0.625000  1
