# generated using pymatgen
data_Ti2Co2Au
_symmetry_space_group_name_H-M   'P 1'
_cell_length_a   6.93917100
_cell_length_b   6.93917100
_cell_length_c   2.91149500
_cell_angle_alpha   90.00000000
_cell_angle_beta   90.00000000
_cell_angle_gamma   90.00000000
_symmetry_Int_Tables_number   1
_chemical_formula_structural   Ti2Co2Au
_chemical_formula_sum   'Ti4 Co4 Au2'
_cell_volume   140.19458141
_cell_formula_units_Z   2
loop_
 _symmetry_equiv_pos_site_id
 _symmetry_equiv_pos_as_xyz
  1  'x, y, z'
loop_
 _atom_site_type_symbol
 _atom_site_label
 _atom_site_symmetry_multiplicity
 _atom_site_fract_x
 _atom_site_fract_y
 _atom_site_fract_z
 _atom_site_occupancy
  Ti  Ti0  1  0.663257  0.163257  0.500000  1
  Ti  Ti1  1  0.163257  0.336743  0.500000  1
  Ti  Ti2  1  0.836743  0.663257  0.500000  1
  Ti  Ti3  1  0.336743  0.836743  0.500000  1
  Co  Co4  1  0.366949  0.133051  0.000000  1
  Co  Co5  1  0.133051  0.633051  0.000000  1
  Co  Co6  1  0.633051  0.866949  0.000000  1
  Co  Co7  1  0.866949  0.366949  0.000000  1
  Au  Au8  1  0.000000  0.000000  0.000000  1
  Au  Au9  1  0.500000  0.500000  0.000000  1
