# generated using pymatgen
data_Dy5Sc5Si20(IrRh)4
_symmetry_space_group_name_H-M   'P 1'
_cell_length_a   12.52196001
_cell_length_b   12.50816101
_cell_length_c   4.15550400
_cell_angle_alpha   90.00000000
_cell_angle_beta   90.00000000
_cell_angle_gamma   89.99503729
_symmetry_Int_Tables_number   1
_chemical_formula_structural   Dy5Sc5Si20(IrRh)4
_chemical_formula_sum   'Dy5 Sc5 Si20 Ir4 Rh4'
_cell_volume   650.86284271
_cell_formula_units_Z   1
loop_
 _symmetry_equiv_pos_site_id
 _symmetry_equiv_pos_as_xyz
  1  'x, y, z'
loop_
 _atom_site_type_symbol
 _atom_site_label
 _atom_site_symmetry_multiplicity
 _atom_site_fract_x
 _atom_site_fract_y
 _atom_site_fract_z
 _atom_site_occupancy
  Dy  Dy0  1  0.000000  0.000000  0.000000  1
  Dy  Dy1  1  0.884281  0.385450  0.500000  1
  Dy  Dy2  1  0.115719  0.614550  0.500000  1
  Dy  Dy3  1  0.385514  0.115818  0.500000  1
  Dy  Dy4  1  0.614486  0.884182  0.500000  1
  Sc  Sc5  1  0.500000  0.500000  0.000000  1
  Sc  Sc6  1  0.672794  0.174835  0.500000  1
  Sc  Sc7  1  0.327206  0.825165  0.500000  1
  Sc  Sc8  1  0.174670  0.327083  0.500000  1
  Sc  Sc9  1  0.825330  0.672917  0.500000  1
  Si  Si10  1  0.566731  0.068062  0.000000  1
  Si  Si11  1  0.433269  0.931938  0.000000  1
  Si  Si12  1  0.068537  0.433809  0.000000  1
  Si  Si13  1  0.931463  0.566191  0.000000  1
  Si  Si14  1  0.665622  0.699001  0.000000  1
  Si  Si15  1  0.334378  0.300999  0.000000  1
  Si  Si16  1  0.166044  0.800398  0.000000  1
  Si  Si17  1  0.833956  0.199602  0.000000  1
  Si  Si18  1  0.300979  0.664837  0.000000  1
  Si  Si19  1  0.699021  0.335163  0.000000  1
  Si  Si20  1  0.199491  0.165400  0.000000  1
  Si  Si21  1  0.800509  0.834600  0.000000  1
  Si  Si22  1  0.651449  0.506905  0.500000  1
  Si  Si23  1  0.348551  0.493095  0.500000  1
  Si  Si24  1  0.158178  0.993635  0.500000  1
  Si  Si25  1  0.841822  0.006365  0.500000  1
  Si  Si26  1  0.493192  0.650662  0.500000  1
  Si  Si27  1  0.506808  0.349338  0.500000  1
  Si  Si28  1  0.006329  0.157286  0.500000  1
  Si  Si29  1  0.993671  0.842714  0.500000  1
  Ir  Ir30  1  0.480107  0.743752  0.000000  1
  Ir  Ir31  1  0.519893  0.256248  0.000000  1
  Ir  Ir32  1  0.020144  0.247412  0.000000  1
  Ir  Ir33  1  0.979856  0.752588  0.000000  1
  Rh  Rh34  1  0.743068  0.519887  0.000000  1
  Rh  Rh35  1  0.256932  0.480113  0.000000  1
  Rh  Rh36  1  0.246534  0.979905  0.000000  1
  Rh  Rh37  1  0.753466  0.020095  0.000000  1
