# generated using pymatgen
data_Cs11RbSc(FeSe4)3
_symmetry_space_group_name_H-M   'P 1'
_cell_length_a   11.14916612
_cell_length_b   11.15553594
_cell_length_c   14.24226296
_cell_angle_alpha   89.84495291
_cell_angle_beta   89.92979325
_cell_angle_gamma   139.83203231
_symmetry_Int_Tables_number   1
_chemical_formula_structural   Cs11RbSc(FeSe4)3
_chemical_formula_sum   'Cs11 Rb1 Sc1 Fe3 Se12'
_cell_volume   1142.57541386
_cell_formula_units_Z   1
loop_
 _symmetry_equiv_pos_site_id
 _symmetry_equiv_pos_as_xyz
  1  'x, y, z'
loop_
 _atom_site_type_symbol
 _atom_site_label
 _atom_site_symmetry_multiplicity
 _atom_site_fract_x
 _atom_site_fract_y
 _atom_site_fract_z
 _atom_site_occupancy
  Cs  Cs0  1  0.141337  0.141585  0.328894  1
  Cs  Cs1  1  0.640424  0.638010  0.173545  1
  Cs  Cs2  1  0.363896  0.361351  0.821472  1
  Cs  Cs3  1  0.167089  0.527628  0.131659  1
  Cs  Cs4  1  0.475291  0.831809  0.870042  1
  Cs  Cs5  1  0.982048  0.336580  0.628430  1
  Cs  Cs6  1  0.662865  0.014141  0.374778  1
  Cs  Cs7  1  0.835992  0.485730  0.872861  1
  Cs  Cs8  1  0.517150  0.163115  0.128969  1
  Cs  Cs9  1  0.013062  0.662550  0.373896  1
  Cs  Cs10  1  0.336966  0.983240  0.629318  1
  Rb  Rb11  1  0.848914  0.848851  0.662226  1
  Sc  Sc12  1  0.923658  0.083099  0.998550  1
  Fe  Fe13  1  0.416217  0.575721  0.501500  1
  Fe  Fe14  1  0.084698  0.922155  0.998550  1
  Fe  Fe15  1  0.575666  0.416354  0.501494  1
  Se  Se16  1  0.288911  0.288908  0.571102  1
  Se  Se17  1  0.696707  0.696632  0.428031  1
  Se  Se18  1  0.214409  0.203730  0.073041  1
  Se  Se19  1  0.808636  0.798471  0.918360  1
  Se  Se20  1  0.694913  0.992207  0.119520  1
  Se  Se21  1  0.012662  0.315195  0.882291  1
  Se  Se22  1  0.501711  0.787667  0.615998  1
  Se  Se23  1  0.207683  0.501315  0.388921  1
  Se  Se24  1  0.298218  0.002857  0.887490  1
  Se  Se25  1  0.001726  0.711325  0.113946  1
  Se  Se26  1  0.500925  0.207534  0.389213  1
  Se  Se27  1  0.788226  0.502242  0.615904  1
