# generated using pymatgen
data_Ce3Cr(Ga3Pd)8
_symmetry_space_group_name_H-M   'P 1'
_cell_length_a   8.51654617
_cell_length_b   8.51838111
_cell_length_c   8.51142200
_cell_angle_alpha   89.79208799
_cell_angle_beta   89.77932797
_cell_angle_gamma   89.79703961
_symmetry_Int_Tables_number   1
_chemical_formula_structural   Ce3Cr(Ga3Pd)8
_chemical_formula_sum   'Ce3 Cr1 Ga24 Pd8'
_cell_volume   617.46722596
_cell_formula_units_Z   1
loop_
 _symmetry_equiv_pos_site_id
 _symmetry_equiv_pos_as_xyz
  1  'x, y, z'
loop_
 _atom_site_type_symbol
 _atom_site_label
 _atom_site_symmetry_multiplicity
 _atom_site_fract_x
 _atom_site_fract_y
 _atom_site_fract_z
 _atom_site_occupancy
  Ce  Ce0  1  0.000000  0.500000  0.000000  1
  Ce  Ce1  1  0.500000  0.000000  0.000000  1
  Ce  Ce2  1  0.000000  0.000000  0.500000  1
  Cr  Cr3  1  0.500000  0.500000  0.500000  1
  Ga  Ga4  1  0.990042  0.643606  0.643472  1
  Ga  Ga5  1  0.643873  0.643857  0.989919  1
  Ga  Ga6  1  0.643857  0.989812  0.643747  1
  Ga  Ga7  1  0.009958  0.356394  0.356528  1
  Ga  Ga8  1  0.356127  0.356143  0.010081  1
  Ga  Ga9  1  0.356143  0.010188  0.356253  1
  Ga  Ga10  1  0.732302  0.500397  0.266338  1
  Ga  Ga11  1  0.267698  0.499603  0.733662  1
  Ga  Ga12  1  0.499834  0.267250  0.733523  1
  Ga  Ga13  1  0.500166  0.732750  0.266477  1
  Ga  Ga14  1  0.267465  0.733245  0.499810  1
  Ga  Ga15  1  0.732535  0.266755  0.500190  1
  Ga  Ga16  1  0.839006  0.142505  0.838752  1
  Ga  Ga17  1  0.142497  0.838884  0.838758  1
  Ga  Ga18  1  0.839130  0.838913  0.142658  1
  Ga  Ga19  1  0.160994  0.857495  0.161248  1
  Ga  Ga20  1  0.857503  0.161116  0.161242  1
  Ga  Ga21  1  0.160870  0.161087  0.857342  1
  Ga  Ga22  1  0.725123  0.489046  0.726216  1
  Ga  Ga23  1  0.488864  0.725795  0.726221  1
  Ga  Ga24  1  0.725044  0.725757  0.489135  1
  Ga  Ga25  1  0.274877  0.510954  0.273784  1
  Ga  Ga26  1  0.511136  0.274205  0.273779  1
  Ga  Ga27  1  0.274956  0.274243  0.510865  1
  Pd  Pd28  1  0.836599  0.836345  0.836296  1
  Pd  Pd29  1  0.163401  0.163655  0.163704  1
  Pd  Pd30  1  0.664303  0.336410  0.000075  1
  Pd  Pd31  1  0.000027  0.336230  0.663781  1
  Pd  Pd32  1  0.335755  0.999927  0.663551  1
  Pd  Pd33  1  0.335697  0.663590  0.999925  1
  Pd  Pd34  1  0.999973  0.663770  0.336219  1
  Pd  Pd35  1  0.664245  0.000073  0.336449  1
