# generated using pymatgen
data_Zr3Zn3Pd2Pt
_symmetry_space_group_name_H-M   'P 1'
_cell_length_a   7.29330200
_cell_length_b   7.29330080
_cell_length_c   6.90795700
_cell_angle_alpha   90.00000000
_cell_angle_beta   90.00000000
_cell_angle_gamma   119.99999638
_symmetry_Int_Tables_number   1
_chemical_formula_structural   Zr3Zn3Pd2Pt
_chemical_formula_sum   'Zr6 Zn6 Pd4 Pt2'
_cell_volume   318.22082393
_cell_formula_units_Z   2
loop_
 _symmetry_equiv_pos_site_id
 _symmetry_equiv_pos_as_xyz
  1  'x, y, z'
loop_
 _atom_site_type_symbol
 _atom_site_label
 _atom_site_symmetry_multiplicity
 _atom_site_fract_x
 _atom_site_fract_y
 _atom_site_fract_z
 _atom_site_occupancy
  Zr  Zr0  1  0.744518  0.054320  0.000000  1
  Zr  Zr1  1  0.309801  0.255482  0.000000  1
  Zr  Zr2  1  0.945680  0.690199  0.000000  1
  Zr  Zr3  1  0.348985  0.275166  0.500000  1
  Zr  Zr4  1  0.724834  0.073819  0.500000  1
  Zr  Zr5  1  0.926181  0.651015  0.500000  1
  Zn  Zn6  1  0.600998  0.662656  0.750098  1
  Zn  Zn7  1  0.061657  0.399002  0.750098  1
  Zn  Zn8  1  0.337344  0.938343  0.750098  1
  Zn  Zn9  1  0.600998  0.662656  0.249902  1
  Zn  Zn10  1  0.061657  0.399002  0.249902  1
  Zn  Zn11  1  0.337344  0.938343  0.249902  1
  Pd  Pd12  1  0.333333  0.666667  0.000000  1
  Pd  Pd13  1  0.333333  0.666667  0.500000  1
  Pd  Pd14  1  0.666667  0.333333  0.775147  1
  Pd  Pd15  1  0.666667  0.333333  0.224853  1
  Pt  Pt16  1  0.000000  0.000000  0.272524  1
  Pt  Pt17  1  0.000000  0.000000  0.727476  1
