# generated using pymatgen
data_CeTm3(Ga3Ir)6
_symmetry_space_group_name_H-M   'P 1'
_cell_length_a   7.55723200
_cell_length_b   7.56457681
_cell_length_c   9.51210000
_cell_angle_alpha   90.00000000
_cell_angle_beta   90.00000000
_cell_angle_gamma   119.85420333
_symmetry_Int_Tables_number   1
_chemical_formula_structural   CeTm3(Ga3Ir)6
_chemical_formula_sum   'Ce1 Tm3 Ga18 Ir6'
_cell_volume   471.61824651
_cell_formula_units_Z   1
loop_
 _symmetry_equiv_pos_site_id
 _symmetry_equiv_pos_as_xyz
  1  'x, y, z'
loop_
 _atom_site_type_symbol
 _atom_site_label
 _atom_site_symmetry_multiplicity
 _atom_site_fract_x
 _atom_site_fract_y
 _atom_site_fract_z
 _atom_site_occupancy
  Ce  Ce0  1  0.996614  0.668138  0.750000  1
  Tm  Tm1  1  0.002617  0.331922  0.250000  1
  Tm  Tm2  1  0.668891  0.997187  0.750000  1
  Tm  Tm3  1  0.330843  0.001824  0.250000  1
  Ga  Ga4  1  0.127665  0.129208  0.750000  1
  Ga  Ga5  1  0.873908  0.874042  0.250000  1
  Ga  Ga6  1  0.998647  0.331751  0.579454  1
  Ga  Ga7  1  0.001412  0.665792  0.417375  1
  Ga  Ga8  1  0.001412  0.665792  0.082625  1
  Ga  Ga9  1  0.336518  0.000808  0.920644  1
  Ga  Ga10  1  0.998647  0.331751  0.920546  1
  Ga  Ga11  1  0.666005  0.001629  0.081376  1
  Ga  Ga12  1  0.666005  0.001629  0.418624  1
  Ga  Ga13  1  0.336518  0.000808  0.579356  1
  Ga  Ga14  1  0.331879  0.331855  0.067085  1
  Ga  Ga15  1  0.666108  0.668387  0.935735  1
  Ga  Ga16  1  0.666108  0.668387  0.564265  1
  Ga  Ga17  1  0.331879  0.331855  0.432915  1
  Ga  Ga18  1  0.340636  0.546289  0.750000  1
  Ga  Ga19  1  0.660896  0.452586  0.250000  1
  Ga  Ga20  1  0.543963  0.337261  0.750000  1
  Ga  Ga21  1  0.452869  0.660862  0.250000  1
  Ir  Ir22  1  0.671260  0.328498  0.499789  1
  Ir  Ir23  1  0.328148  0.671162  0.500152  1
  Ir  Ir24  1  0.328148  0.671162  0.999848  1
  Ir  Ir25  1  0.671260  0.328498  0.000211  1
  Ir  Ir26  1  0.000572  0.000459  0.499708  1
  Ir  Ir27  1  0.000572  0.000459  0.000292  1
