# generated using pymatgen
data_Hf18TiRe6As2W
_symmetry_space_group_name_H-M   'P 1'
_cell_length_a   8.65244021
_cell_length_b   8.65244059
_cell_length_c   8.61710906
_cell_angle_alpha   89.99619336
_cell_angle_beta   90.00380435
_cell_angle_gamma   119.99413035
_symmetry_Int_Tables_number   1
_chemical_formula_structural   Hf18TiRe6As2W
_chemical_formula_sum   'Hf18 Ti1 Re6 As2 W1'
_cell_volume   558.72118249
_cell_formula_units_Z   1
loop_
 _symmetry_equiv_pos_site_id
 _symmetry_equiv_pos_as_xyz
  1  'x, y, z'
loop_
 _atom_site_type_symbol
 _atom_site_label
 _atom_site_symmetry_multiplicity
 _atom_site_fract_x
 _atom_site_fract_y
 _atom_site_fract_z
 _atom_site_occupancy
  Hf  Hf0  1  0.805591  0.611140  0.546468  1
  Hf  Hf1  1  0.805279  0.194721  0.546189  1
  Hf  Hf2  1  0.388860  0.194409  0.546468  1
  Hf  Hf3  1  0.194409  0.388860  0.453532  1
  Hf  Hf4  1  0.194721  0.805279  0.453811  1
  Hf  Hf5  1  0.611140  0.805591  0.453532  1
  Hf  Hf6  1  0.193724  0.387521  0.046138  1
  Hf  Hf7  1  0.194075  0.805925  0.045807  1
  Hf  Hf8  1  0.612479  0.806276  0.046138  1
  Hf  Hf9  1  0.806276  0.612479  0.953862  1
  Hf  Hf10  1  0.805925  0.194075  0.954193  1
  Hf  Hf11  1  0.387521  0.193724  0.953862  1
  Hf  Hf12  1  0.459268  0.918271  0.749986  1
  Hf  Hf13  1  0.459025  0.540975  0.749997  1
  Hf  Hf14  1  0.081729  0.540732  0.749986  1
  Hf  Hf15  1  0.540732  0.081729  0.250014  1
  Hf  Hf16  1  0.540975  0.459025  0.250003  1
  Hf  Hf17  1  0.918271  0.459268  0.250014  1
  Ti  Ti18  1  0.000000  0.000000  0.000000  1
  Re  Re19  1  0.110047  0.220349  0.751250  1
  Re  Re20  1  0.110214  0.889786  0.751241  1
  Re  Re21  1  0.779651  0.889953  0.751250  1
  Re  Re22  1  0.889953  0.779651  0.248750  1
  Re  Re23  1  0.889786  0.110214  0.248759  1
  Re  Re24  1  0.220349  0.110047  0.248750  1
  As  As25  1  0.666542  0.333458  0.750662  1
  As  As26  1  0.333458  0.666542  0.249338  1
  W  W27  1  0.000000  0.000000  0.500000  1
