# generated using pymatgen
data_Ho4TlPd
_symmetry_space_group_name_H-M   'P 1'
_cell_length_a   9.69503250
_cell_length_b   9.69503192
_cell_length_c   9.69503100
_cell_angle_alpha   59.99999289
_cell_angle_beta   59.99999487
_cell_angle_gamma   59.99999854
_symmetry_Int_Tables_number   1
_chemical_formula_structural   Ho4TlPd
_chemical_formula_sum   'Ho16 Tl4 Pd4'
_cell_volume   644.36608123
_cell_formula_units_Z   4
loop_
 _symmetry_equiv_pos_site_id
 _symmetry_equiv_pos_as_xyz
  1  'x, y, z'
loop_
 _atom_site_type_symbol
 _atom_site_label
 _atom_site_symmetry_multiplicity
 _atom_site_fract_x
 _atom_site_fract_y
 _atom_site_fract_z
 _atom_site_occupancy
  Ho  Ho0  1  0.353374  0.353374  0.353374  1
  Ho  Ho1  1  0.353374  0.353374  0.939879  1
  Ho  Ho2  1  0.353374  0.939879  0.353374  1
  Ho  Ho3  1  0.939879  0.353374  0.353374  1
  Ho  Ho4  1  0.812472  0.187528  0.187528  1
  Ho  Ho5  1  0.187528  0.812472  0.812472  1
  Ho  Ho6  1  0.187528  0.812472  0.187528  1
  Ho  Ho7  1  0.812472  0.187528  0.812472  1
  Ho  Ho8  1  0.187528  0.187528  0.812472  1
  Ho  Ho9  1  0.812472  0.812472  0.187528  1
  Ho  Ho10  1  0.937404  0.562596  0.562596  1
  Ho  Ho11  1  0.562596  0.937404  0.937404  1
  Ho  Ho12  1  0.562596  0.937404  0.562596  1
  Ho  Ho13  1  0.937404  0.562596  0.937404  1
  Ho  Ho14  1  0.562596  0.562596  0.937404  1
  Ho  Ho15  1  0.937404  0.937404  0.562596  1
  Tl  Tl16  1  0.586320  0.586320  0.586320  1
  Tl  Tl17  1  0.586320  0.586320  0.241040  1
  Tl  Tl18  1  0.586320  0.241040  0.586320  1
  Tl  Tl19  1  0.241040  0.586320  0.586320  1
  Pd  Pd20  1  0.144896  0.144896  0.144896  1
  Pd  Pd21  1  0.144896  0.144896  0.565312  1
  Pd  Pd22  1  0.144896  0.565312  0.144896  1
  Pd  Pd23  1  0.565312  0.144896  0.144896  1
