# generated using pymatgen
data_K2SrNb3O9
_symmetry_space_group_name_H-M   'P 1'
_cell_length_a   5.75528900
_cell_length_b   5.75528833
_cell_length_c   7.02218600
_cell_angle_alpha   90.00000000
_cell_angle_beta   90.00000000
_cell_angle_gamma   119.99999808
_symmetry_Int_Tables_number   1
_chemical_formula_structural   K2SrNb3O9
_chemical_formula_sum   'K2 Sr1 Nb3 O9'
_cell_volume   201.43604758
_cell_formula_units_Z   1
loop_
 _symmetry_equiv_pos_site_id
 _symmetry_equiv_pos_as_xyz
  1  'x, y, z'
loop_
 _atom_site_type_symbol
 _atom_site_label
 _atom_site_symmetry_multiplicity
 _atom_site_fract_x
 _atom_site_fract_y
 _atom_site_fract_z
 _atom_site_occupancy
  K  K0  1  0.666667  0.333333  0.334782  1
  K  K1  1  0.333333  0.666667  0.665218  1
  Sr  Sr2  1  0.000000  0.000000  0.000000  1
  Nb  Nb3  1  0.000000  0.000000  0.500000  1
  Nb  Nb4  1  0.666667  0.333333  0.830923  1
  Nb  Nb5  1  0.333333  0.666667  0.169077  1
  O  O6  1  0.671998  0.835999  0.327584  1
  O  O7  1  0.328002  0.164001  0.672416  1
  O  O8  1  0.000000  0.500000  0.000000  1
  O  O9  1  0.835999  0.671998  0.672416  1
  O  O10  1  0.500000  0.000000  0.000000  1
  O  O11  1  0.164001  0.328002  0.327584  1
  O  O12  1  0.835999  0.164001  0.672416  1
  O  O13  1  0.500000  0.500000  0.000000  1
  O  O14  1  0.164001  0.835999  0.327584  1
