# generated using pymatgen
data_LiHo3Si2Ag2Ge
_symmetry_space_group_name_H-M   'P 1'
_cell_length_a   7.03520475
_cell_length_b   7.00157541
_cell_length_c   4.21237900
_cell_angle_alpha   90.00000000
_cell_angle_beta   90.00000000
_cell_angle_gamma   119.84199789
_symmetry_Int_Tables_number   1
_chemical_formula_structural   LiHo3Si2Ag2Ge
_chemical_formula_sum   'Li1 Ho3 Si2 Ag2 Ge1'
_cell_volume   179.97817284
_cell_formula_units_Z   1
loop_
 _symmetry_equiv_pos_site_id
 _symmetry_equiv_pos_as_xyz
  1  'x, y, z'
loop_
 _atom_site_type_symbol
 _atom_site_label
 _atom_site_symmetry_multiplicity
 _atom_site_fract_x
 _atom_site_fract_y
 _atom_site_fract_z
 _atom_site_occupancy
  Li  Li0  1  0.000000  0.233786  0.500000  1
  Ho  Ho1  1  0.000000  0.579064  0.000000  1
  Ho  Ho2  1  0.575704  0.999637  0.000000  1
  Ho  Ho3  1  0.424296  0.423933  0.000000  1
  Si  Si4  1  0.328758  0.664517  0.500000  1
  Si  Si5  1  0.671242  0.335758  0.500000  1
  Ag  Ag6  1  0.251476  0.002449  0.500000  1
  Ag  Ag7  1  0.748524  0.750972  0.500000  1
  Ge  Ge8  1  0.000000  0.009885  0.000000  1
