# generated using pymatgen
data_Ba2Ag9
_symmetry_space_group_name_H-M   'P 1'
_cell_length_a   9.50992779
_cell_length_b   9.50992930
_cell_length_c   9.50992839
_cell_angle_alpha   55.31293700
_cell_angle_beta   55.31293631
_cell_angle_gamma   55.31293430
_symmetry_Int_Tables_number   1
_chemical_formula_structural   Ba2Ag9
_chemical_formula_sum   'Ba4 Ag18'
_cell_volume   541.92268079
_cell_formula_units_Z   2
loop_
 _symmetry_equiv_pos_site_id
 _symmetry_equiv_pos_as_xyz
  1  'x, y, z'
loop_
 _atom_site_type_symbol
 _atom_site_label
 _atom_site_symmetry_multiplicity
 _atom_site_fract_x
 _atom_site_fract_y
 _atom_site_fract_z
 _atom_site_occupancy
  Ba  Ba0  1  0.408093  0.408093  0.408093  1
  Ba  Ba1  1  0.908093  0.908093  0.908093  1
  Ba  Ba2  1  0.591907  0.591907  0.591907  1
  Ba  Ba3  1  0.091907  0.091907  0.091907  1
  Ag  Ag4  1  0.060042  0.250000  0.439958  1
  Ag  Ag5  1  0.439958  0.060042  0.250000  1
  Ag  Ag6  1  0.250000  0.439958  0.060042  1
  Ag  Ag7  1  0.939958  0.750000  0.560042  1
  Ag  Ag8  1  0.560042  0.939958  0.750000  1
  Ag  Ag9  1  0.750000  0.560042  0.939958  1
  Ag  Ag10  1  0.977039  0.364089  0.704336  1
  Ag  Ag11  1  0.704336  0.977039  0.364089  1
  Ag  Ag12  1  0.364089  0.704336  0.977039  1
  Ag  Ag13  1  0.204336  0.864089  0.477039  1
  Ag  Ag14  1  0.477039  0.204336  0.864089  1
  Ag  Ag15  1  0.864089  0.477039  0.204336  1
  Ag  Ag16  1  0.022961  0.635911  0.295664  1
  Ag  Ag17  1  0.295664  0.022961  0.635911  1
  Ag  Ag18  1  0.635911  0.295664  0.022961  1
  Ag  Ag19  1  0.795664  0.135911  0.522961  1
  Ag  Ag20  1  0.522961  0.795664  0.135911  1
  Ag  Ag21  1  0.135911  0.522961  0.795664  1
