# generated using pymatgen
data_Tb5Gd3(TcB6)4
_symmetry_space_group_name_H-M   'P 1'
_cell_length_a   3.71826300
_cell_length_b   9.20781805
_cell_length_c   11.60019706
_cell_angle_alpha   89.98803256
_cell_angle_beta   90.00000000
_cell_angle_gamma   90.00000000
_symmetry_Int_Tables_number   1
_chemical_formula_structural   Tb5Gd3(TcB6)4
_chemical_formula_sum   'Tb5 Gd3 Tc4 B24'
_cell_volume   397.15697254
_cell_formula_units_Z   1
loop_
 _symmetry_equiv_pos_site_id
 _symmetry_equiv_pos_as_xyz
  1  'x, y, z'
loop_
 _atom_site_type_symbol
 _atom_site_label
 _atom_site_symmetry_multiplicity
 _atom_site_fract_x
 _atom_site_fract_y
 _atom_site_fract_z
 _atom_site_occupancy
  Tb  Tb0  1  0.000000  0.175671  0.914217  1
  Tb  Tb1  1  0.000000  0.942646  0.368867  1
  Tb  Tb2  1  0.000000  0.057493  0.631065  1
  Tb  Tb3  1  0.000000  0.442460  0.130838  1
  Tb  Tb4  1  0.000000  0.557361  0.869075  1
  Gd  Gd5  1  0.000000  0.324025  0.414122  1
  Gd  Gd6  1  0.000000  0.675903  0.585976  1
  Gd  Gd7  1  0.000000  0.824273  0.085766  1
  Tc  Tc8  1  0.000000  0.638882  0.320158  1
  Tc  Tc9  1  0.000000  0.360963  0.679985  1
  Tc  Tc10  1  0.000000  0.138903  0.179278  1
  Tc  Tc11  1  0.000000  0.861442  0.820723  1
  B  B12  1  0.500000  0.553660  0.432485  1
  B  B13  1  0.500000  0.446268  0.567637  1
  B  B14  1  0.500000  0.053608  0.067428  1
  B  B15  1  0.500000  0.946549  0.932514  1
  B  B16  1  0.500000  0.748232  0.418157  1
  B  B17  1  0.500000  0.251769  0.581920  1
  B  B18  1  0.500000  0.248273  0.081682  1
  B  B19  1  0.500000  0.751783  0.918149  1
  B  B20  1  0.500000  0.791233  0.265459  1
  B  B21  1  0.500000  0.208615  0.734688  1
  B  B22  1  0.500000  0.291266  0.234602  1
  B  B23  1  0.500000  0.708835  0.765339  1
  B  B24  1  0.500000  0.631151  0.185967  1
  B  B25  1  0.500000  0.368743  0.814129  1
  B  B26  1  0.500000  0.131199  0.313821  1
  B  B27  1  0.500000  0.868936  0.686101  1
  B  B28  1  0.500000  0.983493  0.211507  1
  B  B29  1  0.500000  0.016813  0.788408  1
  B  B30  1  0.500000  0.483215  0.288430  1
  B  B31  1  0.500000  0.516618  0.711602  1
  B  B32  1  0.500000  0.600651  0.028113  1
  B  B33  1  0.500000  0.398988  0.971790  1
  B  B34  1  0.500000  0.100674  0.471884  1
  B  B35  1  0.500000  0.899407  0.528115  1
