# generated using pymatgen
data_Tm12Ru7
_symmetry_space_group_name_H-M   'P 1'
_cell_length_a   11.14872400
_cell_length_b   8.26681643
_cell_length_c   11.10570932
_cell_angle_alpha   56.54752127
_cell_angle_beta   90.00000000
_cell_angle_gamma   90.00000000
_symmetry_Int_Tables_number   1
_chemical_formula_structural   Tm12Ru7
_chemical_formula_sum   'Tm24 Ru14'
_cell_volume   853.99346958
_cell_formula_units_Z   2
loop_
 _symmetry_equiv_pos_site_id
 _symmetry_equiv_pos_as_xyz
  1  'x, y, z'
loop_
 _atom_site_type_symbol
 _atom_site_label
 _atom_site_symmetry_multiplicity
 _atom_site_fract_x
 _atom_site_fract_y
 _atom_site_fract_z
 _atom_site_occupancy
  Tm  Tm0  1  0.705829  0.243461  0.530940  1
  Tm  Tm1  1  0.205829  0.756539  0.969060  1
  Tm  Tm2  1  0.845361  0.508038  0.654898  1
  Tm  Tm3  1  0.345361  0.491962  0.845102  1
  Tm  Tm4  1  0.154639  0.491962  0.345102  1
  Tm  Tm5  1  0.654639  0.508038  0.154898  1
  Tm  Tm6  1  0.006798  0.853235  0.361323  1
  Tm  Tm7  1  0.506798  0.146765  0.138677  1
  Tm  Tm8  1  0.993202  0.146765  0.638677  1
  Tm  Tm9  1  0.493202  0.853235  0.861323  1
  Tm  Tm10  1  0.794171  0.243461  0.030940  1
  Tm  Tm11  1  0.294171  0.756539  0.469060  1
  Tm  Tm12  1  0.931388  0.777659  0.090133  1
  Tm  Tm13  1  0.431388  0.222341  0.409867  1
  Tm  Tm14  1  0.068612  0.222341  0.909867  1
  Tm  Tm15  1  0.568612  0.777659  0.590133  1
  Tm  Tm16  1  0.301712  0.241098  0.675095  1
  Tm  Tm17  1  0.801712  0.758902  0.824905  1
  Tm  Tm18  1  0.698288  0.758902  0.324905  1
  Tm  Tm19  1  0.198288  0.241098  0.175095  1
  Tm  Tm20  1  0.924815  0.281044  0.292827  1
  Tm  Tm21  1  0.424815  0.718956  0.207173  1
  Tm  Tm22  1  0.075185  0.718956  0.707173  1
  Tm  Tm23  1  0.575185  0.281044  0.792827  1
  Ru  Ru24  1  0.500000  0.500000  0.500000  1
  Ru  Ru25  1  0.000000  0.500000  0.000000  1
  Ru  Ru26  1  0.645759  0.924313  0.034566  1
  Ru  Ru27  1  0.145759  0.075687  0.465434  1
  Ru  Ru28  1  0.354241  0.075687  0.965434  1
  Ru  Ru29  1  0.854241  0.924313  0.534566  1
  Ru  Ru30  1  0.398236  0.483483  0.103805  1
  Ru  Ru31  1  0.898236  0.516517  0.396195  1
  Ru  Ru32  1  0.601764  0.516517  0.896195  1
  Ru  Ru33  1  0.101764  0.483483  0.603805  1
  Ru  Ru34  1  0.820310  0.099670  0.849062  1
  Ru  Ru35  1  0.320310  0.900330  0.650938  1
  Ru  Ru36  1  0.179690  0.900330  0.150938  1
  Ru  Ru37  1  0.679690  0.099670  0.349062  1
