# generated using pymatgen
data_CaEuZnGa3
_symmetry_space_group_name_H-M   'P 1'
_cell_length_a   5.82129154
_cell_length_b   5.82129138
_cell_length_c   7.43597529
_cell_angle_alpha   49.98571667
_cell_angle_beta   49.98571919
_cell_angle_gamma   46.16469672
_symmetry_Int_Tables_number   1
_chemical_formula_structural   CaEuZnGa3
_chemical_formula_sum   'Ca1 Eu1 Zn1 Ga3'
_cell_volume   129.99665789
_cell_formula_units_Z   1
loop_
 _symmetry_equiv_pos_site_id
 _symmetry_equiv_pos_as_xyz
  1  'x, y, z'
loop_
 _atom_site_type_symbol
 _atom_site_label
 _atom_site_symmetry_multiplicity
 _atom_site_fract_x
 _atom_site_fract_y
 _atom_site_fract_z
 _atom_site_occupancy
  Ca  Ca0  1  0.540621  0.540621  0.210814  1
  Eu  Eu1  1  0.457405  0.457405  0.791974  1
  Zn  Zn2  1  0.834901  0.834901  0.606542  1
  Ga  Ga3  1  0.161167  0.161167  0.395062  1
  Ga  Ga4  1  0.166960  0.166960  0.775564  1
  Ga  Ga5  1  0.838945  0.838945  0.220044  1
