# generated using pymatgen
data_CaReNO2
_symmetry_space_group_name_H-M   'P 1'
_cell_length_a   5.46742300
_cell_length_b   5.58671600
_cell_length_c   7.82249400
_cell_angle_alpha   90.00000000
_cell_angle_beta   90.00000000
_cell_angle_gamma   90.00000000
_symmetry_Int_Tables_number   1
_chemical_formula_structural   CaReNO2
_chemical_formula_sum   'Ca4 Re4 N4 O8'
_cell_volume   238.93760638
_cell_formula_units_Z   4
loop_
 _symmetry_equiv_pos_site_id
 _symmetry_equiv_pos_as_xyz
  1  'x, y, z'
loop_
 _atom_site_type_symbol
 _atom_site_label
 _atom_site_symmetry_multiplicity
 _atom_site_fract_x
 _atom_site_fract_y
 _atom_site_fract_z
 _atom_site_occupancy
  Ca  Ca0  1  0.254511  0.445965  0.500000  1
  Ca  Ca1  1  0.745489  0.945965  0.500000  1
  Ca  Ca2  1  0.722492  0.039760  0.000000  1
  Ca  Ca3  1  0.277508  0.539760  0.000000  1
  Re  Re4  1  0.776907  0.492742  0.255514  1
  Re  Re5  1  0.223093  0.992742  0.255514  1
  Re  Re6  1  0.223093  0.992742  0.744486  1
  Re  Re7  1  0.776907  0.492742  0.744486  1
  N  N8  1  0.970938  0.220506  0.715414  1
  N  N9  1  0.029062  0.720506  0.284586  1
  N  N10  1  0.970938  0.220506  0.284586  1
  N  N11  1  0.029062  0.720506  0.715414  1
  O  O12  1  0.836284  0.479425  0.000000  1
  O  O13  1  0.538453  0.792200  0.208103  1
  O  O14  1  0.341347  0.024153  0.500000  1
  O  O15  1  0.163716  0.979425  0.000000  1
  O  O16  1  0.658653  0.524153  0.500000  1
  O  O17  1  0.538453  0.792200  0.791897  1
  O  O18  1  0.461547  0.292200  0.208103  1
  O  O19  1  0.461547  0.292200  0.791897  1
