# generated using pymatgen
data_KAlGa2S5
_symmetry_space_group_name_H-M   'P 1'
_cell_length_a   12.78774453
_cell_length_b   7.21046898
_cell_length_c   10.56421700
_cell_angle_alpha   75.97721027
_cell_angle_beta   90.05788388
_cell_angle_gamma   90.09730977
_symmetry_Int_Tables_number   1
_chemical_formula_structural   KAlGa2S5
_chemical_formula_sum   'K4 Al4 Ga8 S20'
_cell_volume   945.05064108
_cell_formula_units_Z   4
loop_
 _symmetry_equiv_pos_site_id
 _symmetry_equiv_pos_as_xyz
  1  'x, y, z'
loop_
 _atom_site_type_symbol
 _atom_site_label
 _atom_site_symmetry_multiplicity
 _atom_site_fract_x
 _atom_site_fract_y
 _atom_site_fract_z
 _atom_site_occupancy
  K  K0  1  0.628203  0.836226  0.372344  1
  K  K1  1  0.127268  0.163715  0.128369  1
  K  K2  1  0.372840  0.164790  0.628048  1
  K  K3  1  0.872140  0.836382  0.871210  1
  Al  Al4  1  0.663007  0.293445  0.874553  1
  Al  Al5  1  0.897261  0.436002  0.693327  1
  Al  Al6  1  0.161910  0.707862  0.624432  1
  Al  Al7  1  0.837756  0.293072  0.375446  1
  Ga  Ga8  1  0.921005  0.801826  0.400030  1
  Ga  Ga9  1  0.578953  0.802539  0.898719  1
  Ga  Ga10  1  0.421820  0.197939  0.100727  1
  Ga  Ga11  1  0.395329  0.561462  0.805959  1
  Ga  Ga12  1  0.104032  0.561076  0.306691  1
  Ga  Ga13  1  0.337143  0.708056  0.125283  1
  Ga  Ga14  1  0.605279  0.437563  0.193642  1
  Ga  Ga15  1  0.078462  0.197467  0.601451  1
  S  S16  1  0.828069  0.711663  0.584949  1
  S  S17  1  0.104328  0.811299  0.412578  1
  S  S18  1  0.672812  0.718007  0.083648  1
  S  S19  1  0.396115  0.812669  0.910407  1
  S  S20  1  0.326984  0.281984  0.916726  1
  S  S21  1  0.666407  0.342635  0.399675  1
  S  S22  1  0.578521  0.572039  0.770766  1
  S  S23  1  0.604968  0.188590  0.086470  1
  S  S24  1  0.895258  0.191167  0.587959  1
  S  S25  1  0.629866  0.076417  0.758205  1
  S  S26  1  0.369809  0.926841  0.243631  1
  S  S27  1  0.172677  0.282094  0.417153  1
  S  S28  1  0.076932  0.429142  0.728731  1
  S  S29  1  0.921112  0.572578  0.270694  1
  S  S30  1  0.870894  0.075937  0.259485  1
  S  S31  1  0.129148  0.923801  0.741714  1
  S  S32  1  0.834545  0.346020  0.895880  1
  S  S33  1  0.333126  0.656333  0.600340  1
  S  S34  1  0.422420  0.424703  0.230630  1
  S  S35  1  0.163602  0.656655  0.100127  1
