# generated using pymatgen
data_TbDy4(Cd2Pt)2
_symmetry_space_group_name_H-M   'P 1'
_cell_length_a   3.67142100
_cell_length_b   7.96346000
_cell_length_c   18.39605600
_cell_angle_alpha   90.00000000
_cell_angle_beta   90.00000000
_cell_angle_gamma   90.00000000
_symmetry_Int_Tables_number   1
_chemical_formula_structural   TbDy4(Cd2Pt)2
_chemical_formula_sum   'Tb2 Dy8 Cd8 Pt4'
_cell_volume   537.84943112
_cell_formula_units_Z   2
loop_
 _symmetry_equiv_pos_site_id
 _symmetry_equiv_pos_as_xyz
  1  'x, y, z'
loop_
 _atom_site_type_symbol
 _atom_site_label
 _atom_site_symmetry_multiplicity
 _atom_site_fract_x
 _atom_site_fract_y
 _atom_site_fract_z
 _atom_site_occupancy
  Tb  Tb0  1  0.000000  0.000000  0.000000  1
  Tb  Tb1  1  0.000000  0.500000  0.500000  1
  Dy  Dy2  1  0.000000  0.115342  0.414181  1
  Dy  Dy3  1  0.000000  0.884658  0.585819  1
  Dy  Dy4  1  0.000000  0.384658  0.914181  1
  Dy  Dy5  1  0.000000  0.615342  0.085819  1
  Dy  Dy6  1  0.000000  0.242693  0.219427  1
  Dy  Dy7  1  0.000000  0.757307  0.780573  1
  Dy  Dy8  1  0.000000  0.257307  0.719427  1
  Dy  Dy9  1  0.000000  0.742693  0.280573  1
  Cd  Cd10  1  0.500000  0.427908  0.352562  1
  Cd  Cd11  1  0.500000  0.572092  0.647438  1
  Cd  Cd12  1  0.500000  0.072092  0.852562  1
  Cd  Cd13  1  0.500000  0.927908  0.147438  1
  Cd  Cd14  1  0.500000  0.288955  0.066742  1
  Cd  Cd15  1  0.500000  0.711045  0.933258  1
  Cd  Cd16  1  0.500000  0.211045  0.566742  1
  Cd  Cd17  1  0.500000  0.788955  0.433258  1
  Pt  Pt18  1  0.500000  0.027131  0.303567  1
  Pt  Pt19  1  0.500000  0.972869  0.696433  1
  Pt  Pt20  1  0.500000  0.472869  0.803567  1
  Pt  Pt21  1  0.500000  0.527131  0.196433  1
