# generated using pymatgen
data_K5US6
_symmetry_space_group_name_H-M   'P 1'
_cell_length_a   7.61269874
_cell_length_b   7.61269824
_cell_length_c   7.52756600
_cell_angle_alpha   79.82873453
_cell_angle_beta   79.82874285
_cell_angle_gamma   119.61134604
_symmetry_Int_Tables_number   1
_chemical_formula_structural   K5US6
_chemical_formula_sum   'K5 U1 S6'
_cell_volume   355.12309367
_cell_formula_units_Z   1
loop_
 _symmetry_equiv_pos_site_id
 _symmetry_equiv_pos_as_xyz
  1  'x, y, z'
loop_
 _atom_site_type_symbol
 _atom_site_label
 _atom_site_symmetry_multiplicity
 _atom_site_fract_x
 _atom_site_fract_y
 _atom_site_fract_z
 _atom_site_occupancy
  K  K0  1  0.334657  0.665343  0.000000  1
  K  K1  1  0.665343  0.334657  0.000000  1
  K  K2  1  0.500000  0.500000  0.500000  1
  K  K3  1  0.179603  0.820397  0.500000  1
  K  K4  1  0.820397  0.179603  0.500000  1
  U  U5  1  0.000000  0.000000  0.000000  1
  S  S6  1  0.929013  0.651542  0.212866  1
  S  S7  1  0.651542  0.929013  0.212866  1
  S  S8  1  0.070987  0.348458  0.787134  1
  S  S9  1  0.348458  0.070987  0.787134  1
  S  S10  1  0.803942  0.803942  0.786671  1
  S  S11  1  0.196058  0.196058  0.213329  1
