# generated using pymatgen
data_SmZnCu3Au
_symmetry_space_group_name_H-M   'P 1'
_cell_length_a   5.13738943
_cell_length_b   5.13739052
_cell_length_c   5.12309056
_cell_angle_alpha   59.90761979
_cell_angle_beta   59.90761238
_cell_angle_gamma   59.99999775
_symmetry_Int_Tables_number   1
_chemical_formula_structural   SmZnCu3Au
_chemical_formula_sum   'Sm1 Zn1 Cu3 Au1'
_cell_volume   95.47600543
_cell_formula_units_Z   1
loop_
 _symmetry_equiv_pos_site_id
 _symmetry_equiv_pos_as_xyz
  1  'x, y, z'
loop_
 _atom_site_type_symbol
 _atom_site_label
 _atom_site_symmetry_multiplicity
 _atom_site_fract_x
 _atom_site_fract_y
 _atom_site_fract_z
 _atom_site_occupancy
  Sm  Sm0  1  0.001788  0.001788  0.994635  1
  Zn  Zn1  1  0.622100  0.622100  0.133699  1
  Cu  Cu2  1  0.623514  0.128032  0.624940  1
  Cu  Cu3  1  0.128032  0.623514  0.624940  1
  Cu  Cu4  1  0.623514  0.623514  0.624940  1
  Au  Au5  1  0.251052  0.251052  0.246846  1
