# generated using pymatgen
data_Zr2ZnNi9
_symmetry_space_group_name_H-M   'P 1'
_cell_length_a   4.76481668
_cell_length_b   4.76481699
_cell_length_c   8.25538118
_cell_angle_alpha   106.77347095
_cell_angle_beta   73.22652016
_cell_angle_gamma   120.00000897
_symmetry_Int_Tables_number   1
_chemical_formula_structural   Zr2ZnNi9
_chemical_formula_sum   'Zr2 Zn1 Ni9'
_cell_volume   153.03830902
_cell_formula_units_Z   1
loop_
 _symmetry_equiv_pos_site_id
 _symmetry_equiv_pos_as_xyz
  1  'x, y, z'
loop_
 _atom_site_type_symbol
 _atom_site_label
 _atom_site_symmetry_multiplicity
 _atom_site_fract_x
 _atom_site_fract_y
 _atom_site_fract_z
 _atom_site_occupancy
  Zr  Zr0  1  0.996432  0.003568  0.010703  1
  Zr  Zr1  1  0.503081  0.496919  0.490754  1
  Zn  Zn2  1  0.375581  0.624419  0.873255  1
  Ni  Ni3  1  0.873238  0.126762  0.380286  1
  Ni  Ni4  1  0.436157  0.563843  0.187665  1
  Ni  Ni5  1  0.936401  0.063599  0.686976  1
  Ni  Ni6  1  0.436157  0.059979  0.187665  1
  Ni  Ni7  1  0.936401  0.559779  0.686976  1
  Ni  Ni8  1  0.188091  0.811909  0.435727  1
  Ni  Ni9  1  0.688215  0.311785  0.935356  1
  Ni  Ni10  1  0.940021  0.563843  0.187665  1
  Ni  Ni11  1  0.440221  0.063599  0.686976  1
