# generated using pymatgen
data_BaLa2(H6Os)2
_symmetry_space_group_name_H-M   'P 1'
_cell_length_a   5.24042100
_cell_length_b   5.24042100
_cell_length_c   8.67234500
_cell_angle_alpha   90.00000000
_cell_angle_beta   90.00000000
_cell_angle_gamma   119.99999369
_symmetry_Int_Tables_number   1
_chemical_formula_structural   BaLa2(H6Os)2
_chemical_formula_sum   'Ba1 La2 H12 Os2'
_cell_volume   206.25266193
_cell_formula_units_Z   1
loop_
 _symmetry_equiv_pos_site_id
 _symmetry_equiv_pos_as_xyz
  1  'x, y, z'
loop_
 _atom_site_type_symbol
 _atom_site_label
 _atom_site_symmetry_multiplicity
 _atom_site_fract_x
 _atom_site_fract_y
 _atom_site_fract_z
 _atom_site_occupancy
  Ba  Ba0  1  0.000000  0.000000  0.000000  1
  La  La1  1  0.666667  0.333333  0.359925  1
  La  La2  1  0.333333  0.666667  0.640075  1
  H  H3  1  0.175157  0.824843  0.380353  1
  H  H4  1  0.649687  0.824843  0.380353  1
  H  H5  1  0.175157  0.350313  0.380353  1
  H  H6  1  0.824843  0.175157  0.619647  1
  H  H7  1  0.350313  0.175157  0.619647  1
  H  H8  1  0.824843  0.649687  0.619647  1
  H  H9  1  0.517010  0.034019  0.853751  1
  H  H10  1  0.517010  0.482990  0.853751  1
  H  H11  1  0.965981  0.482990  0.853751  1
  H  H12  1  0.482990  0.965981  0.146249  1
  H  H13  1  0.482990  0.517010  0.146249  1
  H  H14  1  0.034019  0.517010  0.146249  1
  Os  Os15  1  0.666667  0.333333  0.731065  1
  Os  Os16  1  0.333333  0.666667  0.268935  1
