# generated using pymatgen
data_YHo4Co2Pd
_symmetry_space_group_name_H-M   'P 1'
_cell_length_a   7.25092748
_cell_length_b   7.16851161
_cell_length_c   8.71334938
_cell_angle_alpha   114.28981050
_cell_angle_beta   115.08489294
_cell_angle_gamma   89.99999748
_symmetry_Int_Tables_number   1
_chemical_formula_structural   YHo4Co2Pd
_chemical_formula_sum   'Y2 Ho8 Co4 Pd2'
_cell_volume   365.43804179
_cell_formula_units_Z   2
loop_
 _symmetry_equiv_pos_site_id
 _symmetry_equiv_pos_as_xyz
  1  'x, y, z'
loop_
 _atom_site_type_symbol
 _atom_site_label
 _atom_site_symmetry_multiplicity
 _atom_site_fract_x
 _atom_site_fract_y
 _atom_site_fract_z
 _atom_site_occupancy
  Y  Y0  1  0.468600  0.312412  0.279590  1
  Y  Y1  1  0.968601  0.467178  0.279590  1
  Ho  Ho2  1  0.998913  0.999926  0.998585  1
  Ho  Ho3  1  0.498913  0.498659  0.998585  1
  Ho  Ho4  1  0.314736  0.811757  0.277341  1
  Ho  Ho5  1  0.814735  0.965585  0.277341  1
  Ho  Ho6  1  0.185253  0.033686  0.722219  1
  Ho  Ho7  1  0.685252  0.188534  0.722219  1
  Ho  Ho8  1  0.033057  0.535089  0.722665  1
  Ho  Ho9  1  0.533056  0.687574  0.722665  1
  Co  Co10  1  0.615463  0.111282  0.999934  1
  Co  Co11  1  0.115463  0.388653  0.999934  1
  Co  Co12  1  0.883172  0.614141  0.997133  1
  Co  Co13  1  0.383173  0.882992  0.997133  1
  Pd  Pd14  1  0.250806  0.247035  0.502531  1
  Pd  Pd15  1  0.750806  0.755496  0.502531  1
