# generated using pymatgen
data_MgScAlNi3
_symmetry_space_group_name_H-M   'P 1'
_cell_length_a   5.03932043
_cell_length_b   5.03932011
_cell_length_c   4.86356415
_cell_angle_alpha   58.79721726
_cell_angle_beta   58.79722671
_cell_angle_gamma   60.00001181
_symmetry_Int_Tables_number   1
_chemical_formula_structural   MgScAlNi3
_chemical_formula_sum   'Mg1 Sc1 Al1 Ni3'
_cell_volume   85.71249213
_cell_formula_units_Z   1
loop_
 _symmetry_equiv_pos_site_id
 _symmetry_equiv_pos_as_xyz
  1  'x, y, z'
loop_
 _atom_site_type_symbol
 _atom_site_label
 _atom_site_symmetry_multiplicity
 _atom_site_fract_x
 _atom_site_fract_y
 _atom_site_fract_z
 _atom_site_occupancy
  Mg  Mg0  1  0.253270  0.253270  0.240189  1
  Sc  Sc1  1  0.004449  0.004449  0.986655  1
  Al  Al2  1  0.622328  0.622328  0.133017  1
  Ni  Ni3  1  0.623288  0.123379  0.630047  1
  Ni  Ni4  1  0.123379  0.623288  0.630047  1
  Ni  Ni5  1  0.623288  0.623288  0.630047  1
