# generated using pymatgen
data_Ca2NiIrBr
_symmetry_space_group_name_H-M   'P 1'
_cell_length_a   4.14086500
_cell_length_b   4.14086537
_cell_length_c   16.21457000
_cell_angle_alpha   90.00000000
_cell_angle_beta   90.00000000
_cell_angle_gamma   119.99998905
_symmetry_Int_Tables_number   1
_chemical_formula_structural   Ca2NiIrBr
_chemical_formula_sum   'Ca4 Ni2 Ir2 Br2'
_cell_volume   240.77882914
_cell_formula_units_Z   2
loop_
 _symmetry_equiv_pos_site_id
 _symmetry_equiv_pos_as_xyz
  1  'x, y, z'
loop_
 _atom_site_type_symbol
 _atom_site_label
 _atom_site_symmetry_multiplicity
 _atom_site_fract_x
 _atom_site_fract_y
 _atom_site_fract_z
 _atom_site_occupancy
  Ca  Ca0  1  0.000000  0.000000  0.613388  1
  Ca  Ca1  1  0.000000  0.000000  0.387005  1
  Ca  Ca2  1  0.000000  0.000000  0.113388  1
  Ca  Ca3  1  0.000000  0.000000  0.887005  1
  Ni  Ni4  1  0.666667  0.333333  0.997772  1
  Ni  Ni5  1  0.333333  0.666667  0.497772  1
  Ir  Ir6  1  0.666667  0.333333  0.501800  1
  Ir  Ir7  1  0.333333  0.666667  0.001800  1
  Br  Br8  1  0.666667  0.333333  0.250036  1
  Br  Br9  1  0.333333  0.666667  0.750036  1
