# generated using pymatgen
data_Sc2Sn2Rh3
_symmetry_space_group_name_H-M   'P 1'
_cell_length_a   7.80839378
_cell_length_b   7.80839381
_cell_length_c   7.80839523
_cell_angle_alpha   33.71722103
_cell_angle_beta   33.71721898
_cell_angle_gamma   33.71721967
_symmetry_Int_Tables_number   1
_chemical_formula_structural   Sc2Sn2Rh3
_chemical_formula_sum   'Sc2 Sn2 Rh3'
_cell_volume   130.70022809
_cell_formula_units_Z   1
loop_
 _symmetry_equiv_pos_site_id
 _symmetry_equiv_pos_as_xyz
  1  'x, y, z'
loop_
 _atom_site_type_symbol
 _atom_site_label
 _atom_site_symmetry_multiplicity
 _atom_site_fract_x
 _atom_site_fract_y
 _atom_site_fract_z
 _atom_site_occupancy
  Sc  Sc0  1  0.755350  0.755350  0.755350  1
  Sc  Sc1  1  0.246000  0.246000  0.246000  1
  Sn  Sn2  1  0.996057  0.996057  0.996057  1
  Sn  Sn3  1  0.502844  0.502844  0.502844  1
  Rh  Rh4  1  0.121567  0.121567  0.121567  1
  Rh  Rh5  1  0.628905  0.628905  0.628905  1
  Rh  Rh6  1  0.374277  0.374277  0.374277  1
