# generated using pymatgen
data_Ca4InPd4Pb
_symmetry_space_group_name_H-M   'P 1'
_cell_length_a   5.88066767
_cell_length_b   5.88066794
_cell_length_c   8.32585888
_cell_angle_alpha   77.23356382
_cell_angle_beta   77.23356196
_cell_angle_gamma   58.94188872
_symmetry_Int_Tables_number   1
_chemical_formula_structural   Ca4InPd4Pb
_chemical_formula_sum   'Ca4 In1 Pd4 Pb1'
_cell_volume   238.57357485
_cell_formula_units_Z   1
loop_
 _symmetry_equiv_pos_site_id
 _symmetry_equiv_pos_as_xyz
  1  'x, y, z'
loop_
 _atom_site_type_symbol
 _atom_site_label
 _atom_site_symmetry_multiplicity
 _atom_site_fract_x
 _atom_site_fract_y
 _atom_site_fract_z
 _atom_site_occupancy
  Ca  Ca0  1  0.503043  0.795601  0.350178  1
  Ca  Ca1  1  0.204399  0.496957  0.149822  1
  Ca  Ca2  1  0.496829  0.203089  0.649891  1
  Ca  Ca3  1  0.796911  0.503171  0.850109  1
  In  In4  1  0.151467  0.848533  0.750000  1
  Pd  Pd5  1  0.728950  0.001073  0.997437  1
  Pd  Pd6  1  0.998927  0.271050  0.502563  1
  Pd  Pd7  1  0.274822  0.992686  0.994709  1
  Pd  Pd8  1  0.007314  0.725178  0.505291  1
  Pb  Pb9  1  0.837339  0.162661  0.250000  1
