# generated using pymatgen
data_Sc7U(MnB6)4
_symmetry_space_group_name_H-M   'P 1'
_cell_length_a   8.82427554
_cell_length_b   11.13607147
_cell_length_c   3.39182300
_cell_angle_alpha   90.00000000
_cell_angle_beta   90.00000000
_cell_angle_gamma   89.85039991
_symmetry_Int_Tables_number   1
_chemical_formula_structural   Sc7U(MnB6)4
_chemical_formula_sum   'Sc7 U1 Mn4 B24'
_cell_volume   333.30572268
_cell_formula_units_Z   1
loop_
 _symmetry_equiv_pos_site_id
 _symmetry_equiv_pos_as_xyz
  1  'x, y, z'
loop_
 _atom_site_type_symbol
 _atom_site_label
 _atom_site_symmetry_multiplicity
 _atom_site_fract_x
 _atom_site_fract_y
 _atom_site_fract_z
 _atom_site_occupancy
  Sc  Sc0  1  0.941297  0.129859  0.000000  1
  Sc  Sc1  1  0.443663  0.372041  0.000000  1
  Sc  Sc2  1  0.822192  0.416454  0.000000  1
  Sc  Sc3  1  0.176543  0.585642  0.000000  1
  Sc  Sc4  1  0.557781  0.630144  0.000000  1
  Sc  Sc5  1  0.054740  0.868322  0.000000  1
  Sc  Sc6  1  0.680998  0.912326  0.000000  1
  U  U7  1  0.323832  0.085084  0.000000  1
  Mn  Mn8  1  0.637112  0.180048  0.000000  1
  Mn  Mn9  1  0.141684  0.317764  0.000000  1
  Mn  Mn10  1  0.860580  0.680367  0.000000  1
  Mn  Mn11  1  0.361025  0.821734  0.000000  1
  B  B12  1  0.098190  0.026537  0.499999  1
  B  B13  1  0.555026  0.067239  0.499999  1
  B  B14  1  0.750529  0.080922  0.499999  1
  B  B15  1  0.129665  0.184629  0.499999  1
  B  B16  1  0.483805  0.213628  0.499999  1
  B  B17  1  0.792944  0.235894  0.499999  1
  B  B18  1  0.292283  0.266802  0.499999  1
  B  B19  1  0.980998  0.288979  0.499999  1
  B  B20  1  0.631394  0.317584  0.499999  1
  B  B21  1  0.249781  0.421071  0.499999  1
  B  B22  1  0.053758  0.433753  0.499999  1
  B  B23  1  0.601112  0.473301  0.499999  1
  B  B24  1  0.399261  0.528463  0.499999  1
  B  B25  1  0.946374  0.565801  0.499999  1
  B  B26  1  0.750063  0.580317  0.499999  1
  B  B27  1  0.370073  0.683944  0.499999  1
  B  B28  1  0.018186  0.710968  0.499999  1
  B  B29  1  0.707101  0.735139  0.499999  1
  B  B30  1  0.206588  0.762719  0.499999  1
  B  B31  1  0.519052  0.786998  0.499999  1
  B  B32  1  0.869228  0.815281  0.499999  1
  B  B33  1  0.248981  0.916960  0.499999  1
  B  B34  1  0.446726  0.931498  0.499999  1
  B  B35  1  0.897431  0.971781  0.499999  1
