# generated using pymatgen
data_NbCo4Si4Mo3
_symmetry_space_group_name_H-M   'P 1'
_cell_length_a   3.61717900
_cell_length_b   6.11838570
_cell_length_c   6.98148135
_cell_angle_alpha   89.64703695
_cell_angle_beta   90.00000000
_cell_angle_gamma   90.00000000
_symmetry_Int_Tables_number   1
_chemical_formula_structural   NbCo4Si4Mo3
_chemical_formula_sum   'Nb1 Co4 Si4 Mo3'
_cell_volume   154.50630047
_cell_formula_units_Z   1
loop_
 _symmetry_equiv_pos_site_id
 _symmetry_equiv_pos_as_xyz
  1  'x, y, z'
loop_
 _atom_site_type_symbol
 _atom_site_label
 _atom_site_symmetry_multiplicity
 _atom_site_fract_x
 _atom_site_fract_y
 _atom_site_fract_z
 _atom_site_occupancy
  Nb  Nb0  1  0.750000  0.476155  0.325818  1
  Co  Co1  1  0.250000  0.148160  0.440739  1
  Co  Co2  1  0.250000  0.642448  0.060152  1
  Co  Co3  1  0.750000  0.856672  0.560734  1
  Co  Co4  1  0.750000  0.354253  0.940463  1
  Si  Si5  1  0.250000  0.782266  0.378237  1
  Si  Si6  1  0.250000  0.268364  0.118589  1
  Si  Si7  1  0.750000  0.223195  0.628652  1
  Si  Si8  1  0.750000  0.724555  0.876546  1
  Mo  Mo9  1  0.250000  0.024032  0.827199  1
  Mo  Mo10  1  0.250000  0.526990  0.671840  1
  Mo  Mo11  1  0.750000  0.972909  0.171031  1
