# generated using pymatgen
data_Th6FePd7
_symmetry_space_group_name_H-M   'P 1'
_cell_length_a   8.13420684
_cell_length_b   8.13420712
_cell_length_c   8.13420599
_cell_angle_alpha   114.47543775
_cell_angle_beta   114.47544178
_cell_angle_gamma   114.47543901
_symmetry_Int_Tables_number   1
_chemical_formula_structural   Th6FePd7
_chemical_formula_sum   'Th6 Fe1 Pd7'
_cell_volume   315.12696318
_cell_formula_units_Z   1
loop_
 _symmetry_equiv_pos_site_id
 _symmetry_equiv_pos_as_xyz
  1  'x, y, z'
loop_
 _atom_site_type_symbol
 _atom_site_label
 _atom_site_symmetry_multiplicity
 _atom_site_fract_x
 _atom_site_fract_y
 _atom_site_fract_z
 _atom_site_occupancy
  Th  Th0  1  0.383293  0.021321  0.266072  1
  Th  Th1  1  0.021321  0.266072  0.383293  1
  Th  Th2  1  0.266072  0.383293  0.021321  1
  Th  Th3  1  0.616707  0.978679  0.733928  1
  Th  Th4  1  0.978679  0.733928  0.616707  1
  Th  Th5  1  0.733928  0.616707  0.978679  1
  Fe  Fe6  1  0.000000  0.000000  0.000000  1
  Pd  Pd7  1  0.500000  0.500000  0.500000  1
  Pd  Pd8  1  0.235586  0.071216  0.574601  1
  Pd  Pd9  1  0.071216  0.574601  0.235586  1
  Pd  Pd10  1  0.574601  0.235586  0.071216  1
  Pd  Pd11  1  0.764414  0.928784  0.425399  1
  Pd  Pd12  1  0.928784  0.425399  0.764414  1
  Pd  Pd13  1  0.425399  0.764414  0.928784  1
