# generated using pymatgen
data_KRb3(CeSe3)2
_symmetry_space_group_name_H-M   'P 1'
_cell_length_a   7.70972933
_cell_length_b   7.70972900
_cell_length_c   8.38778573
_cell_angle_alpha   98.95040371
_cell_angle_beta   98.95040651
_cell_angle_gamma   119.78317306
_symmetry_Int_Tables_number   1
_chemical_formula_structural   KRb3(CeSe3)2
_chemical_formula_sum   'K1 Rb3 Ce2 Se6'
_cell_volume   411.37683305
_cell_formula_units_Z   1
loop_
 _symmetry_equiv_pos_site_id
 _symmetry_equiv_pos_as_xyz
  1  'x, y, z'
loop_
 _atom_site_type_symbol
 _atom_site_label
 _atom_site_symmetry_multiplicity
 _atom_site_fract_x
 _atom_site_fract_y
 _atom_site_fract_z
 _atom_site_occupancy
  K  K0  1  0.000000  0.000000  0.000000  1
  Rb  Rb1  1  0.844665  0.155335  0.500000  1
  Rb  Rb2  1  0.500000  0.500000  0.500000  1
  Rb  Rb3  1  0.155335  0.844665  0.500000  1
  Ce  Ce4  1  0.667748  0.332252  0.000000  1
  Ce  Ce5  1  0.332252  0.667748  0.000000  1
  Se  Se6  1  0.693819  0.693819  0.196020  1
  Se  Se7  1  0.442113  0.067494  0.200028  1
  Se  Se8  1  0.067494  0.442113  0.200028  1
  Se  Se9  1  0.932507  0.557888  0.799973  1
  Se  Se10  1  0.557888  0.932507  0.799973  1
  Se  Se11  1  0.306182  0.306182  0.803980  1
