# generated using pymatgen
data_Li7Y8Mg(SnPb)4
_symmetry_space_group_name_H-M   'P 1'
_cell_length_a   9.50513558
_cell_length_b   9.50261875
_cell_length_c   7.33863915
_cell_angle_alpha   90.18851357
_cell_angle_beta   89.78236237
_cell_angle_gamma   119.91780385
_symmetry_Int_Tables_number   1
_chemical_formula_structural   Li7Y8Mg(SnPb)4
_chemical_formula_sum   'Li7 Y8 Mg1 Sn4 Pb4'
_cell_volume   574.51742445
_cell_formula_units_Z   1
loop_
 _symmetry_equiv_pos_site_id
 _symmetry_equiv_pos_as_xyz
  1  'x, y, z'
loop_
 _atom_site_type_symbol
 _atom_site_label
 _atom_site_symmetry_multiplicity
 _atom_site_fract_x
 _atom_site_fract_y
 _atom_site_fract_z
 _atom_site_occupancy
  Li  Li0  1  0.335531  0.167227  0.695095  1
  Li  Li1  1  0.831771  0.665278  0.696281  1
  Li  Li2  1  0.164992  0.334059  0.195405  1
  Li  Li3  1  0.665402  0.835087  0.192984  1
  Li  Li4  1  0.830980  0.166315  0.692380  1
  Li  Li5  1  0.334572  0.668566  0.813974  1
  Li  Li6  1  0.668309  0.330636  0.313635  1
  Y  Y7  1  0.513025  0.489989  0.987125  1
  Y  Y8  1  0.022497  0.507334  0.491291  1
  Y  Y9  1  0.493776  0.975991  0.492309  1
  Y  Y10  1  0.521478  0.028395  0.988687  1
  Y  Y11  1  0.970464  0.479411  0.988980  1
  Y  Y12  1  0.489343  0.514530  0.495346  1
  Y  Y13  1  0.993628  0.002927  0.981430  1
  Y  Y14  1  0.995756  0.000845  0.485005  1
  Mg  Mg15  1  0.168401  0.833184  0.199410  1
  Sn  Sn16  1  0.666253  0.832940  0.754942  1
  Sn  Sn17  1  0.833773  0.166328  0.254782  1
  Sn  Sn18  1  0.337039  0.662670  0.226735  1
  Sn  Sn19  1  0.666673  0.333477  0.722118  1
  Pb  Pb20  1  0.166324  0.833377  0.752371  1
  Pb  Pb21  1  0.337535  0.174994  0.257166  1
  Pb  Pb22  1  0.825398  0.662450  0.257442  1
  Pb  Pb23  1  0.167081  0.333991  0.755111  1
