# generated using pymatgen
data_Na6V3CrP4(O8F3)2
_symmetry_space_group_name_H-M   'P 1'
_cell_length_a   9.16654900
_cell_length_b   9.19762600
_cell_length_c   10.92377900
_cell_angle_alpha   90.00000000
_cell_angle_beta   90.00000000
_cell_angle_gamma   90.00000000
_symmetry_Int_Tables_number   1
_chemical_formula_structural   Na6V3CrP4(O8F3)2
_chemical_formula_sum   'Na12 V6 Cr2 P8 O32 F12'
_cell_volume   920.98915373
_cell_formula_units_Z   2
loop_
 _symmetry_equiv_pos_site_id
 _symmetry_equiv_pos_as_xyz
  1  'x, y, z'
loop_
 _atom_site_type_symbol
 _atom_site_label
 _atom_site_symmetry_multiplicity
 _atom_site_fract_x
 _atom_site_fract_y
 _atom_site_fract_z
 _atom_site_occupancy
  Na  Na0  1  0.031823  0.286547  0.500000  1
  Na  Na1  1  0.051261  0.809717  0.000000  1
  Na  Na2  1  0.243954  0.516827  0.000000  1
  Na  Na3  1  0.255686  0.011769  0.500000  1
  Na  Na4  1  0.454492  0.306867  0.500000  1
  Na  Na5  1  0.461702  0.789193  0.000000  1
  Na  Na6  1  0.537724  0.212179  0.000000  1
  Na  Na7  1  0.549582  0.692618  0.500000  1
  Na  Na8  1  0.744156  0.984677  0.500000  1
  Na  Na9  1  0.755694  0.484298  0.000000  1
  Na  Na10  1  0.950971  0.194012  0.000000  1
  Na  Na11  1  0.963152  0.711980  0.500000  1
  V  V12  1  0.250612  0.745557  0.313997  1
  V  V13  1  0.250612  0.745557  0.686003  1
  V  V14  1  0.749339  0.254069  0.313727  1
  V  V15  1  0.749339  0.254069  0.686273  1
  V  V16  1  0.750704  0.754629  0.185501  1
  V  V17  1  0.750704  0.754629  0.814499  1
  Cr  Cr18  1  0.249540  0.246463  0.184717  1
  Cr  Cr19  1  0.249540  0.246463  0.815283  1
  P  P20  1  0.001285  0.001033  0.743843  1
  P  P21  1  0.001285  0.001033  0.256157  1
  P  P22  1  0.499332  0.499279  0.757463  1
  P  P23  1  0.499332  0.499279  0.242537  1
  P  P24  1  0.498749  0.000940  0.747942  1
  P  P25  1  0.498749  0.000940  0.252058  1
  P  P26  1  0.000637  0.499064  0.753778  1
  P  P27  1  0.000637  0.499064  0.246222  1
  O  O28  1  0.091238  0.598669  0.332016  1
  O  O29  1  0.091238  0.598669  0.667984  1
  O  O30  1  0.092366  0.097761  0.168640  1
  O  O31  1  0.092366  0.097761  0.831360  1
  O  O32  1  0.098259  0.405529  0.161294  1
  O  O33  1  0.098382  0.906814  0.658907  1
  O  O34  1  0.098259  0.405529  0.838706  1
  O  O35  1  0.098382  0.906814  0.341093  1
  O  O36  1  0.400634  0.907777  0.662945  1
  O  O37  1  0.400634  0.907777  0.337055  1
  O  O38  1  0.401871  0.404821  0.158116  1
  O  O39  1  0.401871  0.404821  0.841884  1
  O  O40  1  0.408790  0.597322  0.329799  1
  O  O41  1  0.408790  0.597322  0.670201  1
  O  O42  1  0.407791  0.098882  0.165691  1
  O  O43  1  0.407791  0.098882  0.834309  1
  O  O44  1  0.590277  0.901005  0.167155  1
  O  O45  1  0.590277  0.901005  0.832845  1
  O  O46  1  0.590527  0.401862  0.329827  1
  O  O47  1  0.590527  0.401862  0.670173  1
  O  O48  1  0.597236  0.593245  0.158306  1
  O  O49  1  0.597236  0.593245  0.841694  1
  O  O50  1  0.597837  0.093546  0.663180  1
  O  O51  1  0.597837  0.093546  0.336820  1
  O  O52  1  0.901463  0.592341  0.162418  1
  O  O53  1  0.901463  0.592341  0.837582  1
  O  O54  1  0.903125  0.094504  0.659062  1
  O  O55  1  0.903125  0.094504  0.340938  1
  O  O56  1  0.909724  0.902859  0.169716  1
  O  O57  1  0.909724  0.902859  0.830284  1
  O  O58  1  0.909690  0.400157  0.332325  1
  O  O59  1  0.909690  0.400157  0.667675  1
  F  F60  1  0.250704  0.240477  0.364239  1
  F  F61  1  0.250704  0.240477  0.635761  1
  F  F62  1  0.246856  0.248563  0.000000  1
  F  F63  1  0.253243  0.748373  0.500000  1
  F  F64  1  0.249798  0.737959  0.129021  1
  F  F65  1  0.249798  0.737959  0.870979  1
  F  F66  1  0.750201  0.261601  0.129032  1
  F  F67  1  0.750201  0.261601  0.870968  1
  F  F68  1  0.746559  0.251204  0.500000  1
  F  F69  1  0.753345  0.751508  0.000000  1
  F  F70  1  0.749788  0.761671  0.370398  1
  F  F71  1  0.749788  0.761671  0.629602  1
