# generated using pymatgen
data_Ga4Ir2RuRh
_symmetry_space_group_name_H-M   'P 1'
_cell_length_a   6.10780900
_cell_length_b   4.31245300
_cell_length_c   8.60059500
_cell_angle_alpha   90.00000000
_cell_angle_beta   90.00024852
_cell_angle_gamma   90.00000000
_symmetry_Int_Tables_number   1
_chemical_formula_structural   Ga4Ir2RuRh
_chemical_formula_sum   'Ga8 Ir4 Ru2 Rh2'
_cell_volume   226.53656960
_cell_formula_units_Z   2
loop_
 _symmetry_equiv_pos_site_id
 _symmetry_equiv_pos_as_xyz
  1  'x, y, z'
loop_
 _atom_site_type_symbol
 _atom_site_label
 _atom_site_symmetry_multiplicity
 _atom_site_fract_x
 _atom_site_fract_y
 _atom_site_fract_z
 _atom_site_occupancy
  Ga  Ga0  1  0.999079  0.749999  0.123212  1
  Ga  Ga1  1  0.500972  0.749999  0.123245  1
  Ga  Ga2  1  0.000957  0.250000  0.376752  1
  Ga  Ga3  1  0.499089  0.250000  0.376787  1
  Ga  Ga4  1  0.499204  0.749999  0.626573  1
  Ga  Ga5  1  0.000750  0.749999  0.626606  1
  Ga  Ga6  1  0.500747  0.250000  0.873397  1
  Ga  Ga7  1  0.999204  0.250000  0.873430  1
  Ir  Ir8  1  0.750035  0.250000  0.127101  1
  Ir  Ir9  1  0.250037  0.749999  0.372879  1
  Ir  Ir10  1  0.749971  0.250000  0.623280  1
  Ir  Ir11  1  0.249969  0.749999  0.876740  1
  Ru  Ru12  1  0.249933  0.250000  0.623902  1
  Ru  Ru13  1  0.749935  0.749999  0.876087  1
  Rh  Rh14  1  0.250063  0.250000  0.126144  1
  Rh  Rh15  1  0.750056  0.749999  0.373862  1
