# generated using pymatgen
data_Sc12Fe2RePb2
_symmetry_space_group_name_H-M   'P 1'
_cell_length_a   7.86320585
_cell_length_b   7.86320422
_cell_length_c   7.86320500
_cell_angle_alpha   108.38061245
_cell_angle_beta   108.38060851
_cell_angle_gamma   111.67517175
_symmetry_Int_Tables_number   1
_chemical_formula_structural   Sc12Fe2RePb2
_chemical_formula_sum   'Sc12 Fe2 Re1 Pb2'
_cell_volume   373.84592751
_cell_formula_units_Z   1
loop_
 _symmetry_equiv_pos_site_id
 _symmetry_equiv_pos_as_xyz
  1  'x, y, z'
loop_
 _atom_site_type_symbol
 _atom_site_label
 _atom_site_symmetry_multiplicity
 _atom_site_fract_x
 _atom_site_fract_y
 _atom_site_fract_z
 _atom_site_occupancy
  Sc  Sc0  1  0.305376  0.305376  0.610752  1
  Sc  Sc1  1  0.694624  0.694624  0.389248  1
  Sc  Sc2  1  0.305376  0.694624  0.000000  1
  Sc  Sc3  1  0.694624  0.305376  0.000000  1
  Sc  Sc4  1  0.432458  0.197817  0.234641  1
  Sc  Sc5  1  0.567542  0.802183  0.765359  1
  Sc  Sc6  1  0.963176  0.197817  0.765359  1
  Sc  Sc7  1  0.197817  0.963176  0.765359  1
  Sc  Sc8  1  0.036824  0.802183  0.234641  1
  Sc  Sc9  1  0.802183  0.036824  0.234641  1
  Sc  Sc10  1  0.197817  0.432458  0.234641  1
  Sc  Sc11  1  0.802183  0.567542  0.765359  1
  Fe  Fe12  1  0.380723  0.380723  0.000000  1
  Fe  Fe13  1  0.619277  0.619277  0.000000  1
  Re  Re14  1  0.000000  0.000000  0.000000  1
  Pb  Pb15  1  0.500000  0.000000  0.500000  1
  Pb  Pb16  1  0.000000  0.500000  0.500000  1
