# generated using pymatgen
data_Os2SeCl12
_symmetry_space_group_name_H-M   'P 1'
_cell_length_a   8.85746854
_cell_length_b   9.26605490
_cell_length_c   11.71681800
_cell_angle_alpha   90.00000000
_cell_angle_beta   90.00000000
_cell_angle_gamma   96.78464036
_symmetry_Int_Tables_number   1
_chemical_formula_structural   Os2SeCl12
_chemical_formula_sum   'Os4 Se2 Cl24'
_cell_volume   954.90947243
_cell_formula_units_Z   2
loop_
 _symmetry_equiv_pos_site_id
 _symmetry_equiv_pos_as_xyz
  1  'x, y, z'
loop_
 _atom_site_type_symbol
 _atom_site_label
 _atom_site_symmetry_multiplicity
 _atom_site_fract_x
 _atom_site_fract_y
 _atom_site_fract_z
 _atom_site_occupancy
  Os  Os0  1  0.647724  0.401898  0.250000  1
  Os  Os1  1  0.856446  0.617467  0.250000  1
  Os  Os2  1  0.143329  0.382519  0.750001  1
  Os  Os3  1  0.352251  0.598094  0.750001  1
  Se  Se4  1  0.151037  0.913936  0.250000  1
  Se  Se5  1  0.849022  0.086049  0.750001  1
  Cl  Cl6  1  0.674687  0.584237  0.097831  1
  Cl  Cl7  1  0.165855  0.070669  0.107858  1
  Cl  Cl8  1  0.620201  0.230833  0.109746  1
  Cl  Cl9  1  0.044184  0.670221  0.111025  1
  Cl  Cl10  1  0.918715  0.372647  0.250000  1
  Cl  Cl11  1  0.395467  0.426625  0.250000  1
  Cl  Cl12  1  0.388465  0.868069  0.250000  1
  Cl  Cl13  1  0.821510  0.863799  0.250000  1
  Cl  Cl14  1  0.044184  0.670221  0.388975  1
  Cl  Cl15  1  0.620201  0.230833  0.390254  1
  Cl  Cl16  1  0.165855  0.070669  0.392142  1
  Cl  Cl17  1  0.674687  0.584237  0.402169  1
  Cl  Cl18  1  0.325245  0.415812  0.597801  1
  Cl  Cl19  1  0.834480  0.929300  0.607856  1
  Cl  Cl20  1  0.379865  0.769173  0.609743  1
  Cl  Cl21  1  0.955702  0.329925  0.611047  1
  Cl  Cl22  1  0.178395  0.136316  0.750001  1
  Cl  Cl23  1  0.611426  0.131466  0.750001  1
  Cl  Cl24  1  0.604482  0.573249  0.750001  1
  Cl  Cl25  1  0.081297  0.627522  0.750001  1
  Cl  Cl26  1  0.955702  0.329925  0.888952  1
  Cl  Cl27  1  0.379865  0.769173  0.890257  1
  Cl  Cl28  1  0.834480  0.929300  0.892144  1
  Cl  Cl29  1  0.325245  0.415812  0.902200  1
