# generated using pymatgen
data_Yb2NpO5F
_symmetry_space_group_name_H-M   'P 1'
_cell_length_a   5.51483100
_cell_length_b   7.17618710
_cell_length_c   12.61182572
_cell_angle_alpha   74.70132308
_cell_angle_beta   90.00000000
_cell_angle_gamma   90.00000000
_symmetry_Int_Tables_number   1
_chemical_formula_structural   Yb2NpO5F
_chemical_formula_sum   'Yb8 Np4 O20 F4'
_cell_volume   481.43177572
_cell_formula_units_Z   4
loop_
 _symmetry_equiv_pos_site_id
 _symmetry_equiv_pos_as_xyz
  1  'x, y, z'
loop_
 _atom_site_type_symbol
 _atom_site_label
 _atom_site_symmetry_multiplicity
 _atom_site_fract_x
 _atom_site_fract_y
 _atom_site_fract_z
 _atom_site_occupancy
  Yb  Yb0  1  0.254786  0.169396  0.415497  1
  Yb  Yb1  1  0.254786  0.830604  0.084503  1
  Yb  Yb2  1  0.745214  0.830604  0.584503  1
  Yb  Yb3  1  0.745214  0.169396  0.915497  1
  Yb  Yb4  1  0.740081  0.500000  0.250000  1
  Yb  Yb5  1  0.259919  0.500000  0.750000  1
  Yb  Yb6  1  0.768111  0.000000  0.250000  1
  Yb  Yb7  1  0.231889  0.000000  0.750000  1
  Np  Np8  1  0.187080  0.323748  0.091721  1
  Np  Np9  1  0.187080  0.676252  0.408279  1
  Np  Np10  1  0.812920  0.676252  0.908279  1
  Np  Np11  1  0.812920  0.323748  0.591721  1
  O  O12  1  0.969980  0.113036  0.080216  1
  O  O13  1  0.969980  0.886964  0.419784  1
  O  O14  1  0.030020  0.886964  0.919784  1
  O  O15  1  0.030020  0.113036  0.580216  1
  O  O16  1  0.049742  0.251215  0.248004  1
  O  O17  1  0.049742  0.748785  0.251996  1
  O  O18  1  0.950258  0.748785  0.751996  1
  O  O19  1  0.950258  0.251215  0.748004  1
  O  O20  1  0.934594  0.444924  0.418231  1
  O  O21  1  0.934594  0.555076  0.081769  1
  O  O22  1  0.065406  0.555076  0.581769  1
  O  O23  1  0.065406  0.444924  0.918231  1
  O  O24  1  0.584838  0.516229  0.605792  1
  O  O25  1  0.584838  0.483771  0.894208  1
  O  O26  1  0.415162  0.483771  0.394208  1
  O  O27  1  0.415162  0.516229  0.105792  1
  O  O28  1  0.556834  0.138388  0.574201  1
  O  O29  1  0.556834  0.861612  0.925799  1
  O  O30  1  0.443166  0.861612  0.425799  1
  O  O31  1  0.443166  0.138388  0.074201  1
  F  F32  1  0.544693  0.221353  0.289435  1
  F  F33  1  0.544693  0.778647  0.210565  1
  F  F34  1  0.455307  0.778647  0.710565  1
  F  F35  1  0.455307  0.221353  0.789435  1
