# generated using pymatgen
data_HfZr13(Pt9Au)2
_symmetry_space_group_name_H-M   'P 1'
_cell_length_a   8.23075563
_cell_length_b   8.23075651
_cell_length_c   9.77945201
_cell_angle_alpha   90.02888437
_cell_angle_beta   90.02888298
_cell_angle_gamma   107.24397369
_symmetry_Int_Tables_number   1
_chemical_formula_structural   HfZr13(Pt9Au)2
_chemical_formula_sum   'Hf1 Zr13 Pt18 Au2'
_cell_volume   632.73294418
_cell_formula_units_Z   1
loop_
 _symmetry_equiv_pos_site_id
 _symmetry_equiv_pos_as_xyz
  1  'x, y, z'
loop_
 _atom_site_type_symbol
 _atom_site_label
 _atom_site_symmetry_multiplicity
 _atom_site_fract_x
 _atom_site_fract_y
 _atom_site_fract_z
 _atom_site_occupancy
  Hf  Hf0  1  0.000000  0.000000  0.000000  1
  Zr  Zr1  1  0.697687  0.302313  0.000000  1
  Zr  Zr2  1  0.302313  0.697687  0.000000  1
  Zr  Zr3  1  0.808893  0.191107  0.500000  1
  Zr  Zr4  1  0.191107  0.808893  0.500000  1
  Zr  Zr5  1  0.500000  0.500000  0.500000  1
  Zr  Zr6  1  0.000384  0.501926  0.250550  1
  Zr  Zr7  1  0.999616  0.498074  0.749450  1
  Zr  Zr8  1  0.498074  0.999616  0.749450  1
  Zr  Zr9  1  0.501926  0.000384  0.250550  1
  Zr  Zr10  1  0.309737  0.309737  0.190343  1
  Zr  Zr11  1  0.690263  0.690263  0.809657  1
  Zr  Zr12  1  0.176174  0.176174  0.676579  1
  Zr  Zr13  1  0.823826  0.823826  0.323421  1
  Pt  Pt14  1  0.854379  0.144521  0.207271  1
  Pt  Pt15  1  0.145621  0.855479  0.792729  1
  Pt  Pt16  1  0.648893  0.355202  0.707817  1
  Pt  Pt17  1  0.644798  0.351107  0.292183  1
  Pt  Pt18  1  0.351107  0.644798  0.292183  1
  Pt  Pt19  1  0.355202  0.648893  0.707817  1
  Pt  Pt20  1  0.855479  0.145621  0.792729  1
  Pt  Pt21  1  0.144521  0.854379  0.207271  1
  Pt  Pt22  1  0.937180  0.646360  0.998061  1
  Pt  Pt23  1  0.062820  0.353640  0.001939  1
  Pt  Pt24  1  0.561823  0.854405  0.499459  1
  Pt  Pt25  1  0.145595  0.438177  0.500541  1
  Pt  Pt26  1  0.438177  0.145595  0.500541  1
  Pt  Pt27  1  0.854405  0.561823  0.499459  1
  Pt  Pt28  1  0.353640  0.062820  0.001939  1
  Pt  Pt29  1  0.646360  0.937180  0.998061  1
  Pt  Pt30  1  0.106245  0.106245  0.395232  1
  Pt  Pt31  1  0.893755  0.893755  0.604768  1
  Au  Au32  1  0.392128  0.392128  0.891969  1
  Au  Au33  1  0.607872  0.607872  0.108031  1
