# generated using pymatgen
data_Dy3Cd5Au
_symmetry_space_group_name_H-M   'P 1'
_cell_length_a   8.16353000
_cell_length_b   8.16353018
_cell_length_c   3.76216400
_cell_angle_alpha   90.00000000
_cell_angle_beta   90.00000000
_cell_angle_gamma   120.00000736
_symmetry_Int_Tables_number   1
_chemical_formula_structural   Dy3Cd5Au
_chemical_formula_sum   'Dy3 Cd5 Au1'
_cell_volume   217.13224305
_cell_formula_units_Z   1
loop_
 _symmetry_equiv_pos_site_id
 _symmetry_equiv_pos_as_xyz
  1  'x, y, z'
loop_
 _atom_site_type_symbol
 _atom_site_label
 _atom_site_symmetry_multiplicity
 _atom_site_fract_x
 _atom_site_fract_y
 _atom_site_fract_z
 _atom_site_occupancy
  Dy  Dy0  1  0.611668  0.021156  0.000000  1
  Dy  Dy1  1  0.978844  0.590512  0.000000  1
  Dy  Dy2  1  0.409488  0.388332  0.000000  1
  Cd  Cd3  1  0.271159  0.992678  0.500000  1
  Cd  Cd4  1  0.007322  0.278482  0.500000  1
  Cd  Cd5  1  0.721518  0.728841  0.500000  1
  Cd  Cd6  1  0.333333  0.666667  0.500000  1
  Cd  Cd7  1  0.000000  0.000000  0.000000  1
  Au  Au8  1  0.666667  0.333333  0.500000  1
