# generated using pymatgen
data_Sc4TiIn(B2Ir5)2
_symmetry_space_group_name_H-M   'P 1'
_cell_length_a   9.48367200
_cell_length_b   9.48367200
_cell_length_c   3.14387200
_cell_angle_alpha   90.00000000
_cell_angle_beta   90.00000000
_cell_angle_gamma   90.00000000
_symmetry_Int_Tables_number   1
_chemical_formula_structural   Sc4TiIn(B2Ir5)2
_chemical_formula_sum   'Sc4 Ti1 In1 B4 Ir10'
_cell_volume   282.75995647
_cell_formula_units_Z   1
loop_
 _symmetry_equiv_pos_site_id
 _symmetry_equiv_pos_as_xyz
  1  'x, y, z'
loop_
 _atom_site_type_symbol
 _atom_site_label
 _atom_site_symmetry_multiplicity
 _atom_site_fract_x
 _atom_site_fract_y
 _atom_site_fract_z
 _atom_site_occupancy
  Sc  Sc0  1  0.675807  0.175571  0.000000  1
  Sc  Sc1  1  0.175571  0.324193  0.000000  1
  Sc  Sc2  1  0.824429  0.675807  0.000000  1
  Sc  Sc3  1  0.324193  0.824429  0.000000  1
  Ti  Ti4  1  0.500000  0.500000  0.000000  1
  In  In5  1  0.000000  0.000000  0.000000  1
  B  B6  1  0.377454  0.120604  0.000000  1
  B  B7  1  0.879396  0.377454  0.000000  1
  B  B8  1  0.120604  0.622546  0.000000  1
  B  B9  1  0.622546  0.879396  0.000000  1
  Ir  Ir10  1  0.500000  0.000000  0.500000  1
  Ir  Ir11  1  0.224483  0.075080  0.500000  1
  Ir  Ir12  1  0.924920  0.224483  0.500000  1
  Ir  Ir13  1  0.431807  0.283603  0.500000  1
  Ir  Ir14  1  0.716397  0.431807  0.500000  1
  Ir  Ir15  1  0.000000  0.500000  0.500000  1
  Ir  Ir16  1  0.283603  0.568193  0.500000  1
  Ir  Ir17  1  0.568193  0.716397  0.500000  1
  Ir  Ir18  1  0.075080  0.775517  0.500000  1
  Ir  Ir19  1  0.775517  0.924920  0.500000  1
