# generated using pymatgen
data_Y5GeMoO12
_symmetry_space_group_name_H-M   'P 1'
_cell_length_a   6.83927289
_cell_length_b   6.83927172
_cell_length_c   7.30129404
_cell_angle_alpha   74.44275678
_cell_angle_beta   74.44276346
_cell_angle_gamma   51.44967331
_symmetry_Int_Tables_number   1
_chemical_formula_structural   Y5GeMoO12
_chemical_formula_sum   'Y5 Ge1 Mo1 O12'
_cell_volume   254.98098090
_cell_formula_units_Z   1
loop_
 _symmetry_equiv_pos_site_id
 _symmetry_equiv_pos_as_xyz
  1  'x, y, z'
loop_
 _atom_site_type_symbol
 _atom_site_label
 _atom_site_symmetry_multiplicity
 _atom_site_fract_x
 _atom_site_fract_y
 _atom_site_fract_z
 _atom_site_occupancy
  Y  Y0  1  0.312705  0.292444  0.360942  1
  Y  Y1  1  0.707556  0.687295  0.639058  1
  Y  Y2  1  0.310074  0.305029  0.828999  1
  Y  Y3  1  0.694971  0.689926  0.171001  1
  Y  Y4  1  0.998050  0.001950  0.500000  1
  Ge  Ge5  1  0.747312  0.252688  0.000000  1
  Mo  Mo6  1  0.234294  0.765706  0.000000  1
  O  O7  1  0.897957  0.423410  0.918652  1
  O  O8  1  0.427479  0.897574  0.918228  1
  O  O9  1  0.102426  0.572521  0.081772  1
  O  O10  1  0.576590  0.102043  0.081348  1
  O  O11  1  0.101566  0.596408  0.574092  1
  O  O12  1  0.597923  0.091917  0.576298  1
  O  O13  1  0.908083  0.402077  0.423702  1
  O  O14  1  0.403592  0.898434  0.425908  1
  O  O15  1  0.985315  0.014359  0.819009  1
  O  O16  1  0.985641  0.014685  0.180991  1
  O  O17  1  0.503780  0.495316  0.815991  1
  O  O18  1  0.504684  0.496220  0.184009  1
