# generated using pymatgen
data_Cs2Pu(TeO4)3
_symmetry_space_group_name_H-M   'P 1'
_cell_length_a   7.69227488
_cell_length_b   7.69274741
_cell_length_c   7.69241596
_cell_angle_alpha   57.67021996
_cell_angle_beta   57.68190306
_cell_angle_gamma   57.67356474
_symmetry_Int_Tables_number   1
_chemical_formula_structural   Cs2Pu(TeO4)3
_chemical_formula_sum   'Cs2 Pu1 Te3 O12'
_cell_volume   304.67825790
_cell_formula_units_Z   1
loop_
 _symmetry_equiv_pos_site_id
 _symmetry_equiv_pos_as_xyz
  1  'x, y, z'
loop_
 _atom_site_type_symbol
 _atom_site_label
 _atom_site_symmetry_multiplicity
 _atom_site_fract_x
 _atom_site_fract_y
 _atom_site_fract_z
 _atom_site_occupancy
  Cs  Cs0  1  0.376332  0.376341  0.376336  1
  Cs  Cs1  1  0.623668  0.623659  0.623664  1
  Pu  Pu2  1  0.000000  0.000000  0.000000  1
  Te  Te3  1  0.500000  0.000000  0.000000  1
  Te  Te4  1  0.000000  0.000000  0.500000  1
  Te  Te5  1  0.000000  0.500000  0.000000  1
  O  O6  1  0.924636  0.317323  0.317359  1
  O  O7  1  0.337700  0.932842  0.933147  1
  O  O8  1  0.317335  0.317371  0.924631  1
  O  O9  1  0.932819  0.933153  0.337756  1
  O  O10  1  0.933117  0.337764  0.932842  1
  O  O11  1  0.317396  0.924631  0.317331  1
  O  O12  1  0.075364  0.682677  0.682641  1
  O  O13  1  0.662300  0.067158  0.066853  1
  O  O14  1  0.682665  0.682629  0.075369  1
  O  O15  1  0.067181  0.066847  0.662244  1
  O  O16  1  0.066883  0.662236  0.067158  1
  O  O17  1  0.682604  0.075369  0.682669  1
