# generated using pymatgen
data_Nb12B12OsRu11
_symmetry_space_group_name_H-M   'P 1'
_cell_length_a   3.12692400
_cell_length_b   9.05748535
_cell_length_c   15.78419835
_cell_angle_alpha   90.06252575
_cell_angle_beta   90.00000000
_cell_angle_gamma   90.00000000
_symmetry_Int_Tables_number   1
_chemical_formula_structural   Nb12B12OsRu11
_chemical_formula_sum   'Nb12 B12 Os1 Ru11'
_cell_volume   447.04087777
_cell_formula_units_Z   1
loop_
 _symmetry_equiv_pos_site_id
 _symmetry_equiv_pos_as_xyz
  1  'x, y, z'
loop_
 _atom_site_type_symbol
 _atom_site_label
 _atom_site_symmetry_multiplicity
 _atom_site_fract_x
 _atom_site_fract_y
 _atom_site_fract_z
 _atom_site_occupancy
  Nb  Nb0  1  0.000000  0.800802  0.495424  1
  Nb  Nb1  1  0.000000  0.198928  0.504905  1
  Nb  Nb2  1  0.000000  0.301207  0.004555  1
  Nb  Nb3  1  0.000000  0.698861  0.995479  1
  Nb  Nb4  1  0.000000  0.514397  0.594981  1
  Nb  Nb5  1  0.000000  0.485408  0.405217  1
  Nb  Nb6  1  0.000000  0.014490  0.904824  1
  Nb  Nb7  1  0.000000  0.986115  0.094239  1
  Nb  Nb8  1  0.000000  0.686459  0.202591  1
  Nb  Nb9  1  0.000000  0.313043  0.797380  1
  Nb  Nb10  1  0.000000  0.186742  0.297442  1
  Nb  Nb11  1  0.000000  0.812785  0.702645  1
  B  B12  1  0.500000  0.604100  0.497723  1
  B  B13  1  0.500000  0.395589  0.502383  1
  B  B14  1  0.500000  0.104757  0.001813  1
  B  B15  1  0.500000  0.895672  0.997195  1
  B  B16  1  0.000000  0.609314  0.832160  1
  B  B17  1  0.000000  0.390973  0.167939  1
  B  B18  1  0.000000  0.109173  0.667746  1
  B  B19  1  0.000000  0.890999  0.332269  1
  B  B20  1  0.500000  0.714896  0.598228  1
  B  B21  1  0.500000  0.284864  0.401930  1
  B  B22  1  0.500000  0.215151  0.901659  1
  B  B23  1  0.500000  0.785906  0.098410  1
  Os  Os24  1  0.500000  0.937819  0.234993  1
  Ru  Ru25  1  0.500000  0.720646  0.355940  1
  Ru  Ru26  1  0.500000  0.278746  0.644508  1
  Ru  Ru27  1  0.500000  0.221384  0.144275  1
  Ru  Ru28  1  0.500000  0.778638  0.855678  1
  Ru  Ru29  1  0.500000  0.515054  0.094960  1
  Ru  Ru30  1  0.500000  0.485140  0.905048  1
  Ru  Ru31  1  0.500000  0.015101  0.405606  1
  Ru  Ru32  1  0.500000  0.984895  0.595033  1
  Ru  Ru33  1  0.500000  0.561605  0.735361  1
  Ru  Ru34  1  0.500000  0.438341  0.264752  1
  Ru  Ru35  1  0.500000  0.062001  0.764709  1
