# generated using pymatgen
data_DyZr2(Ni3As2)3
_symmetry_space_group_name_H-M   'P 1'
_cell_length_a   3.82797000
_cell_length_b   10.77728100
_cell_length_c   12.68559500
_cell_angle_alpha   90.00000000
_cell_angle_beta   90.00000000
_cell_angle_gamma   90.00000000
_symmetry_Int_Tables_number   1
_chemical_formula_structural   DyZr2(Ni3As2)3
_chemical_formula_sum   'Dy2 Zr4 Ni18 As12'
_cell_volume   523.34559620
_cell_formula_units_Z   2
loop_
 _symmetry_equiv_pos_site_id
 _symmetry_equiv_pos_as_xyz
  1  'x, y, z'
loop_
 _atom_site_type_symbol
 _atom_site_label
 _atom_site_symmetry_multiplicity
 _atom_site_fract_x
 _atom_site_fract_y
 _atom_site_fract_z
 _atom_site_occupancy
  Dy  Dy0  1  0.000000  0.500000  0.525931  1
  Dy  Dy1  1  0.500000  0.000000  0.474069  1
  Zr  Zr2  1  0.500000  0.821236  0.205824  1
  Zr  Zr3  1  0.500000  0.178764  0.205824  1
  Zr  Zr4  1  0.000000  0.678764  0.794176  1
  Zr  Zr5  1  0.000000  0.321236  0.794176  1
  Ni  Ni6  1  0.500000  0.500000  0.159035  1
  Ni  Ni7  1  0.000000  0.000000  0.840965  1
  Ni  Ni8  1  0.500000  0.500000  0.702007  1
  Ni  Ni9  1  0.000000  0.000000  0.297993  1
  Ni  Ni10  1  0.000000  0.500000  0.983773  1
  Ni  Ni11  1  0.500000  0.000000  0.016227  1
  Ni  Ni12  1  0.500000  0.331324  0.997372  1
  Ni  Ni13  1  0.500000  0.668676  0.997372  1
  Ni  Ni14  1  0.000000  0.168676  0.002628  1
  Ni  Ni15  1  0.000000  0.831324  0.002628  1
  Ni  Ni16  1  0.500000  0.300671  0.428800  1
  Ni  Ni17  1  0.500000  0.699329  0.428800  1
  Ni  Ni18  1  0.000000  0.199329  0.571200  1
  Ni  Ni19  1  0.000000  0.800671  0.571200  1
  Ni  Ni20  1  0.500000  0.877506  0.709210  1
  Ni  Ni21  1  0.500000  0.122494  0.709210  1
  Ni  Ni22  1  0.000000  0.622494  0.290790  1
  Ni  Ni23  1  0.000000  0.377506  0.290790  1
  As  As24  1  0.500000  0.500000  0.877528  1
  As  As25  1  0.000000  0.000000  0.122472  1
  As  As26  1  0.500000  0.500000  0.346922  1
  As  As27  1  0.000000  0.000000  0.653078  1
  As  As28  1  0.500000  0.314150  0.617529  1
  As  As29  1  0.500000  0.685850  0.617529  1
  As  As30  1  0.000000  0.185850  0.382471  1
  As  As31  1  0.000000  0.814150  0.382471  1
  As  As32  1  0.500000  0.844676  0.888097  1
  As  As33  1  0.500000  0.155324  0.888097  1
  As  As34  1  0.000000  0.655324  0.111903  1
  As  As35  1  0.000000  0.344676  0.111903  1
