# generated using pymatgen
data_Dy4Tm6IrRu3
_symmetry_space_group_name_H-M   'P 1'
_cell_length_a   6.31555496
_cell_length_b   7.28787634
_cell_length_c   8.39025765
_cell_angle_alpha   96.88695254
_cell_angle_beta   111.98105568
_cell_angle_gamma   90.10822982
_symmetry_Int_Tables_number   1
_chemical_formula_structural   Dy4Tm6IrRu3
_chemical_formula_sum   'Dy4 Tm6 Ir1 Ru3'
_cell_volume   355.06308303
_cell_formula_units_Z   1
loop_
 _symmetry_equiv_pos_site_id
 _symmetry_equiv_pos_as_xyz
  1  'x, y, z'
loop_
 _atom_site_type_symbol
 _atom_site_label
 _atom_site_symmetry_multiplicity
 _atom_site_fract_x
 _atom_site_fract_y
 _atom_site_fract_z
 _atom_site_occupancy
  Dy  Dy0  1  0.790851  0.081373  0.813603  1
  Dy  Dy1  1  0.977887  0.415354  0.188188  1
  Dy  Dy2  1  0.210081  0.916053  0.187282  1
  Dy  Dy3  1  0.025249  0.585135  0.813790  1
  Tm  Tm4  1  0.204661  0.183371  0.564945  1
  Tm  Tm5  1  0.641517  0.316616  0.434193  1
  Tm  Tm6  1  0.793971  0.815552  0.434261  1
  Tm  Tm7  1  0.357513  0.685059  0.564145  1
  Tm  Tm8  1  0.420486  0.249769  0.000298  1
  Tm  Tm9  1  0.579760  0.751158  0.000747  1
  Ir  Ir10  1  0.598200  0.423585  0.777853  1
  Ru  Ru11  1  0.822568  0.076714  0.220585  1
  Ru  Ru12  1  0.397891  0.575965  0.221260  1
  Ru  Ru13  1  0.179363  0.924300  0.778851  1
