# generated using pymatgen
data_Nd2Sm4FeBr10
_symmetry_space_group_name_H-M   'P 1'
_cell_length_a   7.56415382
_cell_length_b   9.42698904
_cell_length_c   9.38808551
_cell_angle_alpha   108.04441963
_cell_angle_beta   105.37551499
_cell_angle_gamma   96.53739546
_symmetry_Int_Tables_number   1
_chemical_formula_structural   Nd2Sm4FeBr10
_chemical_formula_sum   'Nd2 Sm4 Fe1 Br10'
_cell_volume   599.54430492
_cell_formula_units_Z   1
loop_
 _symmetry_equiv_pos_site_id
 _symmetry_equiv_pos_as_xyz
  1  'x, y, z'
loop_
 _atom_site_type_symbol
 _atom_site_label
 _atom_site_symmetry_multiplicity
 _atom_site_fract_x
 _atom_site_fract_y
 _atom_site_fract_z
 _atom_site_occupancy
  Nd  Nd0  1  0.874294  0.239459  0.951422  1
  Nd  Nd1  1  0.968679  0.090405  0.289138  1
  Sm  Sm2  1  0.361387  0.182008  0.133006  1
  Sm  Sm3  1  0.031626  0.909163  0.714605  1
  Sm  Sm4  1  0.123621  0.763118  0.048352  1
  Sm  Sm5  1  0.638221  0.818133  0.865463  1
  Fe  Fe6  1  0.999196  0.000746  0.000528  1
  Br  Br7  1  0.449714  0.079119  0.819439  1
  Br  Br8  1  0.754157  0.548831  0.918147  1
  Br  Br9  1  0.249267  0.454729  0.081514  1
  Br  Br10  1  0.914424  0.167836  0.630960  1
  Br  Br11  1  0.653910  0.728247  0.551617  1
  Br  Br12  1  0.543738  0.917472  0.176768  1
  Br  Br13  1  0.088735  0.826189  0.367568  1
  Br  Br14  1  0.784903  0.348831  0.254679  1
  Br  Br15  1  0.210935  0.653165  0.747996  1
  Br  Br16  1  0.353193  0.272549  0.448800  1
