# generated using pymatgen
data_HoSc3(SiMo)4
_symmetry_space_group_name_H-M   'P 1'
_cell_length_a   3.56700400
_cell_length_b   7.12366070
_cell_length_c   8.27720054
_cell_angle_alpha   89.91017089
_cell_angle_beta   90.00000000
_cell_angle_gamma   90.00000000
_symmetry_Int_Tables_number   1
_chemical_formula_structural   HoSc3(SiMo)4
_chemical_formula_sum   'Ho1 Sc3 Si4 Mo4'
_cell_volume   210.32445181
_cell_formula_units_Z   1
loop_
 _symmetry_equiv_pos_site_id
 _symmetry_equiv_pos_as_xyz
  1  'x, y, z'
loop_
 _atom_site_type_symbol
 _atom_site_label
 _atom_site_symmetry_multiplicity
 _atom_site_fract_x
 _atom_site_fract_y
 _atom_site_fract_z
 _atom_site_occupancy
  Ho  Ho0  1  0.750000  0.456986  0.835561  1
  Sc  Sc1  1  0.250000  0.042126  0.333904  1
  Sc  Sc2  1  0.250000  0.543752  0.169227  1
  Sc  Sc3  1  0.750000  0.955545  0.664739  1
  Si  Si4  1  0.250000  0.252660  0.630361  1
  Si  Si5  1  0.250000  0.765547  0.863318  1
  Si  Si6  1  0.750000  0.742667  0.362671  1
  Si  Si7  1  0.750000  0.240199  0.140835  1
  Mo  Mo8  1  0.250000  0.123693  0.943230  1
  Mo  Mo9  1  0.250000  0.626757  0.556941  1
  Mo  Mo10  1  0.750000  0.875368  0.060759  1
  Mo  Mo11  1  0.750000  0.374702  0.438454  1
