# generated using pymatgen
data_Ho(Th2Ir)3
_symmetry_space_group_name_H-M   'P 1'
_cell_length_a   10.01507600
_cell_length_b   10.03487733
_cell_length_c   6.33936959
_cell_angle_alpha   90.33691924
_cell_angle_beta   90.00000000
_cell_angle_gamma   119.93474023
_symmetry_Int_Tables_number   1
_chemical_formula_structural   Ho(Th2Ir)3
_chemical_formula_sum   'Ho2 Th12 Ir6'
_cell_volume   552.10062622
_cell_formula_units_Z   2
loop_
 _symmetry_equiv_pos_site_id
 _symmetry_equiv_pos_as_xyz
  1  'x, y, z'
loop_
 _atom_site_type_symbol
 _atom_site_label
 _atom_site_symmetry_multiplicity
 _atom_site_fract_x
 _atom_site_fract_y
 _atom_site_fract_z
 _atom_site_occupancy
  Ho  Ho0  1  0.458276  0.539561  0.296589  1
  Ho  Ho1  1  0.081284  0.539561  0.296589  1
  Th  Th2  1  0.916050  0.458568  0.797349  1
  Th  Th3  1  0.255408  0.129814  0.499614  1
  Th  Th4  1  0.541866  0.083731  0.793076  1
  Th  Th5  1  0.744403  0.872616  0.001418  1
  Th  Th6  1  0.666245  0.332489  0.306197  1
  Th  Th7  1  0.128213  0.872616  0.001418  1
  Th  Th8  1  0.455773  0.911546  0.291312  1
  Th  Th9  1  0.542518  0.458568  0.797349  1
  Th  Th10  1  0.874406  0.129814  0.499614  1
  Th  Th11  1  0.128598  0.257195  0.000950  1
  Th  Th12  1  0.871442  0.742884  0.497755  1
  Th  Th13  1  0.332903  0.665808  0.783347  1
  Ir  Ir14  1  0.811804  0.623608  0.054316  1
  Ir  Ir15  1  0.813060  0.188939  0.054386  1
  Ir  Ir16  1  0.626399  0.815077  0.551614  1
  Ir  Ir17  1  0.375879  0.188939  0.054386  1
  Ir  Ir18  1  0.186795  0.373590  0.555108  1
  Ir  Ir19  1  0.188678  0.815077  0.551614  1
