# generated using pymatgen
data_Yb3Ce5(Si4Mo3)4
_symmetry_space_group_name_H-M   'P 1'
_cell_length_a   6.85061838
_cell_length_b   7.00116414
_cell_length_c   12.99460102
_cell_angle_alpha   90.02830978
_cell_angle_beta   89.79479258
_cell_angle_gamma   90.06813756
_symmetry_Int_Tables_number   1
_chemical_formula_structural   Yb3Ce5(Si4Mo3)4
_chemical_formula_sum   'Yb3 Ce5 Si16 Mo12'
_cell_volume   623.24648798
_cell_formula_units_Z   1
loop_
 _symmetry_equiv_pos_site_id
 _symmetry_equiv_pos_as_xyz
  1  'x, y, z'
loop_
 _atom_site_type_symbol
 _atom_site_label
 _atom_site_symmetry_multiplicity
 _atom_site_fract_x
 _atom_site_fract_y
 _atom_site_fract_z
 _atom_site_occupancy
  Yb  Yb0  1  0.995328  0.161981  0.088294  1
  Yb  Yb1  1  0.003481  0.837592  0.910136  1
  Yb  Yb2  1  0.502640  0.661944  0.909945  1
  Ce  Ce3  1  0.003663  0.835968  0.595772  1
  Ce  Ce4  1  0.499696  0.337428  0.089916  1
  Ce  Ce5  1  0.995737  0.162768  0.406193  1
  Ce  Ce6  1  0.495169  0.337373  0.405788  1
  Ce  Ce7  1  0.503590  0.664444  0.595206  1
  Si  Si8  1  0.036708  0.137714  0.751593  1
  Si  Si9  1  0.963697  0.862512  0.247410  1
  Si  Si10  1  0.463057  0.639098  0.249357  1
  Si  Si11  1  0.536681  0.364079  0.750848  1
  Si  Si12  1  0.306788  0.874409  0.755620  1
  Si  Si13  1  0.694649  0.125006  0.246274  1
  Si  Si14  1  0.190504  0.372322  0.245914  1
  Si  Si15  1  0.806975  0.625421  0.756066  1
  Si  Si16  1  0.156760  0.452722  0.547156  1
  Si  Si17  1  0.843296  0.547307  0.453324  1
  Si  Si18  1  0.343007  0.953266  0.453031  1
  Si  Si19  1  0.848336  0.542477  0.047796  1
  Si  Si20  1  0.657412  0.046775  0.546947  1
  Si  Si21  1  0.153241  0.460457  0.950293  1
  Si  Si22  1  0.655017  0.036436  0.950999  1
  Si  Si23  1  0.343663  0.956914  0.047342  1
  Mo  Mo24  1  0.167737  0.498971  0.748086  1
  Mo  Mo25  1  0.832248  0.500936  0.250839  1
  Mo  Mo26  1  0.331689  0.001572  0.250617  1
  Mo  Mo27  1  0.667198  0.001019  0.748350  1
  Mo  Mo28  1  0.331754  0.162574  0.626706  1
  Mo  Mo29  1  0.669921  0.838182  0.372966  1
  Mo  Mo30  1  0.169561  0.662238  0.373605  1
  Mo  Mo31  1  0.666340  0.832292  0.126144  1
  Mo  Mo32  1  0.829504  0.337521  0.626752  1
  Mo  Mo33  1  0.334246  0.172699  0.874247  1
  Mo  Mo34  1  0.830145  0.328393  0.874184  1
  Mo  Mo35  1  0.170560  0.667183  0.126291  1
