# generated using pymatgen
data_Hf2Zr2FeCo3Si7
_symmetry_space_group_name_H-M   'P 1'
_cell_length_a   9.46919626
_cell_length_b   9.46919595
_cell_length_c   9.48801006
_cell_angle_alpha   94.13026623
_cell_angle_beta   94.13027130
_cell_angle_gamma   148.83326442
_symmetry_Int_Tables_number   1
_chemical_formula_structural   Hf2Zr2FeCo3Si7
_chemical_formula_sum   'Hf4 Zr4 Fe2 Co6 Si14'
_cell_volume   424.16895577
_cell_formula_units_Z   2
loop_
 _symmetry_equiv_pos_site_id
 _symmetry_equiv_pos_as_xyz
  1  'x, y, z'
loop_
 _atom_site_type_symbol
 _atom_site_label
 _atom_site_symmetry_multiplicity
 _atom_site_fract_x
 _atom_site_fract_y
 _atom_site_fract_z
 _atom_site_occupancy
  Hf  Hf0  1  0.137936  0.137936  0.275873  1
  Hf  Hf1  1  0.862064  0.862064  0.724127  1
  Hf  Hf2  1  0.861247  0.138753  0.000000  1
  Hf  Hf3  1  0.138753  0.861247  0.000000  1
  Zr  Zr4  1  0.501453  0.305377  0.803830  1
  Zr  Zr5  1  0.501548  0.697624  0.196170  1
  Zr  Zr6  1  0.694623  0.498547  0.196170  1
  Zr  Zr7  1  0.302376  0.498452  0.803830  1
  Fe  Fe8  1  0.399202  0.899202  0.798405  1
  Fe  Fe9  1  0.100798  0.600798  0.201595  1
  Co  Co10  1  0.101137  0.898863  0.500000  1
  Co  Co11  1  0.398863  0.601137  0.500000  1
  Co  Co12  1  0.603781  0.396219  0.500000  1
  Co  Co13  1  0.896219  0.103781  0.500000  1
  Co  Co14  1  0.897075  0.397075  0.794149  1
  Co  Co15  1  0.602925  0.102925  0.205851  1
  Si  Si16  1  0.493305  0.083346  0.593411  1
  Si  Si17  1  0.489935  0.899893  0.406589  1
  Si  Si18  1  0.916654  0.506695  0.406589  1
  Si  Si19  1  0.100107  0.510065  0.593411  1
  Si  Si20  1  0.751376  0.751376  0.000000  1
  Si  Si21  1  0.248624  0.248624  0.000000  1
  Si  Si22  1  0.289320  0.289320  0.578638  1
  Si  Si23  1  0.710680  0.710680  0.421362  1
  Si  Si24  1  0.710369  0.289631  0.000000  1
  Si  Si25  1  0.289631  0.710369  0.000000  1
  Si  Si26  1  0.002116  0.303983  0.301249  1
  Si  Si27  1  0.002736  0.700867  0.698751  1
  Si  Si28  1  0.696017  0.997884  0.698751  1
  Si  Si29  1  0.299133  0.997264  0.301249  1
