# generated using pymatgen
data_TmSc19Sb12
_symmetry_space_group_name_H-M   'P 1'
_cell_length_a   7.62603701
_cell_length_b   8.79423300
_cell_length_c   11.19564857
_cell_angle_alpha   90.00000000
_cell_angle_beta   90.02055544
_cell_angle_gamma   90.00000000
_symmetry_Int_Tables_number   1
_chemical_formula_structural   TmSc19Sb12
_chemical_formula_sum   'Tm1 Sc19 Sb12'
_cell_volume   750.83776110
_cell_formula_units_Z   1
loop_
 _symmetry_equiv_pos_site_id
 _symmetry_equiv_pos_as_xyz
  1  'x, y, z'
loop_
 _atom_site_type_symbol
 _atom_site_label
 _atom_site_symmetry_multiplicity
 _atom_site_fract_x
 _atom_site_fract_y
 _atom_site_fract_z
 _atom_site_occupancy
  Tm  Tm0  1  0.684151  0.250000  0.720121  1
  Sc  Sc1  1  0.024346  0.250000  0.510640  1
  Sc  Sc2  1  0.975405  0.750000  0.487477  1
  Sc  Sc3  1  0.474024  0.750000  0.012226  1
  Sc  Sc4  1  0.524731  0.250000  0.990156  1
  Sc  Sc5  1  0.352403  0.250000  0.281671  1
  Sc  Sc6  1  0.646934  0.750000  0.716539  1
  Sc  Sc7  1  0.148703  0.750000  0.784359  1
  Sc  Sc8  1  0.852809  0.250000  0.217138  1
  Sc  Sc9  1  0.185369  0.250000  0.780477  1
  Sc  Sc10  1  0.814129  0.750000  0.219733  1
  Sc  Sc11  1  0.314479  0.750000  0.280546  1
  Sc  Sc12  1  0.195466  0.062877  0.061565  1
  Sc  Sc13  1  0.804714  0.936256  0.939620  1
  Sc  Sc14  1  0.306223  0.936260  0.560876  1
  Sc  Sc15  1  0.804714  0.563744  0.939620  1
  Sc  Sc16  1  0.694680  0.063388  0.437977  1
  Sc  Sc17  1  0.195466  0.437123  0.061565  1
  Sc  Sc18  1  0.694680  0.436612  0.437977  1
  Sc  Sc19  1  0.306223  0.563740  0.560876  1
  Sb  Sb20  1  0.405950  0.250000  0.534939  1
  Sb  Sb21  1  0.589661  0.750000  0.460928  1
  Sb  Sb22  1  0.088552  0.750000  0.039514  1
  Sb  Sb23  1  0.912074  0.250000  0.962565  1
  Sb  Sb24  1  0.066239  0.003869  0.326216  1
  Sb  Sb25  1  0.937991  0.992604  0.672596  1
  Sb  Sb26  1  0.431182  0.994095  0.828063  1
  Sb  Sb27  1  0.937991  0.507396  0.672596  1
  Sb  Sb28  1  0.566644  0.003981  0.173574  1
  Sb  Sb29  1  0.066239  0.496131  0.326216  1
  Sb  Sb30  1  0.566644  0.496019  0.173574  1
  Sb  Sb31  1  0.431182  0.505905  0.828063  1
