# generated using pymatgen
data_Tb16CdIn3Pd4
_symmetry_space_group_name_H-M   'P 1'
_cell_length_a   9.77079141
_cell_length_b   9.77010466
_cell_length_c   9.77010400
_cell_angle_alpha   60.00000224
_cell_angle_beta   60.00232725
_cell_angle_gamma   60.00232066
_symmetry_Int_Tables_number   1
_chemical_formula_structural   Tb16CdIn3Pd4
_chemical_formula_sum   'Tb16 Cd1 In3 Pd4'
_cell_volume   659.52066598
_cell_formula_units_Z   1
loop_
 _symmetry_equiv_pos_site_id
 _symmetry_equiv_pos_as_xyz
  1  'x, y, z'
loop_
 _atom_site_type_symbol
 _atom_site_label
 _atom_site_symmetry_multiplicity
 _atom_site_fract_x
 _atom_site_fract_y
 _atom_site_fract_z
 _atom_site_occupancy
  Tb  Tb0  1  0.352464  0.352835  0.352835  1
  Tb  Tb1  1  0.352464  0.352835  0.941868  1
  Tb  Tb2  1  0.352464  0.941868  0.352835  1
  Tb  Tb3  1  0.942160  0.352614  0.352614  1
  Tb  Tb4  1  0.810335  0.189695  0.189695  1
  Tb  Tb5  1  0.189238  0.810795  0.810795  1
  Tb  Tb6  1  0.189238  0.810795  0.189172  1
  Tb  Tb7  1  0.810335  0.189695  0.810276  1
  Tb  Tb8  1  0.189238  0.189172  0.810795  1
  Tb  Tb9  1  0.810335  0.810276  0.189695  1
  Tb  Tb10  1  0.936220  0.564770  0.564770  1
  Tb  Tb11  1  0.564894  0.935270  0.935270  1
  Tb  Tb12  1  0.564894  0.935270  0.564565  1
  Tb  Tb13  1  0.936220  0.564770  0.934241  1
  Tb  Tb14  1  0.564894  0.564565  0.935270  1
  Tb  Tb15  1  0.936220  0.934241  0.564770  1
  Cd  Cd16  1  0.252020  0.582660  0.582660  1
  In  In17  1  0.582025  0.582803  0.582803  1
  In  In18  1  0.582025  0.582803  0.252368  1
  In  In19  1  0.582025  0.252368  0.582803  1
  Pd  Pd20  1  0.144134  0.143898  0.143898  1
  Pd  Pd21  1  0.144134  0.143898  0.568070  1
  Pd  Pd22  1  0.144134  0.568070  0.143898  1
  Pd  Pd23  1  0.567895  0.144035  0.144035  1
