# generated using pymatgen
data_Ce2CuIrPb
_symmetry_space_group_name_H-M   'P 1'
_cell_length_a   7.78628900
_cell_length_b   7.78109800
_cell_length_c   3.76935600
_cell_angle_alpha   90.00000000
_cell_angle_beta   90.00000000
_cell_angle_gamma   90.00000000
_symmetry_Int_Tables_number   1
_chemical_formula_structural   Ce2CuIrPb
_chemical_formula_sum   'Ce4 Cu2 Ir2 Pb2'
_cell_volume   228.36974187
_cell_formula_units_Z   2
loop_
 _symmetry_equiv_pos_site_id
 _symmetry_equiv_pos_as_xyz
  1  'x, y, z'
loop_
 _atom_site_type_symbol
 _atom_site_label
 _atom_site_symmetry_multiplicity
 _atom_site_fract_x
 _atom_site_fract_y
 _atom_site_fract_z
 _atom_site_occupancy
  Ce  Ce0  1  0.656931  0.175070  0.500000  1
  Ce  Ce1  1  0.188747  0.328358  0.500000  1
  Ce  Ce2  1  0.843069  0.675070  0.500000  1
  Ce  Ce3  1  0.311253  0.828358  0.500000  1
  Cu  Cu4  1  0.622674  0.871124  0.000000  1
  Cu  Cu5  1  0.877326  0.371124  0.000000  1
  Ir  Ir6  1  0.384799  0.115498  0.000000  1
  Ir  Ir7  1  0.115201  0.615498  0.000000  1
  Pb  Pb8  1  0.991618  0.009950  0.000000  1
  Pb  Pb9  1  0.508382  0.509950  0.000000  1
