# generated using pymatgen
data_Te4RhAu
_symmetry_space_group_name_H-M   'P 1'
_cell_length_a   4.10353700
_cell_length_b   5.31617264
_cell_length_c   7.53566697
_cell_angle_alpha   89.97411254
_cell_angle_beta   90.00000000
_cell_angle_gamma   90.00000000
_symmetry_Int_Tables_number   1
_chemical_formula_structural   Te4RhAu
_chemical_formula_sum   'Te4 Rh1 Au1'
_cell_volume   164.39139542
_cell_formula_units_Z   1
loop_
 _symmetry_equiv_pos_site_id
 _symmetry_equiv_pos_as_xyz
  1  'x, y, z'
loop_
 _atom_site_type_symbol
 _atom_site_label
 _atom_site_symmetry_multiplicity
 _atom_site_fract_x
 _atom_site_fract_y
 _atom_site_fract_z
 _atom_site_occupancy
  Te  Te0  1  0.500000  0.225162  0.182417  1
  Te  Te1  1  0.000000  0.284435  0.618173  1
  Te  Te2  1  0.500000  0.774838  0.817583  1
  Te  Te3  1  0.000000  0.715565  0.381827  1
  Rh  Rh4  1  0.500000  0.000000  0.500000  1
  Au  Au5  1  0.000000  0.000000  0.000000  1
