# generated using pymatgen
data_TbDyCo9Mo3As7
_symmetry_space_group_name_H-M   'P 1'
_cell_length_a   3.84499000
_cell_length_b   9.39039508
_cell_length_c   9.39039500
_cell_angle_alpha   119.99999620
_cell_angle_beta   90.00000000
_cell_angle_gamma   90.00000000
_symmetry_Int_Tables_number   1
_chemical_formula_structural   TbDyCo9Mo3As7
_chemical_formula_sum   'Tb1 Dy1 Co9 Mo3 As7'
_cell_volume   293.62537767
_cell_formula_units_Z   1
loop_
 _symmetry_equiv_pos_site_id
 _symmetry_equiv_pos_as_xyz
  1  'x, y, z'
loop_
 _atom_site_type_symbol
 _atom_site_label
 _atom_site_symmetry_multiplicity
 _atom_site_fract_x
 _atom_site_fract_y
 _atom_site_fract_z
 _atom_site_occupancy
  Tb  Tb0  1  0.500000  0.333333  0.666667  1
  Dy  Dy1  1  0.000000  0.666667  0.333333  1
  Co  Co2  1  0.000000  0.570221  0.940631  1
  Co  Co3  1  0.000000  0.370409  0.429779  1
  Co  Co4  1  0.000000  0.059369  0.629591  1
  Co  Co5  1  0.000000  0.876325  0.158194  1
  Co  Co6  1  0.000000  0.281869  0.123675  1
  Co  Co7  1  0.000000  0.841806  0.718131  1
  Co  Co8  1  0.500000  0.949422  0.382866  1
  Co  Co9  1  0.500000  0.433443  0.050578  1
  Co  Co10  1  0.500000  0.617134  0.566557  1
  Mo  Mo11  1  0.500000  0.781245  0.902356  1
  Mo  Mo12  1  0.500000  0.121111  0.218755  1
  Mo  Mo13  1  0.500000  0.097644  0.878889  1
  As  As14  1  0.000000  0.000000  0.000000  1
  As  As15  1  0.500000  0.707540  0.119854  1
  As  As16  1  0.500000  0.412317  0.292460  1
  As  As17  1  0.500000  0.880146  0.587683  1
  As  As18  1  0.000000  0.586073  0.699296  1
  As  As19  1  0.000000  0.113225  0.413927  1
  As  As20  1  0.000000  0.300704  0.886775  1
