# generated using pymatgen
data_Sc10AlTc2
_symmetry_space_group_name_H-M   'P 1'
_cell_length_a   8.83682016
_cell_length_b   8.82612161
_cell_length_c   8.37016900
_cell_angle_alpha   90.00000000
_cell_angle_beta   90.00000000
_cell_angle_gamma   119.95995676
_symmetry_Int_Tables_number   1
_chemical_formula_structural   Sc10AlTc2
_chemical_formula_sum   'Sc20 Al2 Tc4'
_cell_volume   565.59541433
_cell_formula_units_Z   2
loop_
 _symmetry_equiv_pos_site_id
 _symmetry_equiv_pos_as_xyz
  1  'x, y, z'
loop_
 _atom_site_type_symbol
 _atom_site_label
 _atom_site_symmetry_multiplicity
 _atom_site_fract_x
 _atom_site_fract_y
 _atom_site_fract_z
 _atom_site_occupancy
  Sc  Sc0  1  0.995922  0.997961  0.969690  1
  Sc  Sc1  1  0.404464  0.202232  0.043636  1
  Sc  Sc2  1  0.794977  0.201813  0.048613  1
  Sc  Sc3  1  0.794976  0.593164  0.048613  1
  Sc  Sc4  1  0.094333  0.547167  0.250000  1
  Sc  Sc5  1  0.463682  0.556749  0.250000  1
  Sc  Sc6  1  0.463682  0.906935  0.250000  1
  Sc  Sc7  1  0.404464  0.202232  0.456364  1
  Sc  Sc8  1  0.794977  0.201813  0.451387  1
  Sc  Sc9  1  0.794976  0.593164  0.451387  1
  Sc  Sc10  1  0.995922  0.997961  0.530310  1
  Sc  Sc11  1  0.204222  0.411356  0.565434  1
  Sc  Sc12  1  0.204221  0.792867  0.565434  1
  Sc  Sc13  1  0.592114  0.796057  0.552842  1
  Sc  Sc14  1  0.548349  0.093506  0.750001  1
  Sc  Sc15  1  0.548350  0.454843  0.750001  1
  Sc  Sc16  1  0.904982  0.452490  0.750001  1
  Sc  Sc17  1  0.204222  0.411356  0.934566  1
  Sc  Sc18  1  0.204221  0.792867  0.934566  1
  Sc  Sc19  1  0.592114  0.796057  0.947158  1
  Al  Al20  1  0.103189  0.217966  0.250000  1
  Al  Al21  1  0.103188  0.885223  0.250000  1
  Tc  Tc22  1  0.772885  0.886442  0.250000  1
  Tc  Tc23  1  0.248935  0.124468  0.750001  1
  Tc  Tc24  1  0.883313  0.131563  0.750001  1
  Tc  Tc25  1  0.883312  0.751751  0.750001  1
