# generated using pymatgen
data_Tb2YLu5In3Co
_symmetry_space_group_name_H-M   'P 1'
_cell_length_a   10.19520320
_cell_length_b   10.19520421
_cell_length_c   7.04783252
_cell_angle_alpha   90.01794173
_cell_angle_beta   89.98205765
_cell_angle_gamma   120.06089944
_symmetry_Int_Tables_number   1
_chemical_formula_structural   Tb2YLu5In3Co
_chemical_formula_sum   'Tb4 Y2 Lu10 In6 Co2'
_cell_volume   634.03196911
_cell_formula_units_Z   2
loop_
 _symmetry_equiv_pos_site_id
 _symmetry_equiv_pos_as_xyz
  1  'x, y, z'
loop_
 _atom_site_type_symbol
 _atom_site_label
 _atom_site_symmetry_multiplicity
 _atom_site_fract_x
 _atom_site_fract_y
 _atom_site_fract_z
 _atom_site_occupancy
  Tb  Tb0  1  0.465404  0.534596  0.485088  1
  Tb  Tb1  1  0.068391  0.534051  0.483440  1
  Tb  Tb2  1  0.465949  0.931609  0.483440  1
  Tb  Tb3  1  0.535276  0.464724  0.984400  1
  Y  Y4  1  0.999920  0.000080  0.495338  1
  Y  Y5  1  0.999996  0.000004  0.994233  1
  Lu  Lu6  1  0.927750  0.463897  0.982058  1
  Lu  Lu7  1  0.536103  0.072250  0.982058  1
  Lu  Lu8  1  0.820359  0.179641  0.274886  1
  Lu  Lu9  1  0.359753  0.178714  0.277749  1
  Lu  Lu10  1  0.821286  0.640247  0.277749  1
  Lu  Lu11  1  0.179833  0.820167  0.780783  1
  Lu  Lu12  1  0.640671  0.821820  0.780728  1
  Lu  Lu13  1  0.178180  0.359329  0.780728  1
  Lu  Lu14  1  0.332557  0.667443  0.088402  1
  Lu  Lu15  1  0.667362  0.332638  0.588747  1
  In  In16  1  0.163118  0.836882  0.229578  1
  In  In17  1  0.673659  0.836143  0.230587  1
  In  In18  1  0.163857  0.326341  0.230587  1
  In  In19  1  0.835860  0.164140  0.731618  1
  In  In20  1  0.326716  0.163141  0.730876  1
  In  In21  1  0.836859  0.673284  0.730876  1
  Co  Co22  1  0.333217  0.666783  0.711382  1
  Co  Co23  1  0.667927  0.332073  0.209221  1
