# generated using pymatgen
data_La2Yb6PPd24
_symmetry_space_group_name_H-M   'P 1'
_cell_length_a   8.33510457
_cell_length_b   8.33510425
_cell_length_c   8.33510400
_cell_angle_alpha   90.13334948
_cell_angle_beta   90.13334948
_cell_angle_gamma   90.13334810
_symmetry_Int_Tables_number   1
_chemical_formula_structural   La2Yb6PPd24
_chemical_formula_sum   'La2 Yb6 P1 Pd24'
_cell_volume   579.06801623
_cell_formula_units_Z   1
loop_
 _symmetry_equiv_pos_site_id
 _symmetry_equiv_pos_as_xyz
  1  'x, y, z'
loop_
 _atom_site_type_symbol
 _atom_site_label
 _atom_site_symmetry_multiplicity
 _atom_site_fract_x
 _atom_site_fract_y
 _atom_site_fract_z
 _atom_site_occupancy
  La  La0  1  0.255813  0.255813  0.255813  1
  La  La1  1  0.744187  0.744187  0.744187  1
  Yb  Yb2  1  0.747789  0.747789  0.254151  1
  Yb  Yb3  1  0.747789  0.254151  0.747789  1
  Yb  Yb4  1  0.252211  0.252211  0.745849  1
  Yb  Yb5  1  0.252211  0.745849  0.252211  1
  Yb  Yb6  1  0.254151  0.747789  0.747789  1
  Yb  Yb7  1  0.745849  0.252211  0.252211  1
  P  P8  1  0.000000  0.000000  0.000000  1
  Pd  Pd9  1  0.255142  0.501456  0.995511  1
  Pd  Pd10  1  0.744858  0.498544  0.004489  1
  Pd  Pd11  1  0.995511  0.255142  0.501456  1
  Pd  Pd12  1  0.501456  0.255142  0.995511  1
  Pd  Pd13  1  0.004489  0.744858  0.498544  1
  Pd  Pd14  1  0.498544  0.744858  0.004489  1
  Pd  Pd15  1  0.501456  0.995511  0.255142  1
  Pd  Pd16  1  0.255142  0.995511  0.501456  1
  Pd  Pd17  1  0.498544  0.004489  0.744858  1
  Pd  Pd18  1  0.744858  0.004489  0.498544  1
  Pd  Pd19  1  0.995511  0.501456  0.255142  1
  Pd  Pd20  1  0.004489  0.498544  0.744858  1
  Pd  Pd21  1  0.251279  0.503899  0.503899  1
  Pd  Pd22  1  0.748721  0.496101  0.496101  1
  Pd  Pd23  1  0.503899  0.251279  0.503899  1
  Pd  Pd24  1  0.496101  0.748721  0.496101  1
  Pd  Pd25  1  0.503899  0.503899  0.251279  1
  Pd  Pd26  1  0.496101  0.496101  0.748721  1
  Pd  Pd27  1  0.275519  0.995529  0.995529  1
  Pd  Pd28  1  0.724481  0.004471  0.004471  1
  Pd  Pd29  1  0.995529  0.275519  0.995529  1
  Pd  Pd30  1  0.004471  0.724481  0.004471  1
  Pd  Pd31  1  0.995529  0.995529  0.275519  1
  Pd  Pd32  1  0.004471  0.004471  0.724481  1
