# generated using pymatgen
data_CsRb2NaPb4
_symmetry_space_group_name_H-M   'P 1'
_cell_length_a   9.44495213
_cell_length_b   9.44495236
_cell_length_c   11.30343034
_cell_angle_alpha   89.90676731
_cell_angle_beta   90.09323202
_cell_angle_gamma   135.58686863
_symmetry_Int_Tables_number   1
_chemical_formula_structural   CsRb2NaPb4
_chemical_formula_sum   'Cs2 Rb4 Na2 Pb8'
_cell_volume   705.66708591
_cell_formula_units_Z   2
loop_
 _symmetry_equiv_pos_site_id
 _symmetry_equiv_pos_as_xyz
  1  'x, y, z'
loop_
 _atom_site_type_symbol
 _atom_site_label
 _atom_site_symmetry_multiplicity
 _atom_site_fract_x
 _atom_site_fract_y
 _atom_site_fract_z
 _atom_site_occupancy
  Cs  Cs0  1  0.387880  0.612120  0.056497  1
  Cs  Cs1  1  0.231530  0.768470  0.749249  1
  Rb  Rb2  1  0.612389  0.387611  0.551527  1
  Rb  Rb3  1  0.612896  0.387104  0.947948  1
  Rb  Rb4  1  0.387769  0.612231  0.448681  1
  Rb  Rb5  1  0.764962  0.235038  0.250878  1
  Na  Na6  1  0.000114  0.999886  0.499758  1
  Na  Na7  1  0.000165  0.999835  0.999207  1
  Pb  Pb8  1  0.285699  0.188370  0.251287  1
  Pb  Pb9  1  0.827389  0.172611  0.885367  1
  Pb  Pb10  1  0.826929  0.173071  0.611234  1
  Pb  Pb11  1  0.189580  0.285566  0.748330  1
  Pb  Pb12  1  0.714434  0.810420  0.748330  1
  Pb  Pb13  1  0.174328  0.825672  0.387308  1
  Pb  Pb14  1  0.811630  0.714301  0.251287  1
  Pb  Pb15  1  0.172306  0.827694  0.113114  1
