# generated using pymatgen
data_BiWF7
_symmetry_space_group_name_H-M   'P 1'
_cell_length_a   5.77554800
_cell_length_b   9.27775936
_cell_length_c   12.37989400
_cell_angle_alpha   61.95421384
_cell_angle_beta   90.00000000
_cell_angle_gamma   90.00000000
_symmetry_Int_Tables_number   1
_chemical_formula_structural   BiWF7
_chemical_formula_sum   'Bi4 W4 F28'
_cell_volume   585.46838079
_cell_formula_units_Z   4
loop_
 _symmetry_equiv_pos_site_id
 _symmetry_equiv_pos_as_xyz
  1  'x, y, z'
loop_
 _atom_site_type_symbol
 _atom_site_label
 _atom_site_symmetry_multiplicity
 _atom_site_fract_x
 _atom_site_fract_y
 _atom_site_fract_z
 _atom_site_occupancy
  Bi  Bi0  1  0.732266  0.814778  0.263963  1
  Bi  Bi1  1  0.232266  0.185222  0.236037  1
  Bi  Bi2  1  0.267734  0.185222  0.736037  1
  Bi  Bi3  1  0.767734  0.814778  0.763963  1
  W  W4  1  0.743672  0.273102  0.456699  1
  W  W5  1  0.243672  0.726898  0.043301  1
  W  W6  1  0.256328  0.726898  0.543301  1
  W  W7  1  0.756328  0.273102  0.956699  1
  F  F8  1  0.445845  0.709814  0.919264  1
  F  F9  1  0.945845  0.290186  0.580736  1
  F  F10  1  0.554155  0.290186  0.080736  1
  F  F11  1  0.054155  0.709814  0.419264  1
  F  F12  1  0.445357  0.279142  0.546817  1
  F  F13  1  0.945357  0.720858  0.953183  1
  F  F14  1  0.554643  0.720858  0.453183  1
  F  F15  1  0.054643  0.279142  0.046817  1
  F  F16  1  0.763303  0.514663  0.858434  1
  F  F17  1  0.263303  0.485337  0.641566  1
  F  F18  1  0.236697  0.485337  0.141566  1
  F  F19  1  0.736697  0.514663  0.358434  1
  F  F20  1  0.758505  0.028868  0.053378  1
  F  F21  1  0.258505  0.971132  0.446622  1
  F  F22  1  0.241495  0.971132  0.946622  1
  F  F23  1  0.741495  0.028868  0.553378  1
  F  F24  1  0.969048  0.729915  0.640342  1
  F  F25  1  0.469048  0.270085  0.859658  1
  F  F26  1  0.030952  0.270085  0.359658  1
  F  F27  1  0.530952  0.729915  0.140342  1
  F  F28  1  0.044695  0.746112  0.168380  1
  F  F29  1  0.544695  0.253888  0.331620  1
  F  F30  1  0.955305  0.253888  0.831620  1
  F  F31  1  0.455305  0.746112  0.668380  1
  F  F32  1  0.409619  0.969488  0.229868  1
  F  F33  1  0.909619  0.030512  0.270132  1
  F  F34  1  0.590381  0.030512  0.770132  1
  F  F35  1  0.090381  0.969488  0.729868  1
