# generated using pymatgen
data_LuZr(CoSn)2
_symmetry_space_group_name_H-M   'P 1'
_cell_length_a   7.23360500
_cell_length_b   7.23360552
_cell_length_c   7.31753200
_cell_angle_alpha   90.00000000
_cell_angle_beta   90.00000000
_cell_angle_gamma   120.00000221
_symmetry_Int_Tables_number   1
_chemical_formula_structural   LuZr(CoSn)2
_chemical_formula_sum   'Lu3 Zr3 Co6 Sn6'
_cell_volume   331.59262532
_cell_formula_units_Z   3
loop_
 _symmetry_equiv_pos_site_id
 _symmetry_equiv_pos_as_xyz
  1  'x, y, z'
loop_
 _atom_site_type_symbol
 _atom_site_label
 _atom_site_symmetry_multiplicity
 _atom_site_fract_x
 _atom_site_fract_y
 _atom_site_fract_z
 _atom_site_occupancy
  Lu  Lu0  1  0.596025  0.000158  0.750000  1
  Lu  Lu1  1  0.404133  0.403975  0.750000  1
  Lu  Lu2  1  0.999842  0.595867  0.750000  1
  Zr  Zr3  1  0.601576  0.000339  0.250000  1
  Zr  Zr4  1  0.398763  0.398424  0.250000  1
  Zr  Zr5  1  0.999661  0.601237  0.250000  1
  Co  Co6  1  0.666667  0.333333  0.028612  1
  Co  Co7  1  0.666667  0.333333  0.471388  1
  Co  Co8  1  0.333333  0.666667  0.030873  1
  Co  Co9  1  0.333333  0.666667  0.469127  1
  Co  Co10  1  0.000000  0.000000  0.750000  1
  Co  Co11  1  0.000000  0.000000  0.250000  1
  Sn  Sn12  1  0.264419  0.999759  0.005119  1
  Sn  Sn13  1  0.735340  0.735581  0.494881  1
  Sn  Sn14  1  0.000241  0.264660  0.494881  1
  Sn  Sn15  1  0.000241  0.264660  0.005119  1
  Sn  Sn16  1  0.735340  0.735581  0.005119  1
  Sn  Sn17  1  0.264419  0.999759  0.494881  1
