# generated using pymatgen
data_Dy10BiP2Pb5
_symmetry_space_group_name_H-M   'P 1'
_cell_length_a   9.17001444
_cell_length_b   9.17001469
_cell_length_c   6.78838400
_cell_angle_alpha   90.00000000
_cell_angle_beta   90.00000000
_cell_angle_gamma   120.08367620
_symmetry_Int_Tables_number   1
_chemical_formula_structural   Dy10BiP2Pb5
_chemical_formula_sum   'Dy10 Bi1 P2 Pb5'
_cell_volume   493.93554372
_cell_formula_units_Z   1
loop_
 _symmetry_equiv_pos_site_id
 _symmetry_equiv_pos_as_xyz
  1  'x, y, z'
loop_
 _atom_site_type_symbol
 _atom_site_label
 _atom_site_symmetry_multiplicity
 _atom_site_fract_x
 _atom_site_fract_y
 _atom_site_fract_z
 _atom_site_occupancy
  Dy  Dy0  1  0.763008  0.763008  0.750000  1
  Dy  Dy1  1  0.236197  0.998275  0.750000  1
  Dy  Dy2  1  0.998275  0.236197  0.750000  1
  Dy  Dy3  1  0.237325  0.237325  0.250000  1
  Dy  Dy4  1  0.762509  0.999409  0.250000  1
  Dy  Dy5  1  0.999409  0.762509  0.250000  1
  Dy  Dy6  1  0.667886  0.332754  0.001289  1
  Dy  Dy7  1  0.332754  0.667886  0.001289  1
  Dy  Dy8  1  0.332754  0.667886  0.498711  1
  Dy  Dy9  1  0.667886  0.332754  0.498711  1
  Bi  Bi10  1  0.398892  0.398892  0.750000  1
  P  P11  1  0.000517  0.000517  0.999598  1
  P  P12  1  0.000517  0.000517  0.500402  1
  Pb  Pb13  1  0.600240  0.000414  0.750000  1
  Pb  Pb14  1  0.000414  0.600240  0.750000  1
  Pb  Pb15  1  0.601325  0.601325  0.250000  1
  Pb  Pb16  1  0.399842  0.000252  0.250000  1
  Pb  Pb17  1  0.000252  0.399842  0.250000  1
