# generated using pymatgen
data_CaLa(Ga3Ni2)2
_symmetry_space_group_name_H-M   'P 1'
_cell_length_a   6.31084392
_cell_length_b   6.31084313
_cell_length_c   5.17056600
_cell_angle_alpha   90.00000000
_cell_angle_beta   90.00000000
_cell_angle_gamma   102.47214043
_symmetry_Int_Tables_number   1
_chemical_formula_structural   CaLa(Ga3Ni2)2
_chemical_formula_sum   'Ca1 La1 Ga6 Ni4'
_cell_volume   201.06717902
_cell_formula_units_Z   1
loop_
 _symmetry_equiv_pos_site_id
 _symmetry_equiv_pos_as_xyz
  1  'x, y, z'
loop_
 _atom_site_type_symbol
 _atom_site_label
 _atom_site_symmetry_multiplicity
 _atom_site_fract_x
 _atom_site_fract_y
 _atom_site_fract_z
 _atom_site_occupancy
  Ca  Ca0  1  0.337632  0.337632  0.250000  1
  La  La1  1  0.655572  0.655572  0.750000  1
  Ga  Ga2  1  0.531573  0.915173  0.250000  1
  Ga  Ga3  1  0.915173  0.531573  0.250000  1
  Ga  Ga4  1  0.465769  0.095492  0.750000  1
  Ga  Ga5  1  0.945087  0.945087  0.250000  1
  Ga  Ga6  1  0.052232  0.052232  0.750000  1
  Ga  Ga7  1  0.095492  0.465769  0.750000  1
  Ni  Ni8  1  0.210040  0.790694  0.499970  1
  Ni  Ni9  1  0.210040  0.790694  0.000030  1
  Ni  Ni10  1  0.790694  0.210040  0.000030  1
  Ni  Ni11  1  0.790694  0.210040  0.499970  1
