# generated using pymatgen
data_Cs4NbSbI12
_symmetry_space_group_name_H-M   'P 1'
_cell_length_a   14.84903280
_cell_length_b   14.84903217
_cell_length_c   14.84903377
_cell_angle_alpha   131.99094265
_cell_angle_beta   131.99094768
_cell_angle_gamma   70.24333165
_symmetry_Int_Tables_number   1
_chemical_formula_structural   Cs4NbSbI12
_chemical_formula_sum   'Cs8 Nb2 Sb2 I24'
_cell_volume   1772.77067777
_cell_formula_units_Z   2
loop_
 _symmetry_equiv_pos_site_id
 _symmetry_equiv_pos_as_xyz
  1  'x, y, z'
loop_
 _atom_site_type_symbol
 _atom_site_label
 _atom_site_symmetry_multiplicity
 _atom_site_fract_x
 _atom_site_fract_y
 _atom_site_fract_z
 _atom_site_occupancy
  Cs  Cs0  1  0.375143  0.346806  0.470039  1
  Cs  Cs1  1  0.094896  0.624857  0.971662  1
  Cs  Cs2  1  0.876766  0.905104  0.529961  1
  Cs  Cs3  1  0.096806  0.126766  0.471662  1
  Cs  Cs4  1  0.374857  0.903194  0.029961  1
  Cs  Cs5  1  0.655104  0.625143  0.528338  1
  Cs  Cs6  1  0.653194  0.123234  0.028338  1
  Cs  Cs7  1  0.873234  0.344896  0.970039  1
  Nb  Nb8  1  0.250000  0.750000  0.500000  1
  Nb  Nb9  1  0.500000  0.500000  0.000000  1
  Sb  Sb10  1  0.750000  0.250000  0.500000  1
  Sb  Sb11  1  0.000000  0.000000  0.000000  1
  I  I12  1  0.016867  0.769096  0.291078  1
  I  I13  1  0.018876  0.256304  0.265682  1
  I  I14  1  0.274210  0.983133  0.752229  1
  I  I15  1  0.006304  0.240622  0.737428  1
  I  I16  1  0.135199  0.635199  0.500000  1
  I  I17  1  0.271982  0.524210  0.791078  1
  I  I18  1  0.478018  0.725790  0.708922  1
  I  I19  1  0.503194  0.268876  0.262572  1
  I  I20  1  0.475790  0.266867  0.747771  1
  I  I21  1  0.614801  0.614801  0.000000  1
  I  I22  1  0.519096  0.728018  0.252229  1
  I  I23  1  0.125397  0.125397  0.000000  1
  I  I24  1  0.874603  0.874603  0.000000  1
  I  I25  1  0.990622  0.753194  0.734318  1
  I  I26  1  0.743696  0.009378  0.762572  1
  I  I27  1  0.246806  0.981124  0.237428  1
  I  I28  1  0.733133  0.480904  0.208922  1
  I  I29  1  0.230904  0.521982  0.247771  1
  I  I30  1  0.364801  0.864801  0.500000  1
  I  I31  1  0.875397  0.375397  0.500000  1
  I  I32  1  0.385199  0.385199  0.000000  1
  I  I33  1  0.624603  0.124603  0.500000  1
  I  I34  1  0.759378  0.496806  0.765682  1
  I  I35  1  0.731124  0.993696  0.234318  1
