# generated using pymatgen
data_Dy6Lu4Ru3Rh
_symmetry_space_group_name_H-M   'P 1'
_cell_length_a   6.28986993
_cell_length_b   7.25546486
_cell_length_c   8.39493286
_cell_angle_alpha   97.01097434
_cell_angle_beta   111.64540748
_cell_angle_gamma   90.02506913
_symmetry_Int_Tables_number   1
_chemical_formula_structural   Dy6Lu4Ru3Rh
_chemical_formula_sum   'Dy6 Lu4 Ru3 Rh1'
_cell_volume   353.00333667
_cell_formula_units_Z   1
loop_
 _symmetry_equiv_pos_site_id
 _symmetry_equiv_pos_as_xyz
  1  'x, y, z'
loop_
 _atom_site_type_symbol
 _atom_site_label
 _atom_site_symmetry_multiplicity
 _atom_site_fract_x
 _atom_site_fract_y
 _atom_site_fract_z
 _atom_site_occupancy
  Dy  Dy0  1  0.522893  0.083423  0.812332  1
  Dy  Dy1  1  0.477918  0.918818  0.187072  1
  Dy  Dy2  1  0.711558  0.415282  0.187110  1
  Dy  Dy3  1  0.289442  0.583796  0.810128  1
  Dy  Dy4  1  0.296999  0.310081  0.434229  1
  Dy  Dy5  1  0.705910  0.688538  0.569079  1
  Lu  Lu6  1  0.864826  0.185679  0.567135  1
  Lu  Lu7  1  0.133717  0.815932  0.434255  1
  Lu  Lu8  1  0.076558  0.248071  0.997157  1
  Lu  Lu9  1  0.920847  0.750836  0.000830  1
  Ru  Ru10  1  0.682180  0.423825  0.781132  1
  Ru  Ru11  1  0.101322  0.924663  0.779139  1
  Ru  Ru12  1  0.900301  0.074508  0.221550  1
  Rh  Rh13  1  0.315529  0.576548  0.218852  1
