# generated using pymatgen
data_Sr3NdTiCrO8
_symmetry_space_group_name_H-M   'P 1'
_cell_length_a   5.51248000
_cell_length_b   12.55351000
_cell_length_c   5.53294000
_cell_angle_alpha   89.99999509
_cell_angle_beta   90.00002136
_cell_angle_gamma   90.00018168
_symmetry_Int_Tables_number   1
_chemical_formula_structural   Sr3NdTiCrO8
_chemical_formula_sum   'Sr6 Nd2 Ti2 Cr2 O16'
_cell_volume   382.88483050
_cell_formula_units_Z   2
loop_
 _symmetry_equiv_pos_site_id
 _symmetry_equiv_pos_as_xyz
  1  'x, y, z'
loop_
 _atom_site_type_symbol
 _atom_site_label
 _atom_site_symmetry_multiplicity
 _atom_site_fract_x
 _atom_site_fract_y
 _atom_site_fract_z
 _atom_site_occupancy
  Sr  Sr0  1  0.500006  0.146162  0.000001  1
  Sr  Sr1  1  0.500011  0.646173  0.500006  1
  Sr  Sr2  1  0.000009  0.143818  0.499997  1
  Sr  Sr3  1  0.999984  0.643823  0.999991  1
  Sr  Sr4  1  0.999993  0.355646  0.999993  1
  Sr  Sr5  1  0.000001  0.855650  0.500000  1
  Nd  Nd6  1  0.500025  0.360200  0.500015  1
  Nd  Nd7  1  0.500072  0.860200  0.000000  1
  Ti  Ti8  1  0.999967  0.503338  0.500020  1
  Ti  Ti9  1  0.000009  0.003333  0.999996  1
  Cr  Cr10  1  0.500020  0.000251  0.499993  1
  Cr  Cr11  1  0.500050  0.500226  0.999987  1
  O  O12  1  0.000006  0.336614  0.499995  1
  O  O13  1  0.999874  0.836619  0.000001  1
  O  O14  1  0.499994  0.338509  0.999992  1
  O  O15  1  0.500013  0.838533  0.499996  1
  O  O16  1  0.500000  0.172909  0.499998  1
  O  O17  1  0.499980  0.672909  0.000005  1
  O  O18  1  0.000010  0.158077  0.999996  1
  O  O19  1  0.000014  0.658069  0.499993  1
  O  O20  1  0.252671  0.496110  0.743305  1
  O  O21  1  0.252679  0.996117  0.243310  1
  O  O22  1  0.747314  0.496111  0.256683  1
  O  O23  1  0.747330  0.996136  0.756677  1
  O  O24  1  0.747308  0.496112  0.743333  1
  O  O25  1  0.747326  0.996135  0.243320  1
  O  O26  1  0.252657  0.496110  0.256704  1
  O  O27  1  0.252680  0.996117  0.756693  1
