# generated using pymatgen
data_HoEr3Si4Ru3Rh
_symmetry_space_group_name_H-M   'P 1'
_cell_length_a   4.30178800
_cell_length_b   6.93894348
_cell_length_c   7.16053742
_cell_angle_alpha   89.92009563
_cell_angle_beta   90.00000000
_cell_angle_gamma   90.00000000
_symmetry_Int_Tables_number   1
_chemical_formula_structural   HoEr3Si4Ru3Rh
_chemical_formula_sum   'Ho1 Er3 Si4 Ru3 Rh1'
_cell_volume   213.74085872
_cell_formula_units_Z   1
loop_
 _symmetry_equiv_pos_site_id
 _symmetry_equiv_pos_as_xyz
  1  'x, y, z'
loop_
 _atom_site_type_symbol
 _atom_site_label
 _atom_site_symmetry_multiplicity
 _atom_site_fract_x
 _atom_site_fract_y
 _atom_site_fract_z
 _atom_site_occupancy
  Ho  Ho0  1  0.250000  0.988200  0.813507  1
  Er  Er1  1  0.750000  0.013237  0.187716  1
  Er  Er2  1  0.250000  0.488578  0.687615  1
  Er  Er3  1  0.750000  0.508539  0.312248  1
  Si  Si4  1  0.250000  0.302341  0.106880  1
  Si  Si5  1  0.750000  0.698256  0.897650  1
  Si  Si6  1  0.250000  0.801435  0.387273  1
  Si  Si7  1  0.750000  0.200302  0.606859  1
  Ru  Ru8  1  0.250000  0.152980  0.434856  1
  Ru  Ru9  1  0.750000  0.345904  0.933332  1
  Ru  Ru10  1  0.250000  0.654564  0.066015  1
  Rh  Rh11  1  0.750000  0.845661  0.566049  1
