# generated using pymatgen
data_Zr2MnSi2Pt
_symmetry_space_group_name_H-M   'P 1'
_cell_length_a   3.89572700
_cell_length_b   6.58589600
_cell_length_c   7.63673800
_cell_angle_alpha   90.00000000
_cell_angle_beta   90.00000000
_cell_angle_gamma   90.00000000
_symmetry_Int_Tables_number   1
_chemical_formula_structural   Zr2MnSi2Pt
_chemical_formula_sum   'Zr4 Mn2 Si4 Pt2'
_cell_volume   195.93466325
_cell_formula_units_Z   2
loop_
 _symmetry_equiv_pos_site_id
 _symmetry_equiv_pos_as_xyz
  1  'x, y, z'
loop_
 _atom_site_type_symbol
 _atom_site_label
 _atom_site_symmetry_multiplicity
 _atom_site_fract_x
 _atom_site_fract_y
 _atom_site_fract_z
 _atom_site_occupancy
  Zr  Zr0  1  0.250000  0.974025  0.180178  1
  Zr  Zr1  1  0.250000  0.474025  0.319822  1
  Zr  Zr2  1  0.750000  0.522803  0.677779  1
  Zr  Zr3  1  0.750000  0.022803  0.822221  1
  Mn  Mn4  1  0.750000  0.647352  0.062698  1
  Mn  Mn5  1  0.750000  0.147352  0.437302  1
  Si  Si6  1  0.750000  0.266232  0.125099  1
  Si  Si7  1  0.750000  0.766232  0.374901  1
  Si  Si8  1  0.250000  0.231858  0.621244  1
  Si  Si9  1  0.250000  0.731858  0.878756  1
  Pt  Pt10  1  0.250000  0.857730  0.561540  1
  Pt  Pt11  1  0.250000  0.357730  0.938460  1
