# generated using pymatgen
data_Sr8Co3GeO16
_symmetry_space_group_name_H-M   'P 1'
_cell_length_a   7.28595498
_cell_length_b   5.91600035
_cell_length_c   11.18733160
_cell_angle_alpha   63.15209476
_cell_angle_beta   89.89742122
_cell_angle_gamma   89.87638477
_symmetry_Int_Tables_number   1
_chemical_formula_structural   Sr8Co3GeO16
_chemical_formula_sum   'Sr8 Co3 Ge1 O16'
_cell_volume   430.23561897
_cell_formula_units_Z   1
loop_
 _symmetry_equiv_pos_site_id
 _symmetry_equiv_pos_as_xyz
  1  'x, y, z'
loop_
 _atom_site_type_symbol
 _atom_site_label
 _atom_site_symmetry_multiplicity
 _atom_site_fract_x
 _atom_site_fract_y
 _atom_site_fract_z
 _atom_site_occupancy
  Sr  Sr0  1  0.349909  0.299379  0.429496  1
  Sr  Sr1  1  0.855157  0.700803  0.073593  1
  Sr  Sr2  1  0.647069  0.701822  0.568241  1
  Sr  Sr3  1  0.157083  0.301901  0.928481  1
  Sr  Sr4  1  0.993414  0.022367  0.697030  1
  Sr  Sr5  1  0.493851  0.975599  0.804421  1
  Sr  Sr6  1  0.000855  0.982718  0.302473  1
  Sr  Sr7  1  0.499486  0.017478  0.197685  1
  Co  Co8  1  0.779971  0.347948  0.416620  1
  Co  Co9  1  0.282886  0.650500  0.084551  1
  Co  Co10  1  0.217334  0.652290  0.582910  1
  Ge  Ge11  1  0.719954  0.348395  0.916153  1
  O  O12  1  0.015769  0.269012  0.439494  1
  O  O13  1  0.519265  0.724222  0.061868  1
  O  O14  1  0.981850  0.732584  0.558977  1
  O  O15  1  0.486067  0.268096  0.939851  1
  O  O16  1  0.669004  0.270273  0.576508  1
  O  O17  1  0.171245  0.730235  0.924524  1
  O  O18  1  0.330610  0.727069  0.424024  1
  O  O19  1  0.832755  0.278671  0.071748  1
  O  O20  1  0.663948  0.137984  0.362525  1
  O  O21  1  0.168213  0.863665  0.137682  1
  O  O22  1  0.334450  0.862894  0.636073  1
  O  O23  1  0.836373  0.138470  0.865048  1
  O  O24  1  0.749987  0.679054  0.302479  1
  O  O25  1  0.248373  0.321171  0.199255  1
  O  O26  1  0.247737  0.321738  0.697506  1
  O  O27  1  0.747386  0.673658  0.800784  1
