# generated using pymatgen
data_Zr4Fe3Re2Os3
_symmetry_space_group_name_H-M   'P 1'
_cell_length_a   5.15918600
_cell_length_b   5.06072944
_cell_length_c   8.56928500
_cell_angle_alpha   90.00000000
_cell_angle_beta   90.00000000
_cell_angle_gamma   119.23323091
_symmetry_Int_Tables_number   1
_chemical_formula_structural   Zr4Fe3Re2Os3
_chemical_formula_sum   'Zr4 Fe3 Re2 Os3'
_cell_volume   195.24211268
_cell_formula_units_Z   1
loop_
 _symmetry_equiv_pos_site_id
 _symmetry_equiv_pos_as_xyz
  1  'x, y, z'
loop_
 _atom_site_type_symbol
 _atom_site_label
 _atom_site_symmetry_multiplicity
 _atom_site_fract_x
 _atom_site_fract_y
 _atom_site_fract_z
 _atom_site_occupancy
  Zr  Zr0  1  0.330487  0.663909  0.439399  1
  Zr  Zr1  1  0.667034  0.330094  0.566327  1
  Zr  Zr2  1  0.667034  0.330094  0.933673  1
  Zr  Zr3  1  0.330487  0.663909  0.060601  1
  Fe  Fe4  1  0.831306  0.171467  0.250000  1
  Fe  Fe5  1  0.167980  0.830654  0.750000  1
  Fe  Fe6  1  0.169675  0.341689  0.750000  1
  Re  Re7  1  0.829173  0.662605  0.250000  1
  Re  Re8  1  0.344644  0.175222  0.250000  1
  Os  Os9  1  0.005316  0.003467  0.504755  1
  Os  Os10  1  0.005316  0.003467  0.995245  1
  Os  Os11  1  0.651550  0.823423  0.750000  1
