# generated using pymatgen
data_Sc4Be4Si2Ir3Rh7
_symmetry_space_group_name_H-M   'P 1'
_cell_length_a   9.43347361
_cell_length_b   9.43735161
_cell_length_c   3.07271700
_cell_angle_alpha   90.00000000
_cell_angle_beta   90.00000000
_cell_angle_gamma   89.95865290
_symmetry_Int_Tables_number   1
_chemical_formula_structural   Sc4Be4Si2Ir3Rh7
_chemical_formula_sum   'Sc4 Be4 Si2 Ir3 Rh7'
_cell_volume   273.55472799
_cell_formula_units_Z   1
loop_
 _symmetry_equiv_pos_site_id
 _symmetry_equiv_pos_as_xyz
  1  'x, y, z'
loop_
 _atom_site_type_symbol
 _atom_site_label
 _atom_site_symmetry_multiplicity
 _atom_site_fract_x
 _atom_site_fract_y
 _atom_site_fract_z
 _atom_site_occupancy
  Sc  Sc0  1  0.174554  0.674260  0.000000  1
  Sc  Sc1  1  0.674318  0.825435  0.000000  1
  Sc  Sc2  1  0.325042  0.174146  0.000000  1
  Sc  Sc3  1  0.826137  0.324954  0.000000  1
  Be  Be4  1  0.375135  0.875102  0.000000  1
  Be  Be5  1  0.874960  0.625086  0.000000  1
  Be  Be6  1  0.125343  0.375527  0.000000  1
  Be  Be7  1  0.624902  0.125090  0.000000  1
  Si  Si8  1  0.000026  0.000221  0.000000  1
  Si  Si9  1  0.500079  0.500138  0.000000  1
  Ir  Ir10  1  0.999892  0.500415  0.500000  1
  Ir  Ir11  1  0.500365  0.999769  0.500000  1
  Ir  Ir12  1  0.067478  0.204668  0.500000  1
  Rh  Rh13  1  0.295925  0.432460  0.500000  1
  Rh  Rh14  1  0.704067  0.567836  0.500000  1
  Rh  Rh15  1  0.567771  0.295880  0.500000  1
  Rh  Rh16  1  0.431923  0.704183  0.500000  1
  Rh  Rh17  1  0.932263  0.795741  0.500000  1
  Rh  Rh18  1  0.795295  0.067343  0.500000  1
  Rh  Rh19  1  0.204526  0.931745  0.500000  1
