# generated using pymatgen
data_Ba10MgTaRu3O20
_symmetry_space_group_name_H-M   'P 1'
_cell_length_a   9.33878817
_cell_length_b   9.33878709
_cell_length_c   9.37245900
_cell_angle_alpha   121.41264070
_cell_angle_beta   121.76466729
_cell_angle_gamma   87.05330462
_symmetry_Int_Tables_number   1
_chemical_formula_structural   Ba10MgTaRu3O20
_chemical_formula_sum   'Ba10 Mg1 Ta1 Ru3 O20'
_cell_volume   564.41406005
_cell_formula_units_Z   1
loop_
 _symmetry_equiv_pos_site_id
 _symmetry_equiv_pos_as_xyz
  1  'x, y, z'
loop_
 _atom_site_type_symbol
 _atom_site_label
 _atom_site_symmetry_multiplicity
 _atom_site_fract_x
 _atom_site_fract_y
 _atom_site_fract_z
 _atom_site_occupancy
  Ba  Ba0  1  0.763381  0.150917  0.203555  1
  Ba  Ba1  1  0.350843  0.358629  0.999832  1
  Ba  Ba2  1  0.956283  0.563721  0.806905  1
  Ba  Ba3  1  0.561336  0.753323  0.605818  1
  Ba  Ba4  1  0.146458  0.950794  0.384850  1
  Ba  Ba5  1  0.641203  0.648989  0.999832  1
  Ba  Ba6  1  0.243183  0.850622  0.806905  1
  Ba  Ba7  1  0.852495  0.044480  0.605818  1
  Ba  Ba8  1  0.434056  0.238391  0.384850  1
  Ba  Ba9  1  0.052638  0.440176  0.203555  1
  Mg  Mg10  1  0.999591  0.001781  0.001371  1
  Ta  Ta11  1  0.600249  0.198148  0.798399  1
  Ru  Ru12  1  0.198681  0.403727  0.602407  1
  Ru  Ru13  1  0.800601  0.601701  0.402303  1
  Ru  Ru14  1  0.401083  0.797414  0.198496  1
  O  O15  1  0.556910  0.954112  0.203861  1
  O  O16  1  0.160681  0.158917  0.998347  1
  O  O17  1  0.745753  0.350810  0.797746  1
  O  O18  1  0.351241  0.551889  0.600065  1
  O  O19  1  0.948916  0.747454  0.397266  1
  O  O20  1  0.839430  0.837665  0.998347  1
  O  O21  1  0.446935  0.051993  0.797746  1
  O  O22  1  0.048176  0.248824  0.600065  1
  O  O23  1  0.649813  0.448351  0.397266  1
  O  O24  1  0.249747  0.646951  0.203861  1
  O  O25  1  0.697421  0.396072  0.093493  1
  O  O26  1  0.299762  0.603372  0.903135  1
  O  O27  1  0.897106  0.791268  0.688374  1
  O  O28  1  0.501139  0.002509  0.503648  1
  O  O29  1  0.103461  0.208172  0.311633  1
  O  O30  1  0.996653  0.500633  0.497287  1
  O  O31  1  0.605734  0.698981  0.304716  1
  O  O32  1  0.210751  0.896141  0.106892  1
  O  O33  1  0.791698  0.102463  0.894161  1
  O  O34  1  0.396589  0.300613  0.697201  1
