# generated using pymatgen
data_Tb4YbCe3Te8
_symmetry_space_group_name_H-M   'P 1'
_cell_length_a   8.93586213
_cell_length_b   8.93586335
_cell_length_c   8.93586200
_cell_angle_alpha   59.73278864
_cell_angle_beta   59.73278408
_cell_angle_gamma   59.73278643
_symmetry_Int_Tables_number   1
_chemical_formula_structural   Tb4YbCe3Te8
_chemical_formula_sum   'Tb4 Yb1 Ce3 Te8'
_cell_volume   501.47684828
_cell_formula_units_Z   1
loop_
 _symmetry_equiv_pos_site_id
 _symmetry_equiv_pos_as_xyz
  1  'x, y, z'
loop_
 _atom_site_type_symbol
 _atom_site_label
 _atom_site_symmetry_multiplicity
 _atom_site_fract_x
 _atom_site_fract_y
 _atom_site_fract_z
 _atom_site_occupancy
  Tb  Tb0  1  0.625000  0.125000  0.625000  1
  Tb  Tb1  1  0.625000  0.625000  0.625000  1
  Tb  Tb2  1  0.125000  0.625000  0.625000  1
  Tb  Tb3  1  0.625000  0.625000  0.125000  1
  Yb  Yb4  1  0.125000  0.125000  0.125000  1
  Ce  Ce5  1  0.125000  0.625000  0.125000  1
  Ce  Ce6  1  0.125000  0.125000  0.625000  1
  Ce  Ce7  1  0.625000  0.125000  0.125000  1
  Te  Te8  1  0.375156  0.867843  0.375156  1
  Te  Te9  1  0.874844  0.382157  0.874844  1
  Te  Te10  1  0.874844  0.874844  0.382157  1
  Te  Te11  1  0.871578  0.871578  0.871578  1
  Te  Te12  1  0.867843  0.375156  0.375156  1
  Te  Te13  1  0.375156  0.375156  0.867843  1
  Te  Te14  1  0.378422  0.378422  0.378422  1
  Te  Te15  1  0.382157  0.874844  0.874844  1
