# generated using pymatgen
data_EuTa8VSe16
_symmetry_space_group_name_H-M   'P 1'
_cell_length_a   7.00366700
_cell_length_b   7.00366728
_cell_length_c   13.71369500
_cell_angle_alpha   90.00000000
_cell_angle_beta   90.00000000
_cell_angle_gamma   120.00001284
_symmetry_Int_Tables_number   1
_chemical_formula_structural   EuTa8VSe16
_chemical_formula_sum   'Eu1 Ta8 V1 Se16'
_cell_volume   582.55382296
_cell_formula_units_Z   1
loop_
 _symmetry_equiv_pos_site_id
 _symmetry_equiv_pos_as_xyz
  1  'x, y, z'
loop_
 _atom_site_type_symbol
 _atom_site_label
 _atom_site_symmetry_multiplicity
 _atom_site_fract_x
 _atom_site_fract_y
 _atom_site_fract_z
 _atom_site_occupancy
  Eu  Eu0  1  0.000000  0.000000  0.000000  1
  Ta  Ta1  1  0.509044  0.490956  0.729578  1
  Ta  Ta2  1  0.018086  0.509044  0.270422  1
  Ta  Ta3  1  0.490956  0.981914  0.270422  1
  Ta  Ta4  1  0.509044  0.018086  0.729578  1
  Ta  Ta5  1  0.981914  0.490956  0.729578  1
  Ta  Ta6  1  0.490956  0.509044  0.270422  1
  Ta  Ta7  1  0.000000  0.000000  0.731758  1
  Ta  Ta8  1  0.000000  0.000000  0.268242  1
  V  V9  1  0.000000  0.000000  0.500000  1
  Se  Se10  1  0.832330  0.167670  0.388619  1
  Se  Se11  1  0.832330  0.664659  0.388619  1
  Se  Se12  1  0.335341  0.167670  0.388619  1
  Se  Se13  1  0.657384  0.828692  0.849597  1
  Se  Se14  1  0.167670  0.335341  0.611381  1
  Se  Se15  1  0.171308  0.828692  0.849597  1
  Se  Se16  1  0.171308  0.342616  0.849597  1
  Se  Se17  1  0.828692  0.171308  0.150403  1
  Se  Se18  1  0.342616  0.171308  0.150403  1
  Se  Se19  1  0.664659  0.832330  0.611381  1
  Se  Se20  1  0.333333  0.666667  0.142278  1
  Se  Se21  1  0.666667  0.333333  0.603478  1
  Se  Se22  1  0.666667  0.333333  0.857722  1
  Se  Se23  1  0.333333  0.666667  0.396522  1
  Se  Se24  1  0.828692  0.657384  0.150403  1
  Se  Se25  1  0.167670  0.832330  0.611381  1
