# generated using pymatgen
data_Er6Tm2Re(TcB8)3
_symmetry_space_group_name_H-M   'P 1'
_cell_length_a   3.65509300
_cell_length_b   9.11567129
_cell_length_c   11.48635401
_cell_angle_alpha   90.03256672
_cell_angle_beta   90.00000000
_cell_angle_gamma   90.00000000
_symmetry_Int_Tables_number   1
_chemical_formula_structural   Er6Tm2Re(TcB8)3
_chemical_formula_sum   'Er6 Tm2 Re1 Tc3 B24'
_cell_volume   382.70947513
_cell_formula_units_Z   1
loop_
 _symmetry_equiv_pos_site_id
 _symmetry_equiv_pos_as_xyz
  1  'x, y, z'
loop_
 _atom_site_type_symbol
 _atom_site_label
 _atom_site_symmetry_multiplicity
 _atom_site_fract_x
 _atom_site_fract_y
 _atom_site_fract_z
 _atom_site_occupancy
  Er  Er0  1  0.000000  0.324033  0.413972  1
  Er  Er1  1  0.000000  0.676224  0.585865  1
  Er  Er2  1  0.000000  0.823621  0.086087  1
  Er  Er3  1  0.000000  0.176693  0.914310  1
  Er  Er4  1  0.000000  0.942955  0.369324  1
  Er  Er5  1  0.000000  0.057565  0.629768  1
  Tm  Tm6  1  0.000000  0.442960  0.130663  1
  Tm  Tm7  1  0.000000  0.556030  0.869844  1
  Re  Re8  1  0.000000  0.860578  0.820748  1
  Tc  Tc9  1  0.000000  0.638764  0.320200  1
  Tc  Tc10  1  0.000000  0.361263  0.679700  1
  Tc  Tc11  1  0.000000  0.139560  0.179450  1
  B  B12  1  0.500000  0.553437  0.433137  1
  B  B13  1  0.500000  0.446677  0.566870  1
  B  B14  1  0.500000  0.053545  0.066929  1
  B  B15  1  0.500000  0.946694  0.933406  1
  B  B16  1  0.500000  0.749495  0.418969  1
  B  B17  1  0.500000  0.250701  0.580967  1
  B  B18  1  0.500000  0.249898  0.081006  1
  B  B19  1  0.500000  0.749685  0.919183  1
  B  B20  1  0.500000  0.792351  0.264996  1
  B  B21  1  0.500000  0.207650  0.734869  1
  B  B22  1  0.500000  0.292755  0.234930  1
  B  B23  1  0.500000  0.706867  0.765207  1
  B  B24  1  0.500000  0.630675  0.185031  1
  B  B25  1  0.500000  0.369150  0.814969  1
  B  B26  1  0.500000  0.131099  0.314805  1
  B  B27  1  0.500000  0.869108  0.685060  1
  B  B28  1  0.500000  0.982073  0.211638  1
  B  B29  1  0.500000  0.018285  0.788154  1
  B  B30  1  0.500000  0.481861  0.288114  1
  B  B31  1  0.500000  0.518047  0.711986  1
  B  B32  1  0.500000  0.599334  0.027847  1
  B  B33  1  0.500000  0.400202  0.972379  1
  B  B34  1  0.500000  0.100125  0.471859  1
  B  B35  1  0.500000  0.900043  0.527758  1
