# generated using pymatgen
data_K3Bi(IO3)6
_symmetry_space_group_name_H-M   'P 1'
_cell_length_a   7.23057666
_cell_length_b   7.26687129
_cell_length_c   10.97206318
_cell_angle_alpha   98.58203804
_cell_angle_beta   108.28970605
_cell_angle_gamma   103.51827562
_symmetry_Int_Tables_number   1
_chemical_formula_structural   K3Bi(IO3)6
_chemical_formula_sum   'K3 Bi1 I6 O18'
_cell_volume   516.52182464
_cell_formula_units_Z   1
loop_
 _symmetry_equiv_pos_site_id
 _symmetry_equiv_pos_as_xyz
  1  'x, y, z'
loop_
 _atom_site_type_symbol
 _atom_site_label
 _atom_site_symmetry_multiplicity
 _atom_site_fract_x
 _atom_site_fract_y
 _atom_site_fract_z
 _atom_site_occupancy
  K  K0  1  0.372576  0.537634  0.290866  1
  K  K1  1  0.627424  0.462366  0.709134  1
  K  K2  1  0.000000  0.500000  0.500000  1
  Bi  Bi3  1  0.000000  0.000000  0.000000  1
  I  I4  1  0.559859  0.031746  0.196814  1
  I  I5  1  0.440141  0.968254  0.803186  1
  I  I6  1  0.774083  0.529708  0.105574  1
  I  I7  1  0.225917  0.470292  0.894426  1
  I  I8  1  0.131391  0.064266  0.385704  1
  I  I9  1  0.868609  0.935734  0.614296  1
  O  O10  1  0.589615  0.653815  0.127591  1
  O  O11  1  0.410385  0.346185  0.872409  1
  O  O12  1  0.012376  0.357279  0.737684  1
  O  O13  1  0.987624  0.642721  0.262316  1
  O  O14  1  0.609084  0.297465  0.237074  1
  O  O15  1  0.390916  0.702535  0.762926  1
  O  O16  1  0.054546  0.125940  0.221344  1
  O  O17  1  0.945454  0.874060  0.778656  1
  O  O18  1  0.323670  0.954915  0.042721  1
  O  O19  1  0.676330  0.045085  0.957279  1
  O  O20  1  0.292807  0.307567  0.479575  1
  O  O21  1  0.707193  0.692433  0.520425  1
  O  O22  1  0.889818  0.079443  0.407511  1
  O  O23  1  0.110182  0.920557  0.592489  1
  O  O24  1  0.562025  0.039569  0.688069  1
  O  O25  1  0.437975  0.960431  0.311931  1
  O  O26  1  0.130758  0.335634  0.005840  1
  O  O27  1  0.869242  0.664366  0.994160  1
