# generated using pymatgen
data_CaTmU2(B4Ru)4
_symmetry_space_group_name_H-M   'P 1'
_cell_length_a   3.54077300
_cell_length_b   5.95557186
_cell_length_c   11.51305911
_cell_angle_alpha   90.07471761
_cell_angle_beta   90.00000000
_cell_angle_gamma   90.00000000
_symmetry_Int_Tables_number   1
_chemical_formula_structural   CaTmU2(B4Ru)4
_chemical_formula_sum   'Ca1 Tm1 U2 B16 Ru4'
_cell_volume   242.77944777
_cell_formula_units_Z   1
loop_
 _symmetry_equiv_pos_site_id
 _symmetry_equiv_pos_as_xyz
  1  'x, y, z'
loop_
 _atom_site_type_symbol
 _atom_site_label
 _atom_site_symmetry_multiplicity
 _atom_site_fract_x
 _atom_site_fract_y
 _atom_site_fract_z
 _atom_site_occupancy
  Ca  Ca0  1  0.500000  0.628415  0.351963  1
  Tm  Tm1  1  0.500000  0.371575  0.648050  1
  U  U2  1  0.500000  0.128110  0.151571  1
  U  U3  1  0.500000  0.872133  0.848868  1
  B  B4  1  0.000000  0.474008  0.191514  1
  B  B5  1  0.000000  0.524776  0.807234  1
  B  B6  1  0.000000  0.976689  0.308240  1
  B  B7  1  0.000000  0.026916  0.691832  1
  B  B8  1  0.000000  0.287621  0.313250  1
  B  B9  1  0.000000  0.709131  0.686543  1
  B  B10  1  0.000000  0.791655  0.186086  1
  B  B11  1  0.000000  0.208776  0.812574  1
  B  B12  1  0.000000  0.363509  0.469873  1
  B  B13  1  0.000000  0.636222  0.531547  1
  B  B14  1  0.000000  0.868707  0.032693  1
  B  B15  1  0.000000  0.132093  0.967499  1
  B  B16  1  0.000000  0.385856  0.047160  1
  B  B17  1  0.000000  0.614553  0.952552  1
  B  B18  1  0.000000  0.886471  0.454200  1
  B  B19  1  0.000000  0.113647  0.546050  1
  Ru  Ru20  1  0.500000  0.138100  0.406835  1
  Ru  Ru21  1  0.500000  0.861689  0.596262  1
  Ru  Ru22  1  0.500000  0.641831  0.091596  1
  Ru  Ru23  1  0.500000  0.357515  0.906007  1
