# generated using pymatgen
data_Sc8NiIr4Ru3
_symmetry_space_group_name_H-M   'P 1'
_cell_length_a   6.36278000
_cell_length_b   4.56409400
_cell_length_c   9.15269900
_cell_angle_alpha   90.00000000
_cell_angle_beta   90.00005557
_cell_angle_gamma   89.99997489
_symmetry_Int_Tables_number   1
_chemical_formula_structural   Sc8NiIr4Ru3
_chemical_formula_sum   'Sc8 Ni1 Ir4 Ru3'
_cell_volume   265.79736293
_cell_formula_units_Z   1
loop_
 _symmetry_equiv_pos_site_id
 _symmetry_equiv_pos_as_xyz
  1  'x, y, z'
loop_
 _atom_site_type_symbol
 _atom_site_label
 _atom_site_symmetry_multiplicity
 _atom_site_fract_x
 _atom_site_fract_y
 _atom_site_fract_z
 _atom_site_occupancy
  Sc  Sc0  1  0.500440  0.750000  0.125590  1
  Sc  Sc1  1  0.999559  0.750000  0.125591  1
  Sc  Sc2  1  0.500292  0.250000  0.375006  1
  Sc  Sc3  1  0.999699  0.250000  0.375009  1
  Sc  Sc4  1  0.999564  0.750000  0.624384  1
  Sc  Sc5  1  0.500446  0.750000  0.624386  1
  Sc  Sc6  1  0.998973  0.250000  0.875019  1
  Sc  Sc7  1  0.501026  0.250000  0.875020  1
  Ni  Ni8  1  0.250001  0.750000  0.874938  1
  Ir  Ir9  1  0.249998  0.250000  0.123365  1
  Ir  Ir10  1  0.749998  0.750000  0.374994  1
  Ir  Ir11  1  0.250002  0.250000  0.626669  1
  Ir  Ir12  1  0.750002  0.750000  0.875002  1
  Ru  Ru13  1  0.749998  0.250000  0.123463  1
  Ru  Ru14  1  0.249998  0.750000  0.374984  1
  Ru  Ru15  1  0.750001  0.250000  0.626579  1
