# generated using pymatgen
data_HoEr9In4(HgPd)4
_symmetry_space_group_name_H-M   'P 1'
_cell_length_a   3.60133600
_cell_length_b   7.97628402
_cell_length_c   18.24689504
_cell_angle_alpha   90.00767027
_cell_angle_beta   90.00000000
_cell_angle_gamma   90.00000000
_symmetry_Int_Tables_number   1
_chemical_formula_structural   HoEr9In4(HgPd)4
_chemical_formula_sum   'Ho1 Er9 In4 Hg4 Pd4'
_cell_volume   524.14714222
_cell_formula_units_Z   1
loop_
 _symmetry_equiv_pos_site_id
 _symmetry_equiv_pos_as_xyz
  1  'x, y, z'
loop_
 _atom_site_type_symbol
 _atom_site_label
 _atom_site_symmetry_multiplicity
 _atom_site_fract_x
 _atom_site_fract_y
 _atom_site_fract_z
 _atom_site_occupancy
  Ho  Ho0  1  0.000000  0.500000  0.500000  1
  Er  Er1  1  0.000000  0.000000  0.000000  1
  Er  Er2  1  0.000000  0.741865  0.283272  1
  Er  Er3  1  0.000000  0.258135  0.716728  1
  Er  Er4  1  0.000000  0.758129  0.783291  1
  Er  Er5  1  0.000000  0.241871  0.216709  1
  Er  Er6  1  0.000000  0.608773  0.083568  1
  Er  Er7  1  0.000000  0.391227  0.916432  1
  Er  Er8  1  0.000000  0.891235  0.583609  1
  Er  Er9  1  0.000000  0.108765  0.416391  1
  In  In10  1  0.500000  0.580530  0.648711  1
  In  In11  1  0.500000  0.419470  0.351289  1
  In  In12  1  0.500000  0.919499  0.148621  1
  In  In13  1  0.500000  0.080501  0.851379  1
  Hg  Hg14  1  0.500000  0.714388  0.932952  1
  Hg  Hg15  1  0.500000  0.285612  0.067048  1
  Hg  Hg16  1  0.500000  0.785785  0.432835  1
  Hg  Hg17  1  0.500000  0.214215  0.567165  1
  Pd  Pd18  1  0.500000  0.528694  0.197260  1
  Pd  Pd19  1  0.500000  0.471306  0.802740  1
  Pd  Pd20  1  0.500000  0.971309  0.697281  1
  Pd  Pd21  1  0.500000  0.028691  0.302719  1
