# generated using pymatgen
data_Cs2Pr3Ho(CuSe4)2
_symmetry_space_group_name_H-M   'P 1'
_cell_length_a   4.35245600
_cell_length_b   7.79921744
_cell_length_c   14.74359500
_cell_angle_alpha   89.86207215
_cell_angle_beta   90.00000000
_cell_angle_gamma   73.79758484
_symmetry_Int_Tables_number   1
_chemical_formula_structural   Cs2Pr3Ho(CuSe4)2
_chemical_formula_sum   'Cs2 Pr3 Ho1 Cu2 Se8'
_cell_volume   480.60269300
_cell_formula_units_Z   1
loop_
 _symmetry_equiv_pos_site_id
 _symmetry_equiv_pos_as_xyz
  1  'x, y, z'
loop_
 _atom_site_type_symbol
 _atom_site_label
 _atom_site_symmetry_multiplicity
 _atom_site_fract_x
 _atom_site_fract_y
 _atom_site_fract_z
 _atom_site_occupancy
  Cs  Cs0  1  0.893637  0.212726  0.248536  1
  Cs  Cs1  1  0.106456  0.787090  0.751956  1
  Pr  Pr2  1  0.631782  0.736437  0.058009  1
  Pr  Pr3  1  0.634315  0.731371  0.439246  1
  Pr  Pr4  1  0.366514  0.266975  0.563739  1
  Ho  Ho5  1  0.364158  0.271685  0.938912  1
  Cu  Cu6  1  0.165919  0.668160  0.248966  1
  Cu  Cu7  1  0.835266  0.329470  0.749418  1
  Se  Se8  1  0.993823  0.012355  0.996552  1
  Se  Se9  1  0.258138  0.483724  0.105760  1
  Se  Se10  1  0.580301  0.839401  0.248394  1
  Se  Se11  1  0.258565  0.482870  0.389826  1
  Se  Se12  1  0.000104  0.999792  0.500946  1
  Se  Se13  1  0.741740  0.516520  0.611239  1
  Se  Se14  1  0.420188  0.159626  0.755808  1
  Se  Se15  1  0.749103  0.501796  0.892694  1
