# generated using pymatgen
data_Tb3Pr16LuSn16
_symmetry_space_group_name_H-M   'P 1'
_cell_length_a   8.28689900
_cell_length_b   8.44448000
_cell_length_c   16.01138800
_cell_angle_alpha   90.00000000
_cell_angle_beta   90.00000000
_cell_angle_gamma   90.00232179
_symmetry_Int_Tables_number   1
_chemical_formula_structural   Tb3Pr16LuSn16
_chemical_formula_sum   'Tb3 Pr16 Lu1 Sn16'
_cell_volume   1120.45376118
_cell_formula_units_Z   1
loop_
 _symmetry_equiv_pos_site_id
 _symmetry_equiv_pos_as_xyz
  1  'x, y, z'
loop_
 _atom_site_type_symbol
 _atom_site_label
 _atom_site_symmetry_multiplicity
 _atom_site_fract_x
 _atom_site_fract_y
 _atom_site_fract_z
 _atom_site_occupancy
  Tb  Tb0  1  0.197811  0.502102  0.750000  1
  Tb  Tb1  1  0.697791  0.998109  0.750000  1
  Tb  Tb2  1  0.802087  0.498171  0.250000  1
  Pr  Pr3  1  0.366746  0.838026  0.879582  1
  Pr  Pr4  1  0.866615  0.661959  0.620808  1
  Pr  Pr5  1  0.632448  0.161247  0.379285  1
  Pr  Pr6  1  0.133880  0.337586  0.120907  1
  Pr  Pr7  1  0.632448  0.161247  0.120715  1
  Pr  Pr8  1  0.133880  0.337586  0.379093  1
  Pr  Pr9  1  0.366746  0.838026  0.620418  1
  Pr  Pr10  1  0.866615  0.661959  0.879192  1
  Pr  Pr11  1  0.518977  0.318706  0.901210  1
  Pr  Pr12  1  0.018846  0.181423  0.598721  1
  Pr  Pr13  1  0.480854  0.681795  0.401283  1
  Pr  Pr14  1  0.981632  0.818994  0.098859  1
  Pr  Pr15  1  0.480854  0.681795  0.098717  1
  Pr  Pr16  1  0.981632  0.818994  0.401141  1
  Pr  Pr17  1  0.518977  0.318706  0.598790  1
  Pr  Pr18  1  0.018846  0.181423  0.901279  1
  Lu  Lu19  1  0.300558  0.002091  0.250000  1
  Sn  Sn20  1  0.292037  0.033605  0.045284  1
  Sn  Sn21  1  0.792052  0.466100  0.455441  1
  Sn  Sn22  1  0.708024  0.965869  0.544329  1
  Sn  Sn23  1  0.207978  0.533980  0.955694  1
  Sn  Sn24  1  0.708024  0.965869  0.955671  1
  Sn  Sn25  1  0.207978  0.533980  0.544306  1
  Sn  Sn26  1  0.292037  0.033605  0.454716  1
  Sn  Sn27  1  0.792052  0.466100  0.044559  1
  Sn  Sn28  1  0.564042  0.616194  0.750000  1
  Sn  Sn29  1  0.064198  0.883693  0.750000  1
  Sn  Sn30  1  0.435396  0.383240  0.250000  1
  Sn  Sn31  1  0.937688  0.116102  0.250000  1
  Sn  Sn32  1  0.323398  0.146270  0.750000  1
  Sn  Sn33  1  0.823720  0.353446  0.750000  1
  Sn  Sn34  1  0.676503  0.853969  0.250000  1
  Sn  Sn35  1  0.176628  0.648035  0.250000  1
