# generated using pymatgen
data_Tb7HoCd2(SnAu4)2
_symmetry_space_group_name_H-M   'P 1'
_cell_length_a   8.03555583
_cell_length_b   8.03555583
_cell_length_c   7.39876408
_cell_angle_alpha   89.98784908
_cell_angle_beta   89.98784908
_cell_angle_gamma   89.88872415
_symmetry_Int_Tables_number   1
_chemical_formula_structural   Tb7HoCd2(SnAu4)2
_chemical_formula_sum   'Tb7 Ho1 Cd2 Sn2 Au8'
_cell_volume   477.73844014
_cell_formula_units_Z   1
loop_
 _symmetry_equiv_pos_site_id
 _symmetry_equiv_pos_as_xyz
  1  'x, y, z'
loop_
 _atom_site_type_symbol
 _atom_site_label
 _atom_site_symmetry_multiplicity
 _atom_site_fract_x
 _atom_site_fract_y
 _atom_site_fract_z
 _atom_site_occupancy
  Tb  Tb0  1  0.840129  0.159871  0.500000  1
  Tb  Tb1  1  0.159521  0.840479  0.500000  1
  Tb  Tb2  1  0.340463  0.339933  0.000050  1
  Tb  Tb3  1  0.660067  0.659537  0.999950  1
  Tb  Tb4  1  0.682671  0.682321  0.499967  1
  Tb  Tb5  1  0.317679  0.317329  0.500033  1
  Tb  Tb6  1  0.182383  0.817617  0.000000  1
  Ho  Ho7  1  0.817806  0.182194  0.000000  1
  Cd  Cd8  1  0.500159  0.000146  0.249692  1
  Cd  Cd9  1  0.999854  0.499841  0.750308  1
  Sn  Sn10  1  0.500164  0.000058  0.750345  1
  Sn  Sn11  1  0.999942  0.499836  0.249655  1
  Au  Au12  1  0.625179  0.367742  0.271396  1
  Au  Au13  1  0.375774  0.631412  0.272967  1
  Au  Au14  1  0.123507  0.132013  0.773600  1
  Au  Au15  1  0.875085  0.869217  0.773552  1
  Au  Au16  1  0.368588  0.624226  0.727033  1
  Au  Au17  1  0.632258  0.374821  0.728604  1
  Au  Au18  1  0.867987  0.876493  0.226400  1
  Au  Au19  1  0.130783  0.124915  0.226448  1
