# generated using pymatgen
data_K2Ga(SiPd2)3
_symmetry_space_group_name_H-M   'P 1'
_cell_length_a   6.88977684
_cell_length_b   6.88032538
_cell_length_c   6.88977500
_cell_angle_alpha   129.27487170
_cell_angle_beta   117.52213843
_cell_angle_gamma   84.58357385
_symmetry_Int_Tables_number   1
_chemical_formula_structural   K2Ga(SiPd2)3
_chemical_formula_sum   'K2 Ga1 Si3 Pd6'
_cell_volume   214.67599862
_cell_formula_units_Z   1
loop_
 _symmetry_equiv_pos_site_id
 _symmetry_equiv_pos_as_xyz
  1  'x, y, z'
loop_
 _atom_site_type_symbol
 _atom_site_label
 _atom_site_symmetry_multiplicity
 _atom_site_fract_x
 _atom_site_fract_y
 _atom_site_fract_z
 _atom_site_occupancy
  K  K0  1  0.001479  0.984710  0.983230  1
  K  K1  1  0.499397  0.028115  0.528718  1
  Ga  Ga2  1  0.341881  0.394014  0.052132  1
  Si  Si3  1  0.815062  0.258055  0.442992  1
  Si  Si4  1  0.656231  0.705378  0.049147  1
  Si  Si5  1  0.188862  0.627938  0.439075  1
  Pd  Pd6  1  0.948796  0.501558  0.954657  1
  Pd  Pd7  1  0.546901  0.501558  0.552762  1
  Pd  Pd8  1  0.034555  0.994613  0.532020  1
  Pd  Pd9  1  0.790603  0.497226  0.283589  1
  Pd  Pd10  1  0.213636  0.497226  0.706621  1
  Pd  Pd11  1  0.462594  0.994613  0.960058  1
