# generated using pymatgen
data_Tl3Cr2(PSe4)3
_symmetry_space_group_name_H-M   'P 1'
_cell_length_a   10.46468912
_cell_length_b   13.24621200
_cell_length_c   18.90235000
_cell_angle_alpha   90.00000000
_cell_angle_beta   96.76887085
_cell_angle_gamma   90.00000000
_symmetry_Int_Tables_number   1
_chemical_formula_structural   Tl3Cr2(PSe4)3
_chemical_formula_sum   'Tl12 Cr8 P12 Se48'
_cell_volume   2601.93274457
_cell_formula_units_Z   4
loop_
 _symmetry_equiv_pos_site_id
 _symmetry_equiv_pos_as_xyz
  1  'x, y, z'
loop_
 _atom_site_type_symbol
 _atom_site_label
 _atom_site_symmetry_multiplicity
 _atom_site_fract_x
 _atom_site_fract_y
 _atom_site_fract_z
 _atom_site_occupancy
  Tl  Tl0  1  0.981097  0.137640  0.786087  1
  Tl  Tl1  1  0.057922  0.585058  0.373109  1
  Tl  Tl2  1  0.227934  0.435148  0.951679  1
  Tl  Tl3  1  0.557922  0.914942  0.873109  1
  Tl  Tl4  1  0.942078  0.414942  0.626891  1
  Tl  Tl5  1  0.772066  0.564852  0.048321  1
  Tl  Tl6  1  0.481097  0.362360  0.286087  1
  Tl  Tl7  1  0.518903  0.637640  0.713913  1
  Tl  Tl8  1  0.442078  0.085058  0.126891  1
  Tl  Tl9  1  0.272066  0.935148  0.548321  1
  Tl  Tl10  1  0.018903  0.862360  0.213913  1
  Tl  Tl11  1  0.727934  0.064852  0.451679  1
  Cr  Cr12  1  0.946096  0.771242  0.710755  1
  Cr  Cr13  1  0.053904  0.228758  0.289245  1
  Cr  Cr14  1  0.553904  0.271242  0.789245  1
  Cr  Cr15  1  0.119302  0.779345  0.896940  1
  Cr  Cr16  1  0.446096  0.728758  0.210755  1
  Cr  Cr17  1  0.619302  0.720655  0.396940  1
  Cr  Cr18  1  0.380698  0.279345  0.603060  1
  Cr  Cr19  1  0.880698  0.220655  0.103060  1
  P  P20  1  0.735650  0.628947  0.253386  1
  P  P21  1  0.235650  0.871053  0.753386  1
  P  P22  1  0.323784  0.818264  0.354212  1
  P  P23  1  0.676216  0.181736  0.645788  1
  P  P24  1  0.764350  0.128947  0.246614  1
  P  P25  1  0.207038  0.258800  0.447665  1
  P  P26  1  0.792962  0.741200  0.552335  1
  P  P27  1  0.707038  0.241200  0.947665  1
  P  P28  1  0.264350  0.371053  0.746614  1
  P  P29  1  0.823784  0.681736  0.854212  1
  P  P30  1  0.292962  0.758800  0.052335  1
  P  P31  1  0.176216  0.318264  0.145788  1
  Se  Se32  1  0.931536  0.069732  0.319271  1
  Se  Se33  1  0.013405  0.370224  0.067530  1
  Se  Se34  1  0.751153  0.345807  0.861657  1
  Se  Se35  1  0.068464  0.930268  0.680729  1
  Se  Se36  1  0.568464  0.569732  0.180729  1
  Se  Se37  1  0.762611  0.063684  0.137254  1
  Se  Se38  1  0.979098  0.673976  0.598900  1
  Se  Se39  1  0.664060  0.788974  0.273569  1
  Se  Se40  1  0.866953  0.172850  0.610712  1
  Se  Se41  1  0.251153  0.154193  0.361657  1
  Se  Se42  1  0.262611  0.436316  0.637254  1
  Se  Se43  1  0.366953  0.327150  0.110712  1
  Se  Se44  1  0.865068  0.132757  0.981461  1
  Se  Se45  1  0.134932  0.867243  0.018539  1
  Se  Se46  1  0.248847  0.654193  0.138343  1
  Se  Se47  1  0.835940  0.288974  0.226431  1
  Se  Se48  1  0.166256  0.386468  0.253299  1
  Se  Se49  1  0.520902  0.173976  0.901100  1
  Se  Se50  1  0.633047  0.672850  0.889288  1
  Se  Se51  1  0.020902  0.326024  0.401100  1
  Se  Se52  1  0.602234  0.341398  0.666572  1
  Se  Se53  1  0.102234  0.158602  0.166572  1
  Se  Se54  1  0.133047  0.827150  0.389288  1
  Se  Se55  1  0.897766  0.841398  0.833428  1
  Se  Se56  1  0.986595  0.629776  0.932470  1
  Se  Se57  1  0.237389  0.936316  0.862746  1
  Se  Se58  1  0.833744  0.613532  0.746701  1
  Se  Se59  1  0.182884  0.183872  0.551196  1
  Se  Se60  1  0.666256  0.113532  0.753299  1
  Se  Se61  1  0.579393  0.120023  0.289202  1
  Se  Se62  1  0.737389  0.563684  0.362746  1
  Se  Se63  1  0.365068  0.367243  0.481461  1
  Se  Se64  1  0.479098  0.826024  0.098900  1
  Se  Se65  1  0.817116  0.816128  0.448804  1
  Se  Se66  1  0.420607  0.879977  0.710798  1
  Se  Se67  1  0.079393  0.379977  0.789202  1
  Se  Se68  1  0.431536  0.430268  0.819271  1
  Se  Se69  1  0.682884  0.316128  0.051196  1
  Se  Se70  1  0.486595  0.870224  0.432470  1
  Se  Se71  1  0.397766  0.658602  0.333428  1
  Se  Se72  1  0.920607  0.620023  0.210798  1
  Se  Se73  1  0.317116  0.683872  0.948804  1
  Se  Se74  1  0.164060  0.711026  0.773569  1
  Se  Se75  1  0.748847  0.845807  0.638343  1
  Se  Se76  1  0.634932  0.632757  0.518539  1
  Se  Se77  1  0.335940  0.211026  0.726431  1
  Se  Se78  1  0.333744  0.886468  0.246701  1
  Se  Se79  1  0.513405  0.129776  0.567530  1
