# generated using pymatgen
data_La10Zn4Os5Ru
_symmetry_space_group_name_H-M   'P 1'
_cell_length_a   8.61969396
_cell_length_b   8.61971810
_cell_length_c   8.60738732
_cell_angle_alpha   109.32616085
_cell_angle_beta   109.54570024
_cell_angle_gamma   109.59989653
_symmetry_Int_Tables_number   1
_chemical_formula_structural   La10Zn4Os5Ru
_chemical_formula_sum   'La10 Zn4 Os5 Ru1'
_cell_volume   491.94948527
_cell_formula_units_Z   1
loop_
 _symmetry_equiv_pos_site_id
 _symmetry_equiv_pos_as_xyz
  1  'x, y, z'
loop_
 _atom_site_type_symbol
 _atom_site_label
 _atom_site_symmetry_multiplicity
 _atom_site_fract_x
 _atom_site_fract_y
 _atom_site_fract_z
 _atom_site_occupancy
  La  La0  1  0.250105  0.688008  0.438270  1
  La  La1  1  0.749724  0.811831  0.061730  1
  La  La2  1  0.438365  0.248626  0.687439  1
  La  La3  1  0.687980  0.437968  0.250004  1
  La  La4  1  0.061191  0.750914  0.812560  1
  La  La5  1  0.812326  0.062341  0.750000  1
  La  La6  1  0.217772  0.217822  0.217819  1
  La  La7  1  0.500015  0.999973  0.282191  1
  La  La8  1  0.282887  0.500150  0.999570  1
  La  La9  1  0.000569  0.283325  0.500414  1
  Zn  Zn10  1  0.500038  0.000969  0.914826  1
  Zn  Zn11  1  0.586146  0.585210  0.585173  1
  Zn  Zn12  1  0.914775  0.500076  0.000172  1
  Zn  Zn13  1  0.999907  0.914602  0.499829  1
  Os  Os14  1  0.249899  0.124626  0.874196  1
  Os  Os15  1  0.750441  0.375710  0.625794  1
  Os  Os16  1  0.874182  0.249576  0.124822  1
  Os  Os17  1  0.123729  0.873728  0.249998  1
  Os  Os18  1  0.624766  0.749366  0.375189  1
  Ru  Ru19  1  0.375184  0.625182  0.750005  1
