# generated using pymatgen
data_NaSc2Pa5H24
_symmetry_space_group_name_H-M   'P 1'
_cell_length_a   6.52769600
_cell_length_b   6.43326800
_cell_length_c   6.43326800
_cell_angle_alpha   90.00000000
_cell_angle_beta   90.00000000
_cell_angle_gamma   90.00000000
_symmetry_Int_Tables_number   1
_chemical_formula_structural   NaSc2Pa5H24
_chemical_formula_sum   'Na1 Sc2 Pa5 H24'
_cell_volume   270.16134415
_cell_formula_units_Z   1
loop_
 _symmetry_equiv_pos_site_id
 _symmetry_equiv_pos_as_xyz
  1  'x, y, z'
loop_
 _atom_site_type_symbol
 _atom_site_label
 _atom_site_symmetry_multiplicity
 _atom_site_fract_x
 _atom_site_fract_y
 _atom_site_fract_z
 _atom_site_occupancy
  Na  Na0  1  0.250000  0.000000  0.500000  1
  Sc  Sc1  1  0.005510  0.000000  0.000000  1
  Sc  Sc2  1  0.494490  0.500000  0.500000  1
  Pa  Pa3  1  0.750000  0.000000  0.500000  1
  Pa  Pa4  1  0.000650  0.500000  0.251597  1
  Pa  Pa5  1  0.000650  0.500000  0.748403  1
  Pa  Pa6  1  0.499350  0.751597  0.000000  1
  Pa  Pa7  1  0.499350  0.248403  0.000000  1
  H  H8  1  0.981368  0.155195  0.291749  1
  H  H9  1  0.518632  0.208251  0.655195  1
  H  H10  1  0.518632  0.791749  0.344805  1
  H  H11  1  0.803855  0.651964  0.500000  1
  H  H12  1  0.194881  0.645656  0.500000  1
  H  H13  1  0.345524  0.500000  0.791742  1
  H  H14  1  0.652269  0.500000  0.801186  1
  H  H15  1  0.305119  0.000000  0.145656  1
  H  H16  1  0.154476  0.291742  0.000000  1
  H  H17  1  0.847731  0.698814  0.000000  1
  H  H18  1  0.305119  0.000000  0.854344  1
  H  H19  1  0.847731  0.301186  0.000000  1
  H  H20  1  0.696145  0.000000  0.151964  1
  H  H21  1  0.696145  0.000000  0.848036  1
  H  H22  1  0.154476  0.708258  0.000000  1
  H  H23  1  0.981368  0.844805  0.708251  1
  H  H24  1  0.981368  0.155195  0.708251  1
  H  H25  1  0.981368  0.844805  0.291749  1
  H  H26  1  0.652269  0.500000  0.198814  1
  H  H27  1  0.345524  0.500000  0.208258  1
  H  H28  1  0.803855  0.348036  0.500000  1
  H  H29  1  0.194881  0.354344  0.500000  1
  H  H30  1  0.518632  0.791749  0.655195  1
  H  H31  1  0.518632  0.208251  0.344805  1
