# generated using pymatgen
data_Ce2HoAl9Si3Os4
_symmetry_space_group_name_H-M   'P 1'
_cell_length_a   8.77392771
_cell_length_b   8.74841503
_cell_length_c   9.51219200
_cell_angle_alpha   90.00000000
_cell_angle_beta   90.00000000
_cell_angle_gamma   120.02502290
_symmetry_Int_Tables_number   1
_chemical_formula_structural   Ce2HoAl9Si3Os4
_chemical_formula_sum   'Ce4 Ho2 Al18 Si6 Os8'
_cell_volume   632.15722775
_cell_formula_units_Z   2
loop_
 _symmetry_equiv_pos_site_id
 _symmetry_equiv_pos_as_xyz
  1  'x, y, z'
loop_
 _atom_site_type_symbol
 _atom_site_label
 _atom_site_symmetry_multiplicity
 _atom_site_fract_x
 _atom_site_fract_y
 _atom_site_fract_z
 _atom_site_occupancy
  Ce  Ce0  1  0.191723  0.383334  0.250000  1
  Ce  Ce1  1  0.808277  0.616666  0.750000  1
  Ce  Ce2  1  0.614055  0.808869  0.250000  1
  Ce  Ce3  1  0.385945  0.191131  0.750000  1
  Ho  Ho4  1  0.197716  0.807333  0.250000  1
  Ho  Ho5  1  0.802284  0.192667  0.750000  1
  Al  Al6  1  0.163550  0.328226  0.578303  1
  Al  Al7  1  0.836450  0.671774  0.421697  1
  Al  Al8  1  0.672108  0.836129  0.576449  1
  Al  Al9  1  0.836450  0.671774  0.078303  1
  Al  Al10  1  0.327892  0.163871  0.423551  1
  Al  Al11  1  0.163550  0.328226  0.921697  1
  Al  Al12  1  0.163240  0.835098  0.576088  1
  Al  Al13  1  0.327892  0.163871  0.076449  1
  Al  Al14  1  0.836760  0.164902  0.423912  1
  Al  Al15  1  0.672108  0.836129  0.923551  1
  Al  Al16  1  0.836760  0.164902  0.076088  1
  Al  Al17  1  0.163240  0.835098  0.923912  1
  Al  Al18  1  0.871954  0.433309  0.250000  1
  Al  Al19  1  0.128046  0.566691  0.750000  1
  Al  Al20  1  0.562050  0.431701  0.250000  1
  Al  Al21  1  0.437950  0.568299  0.750000  1
  Al  Al22  1  0.000077  0.997594  0.250000  1
  Al  Al23  1  0.999923  0.002406  0.750000  1
  Si  Si24  1  0.330777  0.665156  0.036936  1
  Si  Si25  1  0.669223  0.334844  0.963064  1
  Si  Si26  1  0.669223  0.334844  0.536936  1
  Si  Si27  1  0.330777  0.665156  0.463064  1
  Si  Si28  1  0.562289  0.126334  0.250000  1
  Si  Si29  1  0.437711  0.873666  0.750000  1
  Os  Os30  1  0.500000  0.000000  0.000000  1
  Os  Os31  1  0.000000  0.500000  0.000000  1
  Os  Os32  1  0.500000  0.000000  0.500000  1
  Os  Os33  1  0.500000  0.500000  0.000000  1
  Os  Os34  1  0.000000  0.500000  0.500000  1
  Os  Os35  1  0.500000  0.500000  0.500000  1
  Os  Os36  1  0.000000  0.000000  0.000000  1
  Os  Os37  1  0.000000  0.000000  0.500000  1
