# generated using pymatgen
data_Tb3Dy7(Bi3P)2
_symmetry_space_group_name_H-M   'P 1'
_cell_length_a   9.23312900
_cell_length_b   9.23313125
_cell_length_c   6.69301400
_cell_angle_alpha   90.00000000
_cell_angle_beta   90.00000000
_cell_angle_gamma   120.00000269
_symmetry_Int_Tables_number   1
_chemical_formula_structural   Tb3Dy7(Bi3P)2
_chemical_formula_sum   'Tb3 Dy7 Bi6 P2'
_cell_volume   494.14028992
_cell_formula_units_Z   1
loop_
 _symmetry_equiv_pos_site_id
 _symmetry_equiv_pos_as_xyz
  1  'x, y, z'
loop_
 _atom_site_type_symbol
 _atom_site_label
 _atom_site_symmetry_multiplicity
 _atom_site_fract_x
 _atom_site_fract_y
 _atom_site_fract_z
 _atom_site_occupancy
  Tb  Tb0  1  0.333333  0.666667  0.500000  1
  Tb  Tb1  1  0.333333  0.666667  0.000000  1
  Tb  Tb2  1  0.666667  0.333333  0.000000  1
  Dy  Dy3  1  0.666667  0.333333  0.500000  1
  Dy  Dy4  1  0.762975  0.763008  0.250033  1
  Dy  Dy5  1  0.236992  0.999967  0.250033  1
  Dy  Dy6  1  0.000033  0.237025  0.250033  1
  Dy  Dy7  1  0.236992  0.237025  0.749967  1
  Dy  Dy8  1  0.762975  0.999967  0.749967  1
  Dy  Dy9  1  0.000033  0.763008  0.749967  1
  Bi  Bi10  1  0.399577  0.399411  0.250122  1
  Bi  Bi11  1  0.600589  0.000166  0.250122  1
  Bi  Bi12  1  0.999834  0.600423  0.250122  1
  Bi  Bi13  1  0.600589  0.600423  0.749878  1
  Bi  Bi14  1  0.399577  0.000166  0.749878  1
  Bi  Bi15  1  0.999834  0.399411  0.749878  1
  P  P16  1  0.000000  0.000000  0.500000  1
  P  P17  1  0.000000  0.000000  0.000000  1
