# generated using pymatgen
data_Cu3Ni2Mo12Pt3N4
_symmetry_space_group_name_H-M   'P 1'
_cell_length_a   6.77840948
_cell_length_b   6.77754558
_cell_length_c   6.77842504
_cell_angle_alpha   89.88400643
_cell_angle_beta   90.09871684
_cell_angle_gamma   89.84355362
_symmetry_Int_Tables_number   1
_chemical_formula_structural   Cu3Ni2Mo12Pt3N4
_chemical_formula_sum   'Cu3 Ni2 Mo12 Pt3 N4'
_cell_volume   311.40521966
_cell_formula_units_Z   1
loop_
 _symmetry_equiv_pos_site_id
 _symmetry_equiv_pos_as_xyz
  1  'x, y, z'
loop_
 _atom_site_type_symbol
 _atom_site_label
 _atom_site_symmetry_multiplicity
 _atom_site_fract_x
 _atom_site_fract_y
 _atom_site_fract_z
 _atom_site_occupancy
  Cu  Cu0  1  0.193400  0.181719  0.176232  1
  Cu  Cu1  1  0.317710  0.823804  0.693185  1
  Cu  Cu2  1  0.432529  0.067028  0.932131  1
  Ni  Ni3  1  0.814236  0.686236  0.312155  1
  Ni  Ni4  1  0.675473  0.307172  0.816822  1
  Mo  Mo5  1  0.624398  0.696827  0.959661  1
  Mo  Mo6  1  0.461062  0.875288  0.301661  1
  Mo  Mo7  1  0.703489  0.958288  0.626704  1
  Mo  Mo8  1  0.546084  0.372910  0.200950  1
  Mo  Mo9  1  0.374818  0.201090  0.544242  1
  Mo  Mo10  1  0.193891  0.540523  0.371074  1
  Mo  Mo11  1  0.871307  0.305655  0.462385  1
  Mo  Mo12  1  0.037269  0.128673  0.802317  1
  Mo  Mo13  1  0.304735  0.457439  0.871485  1
  Mo  Mo14  1  0.125568  0.796180  0.045372  1
  Mo  Mo15  1  0.798565  0.041269  0.122448  1
  Mo  Mo16  1  0.957204  0.627204  0.695745  1
  Pt  Pt17  1  0.564801  0.567558  0.565443  1
  Pt  Pt18  1  0.066826  0.935380  0.432240  1
  Pt  Pt19  1  0.932875  0.433160  0.062603  1
  N  N20  1  0.375007  0.623414  0.127877  1
  N  N21  1  0.875482  0.871732  0.875270  1
  N  N22  1  0.125724  0.375548  0.625904  1
  N  N23  1  0.627546  0.125902  0.376094  1
