# generated using pymatgen
data_Sr4ZrFe2WO12
_symmetry_space_group_name_H-M   'P 1'
_cell_length_a   5.67991258
_cell_length_b   5.72477321
_cell_length_c   9.88040996
_cell_angle_alpha   89.53942514
_cell_angle_beta   106.64280636
_cell_angle_gamma   119.77085236
_symmetry_Int_Tables_number   1
_chemical_formula_structural   Sr4ZrFe2WO12
_chemical_formula_sum   'Sr4 Zr1 Fe2 W1 O12'
_cell_volume   263.68898805
_cell_formula_units_Z   1
loop_
 _symmetry_equiv_pos_site_id
 _symmetry_equiv_pos_as_xyz
  1  'x, y, z'
loop_
 _atom_site_type_symbol
 _atom_site_label
 _atom_site_symmetry_multiplicity
 _atom_site_fract_x
 _atom_site_fract_y
 _atom_site_fract_z
 _atom_site_occupancy
  Sr  Sr0  1  0.748699  0.625435  0.378151  1
  Sr  Sr1  1  0.748820  0.123607  0.869444  1
  Sr  Sr2  1  0.251180  0.876393  0.130556  1
  Sr  Sr3  1  0.251301  0.374565  0.621849  1
  Zr  Zr4  1  0.500000  0.000000  0.500000  1
  Fe  Fe5  1  0.000079  0.251312  0.255089  1
  Fe  Fe6  1  0.999921  0.748688  0.744911  1
  W  W7  1  0.500000  0.500000  0.000000  1
  O  O8  1  0.744333  0.861636  0.118900  1
  O  O9  1  0.749060  0.381298  0.633014  1
  O  O10  1  0.250940  0.618702  0.366986  1
  O  O11  1  0.255667  0.138364  0.881100  1
  O  O12  1  0.193985  0.098206  0.389551  1
  O  O13  1  0.220956  0.605117  0.904507  1
  O  O14  1  0.806015  0.901794  0.610449  1
  O  O15  1  0.779044  0.394883  0.095493  1
  O  O16  1  0.701527  0.642232  0.860646  1
  O  O17  1  0.708242  0.154272  0.347086  1
  O  O18  1  0.291758  0.845728  0.652914  1
  O  O19  1  0.298473  0.357768  0.139354  1
