# generated using pymatgen
data_Zr24As5Se3
_symmetry_space_group_name_H-M   'P 1'
_cell_length_a   11.03071268
_cell_length_b   11.03552151
_cell_length_c   5.49836048
_cell_angle_alpha   89.86856809
_cell_angle_beta   90.00261433
_cell_angle_gamma   90.01403073
_symmetry_Int_Tables_number   1
_chemical_formula_structural   Zr24As5Se3
_chemical_formula_sum   'Zr24 As5 Se3'
_cell_volume   669.31180803
_cell_formula_units_Z   1
loop_
 _symmetry_equiv_pos_site_id
 _symmetry_equiv_pos_as_xyz
  1  'x, y, z'
loop_
 _atom_site_type_symbol
 _atom_site_label
 _atom_site_symmetry_multiplicity
 _atom_site_fract_x
 _atom_site_fract_y
 _atom_site_fract_z
 _atom_site_occupancy
  Zr  Zr0  1  0.895595  0.584177  0.039093  1
  Zr  Zr1  1  0.104486  0.415742  0.040319  1
  Zr  Zr2  1  0.915657  0.395658  0.540295  1
  Zr  Zr3  1  0.084395  0.604035  0.541005  1
  Zr  Zr4  1  0.602859  0.915240  0.461987  1
  Zr  Zr5  1  0.396698  0.084176  0.459888  1
  Zr  Zr6  1  0.584282  0.103844  0.959652  1
  Zr  Zr7  1  0.416549  0.895975  0.957895  1
  Zr  Zr8  1  0.860586  0.026607  0.716776  1
  Zr  Zr9  1  0.139289  0.974223  0.715828  1
  Zr  Zr10  1  0.473515  0.360840  0.215552  1
  Zr  Zr11  1  0.526663  0.640106  0.217346  1
  Zr  Zr12  1  0.640013  0.473558  0.784262  1
  Zr  Zr13  1  0.359805  0.526004  0.783787  1
  Zr  Zr14  1  0.026027  0.140215  0.284810  1
  Zr  Zr15  1  0.973809  0.860327  0.284508  1
  Zr  Zr16  1  0.284942  0.181220  0.986219  1
  Zr  Zr17  1  0.714653  0.819414  0.986374  1
  Zr  Zr18  1  0.319138  0.784841  0.487674  1
  Zr  Zr19  1  0.681036  0.215254  0.485500  1
  Zr  Zr20  1  0.214548  0.318160  0.512088  1
  Zr  Zr21  1  0.785071  0.680991  0.513718  1
  Zr  Zr22  1  0.181098  0.714541  0.012191  1
  Zr  Zr23  1  0.818743  0.285665  0.012366  1
  As  As24  1  0.539382  0.705484  0.712040  1
  As  As25  1  0.705995  0.460982  0.288693  1
  As  As26  1  0.294119  0.539623  0.289038  1
  As  As27  1  0.039194  0.206199  0.789180  1
  As  As28  1  0.960851  0.794067  0.788753  1
  Se  Se29  1  0.792525  0.039009  0.211463  1
  Se  Se30  1  0.207344  0.960839  0.211151  1
  Se  Se31  1  0.461133  0.292983  0.710553  1
