# generated using pymatgen
data_Ho3HfMg2Ir3
_symmetry_space_group_name_H-M   'P 1'
_cell_length_a   7.31907182
_cell_length_b   7.17124376
_cell_length_c   4.16848500
_cell_angle_alpha   90.00000000
_cell_angle_beta   90.00000000
_cell_angle_gamma   119.33408502
_symmetry_Int_Tables_number   1
_chemical_formula_structural   Ho3HfMg2Ir3
_chemical_formula_sum   'Ho3 Hf1 Mg2 Ir3'
_cell_volume   190.73686296
_cell_formula_units_Z   1
loop_
 _symmetry_equiv_pos_site_id
 _symmetry_equiv_pos_as_xyz
  1  'x, y, z'
loop_
 _atom_site_type_symbol
 _atom_site_label
 _atom_site_symmetry_multiplicity
 _atom_site_fract_x
 _atom_site_fract_y
 _atom_site_fract_z
 _atom_site_occupancy
  Ho  Ho0  1  0.582022  0.587013  0.000000  1
  Ho  Ho1  1  0.417978  0.004991  0.000000  1
  Ho  Ho2  1  0.000000  0.396658  0.000000  1
  Hf  Hf3  1  0.000000  0.752478  0.500000  1
  Mg  Mg4  1  0.251331  0.250135  0.500000  1
  Mg  Mg5  1  0.748669  0.998803  0.500000  1
  Ir  Ir6  1  0.000000  0.980647  0.000000  1
  Ir  Ir7  1  0.678938  0.354107  0.500000  1
  Ir  Ir8  1  0.321062  0.675170  0.500000  1
