# generated using pymatgen
data_LiTm6Lu4In7
_symmetry_space_group_name_H-M   'P 1'
_cell_length_a   9.12478200
_cell_length_b   9.12478199
_cell_length_c   6.54996200
_cell_angle_alpha   90.00000000
_cell_angle_beta   90.00000000
_cell_angle_gamma   120.00000005
_symmetry_Int_Tables_number   1
_chemical_formula_structural   LiTm6Lu4In7
_chemical_formula_sum   'Li1 Tm6 Lu4 In7'
_cell_volume   472.29615100
_cell_formula_units_Z   1
loop_
 _symmetry_equiv_pos_site_id
 _symmetry_equiv_pos_as_xyz
  1  'x, y, z'
loop_
 _atom_site_type_symbol
 _atom_site_label
 _atom_site_symmetry_multiplicity
 _atom_site_fract_x
 _atom_site_fract_y
 _atom_site_fract_z
 _atom_site_occupancy
  Li  Li0  1  0.000000  0.000000  0.500000  1
  Tm  Tm1  1  0.293850  0.000000  0.749189  1
  Tm  Tm2  1  0.706150  0.000000  0.250811  1
  Tm  Tm3  1  0.000000  0.293850  0.749189  1
  Tm  Tm4  1  0.000000  0.706150  0.250811  1
  Tm  Tm5  1  0.706150  0.706150  0.749189  1
  Tm  Tm6  1  0.293850  0.293850  0.250811  1
  Lu  Lu7  1  0.333333  0.666667  0.500000  1
  Lu  Lu8  1  0.666667  0.333333  0.500000  1
  Lu  Lu9  1  0.666667  0.333333  0.000000  1
  Lu  Lu10  1  0.333333  0.666667  0.000000  1
  In  In11  1  0.000000  0.000000  0.000000  1
  In  In12  1  0.632693  0.000000  0.746864  1
  In  In13  1  0.367307  0.000000  0.253136  1
  In  In14  1  0.000000  0.632693  0.746864  1
  In  In15  1  0.000000  0.367307  0.253136  1
  In  In16  1  0.367307  0.367307  0.746864  1
  In  In17  1  0.632693  0.632693  0.253136  1
