# generated using pymatgen
data_Yb2IrC2
_symmetry_space_group_name_H-M   'P 1'
_cell_length_a   4.55572200
_cell_length_b   4.55572201
_cell_length_c   5.18863800
_cell_angle_alpha   90.00000000
_cell_angle_beta   90.00000000
_cell_angle_gamma   119.99999990
_symmetry_Int_Tables_number   1
_chemical_formula_structural   Yb2IrC2
_chemical_formula_sum   'Yb2 Ir1 C2'
_cell_volume   93.26064927
_cell_formula_units_Z   1
loop_
 _symmetry_equiv_pos_site_id
 _symmetry_equiv_pos_as_xyz
  1  'x, y, z'
loop_
 _atom_site_type_symbol
 _atom_site_label
 _atom_site_symmetry_multiplicity
 _atom_site_fract_x
 _atom_site_fract_y
 _atom_site_fract_z
 _atom_site_occupancy
  Yb  Yb0  1  0.333333  0.666667  0.245687  1
  Yb  Yb1  1  0.666667  0.333333  0.754313  1
  Ir  Ir2  1  0.000000  0.000000  0.000000  1
  C  C3  1  0.000000  0.000000  0.375197  1
  C  C4  1  0.000000  0.000000  0.624803  1
