# generated using pymatgen
data_Ho4Al11Co2Si7Os4
_symmetry_space_group_name_H-M   'P 1'
_cell_length_a   7.43141999
_cell_length_b   7.37793660
_cell_length_c   9.27052340
_cell_angle_alpha   90.12666651
_cell_angle_beta   90.22417083
_cell_angle_gamma   119.91377703
_symmetry_Int_Tables_number   1
_chemical_formula_structural   Ho4Al11Co2Si7Os4
_chemical_formula_sum   'Ho4 Al11 Co2 Si7 Os4'
_cell_volume   440.56496519
_cell_formula_units_Z   1
loop_
 _symmetry_equiv_pos_site_id
 _symmetry_equiv_pos_as_xyz
  1  'x, y, z'
loop_
 _atom_site_type_symbol
 _atom_site_label
 _atom_site_symmetry_multiplicity
 _atom_site_fract_x
 _atom_site_fract_y
 _atom_site_fract_z
 _atom_site_occupancy
  Ho  Ho0  1  0.999284  0.669601  0.253125  1
  Ho  Ho1  1  0.007267  0.334633  0.749106  1
  Ho  Ho2  1  0.681291  0.007321  0.251828  1
  Ho  Ho3  1  0.311685  0.990572  0.746538  1
  Al  Al4  1  0.660253  0.000140  0.574637  1
  Al  Al5  1  0.659359  0.994359  0.923187  1
  Al  Al6  1  0.340759  0.006464  0.072427  1
  Al  Al7  1  0.341384  0.339479  0.555975  1
  Al  Al8  1  0.661845  0.664367  0.441229  1
  Al  Al9  1  0.660011  0.664882  0.060433  1
  Al  Al10  1  0.341802  0.336441  0.940667  1
  Al  Al11  1  0.330621  0.548124  0.255871  1
  Al  Al12  1  0.668609  0.448010  0.745021  1
  Al  Al13  1  0.548545  0.337466  0.256283  1
  Al  Al14  1  0.449962  0.661757  0.744149  1
  Co  Co15  1  0.308494  0.669915  0.499872  1
  Co  Co16  1  0.683303  0.331627  0.497652  1
  Si  Si17  1  0.132456  0.128337  0.250626  1
  Si  Si18  1  0.865928  0.874076  0.748332  1
  Si  Si19  1  0.004222  0.331690  0.065247  1
  Si  Si20  1  0.995733  0.667360  0.935773  1
  Si  Si21  1  0.992068  0.655119  0.567894  1
  Si  Si22  1  0.345587  0.002298  0.429299  1
  Si  Si23  1  0.000773  0.337769  0.433625  1
  Os  Os24  1  0.688104  0.336038  0.003466  1
  Os  Os25  1  0.312202  0.663886  0.999055  1
  Os  Os26  1  0.000525  0.999913  0.000147  1
  Os  Os27  1  0.007931  0.998356  0.498538  1
