# generated using pymatgen
data_Lu2ZrScBeB7Ru10
_symmetry_space_group_name_H-M   'P 1'
_cell_length_a   3.04658000
_cell_length_b   8.59829350
_cell_length_c   10.17839200
_cell_angle_alpha   90.46609220
_cell_angle_beta   90.00000000
_cell_angle_gamma   90.00000000
_symmetry_Int_Tables_number   1
_chemical_formula_structural   Lu2ZrScBeB7Ru10
_chemical_formula_sum   'Lu2 Zr1 Sc1 Be1 B7 Ru10'
_cell_volume   266.61811581
_cell_formula_units_Z   1
loop_
 _symmetry_equiv_pos_site_id
 _symmetry_equiv_pos_as_xyz
  1  'x, y, z'
loop_
 _atom_site_type_symbol
 _atom_site_label
 _atom_site_symmetry_multiplicity
 _atom_site_fract_x
 _atom_site_fract_y
 _atom_site_fract_z
 _atom_site_occupancy
  Lu  Lu0  1  0.500000  0.840444  0.183482  1
  Lu  Lu1  1  0.500000  0.158581  0.819343  1
  Zr  Zr2  1  0.500000  0.658161  0.681261  1
  Sc  Sc3  1  0.500000  0.342018  0.320400  1
  Be  Be4  1  0.500000  0.965010  0.588950  1
  B  B5  1  0.500000  0.039528  0.407180  1
  B  B6  1  0.500000  0.851001  0.900289  1
  B  B7  1  0.500000  0.148986  0.101621  1
  B  B8  1  0.500000  0.649896  0.399268  1
  B  B9  1  0.500000  0.350270  0.597117  1
  B  B10  1  0.500000  0.465579  0.911529  1
  B  B11  1  0.500000  0.531441  0.089928  1
  Ru  Ru12  1  0.000000  0.657545  0.955831  1
  Ru  Ru13  1  0.000000  0.339629  0.045952  1
  Ru  Ru14  1  0.000000  0.837799  0.445738  1
  Ru  Ru15  1  0.000000  0.168067  0.543206  1
  Ru  Ru16  1  0.000000  0.000152  0.002197  1
  Ru  Ru17  1  0.000000  0.408846  0.759753  1
  Ru  Ru18  1  0.000000  0.586806  0.239411  1
  Ru  Ru19  1  0.000000  0.502020  0.499916  1
  Ru  Ru20  1  0.000000  0.896870  0.746242  1
  Ru  Ru21  1  0.000000  0.101349  0.261386  1
