# generated using pymatgen
data_LaTbYb6(Si3Pd)4
_symmetry_space_group_name_H-M   'P 1'
_cell_length_a   8.26457900
_cell_length_b   8.26457757
_cell_length_c   8.30033600
_cell_angle_alpha   90.00000000
_cell_angle_beta   90.00000000
_cell_angle_gamma   120.00000173
_symmetry_Int_Tables_number   1
_chemical_formula_structural   LaTbYb6(Si3Pd)4
_chemical_formula_sum   'La1 Tb1 Yb6 Si12 Pd4'
_cell_volume   490.98439905
_cell_formula_units_Z   1
loop_
 _symmetry_equiv_pos_site_id
 _symmetry_equiv_pos_as_xyz
  1  'x, y, z'
loop_
 _atom_site_type_symbol
 _atom_site_label
 _atom_site_symmetry_multiplicity
 _atom_site_fract_x
 _atom_site_fract_y
 _atom_site_fract_z
 _atom_site_occupancy
  La  La0  1  0.000000  0.000000  0.250000  1
  Tb  Tb1  1  0.000000  0.000000  0.750000  1
  Yb  Yb2  1  0.501551  0.003101  0.250000  1
  Yb  Yb3  1  0.498362  0.996725  0.750000  1
  Yb  Yb4  1  0.996899  0.498449  0.250000  1
  Yb  Yb5  1  0.003275  0.501638  0.750000  1
  Yb  Yb6  1  0.501551  0.498449  0.250000  1
  Yb  Yb7  1  0.498362  0.501638  0.750000  1
  Si  Si8  1  0.165085  0.330169  0.997320  1
  Si  Si9  1  0.834943  0.669886  0.994361  1
  Si  Si10  1  0.669831  0.834915  0.997320  1
  Si  Si11  1  0.834943  0.669886  0.505639  1
  Si  Si12  1  0.330114  0.165057  0.994361  1
  Si  Si13  1  0.165085  0.330169  0.502680  1
  Si  Si14  1  0.165085  0.834915  0.997320  1
  Si  Si15  1  0.330114  0.165057  0.505639  1
  Si  Si16  1  0.834943  0.165057  0.994361  1
  Si  Si17  1  0.669831  0.834915  0.502680  1
  Si  Si18  1  0.834943  0.165057  0.505639  1
  Si  Si19  1  0.165085  0.834915  0.502680  1
  Pd  Pd20  1  0.333333  0.666667  0.002014  1
  Pd  Pd21  1  0.666667  0.333333  0.996483  1
  Pd  Pd22  1  0.666667  0.333333  0.503517  1
  Pd  Pd23  1  0.333333  0.666667  0.497986  1
