# generated using pymatgen
data_YbDyTh2(Al3Re)2
_symmetry_space_group_name_H-M   'P 1'
_cell_length_a   5.57624400
_cell_length_b   5.57624367
_cell_length_c   9.00642100
_cell_angle_alpha   90.00000000
_cell_angle_beta   90.00000000
_cell_angle_gamma   120.00001384
_symmetry_Int_Tables_number   1
_chemical_formula_structural   YbDyTh2(Al3Re)2
_chemical_formula_sum   'Yb1 Dy1 Th2 Al6 Re2'
_cell_volume   242.53048043
_cell_formula_units_Z   1
loop_
 _symmetry_equiv_pos_site_id
 _symmetry_equiv_pos_as_xyz
  1  'x, y, z'
loop_
 _atom_site_type_symbol
 _atom_site_label
 _atom_site_symmetry_multiplicity
 _atom_site_fract_x
 _atom_site_fract_y
 _atom_site_fract_z
 _atom_site_occupancy
  Yb  Yb0  1  0.333333  0.666667  0.444730  1
  Dy  Dy1  1  0.666667  0.333333  0.550680  1
  Th  Th2  1  0.666667  0.333333  0.956747  1
  Th  Th3  1  0.333333  0.666667  0.043518  1
  Al  Al4  1  0.838686  0.161314  0.255884  1
  Al  Al5  1  0.838686  0.677371  0.255884  1
  Al  Al6  1  0.322629  0.161314  0.255884  1
  Al  Al7  1  0.160526  0.839474  0.745038  1
  Al  Al8  1  0.160526  0.321053  0.745038  1
  Al  Al9  1  0.678947  0.839474  0.745038  1
  Re  Re10  1  0.000000  0.000000  0.500221  1
  Re  Re11  1  0.000000  0.000000  0.001336  1
