# generated using pymatgen
data_Pr5NbFeO12
_symmetry_space_group_name_H-M   'P 1'
_cell_length_a   7.08119008
_cell_length_b   7.08119076
_cell_length_c   7.74517615
_cell_angle_alpha   74.29190077
_cell_angle_beta   74.29189813
_cell_angle_gamma   51.33008872
_symmetry_Int_Tables_number   1
_chemical_formula_structural   Pr5NbFeO12
_chemical_formula_sum   'Pr5 Nb1 Fe1 O12'
_cell_volume   289.21993890
_cell_formula_units_Z   1
loop_
 _symmetry_equiv_pos_site_id
 _symmetry_equiv_pos_as_xyz
  1  'x, y, z'
loop_
 _atom_site_type_symbol
 _atom_site_label
 _atom_site_symmetry_multiplicity
 _atom_site_fract_x
 _atom_site_fract_y
 _atom_site_fract_z
 _atom_site_occupancy
  Pr  Pr0  1  0.311987  0.302761  0.358814  1
  Pr  Pr1  1  0.697239  0.688013  0.641186  1
  Pr  Pr2  1  0.697303  0.688073  0.167732  1
  Pr  Pr3  1  0.311927  0.302697  0.832268  1
  Pr  Pr4  1  0.999415  0.000585  0.500000  1
  Nb  Nb5  1  0.215105  0.784895  0.000000  1
  Fe  Fe6  1  0.733263  0.266737  0.000000  1
  O  O7  1  0.097952  0.590720  0.580981  1
  O  O8  1  0.001962  0.995154  0.183373  1
  O  O9  1  0.409280  0.902048  0.419019  1
  O  O10  1  0.499564  0.502649  0.175677  1
  O  O11  1  0.105971  0.570062  0.078485  1
  O  O12  1  0.907513  0.402082  0.422135  1
  O  O13  1  0.004846  0.998038  0.816627  1
  O  O14  1  0.597918  0.092486  0.577865  1
  O  O15  1  0.497351  0.500436  0.824323  1
  O  O16  1  0.587927  0.106459  0.076304  1
  O  O17  1  0.429938  0.894029  0.921515  1
  O  O18  1  0.893541  0.412073  0.923696  1
