# generated using pymatgen
data_Dy7Y13(CoBi2)4
_symmetry_space_group_name_H-M   'P 1'
_cell_length_a   8.02154101
_cell_length_b   8.86470103
_cell_length_c   12.42898604
_cell_angle_alpha   89.99162879
_cell_angle_beta   89.99668343
_cell_angle_gamma   90.00257824
_symmetry_Int_Tables_number   1
_chemical_formula_structural   Dy7Y13(CoBi2)4
_chemical_formula_sum   'Dy7 Y13 Co4 Bi8'
_cell_volume   883.80732219
_cell_formula_units_Z   1
loop_
 _symmetry_equiv_pos_site_id
 _symmetry_equiv_pos_as_xyz
  1  'x, y, z'
loop_
 _atom_site_type_symbol
 _atom_site_label
 _atom_site_symmetry_multiplicity
 _atom_site_fract_x
 _atom_site_fract_y
 _atom_site_fract_z
 _atom_site_occupancy
  Dy  Dy0  1  0.324973  0.965024  0.436244  1
  Dy  Dy1  1  0.174966  0.965094  0.936303  1
  Dy  Dy2  1  0.324996  0.534876  0.436285  1
  Dy  Dy3  1  0.825013  0.034841  0.063721  1
  Dy  Dy4  1  0.674948  0.465258  0.563727  1
  Dy  Dy5  1  0.825011  0.465159  0.063715  1
  Dy  Dy6  1  0.174973  0.534905  0.936284  1
  Y  Y7  1  0.845777  0.749974  0.800441  1
  Y  Y8  1  0.154216  0.250023  0.199584  1
  Y  Y9  1  0.345732  0.250112  0.699597  1
  Y  Y10  1  0.654209  0.749994  0.300476  1
  Y  Y11  1  0.377589  0.749936  0.689594  1
  Y  Y12  1  0.622423  0.250020  0.310346  1
  Y  Y13  1  0.877560  0.250054  0.810368  1
  Y  Y14  1  0.122412  0.749992  0.189644  1
  Y  Y15  1  0.953044  0.749796  0.502419  1
  Y  Y16  1  0.047322  0.250153  0.497470  1
  Y  Y17  1  0.452847  0.250002  0.997521  1
  Y  Y18  1  0.547165  0.749992  0.002475  1
  Y  Y19  1  0.675574  0.034970  0.564051  1
  Co  Co20  1  0.561029  0.749469  0.508145  1
  Co  Co21  1  0.438451  0.250287  0.491650  1
  Co  Co22  1  0.061217  0.250005  0.991741  1
  Co  Co23  1  0.938783  0.749996  0.008253  1
  Bi  Bi24  1  0.568818  0.492452  0.826046  1
  Bi  Bi25  1  0.431168  0.507569  0.173951  1
  Bi  Bi26  1  0.068806  0.507580  0.673966  1
  Bi  Bi27  1  0.431184  0.992448  0.173946  1
  Bi  Bi28  1  0.931173  0.492428  0.326033  1
  Bi  Bi29  1  0.568774  0.007573  0.826034  1
  Bi  Bi30  1  0.931152  0.007572  0.326071  1
  Bi  Bi31  1  0.068698  0.992447  0.673898  1
