# generated using pymatgen
data_KBa7Sr4Pr4(Fe4O15)2
_symmetry_space_group_name_H-M   'P 1'
_cell_length_a   11.85332482
_cell_length_b   11.85332459
_cell_length_c   7.07027300
_cell_angle_alpha   89.90942068
_cell_angle_beta   89.90941102
_cell_angle_gamma   119.88149533
_symmetry_Int_Tables_number   1
_chemical_formula_structural   KBa7Sr4Pr4(Fe4O15)2
_chemical_formula_sum   'K1 Ba7 Sr4 Pr4 Fe8 O30'
_cell_volume   861.31573600
_cell_formula_units_Z   1
loop_
 _symmetry_equiv_pos_site_id
 _symmetry_equiv_pos_as_xyz
  1  'x, y, z'
loop_
 _atom_site_type_symbol
 _atom_site_label
 _atom_site_symmetry_multiplicity
 _atom_site_fract_x
 _atom_site_fract_y
 _atom_site_fract_z
 _atom_site_occupancy
  K  K0  1  0.666781  0.331756  0.981845  1
  Ba  Ba1  1  0.331263  0.666870  0.477626  1
  Ba  Ba2  1  0.345521  0.170246  0.668481  1
  Ba  Ba3  1  0.829921  0.655464  0.663495  1
  Ba  Ba4  1  0.826691  0.173782  0.665064  1
  Ba  Ba5  1  0.658069  0.830997  0.160623  1
  Ba  Ba6  1  0.168322  0.342369  0.165974  1
  Ba  Ba7  1  0.171725  0.827925  0.161824  1
  Sr  Sr8  1  0.000010  0.000164  0.480759  1
  Sr  Sr9  1  0.000104  0.000194  0.981388  1
  Sr  Sr10  1  0.953253  0.476906  0.326448  1
  Sr  Sr11  1  0.478916  0.956422  0.828036  1
  Pr  Pr12  1  0.523260  0.047415  0.322291  1
  Pr  Pr13  1  0.522596  0.475951  0.327811  1
  Pr  Pr14  1  0.042555  0.521136  0.827924  1
  Pr  Pr15  1  0.478535  0.521574  0.830431  1
  Fe  Fe16  1  0.352151  0.177669  0.159533  1
  Fe  Fe17  1  0.822188  0.644349  0.154817  1
  Fe  Fe18  1  0.824278  0.179213  0.157631  1
  Fe  Fe19  1  0.646126  0.823050  0.654588  1
  Fe  Fe20  1  0.177524  0.351467  0.661398  1
  Fe  Fe21  1  0.178943  0.825276  0.658696  1
  Fe  Fe22  1  0.669398  0.336662  0.526736  1
  Fe  Fe23  1  0.335120  0.668216  0.020933  1
  O  O24  1  0.604459  0.667122  0.523512  1
  O  O25  1  0.066083  0.395192  0.533395  1
  O  O26  1  0.327878  0.936461  0.511916  1
  O  O27  1  0.333337  0.395700  0.526354  1
  O  O28  1  0.608233  0.934750  0.510782  1
  O  O29  1  0.064142  0.671696  0.530727  1
  O  O30  1  0.390858  0.333199  0.027155  1
  O  O31  1  0.938786  0.614049  0.010680  1
  O  O32  1  0.671556  0.059583  0.032593  1
  O  O33  1  0.667532  0.608356  0.025299  1
  O  O34  1  0.389873  0.060730  0.034515  1
  O  O35  1  0.940689  0.326051  0.011064  1
  O  O36  1  0.832181  0.416856  0.662127  1
  O  O37  1  0.584572  0.170791  0.646454  1
  O  O38  1  0.581584  0.418374  0.655088  1
  O  O39  1  0.170494  0.584428  0.156010  1
  O  O40  1  0.415391  0.829072  0.168627  1
  O  O41  1  0.417549  0.583153  0.163124  1
  O  O42  1  0.491393  0.248470  0.340949  1
  O  O43  1  0.746489  0.504535  0.338766  1
  O  O44  1  0.747796  0.244170  0.337193  1
  O  O45  1  0.503212  0.745423  0.834000  1
  O  O46  1  0.250861  0.495078  0.838518  1
  O  O47  1  0.246142  0.746470  0.833375  1
  O  O48  1  0.816404  0.907229  0.747287  1
  O  O49  1  0.093308  0.179518  0.746341  1
  O  O50  1  0.095548  0.913011  0.749312  1
  O  O51  1  0.179812  0.093320  0.246543  1
  O  O52  1  0.906738  0.815111  0.247968  1
  O  O53  1  0.912679  0.095852  0.249550  1
