# generated using pymatgen
data_Sc6Ti7Ga9Rh8
_symmetry_space_group_name_H-M   'P 1'
_cell_length_a   8.89411155
_cell_length_b   8.89411013
_cell_length_c   8.89411200
_cell_angle_alpha   59.98603732
_cell_angle_beta   59.98604258
_cell_angle_gamma   59.98605422
_symmetry_Int_Tables_number   1
_chemical_formula_structural   Sc6Ti7Ga9Rh8
_chemical_formula_sum   'Sc6 Ti7 Ga9 Rh8'
_cell_volume   497.34210250
_cell_formula_units_Z   1
loop_
 _symmetry_equiv_pos_site_id
 _symmetry_equiv_pos_as_xyz
  1  'x, y, z'
loop_
 _atom_site_type_symbol
 _atom_site_label
 _atom_site_symmetry_multiplicity
 _atom_site_fract_x
 _atom_site_fract_y
 _atom_site_fract_z
 _atom_site_occupancy
  Sc  Sc0  1  0.212360  0.212360  0.789889  1
  Sc  Sc1  1  0.789889  0.212360  0.212360  1
  Sc  Sc2  1  0.212360  0.789889  0.212360  1
  Sc  Sc3  1  0.795144  0.795144  0.191114  1
  Sc  Sc4  1  0.191114  0.795144  0.795144  1
  Sc  Sc5  1  0.795144  0.191114  0.795144  1
  Ti  Ti6  1  0.377199  0.377199  0.377199  1
  Ti  Ti7  1  0.379857  0.865936  0.379857  1
  Ti  Ti8  1  0.865936  0.379857  0.379857  1
  Ti  Ti9  1  0.379857  0.379857  0.865936  1
  Ti  Ti10  1  0.834509  0.495855  0.834509  1
  Ti  Ti11  1  0.495855  0.834509  0.834509  1
  Ti  Ti12  1  0.834509  0.834509  0.495855  1
  Ga  Ga13  1  0.164321  0.164321  0.164321  1
  Ga  Ga14  1  0.162187  0.516420  0.162187  1
  Ga  Ga15  1  0.516420  0.162187  0.162187  1
  Ga  Ga16  1  0.162187  0.162187  0.516420  1
  Ga  Ga17  1  0.618599  0.618599  0.618599  1
  Ga  Ga18  1  0.616480  0.146352  0.616480  1
  Ga  Ga19  1  0.146352  0.616480  0.616480  1
  Ga  Ga20  1  0.616480  0.616480  0.146352  1
  Ga  Ga21  1  0.828047  0.828047  0.828047  1
  Rh  Rh22  1  0.002222  0.002222  0.491982  1
  Rh  Rh23  1  0.491982  0.002222  0.002222  1
  Rh  Rh24  1  0.002222  0.491982  0.002222  1
  Rh  Rh25  1  0.502758  0.502758  0.998588  1
  Rh  Rh26  1  0.998588  0.502758  0.502758  1
  Rh  Rh27  1  0.502758  0.998588  0.502758  1
  Rh  Rh28  1  0.500379  0.500379  0.500379  1
  Rh  Rh29  1  0.004281  0.004281  0.004281  1
