# generated using pymatgen
data_TiMn7Nb3Si
_symmetry_space_group_name_H-M   'P 1'
_cell_length_a   4.83269400
_cell_length_b   4.83269296
_cell_length_c   7.85347700
_cell_angle_alpha   90.00000000
_cell_angle_beta   90.00000000
_cell_angle_gamma   120.00002078
_symmetry_Int_Tables_number   1
_chemical_formula_structural   TiMn7Nb3Si
_chemical_formula_sum   'Ti1 Mn7 Nb3 Si1'
_cell_volume   158.84407428
_cell_formula_units_Z   1
loop_
 _symmetry_equiv_pos_site_id
 _symmetry_equiv_pos_as_xyz
  1  'x, y, z'
loop_
 _atom_site_type_symbol
 _atom_site_label
 _atom_site_symmetry_multiplicity
 _atom_site_fract_x
 _atom_site_fract_y
 _atom_site_fract_z
 _atom_site_occupancy
  Ti  Ti0  1  0.333333  0.666667  0.442216  1
  Mn  Mn1  1  0.170853  0.341705  0.746808  1
  Mn  Mn2  1  0.829949  0.170051  0.253299  1
  Mn  Mn3  1  0.340102  0.170051  0.253299  1
  Mn  Mn4  1  0.658295  0.829147  0.746808  1
  Mn  Mn5  1  0.000000  0.000000  0.499681  1
  Mn  Mn6  1  0.829949  0.659898  0.253299  1
  Mn  Mn7  1  0.170853  0.829147  0.746808  1
  Nb  Nb8  1  0.666667  0.333333  0.931892  1
  Nb  Nb9  1  0.666667  0.333333  0.555948  1
  Nb  Nb10  1  0.333333  0.666667  0.070601  1
  Si  Si11  1  0.000000  0.000000  0.999343  1
