# generated using pymatgen
data_DyEr7(Sc3Sn4)4
_symmetry_space_group_name_H-M   'P 1'
_cell_length_a   7.66160909
_cell_length_b   7.95213050
_cell_length_c   14.79909750
_cell_angle_alpha   90.00112218
_cell_angle_beta   90.02157828
_cell_angle_gamma   89.98389219
_symmetry_Int_Tables_number   1
_chemical_formula_structural   DyEr7(Sc3Sn4)4
_chemical_formula_sum   'Dy1 Er7 Sc12 Sn16'
_cell_volume   901.65142172
_cell_formula_units_Z   1
loop_
 _symmetry_equiv_pos_site_id
 _symmetry_equiv_pos_as_xyz
  1  'x, y, z'
loop_
 _atom_site_type_symbol
 _atom_site_label
 _atom_site_symmetry_multiplicity
 _atom_site_fract_x
 _atom_site_fract_y
 _atom_site_fract_z
 _atom_site_occupancy
  Dy  Dy0  1  0.503048  0.676692  0.593829  1
  Er  Er1  1  0.996547  0.177165  0.094008  1
  Er  Er2  1  0.003593  0.822894  0.906355  1
  Er  Er3  1  0.503680  0.677026  0.905872  1
  Er  Er4  1  0.003404  0.822977  0.594097  1
  Er  Er5  1  0.496376  0.322982  0.093998  1
  Er  Er6  1  0.996066  0.177268  0.405576  1
  Er  Er7  1  0.496550  0.322769  0.405676  1
  Sc  Sc8  1  0.162318  0.496372  0.750198  1
  Sc  Sc9  1  0.837866  0.503421  0.249874  1
  Sc  Sc10  1  0.337775  0.996792  0.249867  1
  Sc  Sc11  1  0.662403  0.003195  0.750099  1
  Sc  Sc12  1  0.334249  0.161195  0.627074  1
  Sc  Sc13  1  0.666033  0.839126  0.372792  1
  Sc  Sc14  1  0.165716  0.661525  0.372800  1
  Sc  Sc15  1  0.665709  0.838518  0.127054  1
  Sc  Sc16  1  0.834393  0.338512  0.627279  1
  Sc  Sc17  1  0.334334  0.161325  0.873164  1
  Sc  Sc18  1  0.834429  0.338591  0.873130  1
  Sc  Sc19  1  0.165754  0.661285  0.127107  1
  Sn  Sn20  1  0.024815  0.123811  0.750218  1
  Sn  Sn21  1  0.975361  0.876380  0.249782  1
  Sn  Sn22  1  0.475401  0.623842  0.250061  1
  Sn  Sn23  1  0.524844  0.375670  0.750088  1
  Sn  Sn24  1  0.305014  0.848787  0.750423  1
  Sn  Sn25  1  0.694397  0.151802  0.249819  1
  Sn  Sn26  1  0.194478  0.348493  0.249899  1
  Sn  Sn27  1  0.806103  0.651500  0.750380  1
  Sn  Sn28  1  0.179659  0.457480  0.542238  1
  Sn  Sn29  1  0.819488  0.541685  0.457344  1
  Sn  Sn30  1  0.318535  0.958587  0.457449  1
  Sn  Sn31  1  0.818936  0.541827  0.042465  1
  Sn  Sn32  1  0.681336  0.042504  0.542252  1
  Sn  Sn33  1  0.181338  0.458189  0.957637  1
  Sn  Sn34  1  0.681064  0.041931  0.957664  1
  Sn  Sn35  1  0.318990  0.957880  0.042433  1
