# generated using pymatgen
data_Tb10Y6Cd4TcNi3
_symmetry_space_group_name_H-M   'P 1'
_cell_length_a   9.66774071
_cell_length_b   9.66774221
_cell_length_c   9.66774124
_cell_angle_alpha   59.39412461
_cell_angle_beta   59.39411968
_cell_angle_gamma   59.39411801
_symmetry_Int_Tables_number   1
_chemical_formula_structural   Tb10Y6Cd4TcNi3
_chemical_formula_sum   'Tb10 Y6 Cd4 Tc1 Ni3'
_cell_volume   630.13020461
_cell_formula_units_Z   1
loop_
 _symmetry_equiv_pos_site_id
 _symmetry_equiv_pos_as_xyz
  1  'x, y, z'
loop_
 _atom_site_type_symbol
 _atom_site_label
 _atom_site_symmetry_multiplicity
 _atom_site_fract_x
 _atom_site_fract_y
 _atom_site_fract_z
 _atom_site_occupancy
  Tb  Tb0  1  0.597159  0.597159  0.597159  1
  Tb  Tb1  1  0.601309  0.601309  0.204211  1
  Tb  Tb2  1  0.601309  0.204211  0.601309  1
  Tb  Tb3  1  0.204211  0.601309  0.601309  1
  Tb  Tb4  1  0.060921  0.438122  0.438122  1
  Tb  Tb5  1  0.438281  0.060381  0.060381  1
  Tb  Tb6  1  0.438122  0.060921  0.438122  1
  Tb  Tb7  1  0.060381  0.438281  0.060381  1
  Tb  Tb8  1  0.438122  0.438122  0.060921  1
  Tb  Tb9  1  0.060381  0.060381  0.438281  1
  Y  Y10  1  0.186475  0.815259  0.815259  1
  Y  Y11  1  0.805697  0.189251  0.189251  1
  Y  Y12  1  0.815259  0.186475  0.815259  1
  Y  Y13  1  0.189251  0.805697  0.189251  1
  Y  Y14  1  0.815259  0.815259  0.186475  1
  Y  Y15  1  0.189251  0.189251  0.805697  1
  Cd  Cd16  1  0.829586  0.829586  0.829586  1
  Cd  Cd17  1  0.829577  0.829577  0.505553  1
  Cd  Cd18  1  0.829577  0.505553  0.829577  1
  Cd  Cd19  1  0.505553  0.829577  0.829577  1
  Tc  Tc20  1  0.393667  0.393667  0.393667  1
  Ni  Ni21  1  0.392554  0.392554  0.825543  1
  Ni  Ni22  1  0.392554  0.825543  0.392554  1
  Ni  Ni23  1  0.825543  0.392554  0.392554  1
