# generated using pymatgen
data_Yb3Ho15(ErIr6)2
_symmetry_space_group_name_H-M   'P 1'
_cell_length_a   10.82407475
_cell_length_b   10.86530447
_cell_length_c   6.32693502
_cell_angle_alpha   89.96014594
_cell_angle_beta   90.22231126
_cell_angle_gamma   90.01270488
_symmetry_Int_Tables_number   1
_chemical_formula_structural   Yb3Ho15(ErIr6)2
_chemical_formula_sum   'Yb3 Ho15 Er2 Ir12'
_cell_volume   744.08521177
_cell_formula_units_Z   1
loop_
 _symmetry_equiv_pos_site_id
 _symmetry_equiv_pos_as_xyz
  1  'x, y, z'
loop_
 _atom_site_type_symbol
 _atom_site_label
 _atom_site_symmetry_multiplicity
 _atom_site_fract_x
 _atom_site_fract_y
 _atom_site_fract_z
 _atom_site_occupancy
  Yb  Yb0  1  0.287979  0.086838  0.375229  1
  Yb  Yb1  1  0.289997  0.911732  0.875499  1
  Yb  Yb2  1  0.001453  0.999808  0.499177  1
  Ho  Ho3  1  0.708264  0.087479  0.879355  1
  Ho  Ho4  1  0.709972  0.914106  0.378939  1
  Ho  Ho5  1  0.587950  0.792183  0.877754  1
  Ho  Ho6  1  0.586902  0.207482  0.377303  1
  Ho  Ho7  1  0.412093  0.792828  0.378508  1
  Ho  Ho8  1  0.411222  0.207526  0.879198  1
  Ho  Ho9  1  0.209280  0.412961  0.623717  1
  Ho  Ho10  1  0.209695  0.588127  0.122927  1
  Ho  Ho11  1  0.790969  0.411259  0.120844  1
  Ho  Ho12  1  0.791278  0.587811  0.621416  1
  Ho  Ho13  1  0.912101  0.709085  0.122339  1
  Ho  Ho14  1  0.913361  0.289434  0.622917  1
  Ho  Ho15  1  0.086864  0.710183  0.620958  1
  Ho  Ho16  1  0.088428  0.291520  0.120552  1
  Ho  Ho17  1  0.000642  0.000415  0.999503  1
  Er  Er18  1  0.499981  0.499712  0.999092  1
  Er  Er19  1  0.499929  0.500262  0.499223  1
  Ir  Ir20  1  0.845941  0.156298  0.246290  1
  Ir  Ir21  1  0.845636  0.844148  0.754630  1
  Ir  Ir22  1  0.151313  0.161200  0.757871  1
  Ir  Ir23  1  0.150667  0.837669  0.248845  1
  Ir  Ir24  1  0.652284  0.346302  0.749010  1
  Ir  Ir25  1  0.651973  0.653984  0.250992  1
  Ir  Ir26  1  0.347800  0.350885  0.248395  1
  Ir  Ir27  1  0.347452  0.648924  0.745948  1
  Ir  Ir28  1  0.504290  0.000308  0.122101  1
  Ir  Ir29  1  0.504268  0.999586  0.621443  1
  Ir  Ir30  1  0.999999  0.500206  0.879635  1
  Ir  Ir31  1  0.000019  0.499739  0.380388  1
