# generated using pymatgen
data_Nd(BeAs)3
_symmetry_space_group_name_H-M   'P 1'
_cell_length_a   3.84116200
_cell_length_b   10.85413100
_cell_length_c   11.86435300
_cell_angle_alpha   90.00000000
_cell_angle_beta   90.00000000
_cell_angle_gamma   90.00000000
_symmetry_Int_Tables_number   1
_chemical_formula_structural   Nd(BeAs)3
_chemical_formula_sum   'Nd4 Be12 As12'
_cell_volume   494.65424725
_cell_formula_units_Z   4
loop_
 _symmetry_equiv_pos_site_id
 _symmetry_equiv_pos_as_xyz
  1  'x, y, z'
loop_
 _atom_site_type_symbol
 _atom_site_label
 _atom_site_symmetry_multiplicity
 _atom_site_fract_x
 _atom_site_fract_y
 _atom_site_fract_z
 _atom_site_occupancy
  Nd  Nd0  1  0.750000  0.944696  0.337881  1
  Nd  Nd1  1  0.250000  0.444696  0.162119  1
  Nd  Nd2  1  0.750000  0.555304  0.837881  1
  Nd  Nd3  1  0.250000  0.055304  0.662119  1
  Be  Be4  1  0.750000  0.242371  0.455097  1
  Be  Be5  1  0.250000  0.742371  0.044903  1
  Be  Be6  1  0.750000  0.257629  0.955097  1
  Be  Be7  1  0.250000  0.757629  0.544903  1
  Be  Be8  1  0.750000  0.645372  0.285977  1
  Be  Be9  1  0.250000  0.145372  0.214023  1
  Be  Be10  1  0.750000  0.854628  0.785977  1
  Be  Be11  1  0.250000  0.354628  0.714023  1
  Be  Be12  1  0.750000  0.036978  0.063504  1
  Be  Be13  1  0.250000  0.536978  0.436496  1
  Be  Be14  1  0.750000  0.463022  0.563504  1
  Be  Be15  1  0.250000  0.963022  0.936496  1
  As  As16  1  0.750000  0.438077  0.370134  1
  As  As17  1  0.250000  0.938077  0.129866  1
  As  As18  1  0.750000  0.061923  0.870134  1
  As  As19  1  0.250000  0.561923  0.629866  1
  As  As20  1  0.750000  0.228051  0.145588  1
  As  As21  1  0.250000  0.728051  0.354412  1
  As  As22  1  0.750000  0.271949  0.645588  1
  As  As23  1  0.250000  0.771949  0.854412  1
  As  As24  1  0.750000  0.640642  0.091477  1
  As  As25  1  0.250000  0.140642  0.408523  1
  As  As26  1  0.750000  0.859358  0.591477  1
  As  As27  1  0.250000  0.359358  0.908523  1
