# generated using pymatgen
data_ErFe2(CoB2)2
_symmetry_space_group_name_H-M   'P 1'
_cell_length_a   6.92287200
_cell_length_b   6.92287200
_cell_length_c   3.81794700
_cell_angle_alpha   90.00000000
_cell_angle_beta   90.00000000
_cell_angle_gamma   90.00000000
_symmetry_Int_Tables_number   1
_chemical_formula_structural   ErFe2(CoB2)2
_chemical_formula_sum   'Er2 Fe4 Co4 B8'
_cell_volume   182.97952630
_cell_formula_units_Z   2
loop_
 _symmetry_equiv_pos_site_id
 _symmetry_equiv_pos_as_xyz
  1  'x, y, z'
loop_
 _atom_site_type_symbol
 _atom_site_label
 _atom_site_symmetry_multiplicity
 _atom_site_fract_x
 _atom_site_fract_y
 _atom_site_fract_z
 _atom_site_occupancy
  Er  Er0  1  0.000000  0.000000  0.999666  1
  Er  Er1  1  0.500000  0.500000  0.499666  1
  Fe  Fe2  1  0.632948  0.116307  0.392014  1
  Fe  Fe3  1  0.367052  0.883693  0.392014  1
  Fe  Fe4  1  0.616307  0.867052  0.892014  1
  Fe  Fe5  1  0.383693  0.132948  0.892014  1
  Co  Co6  1  0.861991  0.382233  0.110710  1
  Co  Co7  1  0.138009  0.617767  0.110710  1
  Co  Co8  1  0.882233  0.638009  0.610710  1
  Co  Co9  1  0.117767  0.361991  0.610710  1
  B  B10  1  0.333815  0.802587  0.892250  1
  B  B11  1  0.666185  0.197413  0.892250  1
  B  B12  1  0.302587  0.166185  0.392250  1
  B  B13  1  0.697413  0.833815  0.392250  1
  B  B14  1  0.164455  0.701071  0.605192  1
  B  B15  1  0.835545  0.298929  0.605192  1
  B  B16  1  0.201071  0.335545  0.105192  1
  B  B17  1  0.798929  0.664455  0.105192  1
