# generated using pymatgen
data_Hf8Co16Si5P7
_symmetry_space_group_name_H-M   'P 1'
_cell_length_a   12.16274452
_cell_length_b   12.17630845
_cell_length_c   3.64144800
_cell_angle_alpha   90.00000000
_cell_angle_beta   90.00000000
_cell_angle_gamma   120.03690359
_symmetry_Int_Tables_number   1
_chemical_formula_structural   Hf8Co16Si5P7
_chemical_formula_sum   'Hf8 Co16 Si5 P7'
_cell_volume   466.86396165
_cell_formula_units_Z   1
loop_
 _symmetry_equiv_pos_site_id
 _symmetry_equiv_pos_as_xyz
  1  'x, y, z'
loop_
 _atom_site_type_symbol
 _atom_site_label
 _atom_site_symmetry_multiplicity
 _atom_site_fract_x
 _atom_site_fract_y
 _atom_site_fract_z
 _atom_site_occupancy
  Hf  Hf0  1  0.820106  0.818820  0.500000  1
  Hf  Hf1  1  0.441332  0.441126  0.000000  1
  Hf  Hf2  1  0.000000  0.179171  0.500000  1
  Hf  Hf3  1  0.558668  0.999794  0.000000  1
  Hf  Hf4  1  0.333084  0.666693  0.000000  1
  Hf  Hf5  1  0.666916  0.333608  0.000000  1
  Hf  Hf6  1  0.000000  0.557859  0.000000  1
  Hf  Hf7  1  0.179894  0.998714  0.500000  1
  Co  Co8  1  0.623512  0.821104  0.000000  1
  Co  Co9  1  0.376488  0.197592  0.000000  1
  Co  Co10  1  0.000000  0.722907  0.500000  1
  Co  Co11  1  0.281146  0.281317  0.500000  1
  Co  Co12  1  0.872599  0.357120  0.500000  1
  Co  Co13  1  0.718854  0.000171  0.500000  1
  Co  Co14  1  0.824474  0.627732  0.000000  1
  Co  Co15  1  0.175526  0.803259  0.000000  1
  Co  Co16  1  0.355454  0.871762  0.500000  1
  Co  Co17  1  0.127401  0.484522  0.500000  1
  Co  Co18  1  0.644546  0.516308  0.500000  1
  Co  Co19  1  0.000000  0.995711  0.000000  1
  Co  Co20  1  0.515975  0.643324  0.500000  1
  Co  Co21  1  0.484025  0.127350  0.500000  1
  Co  Co22  1  0.197926  0.376587  0.000000  1
  Co  Co23  1  0.802074  0.178662  0.000000  1
  Si  Si24  1  0.000000  0.346578  0.000000  1
  Si  Si25  1  0.176637  0.176650  0.000000  1
  Si  Si26  1  0.652369  0.652654  0.000000  1
  Si  Si27  1  0.823363  0.000012  0.000000  1
  Si  Si28  1  0.347631  0.000286  0.000000  1
  P  P29  1  0.825354  0.516677  0.500000  1
  P  P30  1  0.691509  0.175217  0.500000  1
  P  P31  1  0.516618  0.824818  0.500000  1
  P  P32  1  0.174646  0.691322  0.500000  1
  P  P33  1  0.483382  0.308201  0.500000  1
  P  P34  1  0.000000  0.822665  0.000000  1
  P  P35  1  0.308491  0.483707  0.500000  1
