# generated using pymatgen
data_Dy2TcC2
_symmetry_space_group_name_H-M   'P 1'
_cell_length_a   5.09988400
_cell_length_b   6.57165300
_cell_length_c   9.87132400
_cell_angle_alpha   90.00000000
_cell_angle_beta   90.00000000
_cell_angle_gamma   90.00000000
_symmetry_Int_Tables_number   1
_chemical_formula_structural   Dy2TcC2
_chemical_formula_sum   'Dy8 Tc4 C8'
_cell_volume   330.83414646
_cell_formula_units_Z   4
loop_
 _symmetry_equiv_pos_site_id
 _symmetry_equiv_pos_as_xyz
  1  'x, y, z'
loop_
 _atom_site_type_symbol
 _atom_site_label
 _atom_site_symmetry_multiplicity
 _atom_site_fract_x
 _atom_site_fract_y
 _atom_site_fract_z
 _atom_site_occupancy
  Dy  Dy0  1  0.250000  0.677983  0.556662  1
  Dy  Dy1  1  0.750000  0.322017  0.443338  1
  Dy  Dy2  1  0.750000  0.822017  0.056662  1
  Dy  Dy3  1  0.250000  0.177983  0.943338  1
  Dy  Dy4  1  0.250000  0.531942  0.215922  1
  Dy  Dy5  1  0.750000  0.468058  0.784078  1
  Dy  Dy6  1  0.750000  0.968058  0.715922  1
  Dy  Dy7  1  0.250000  0.031942  0.284078  1
  Tc  Tc8  1  0.250000  0.719617  0.865397  1
  Tc  Tc9  1  0.750000  0.280383  0.134603  1
  Tc  Tc10  1  0.750000  0.780383  0.365397  1
  Tc  Tc11  1  0.250000  0.219617  0.634603  1
  C  C12  1  0.250000  0.452970  0.758527  1
  C  C13  1  0.750000  0.547030  0.241473  1
  C  C14  1  0.750000  0.047030  0.258527  1
  C  C15  1  0.250000  0.952970  0.741473  1
  C  C16  1  0.250000  0.821080  0.048229  1
  C  C17  1  0.750000  0.178920  0.951771  1
  C  C18  1  0.750000  0.678920  0.548229  1
  C  C19  1  0.250000  0.321080  0.451771  1
