# generated using pymatgen
data_Y4Hg2RhAu3
_symmetry_space_group_name_H-M   'P 1'
_cell_length_a   7.86959495
_cell_length_b   7.86959544
_cell_length_c   3.77032500
_cell_angle_alpha   90.00000000
_cell_angle_beta   90.00000000
_cell_angle_gamma   90.11435082
_symmetry_Int_Tables_number   1
_chemical_formula_structural   Y4Hg2RhAu3
_chemical_formula_sum   'Y4 Hg2 Rh1 Au3'
_cell_volume   233.49775499
_cell_formula_units_Z   1
loop_
 _symmetry_equiv_pos_site_id
 _symmetry_equiv_pos_as_xyz
  1  'x, y, z'
loop_
 _atom_site_type_symbol
 _atom_site_label
 _atom_site_symmetry_multiplicity
 _atom_site_fract_x
 _atom_site_fract_y
 _atom_site_fract_z
 _atom_site_occupancy
  Y  Y0  1  0.152224  0.320556  0.500000  1
  Y  Y1  1  0.685104  0.185104  0.500000  1
  Y  Y2  1  0.820556  0.652224  0.500000  1
  Y  Y3  1  0.330260  0.830260  0.500000  1
  Hg  Hg4  1  0.998798  0.005015  0.000000  1
  Hg  Hg5  1  0.505015  0.498798  0.000000  1
  Rh  Rh6  1  0.872945  0.372945  0.000000  1
  Au  Au7  1  0.127064  0.627064  0.000000  1
  Au  Au8  1  0.632365  0.875668  0.000000  1
  Au  Au9  1  0.375668  0.132365  0.000000  1
