# generated using pymatgen
data_TmPaRh2Pb
_symmetry_space_group_name_H-M   'P 1'
_cell_length_a   7.87717100
_cell_length_b   7.69123100
_cell_length_c   3.58720800
_cell_angle_alpha   90.00000000
_cell_angle_beta   90.00000000
_cell_angle_gamma   90.00000000
_symmetry_Int_Tables_number   1
_chemical_formula_structural   TmPaRh2Pb
_chemical_formula_sum   'Tm2 Pa2 Rh4 Pb2'
_cell_volume   217.33150530
_cell_formula_units_Z   2
loop_
 _symmetry_equiv_pos_site_id
 _symmetry_equiv_pos_as_xyz
  1  'x, y, z'
loop_
 _atom_site_type_symbol
 _atom_site_label
 _atom_site_symmetry_multiplicity
 _atom_site_fract_x
 _atom_site_fract_y
 _atom_site_fract_z
 _atom_site_occupancy
  Tm  Tm0  1  0.330532  0.168717  0.500001  1
  Tm  Tm1  1  0.830531  0.331284  0.500001  1
  Pa  Pa2  1  0.174608  0.661016  0.500001  1
  Pa  Pa3  1  0.674607  0.838983  0.500001  1
  Rh  Rh4  1  0.625503  0.100548  0.000000  1
  Rh  Rh5  1  0.125504  0.399452  0.000000  1
  Rh  Rh6  1  0.861278  0.655599  0.000000  1
  Rh  Rh7  1  0.361277  0.844401  0.000000  1
  Pb  Pb8  1  0.008080  0.013028  0.000000  1
  Pb  Pb9  1  0.508081  0.486973  0.000000  1
