# generated using pymatgen
data_Pr2P24Ru7Pt
_symmetry_space_group_name_H-M   'P 1'
_cell_length_a   8.12792496
_cell_length_b   8.12792492
_cell_length_c   8.12792400
_cell_angle_alpha   89.93668362
_cell_angle_beta   89.93668362
_cell_angle_gamma   89.93667713
_symmetry_Int_Tables_number   1
_chemical_formula_structural   Pr2P24Ru7Pt
_chemical_formula_sum   'Pr2 P24 Ru7 Pt1'
_cell_volume   536.95539179
_cell_formula_units_Z   1
loop_
 _symmetry_equiv_pos_site_id
 _symmetry_equiv_pos_as_xyz
  1  'x, y, z'
loop_
 _atom_site_type_symbol
 _atom_site_label
 _atom_site_symmetry_multiplicity
 _atom_site_fract_x
 _atom_site_fract_y
 _atom_site_fract_z
 _atom_site_occupancy
  Pr  Pr0  1  0.991598  0.991598  0.991598  1
  Pr  Pr1  1  0.508406  0.508406  0.508406  1
  P  P2  1  0.357503  0.140103  0.994249  1
  P  P3  1  0.643968  0.144031  0.000028  1
  P  P4  1  0.354880  0.856395  0.999476  1
  P  P5  1  0.643057  0.855548  0.999943  1
  P  P6  1  0.359897  0.505752  0.142497  1
  P  P7  1  0.643605  0.500524  0.145118  1
  P  P8  1  0.994249  0.357503  0.140103  1
  P  P9  1  0.000028  0.643968  0.144031  1
  P  P10  1  0.505752  0.142497  0.359897  1
  P  P11  1  0.499972  0.856033  0.355970  1
  P  P12  1  0.140103  0.994249  0.357503  1
  P  P13  1  0.856395  0.999476  0.354880  1
  P  P14  1  0.142497  0.359897  0.505752  1
  P  P15  1  0.856033  0.355970  0.499972  1
  P  P16  1  0.145118  0.643605  0.500524  1
  P  P17  1  0.856944  0.644450  0.500056  1
  P  P18  1  0.144031  0.000028  0.643968  1
  P  P19  1  0.855548  0.999943  0.643057  1
  P  P20  1  0.500524  0.145118  0.643605  1
  P  P21  1  0.500056  0.856944  0.644450  1
  P  P22  1  0.999476  0.354880  0.856395  1
  P  P23  1  0.999943  0.643057  0.855548  1
  P  P24  1  0.355970  0.499972  0.856033  1
  P  P25  1  0.644450  0.500056  0.856944  1
  Ru  Ru26  1  0.749997  0.250002  0.250005  1
  Ru  Ru27  1  0.250005  0.749997  0.250002  1
  Ru  Ru28  1  0.749994  0.749996  0.250003  1
  Ru  Ru29  1  0.250002  0.250005  0.749997  1
  Ru  Ru30  1  0.749996  0.250003  0.749994  1
  Ru  Ru31  1  0.250003  0.749994  0.749996  1
  Ru  Ru32  1  0.749995  0.749995  0.749995  1
  Pt  Pt33  1  0.250001  0.250001  0.250001  1
