# generated using pymatgen
data_DyYFe8(ReP3)2
_symmetry_space_group_name_H-M   'P 1'
_cell_length_a   3.72948500
_cell_length_b   10.40216400
_cell_length_c   11.81893600
_cell_angle_alpha   90.00000000
_cell_angle_beta   90.00000000
_cell_angle_gamma   90.00000000
_symmetry_Int_Tables_number   1
_chemical_formula_structural   DyYFe8(ReP3)2
_chemical_formula_sum   'Dy2 Y2 Fe16 Re4 P12'
_cell_volume   458.51224906
_cell_formula_units_Z   2
loop_
 _symmetry_equiv_pos_site_id
 _symmetry_equiv_pos_as_xyz
  1  'x, y, z'
loop_
 _atom_site_type_symbol
 _atom_site_label
 _atom_site_symmetry_multiplicity
 _atom_site_fract_x
 _atom_site_fract_y
 _atom_site_fract_z
 _atom_site_occupancy
  Dy  Dy0  1  0.750000  0.417789  0.295825  1
  Dy  Dy1  1  0.750000  0.082211  0.795825  1
  Y  Y2  1  0.250000  0.582271  0.704161  1
  Y  Y3  1  0.250000  0.917729  0.204161  1
  Fe  Fe4  1  0.250000  0.404770  0.490038  1
  Fe  Fe5  1  0.250000  0.095230  0.990038  1
  Fe  Fe6  1  0.750000  0.595216  0.509672  1
  Fe  Fe7  1  0.750000  0.904784  0.009672  1
  Fe  Fe8  1  0.250000  0.217097  0.177865  1
  Fe  Fe9  1  0.250000  0.282903  0.677865  1
  Fe  Fe10  1  0.750000  0.783138  0.822214  1
  Fe  Fe11  1  0.750000  0.716862  0.322214  1
  Fe  Fe12  1  0.250000  0.877570  0.702054  1
  Fe  Fe13  1  0.250000  0.622430  0.202054  1
  Fe  Fe14  1  0.750000  0.122758  0.297982  1
  Fe  Fe15  1  0.750000  0.377242  0.797982  1
  Fe  Fe16  1  0.250000  0.462876  0.933823  1
  Fe  Fe17  1  0.250000  0.037124  0.433823  1
  Fe  Fe18  1  0.750000  0.537023  0.066284  1
  Fe  Fe19  1  0.750000  0.962977  0.566284  1
  Re  Re20  1  0.250000  0.705293  0.987000  1
  Re  Re21  1  0.250000  0.794707  0.487000  1
  Re  Re22  1  0.750000  0.294691  0.013044  1
  Re  Re23  1  0.750000  0.205309  0.513044  1
  P  P24  1  0.250000  0.422657  0.114623  1
  P  P25  1  0.250000  0.077343  0.614623  1
  P  P26  1  0.750000  0.577322  0.885603  1
  P  P27  1  0.750000  0.922678  0.385603  1
  P  P28  1  0.250000  0.265541  0.870099  1
  P  P29  1  0.250000  0.234459  0.370099  1
  P  P30  1  0.750000  0.734284  0.129827  1
  P  P31  1  0.750000  0.765716  0.629827  1
  P  P32  1  0.250000  0.594771  0.394938  1
  P  P33  1  0.250000  0.905229  0.894938  1
  P  P34  1  0.750000  0.405044  0.604949  1
  P  P35  1  0.750000  0.094956  0.104949  1
