# generated using pymatgen
data_Rb3PSe16
_symmetry_space_group_name_H-M   'P 1'
_cell_length_a   12.06210135
_cell_length_b   12.06210170
_cell_length_c   12.06210300
_cell_angle_alpha   59.99999918
_cell_angle_beta   59.99999821
_cell_angle_gamma   60.00000294
_symmetry_Int_Tables_number   1
_chemical_formula_structural   Rb3PSe16
_chemical_formula_sum   'Rb6 P2 Se32'
_cell_volume   1240.94917564
_cell_formula_units_Z   2
loop_
 _symmetry_equiv_pos_site_id
 _symmetry_equiv_pos_as_xyz
  1  'x, y, z'
loop_
 _atom_site_type_symbol
 _atom_site_label
 _atom_site_symmetry_multiplicity
 _atom_site_fract_x
 _atom_site_fract_y
 _atom_site_fract_z
 _atom_site_occupancy
  Rb  Rb0  1  0.375000  0.375000  0.375000  1
  Rb  Rb1  1  0.625000  0.625000  0.625000  1
  Rb  Rb2  1  0.000000  0.000000  0.000000  1
  Rb  Rb3  1  0.000000  0.500000  0.000000  1
  Rb  Rb4  1  0.500000  0.000000  0.000000  1
  Rb  Rb5  1  0.000000  0.000000  0.500000  1
  P  P6  1  0.125000  0.125000  0.125000  1
  P  P7  1  0.875000  0.875000  0.875000  1
  Se  Se8  1  0.051115  0.462246  0.674262  1
  Se  Se9  1  0.674262  0.462246  0.312377  1
  Se  Se10  1  0.674262  0.051115  0.462246  1
  Se  Se11  1  0.051115  0.312377  0.462246  1
  Se  Se12  1  0.312377  0.674262  0.462246  1
  Se  Se13  1  0.462246  0.051115  0.312377  1
  Se  Se14  1  0.200830  0.897512  0.200830  1
  Se  Se15  1  0.200830  0.200830  0.897512  1
  Se  Se16  1  0.897512  0.200830  0.200830  1
  Se  Se17  1  0.200830  0.200830  0.200830  1
  Se  Se18  1  0.799170  0.102489  0.799170  1
  Se  Se19  1  0.799170  0.799170  0.102489  1
  Se  Se20  1  0.102489  0.799170  0.799170  1
  Se  Se21  1  0.799170  0.799170  0.799170  1
  Se  Se22  1  0.325738  0.687623  0.948885  1
  Se  Se23  1  0.948885  0.325738  0.687623  1
  Se  Se24  1  0.687623  0.948885  0.325738  1
  Se  Se25  1  0.537754  0.325738  0.948885  1
  Se  Se26  1  0.687623  0.537754  0.948885  1
  Se  Se27  1  0.537754  0.687623  0.325738  1
  Se  Se28  1  0.948885  0.687623  0.537754  1
  Se  Se29  1  0.325738  0.948885  0.537754  1
  Se  Se30  1  0.325738  0.537754  0.687623  1
  Se  Se31  1  0.948885  0.537754  0.325738  1
  Se  Se32  1  0.537754  0.948885  0.687623  1
  Se  Se33  1  0.687623  0.325738  0.537754  1
  Se  Se34  1  0.674262  0.312377  0.051115  1
  Se  Se35  1  0.051115  0.674262  0.312377  1
  Se  Se36  1  0.312377  0.051115  0.674262  1
  Se  Se37  1  0.462246  0.674262  0.051115  1
  Se  Se38  1  0.312377  0.462246  0.051115  1
  Se  Se39  1  0.462246  0.312377  0.674262  1
