# generated using pymatgen
data_Gd2Tm3Ir2
_symmetry_space_group_name_H-M   'P 1'
_cell_length_a   6.42418711
_cell_length_b   7.19530356
_cell_length_c   8.43475400
_cell_angle_alpha   96.84582081
_cell_angle_beta   112.10740198
_cell_angle_gamma   89.98979599
_symmetry_Int_Tables_number   1
_chemical_formula_structural   Gd2Tm3Ir2
_chemical_formula_sum   'Gd4 Tm6 Ir4'
_cell_volume   358.22463845
_cell_formula_units_Z   2
loop_
 _symmetry_equiv_pos_site_id
 _symmetry_equiv_pos_as_xyz
  1  'x, y, z'
loop_
 _atom_site_type_symbol
 _atom_site_label
 _atom_site_symmetry_multiplicity
 _atom_site_fract_x
 _atom_site_fract_y
 _atom_site_fract_z
 _atom_site_occupancy
  Gd  Gd0  1  0.972658  0.919753  0.187955  1
  Gd  Gd1  1  0.785363  0.580681  0.812425  1
  Gd  Gd2  1  0.027028  0.080572  0.811633  1
  Gd  Gd3  1  0.214860  0.419007  0.187881  1
  Tm  Tm4  1  0.647791  0.816313  0.439563  1
  Tm  Tm5  1  0.207990  0.683689  0.560471  1
  Tm  Tm6  1  0.352500  0.183396  0.560528  1
  Tm  Tm7  1  0.792204  0.316780  0.439473  1
  Tm  Tm8  1  0.426513  0.750144  0.000223  1
  Tm  Tm9  1  0.573005  0.249868  0.999885  1
  Ir  Ir10  1  0.595733  0.925740  0.777558  1
  Ir  Ir11  1  0.181116  0.426219  0.777765  1
  Ir  Ir12  1  0.404344  0.073917  0.222942  1
  Ir  Ir13  1  0.818894  0.573924  0.221699  1
