# generated using pymatgen
data_La17Yb3(GaSi2)4
_symmetry_space_group_name_H-M   'P 1'
_cell_length_a   7.89922900
_cell_length_b   7.89922900
_cell_length_c   14.68048700
_cell_angle_alpha   90.00000000
_cell_angle_beta   90.00000000
_cell_angle_gamma   90.00000000
_symmetry_Int_Tables_number   1
_chemical_formula_structural   La17Yb3(GaSi2)4
_chemical_formula_sum   'La17 Yb3 Ga4 Si8'
_cell_volume   916.03036764
_cell_formula_units_Z   1
loop_
 _symmetry_equiv_pos_site_id
 _symmetry_equiv_pos_as_xyz
  1  'x, y, z'
loop_
 _atom_site_type_symbol
 _atom_site_label
 _atom_site_symmetry_multiplicity
 _atom_site_fract_x
 _atom_site_fract_y
 _atom_site_fract_z
 _atom_site_occupancy
  La  La0  1  0.326797  0.313715  0.106935  1
  La  La1  1  0.824972  0.817218  0.892446  1
  La  La2  1  0.829771  0.185408  0.393191  1
  La  La3  1  0.175028  0.182782  0.892446  1
  La  La4  1  0.673203  0.686285  0.106935  1
  La  La5  1  0.818270  0.824436  0.605939  1
  La  La6  1  0.314592  0.329771  0.393191  1
  La  La7  1  0.186285  0.826797  0.106935  1
  La  La8  1  0.181730  0.175564  0.605939  1
  La  La9  1  0.813715  0.173203  0.106935  1
  La  La10  1  0.324436  0.681730  0.605939  1
  La  La11  1  0.500000  0.000000  0.280413  1
  La  La12  1  0.682782  0.324972  0.892446  1
  La  La13  1  0.675564  0.318270  0.605939  1
  La  La14  1  0.317218  0.675028  0.892446  1
  La  La15  1  0.170229  0.814592  0.393191  1
  La  La16  1  0.685408  0.670229  0.393191  1
  Yb  Yb17  1  0.500000  0.000000  0.756552  1
  Yb  Yb18  1  0.000000  0.500000  0.235425  1
  Yb  Yb19  1  0.000000  0.500000  0.741147  1
  Ga  Ga20  1  0.500000  0.000000  0.500082  1
  Ga  Ga21  1  0.000000  0.500000  0.006099  1
  Ga  Ga22  1  0.500000  0.000000  0.990149  1
  Ga  Ga23  1  0.000000  0.500000  0.505467  1
  Si  Si24  1  0.610934  0.387127  0.248516  1
  Si  Si25  1  0.889148  0.111619  0.749140  1
  Si  Si26  1  0.887127  0.889066  0.248516  1
  Si  Si27  1  0.110852  0.888381  0.749140  1
  Si  Si28  1  0.388381  0.389148  0.749140  1
  Si  Si29  1  0.112873  0.110934  0.248516  1
  Si  Si30  1  0.389066  0.612873  0.248516  1
  Si  Si31  1  0.611619  0.610852  0.749140  1
