# generated using pymatgen
data_HoTm9In8(PtRh)2
_symmetry_space_group_name_H-M   'P 1'
_cell_length_a   3.59129000
_cell_length_b   8.06932962
_cell_length_c   18.06748449
_cell_angle_alpha   90.09303582
_cell_angle_beta   90.00000000
_cell_angle_gamma   90.00000000
_symmetry_Int_Tables_number   1
_chemical_formula_structural   HoTm9In8(PtRh)2
_chemical_formula_sum   'Ho1 Tm9 In8 Pt2 Rh2'
_cell_volume   523.58241294
_cell_formula_units_Z   1
loop_
 _symmetry_equiv_pos_site_id
 _symmetry_equiv_pos_as_xyz
  1  'x, y, z'
loop_
 _atom_site_type_symbol
 _atom_site_label
 _atom_site_symmetry_multiplicity
 _atom_site_fract_x
 _atom_site_fract_y
 _atom_site_fract_z
 _atom_site_occupancy
  Ho  Ho0  1  0.000000  0.500000  0.500000  1
  Tm  Tm1  1  0.000000  0.115681  0.412378  1
  Tm  Tm2  1  0.000000  0.884319  0.587622  1
  Tm  Tm3  1  0.000000  0.382841  0.913522  1
  Tm  Tm4  1  0.000000  0.617159  0.086478  1
  Tm  Tm5  1  0.000000  0.239727  0.221309  1
  Tm  Tm6  1  0.000000  0.760273  0.778691  1
  Tm  Tm7  1  0.000000  0.251747  0.720534  1
  Tm  Tm8  1  0.000000  0.748253  0.279466  1
  Tm  Tm9  1  0.000000  0.000000  0.000000  1
  In  In10  1  0.500000  0.422948  0.350997  1
  In  In11  1  0.500000  0.577052  0.649003  1
  In  In12  1  0.500000  0.074072  0.850302  1
  In  In13  1  0.500000  0.925928  0.149698  1
  In  In14  1  0.500000  0.292133  0.066405  1
  In  In15  1  0.500000  0.707867  0.933595  1
  In  In16  1  0.500000  0.205839  0.567472  1
  In  In17  1  0.500000  0.794161  0.432528  1
  Pt  Pt18  1  0.500000  0.476981  0.803697  1
  Pt  Pt19  1  0.500000  0.523019  0.196303  1
  Rh  Rh20  1  0.500000  0.022773  0.304340  1
  Rh  Rh21  1  0.500000  0.977227  0.695660  1
