# generated using pymatgen
data_Tb16Cd4Co2IrRu
_symmetry_space_group_name_H-M   'P 1'
_cell_length_a   9.66222276
_cell_length_b   9.61547437
_cell_length_c   9.61906843
_cell_angle_alpha   59.67314765
_cell_angle_beta   59.74728628
_cell_angle_gamma   59.73292949
_symmetry_Int_Tables_number   1
_chemical_formula_structural   Tb16Cd4Co2IrRu
_chemical_formula_sum   'Tb16 Cd4 Co2 Ir1 Ru1'
_cell_volume   627.87428981
_cell_formula_units_Z   1
loop_
 _symmetry_equiv_pos_site_id
 _symmetry_equiv_pos_as_xyz
  1  'x, y, z'
loop_
 _atom_site_type_symbol
 _atom_site_label
 _atom_site_symmetry_multiplicity
 _atom_site_fract_x
 _atom_site_fract_y
 _atom_site_fract_z
 _atom_site_occupancy
  Tb  Tb0  1  0.439596  0.437648  0.055163  1
  Tb  Tb1  1  0.591703  0.598214  0.598203  1
  Tb  Tb2  1  0.187534  0.813885  0.813904  1
  Tb  Tb3  1  0.065218  0.057762  0.436015  1
  Tb  Tb4  1  0.437988  0.060563  0.060535  1
  Tb  Tb5  1  0.814498  0.188475  0.809406  1
  Tb  Tb6  1  0.439606  0.055175  0.437642  1
  Tb  Tb7  1  0.594843  0.208079  0.604202  1
  Tb  Tb8  1  0.814515  0.809406  0.188473  1
  Tb  Tb9  1  0.210974  0.600312  0.600313  1
  Tb  Tb10  1  0.811016  0.190179  0.190182  1
  Tb  Tb11  1  0.059098  0.438692  0.438672  1
  Tb  Tb12  1  0.187908  0.810086  0.188220  1
  Tb  Tb13  1  0.594857  0.604199  0.208075  1
  Tb  Tb14  1  0.187914  0.188225  0.810092  1
  Tb  Tb15  1  0.065229  0.436012  0.057763  1
  Cd  Cd16  1  0.830507  0.829823  0.508027  1
  Cd  Cd17  1  0.830934  0.829917  0.829912  1
  Cd  Cd18  1  0.508266  0.829818  0.829815  1
  Cd  Cd19  1  0.830511  0.508027  0.829820  1
  Co  Co20  1  0.389594  0.829085  0.393203  1
  Co  Co21  1  0.389588  0.393201  0.829088  1
  Ir  Ir22  1  0.389698  0.391867  0.391883  1
  Ru  Ru23  1  0.828402  0.391349  0.391392  1
