# generated using pymatgen
data_YSb12IrOs2Ru
_symmetry_space_group_name_H-M   'P 1'
_cell_length_a   8.13377479
_cell_length_b   8.16080366
_cell_length_c   8.13942039
_cell_angle_alpha   109.54600886
_cell_angle_beta   109.42320568
_cell_angle_gamma   109.52634653
_symmetry_Int_Tables_number   1
_chemical_formula_structural   YSb12IrOs2Ru
_chemical_formula_sum   'Y1 Sb12 Ir1 Os2 Ru1'
_cell_volume   415.48609275
_cell_formula_units_Z   1
loop_
 _symmetry_equiv_pos_site_id
 _symmetry_equiv_pos_as_xyz
  1  'x, y, z'
loop_
 _atom_site_type_symbol
 _atom_site_label
 _atom_site_symmetry_multiplicity
 _atom_site_fract_x
 _atom_site_fract_y
 _atom_site_fract_z
 _atom_site_occupancy
  Y  Y0  1  0.000000  0.000000  0.000000  1
  Sb  Sb1  1  0.336967  0.180283  0.842660  1
  Sb  Sb2  1  0.663033  0.819717  0.157340  1
  Sb  Sb3  1  0.659754  0.505806  0.843707  1
  Sb  Sb4  1  0.340246  0.494194  0.156293  1
  Sb  Sb5  1  0.182948  0.846255  0.340324  1
  Sb  Sb6  1  0.817052  0.153745  0.659676  1
  Sb  Sb7  1  0.505571  0.843162  0.661867  1
  Sb  Sb8  1  0.494429  0.156838  0.338133  1
  Sb  Sb9  1  0.843833  0.338061  0.183952  1
  Sb  Sb10  1  0.156167  0.661939  0.816048  1
  Sb  Sb11  1  0.844016  0.663684  0.505760  1
  Sb  Sb12  1  0.155984  0.336316  0.494240  1
  Ir  Ir13  1  0.000000  0.500000  0.000000  1
  Os  Os14  1  0.500000  0.000000  0.000000  1
  Os  Os15  1  0.500000  0.500000  0.500000  1
  Ru  Ru16  1  0.000000  0.000000  0.500000  1
