# generated using pymatgen
data_K6InHgF12
_symmetry_space_group_name_H-M   'P 1'
_cell_length_a   6.48618588
_cell_length_b   6.24350385
_cell_length_c   10.89404000
_cell_angle_alpha   55.30778962
_cell_angle_beta   89.71387263
_cell_angle_gamma   90.10285902
_symmetry_Int_Tables_number   1
_chemical_formula_structural   K6InHgF12
_chemical_formula_sum   'K6 In1 Hg1 F12'
_cell_volume   362.72977579
_cell_formula_units_Z   1
loop_
 _symmetry_equiv_pos_site_id
 _symmetry_equiv_pos_as_xyz
  1  'x, y, z'
loop_
 _atom_site_type_symbol
 _atom_site_label
 _atom_site_symmetry_multiplicity
 _atom_site_fract_x
 _atom_site_fract_y
 _atom_site_fract_z
 _atom_site_occupancy
  K  K0  1  0.500000  0.500000  0.000000  1
  K  K1  1  0.000000  0.500000  0.500000  1
  K  K2  1  0.056105  0.733613  0.745492  1
  K  K3  1  0.943895  0.266387  0.254508  1
  K  K4  1  0.554311  0.270733  0.739534  1
  K  K5  1  0.445689  0.729267  0.260466  1
  In  In6  1  0.500000  0.000000  0.500000  1
  Hg  Hg7  1  0.000000  0.000000  0.000000  1
  F  F8  1  0.769013  0.769596  0.564054  1
  F  F9  1  0.230987  0.230404  0.435946  1
  F  F10  1  0.278968  0.251660  0.922344  1
  F  F11  1  0.721032  0.748340  0.077656  1
  F  F12  1  0.448643  0.885222  0.720953  1
  F  F13  1  0.551357  0.114778  0.279047  1
  F  F14  1  0.936228  0.104232  0.769019  1
  F  F15  1  0.063772  0.895768  0.230981  1
  F  F16  1  0.324673  0.676661  0.547105  1
  F  F17  1  0.675327  0.323339  0.452895  1
  F  F18  1  0.820612  0.336519  0.944691  1
  F  F19  1  0.179388  0.663481  0.055309  1
