# generated using pymatgen
data_Sr12Pr8Si15Au
_symmetry_space_group_name_H-M   'P 1'
_cell_length_a   8.22283551
_cell_length_b   8.18684221
_cell_length_c   15.51065323
_cell_angle_alpha   89.81121808
_cell_angle_beta   89.47743487
_cell_angle_gamma   89.77341197
_symmetry_Int_Tables_number   1
_chemical_formula_structural   Sr12Pr8Si15Au
_chemical_formula_sum   'Sr12 Pr8 Si15 Au1'
_cell_volume   1044.10540927
_cell_formula_units_Z   1
loop_
 _symmetry_equiv_pos_site_id
 _symmetry_equiv_pos_as_xyz
  1  'x, y, z'
loop_
 _atom_site_type_symbol
 _atom_site_label
 _atom_site_symmetry_multiplicity
 _atom_site_fract_x
 _atom_site_fract_y
 _atom_site_fract_z
 _atom_site_occupancy
  Sr  Sr0  1  0.314137  0.311586  0.000496  1
  Sr  Sr1  1  0.188247  0.810244  0.249908  1
  Sr  Sr2  1  0.811578  0.187124  0.749707  1
  Sr  Sr3  1  0.684843  0.686518  0.498819  1
  Sr  Sr4  1  0.365992  0.012460  0.453351  1
  Sr  Sr5  1  0.487732  0.869463  0.705442  1
  Sr  Sr6  1  0.512996  0.132355  0.206714  1
  Sr  Sr7  1  0.867056  0.486555  0.293050  1
  Sr  Sr8  1  0.134205  0.516813  0.795760  1
  Sr  Sr9  1  0.631969  0.990251  0.955520  1
  Sr  Sr10  1  0.007494  0.362880  0.539469  1
  Sr  Sr11  1  0.988853  0.631546  0.045638  1
  Pr  Pr12  1  0.134434  0.990985  0.877417  1
  Pr  Pr13  1  0.512066  0.628456  0.124809  1
  Pr  Pr14  1  0.494551  0.369528  0.626359  1
  Pr  Pr15  1  0.636830  0.511990  0.877931  1
  Pr  Pr16  1  0.368957  0.489499  0.375309  1
  Pr  Pr17  1  0.867577  0.009796  0.373930  1
  Pr  Pr18  1  0.990787  0.130118  0.126136  1
  Pr  Pr19  1  0.004015  0.867901  0.621504  1
  Si  Si20  1  0.347995  0.709711  0.946294  1
  Si  Si21  1  0.649420  0.289026  0.444126  1
  Si  Si22  1  0.714593  0.348372  0.056536  1
  Si  Si23  1  0.284689  0.652369  0.555240  1
  Si  Si24  1  0.788689  0.847862  0.195419  1
  Si  Si25  1  0.152183  0.210235  0.304743  1
  Si  Si26  1  0.849902  0.792538  0.802693  1
  Si  Si27  1  0.278467  0.913831  0.054943  1
  Si  Si28  1  0.584521  0.777147  0.303957  1
  Si  Si29  1  0.426336  0.223576  0.808922  1
  Si  Si30  1  0.776208  0.586928  0.695752  1
  Si  Si31  1  0.223039  0.414807  0.196040  1
  Si  Si32  1  0.711977  0.081675  0.552983  1
  Si  Si33  1  0.917863  0.276752  0.946816  1
  Si  Si34  1  0.084109  0.721725  0.444938  1
  Au  Au35  1  0.205693  0.157377  0.693327  1
