# generated using pymatgen
data_NpAl2ZnGa
_symmetry_space_group_name_H-M   'P 1'
_cell_length_a   4.15351948
_cell_length_b   4.15352068
_cell_length_c   6.19088528
_cell_angle_alpha   70.39983233
_cell_angle_beta   70.39980838
_cell_angle_gamma   90.00000187
_symmetry_Int_Tables_number   1
_chemical_formula_structural   NpAl2ZnGa
_chemical_formula_sum   'Np1 Al2 Zn1 Ga1'
_cell_volume   94.01985321
_cell_formula_units_Z   1
loop_
 _symmetry_equiv_pos_site_id
 _symmetry_equiv_pos_as_xyz
  1  'x, y, z'
loop_
 _atom_site_type_symbol
 _atom_site_label
 _atom_site_symmetry_multiplicity
 _atom_site_fract_x
 _atom_site_fract_y
 _atom_site_fract_z
 _atom_site_occupancy
  Np  Np0  1  0.997146  0.997146  0.005709  1
  Al  Al1  1  0.747428  0.247428  0.505143  1
  Al  Al2  1  0.247428  0.747428  0.505143  1
  Zn  Zn3  1  0.614010  0.614010  0.771979  1
  Ga  Ga4  1  0.393987  0.393987  0.212026  1
