# generated using pymatgen
data_CeDy4Er7(GaCo2)2
_symmetry_space_group_name_H-M   'P 1'
_cell_length_a   8.27841700
_cell_length_b   8.18540902
_cell_length_c   8.27841687
_cell_angle_alpha   107.11639348
_cell_angle_beta   109.58891692
_cell_angle_gamma   112.20801176
_symmetry_Int_Tables_number   1
_chemical_formula_structural   CeDy4Er7(GaCo2)2
_chemical_formula_sum   'Ce1 Dy4 Er7 Ga2 Co4'
_cell_volume   428.51200809
_cell_formula_units_Z   1
loop_
 _symmetry_equiv_pos_site_id
 _symmetry_equiv_pos_as_xyz
  1  'x, y, z'
loop_
 _atom_site_type_symbol
 _atom_site_label
 _atom_site_symmetry_multiplicity
 _atom_site_fract_x
 _atom_site_fract_y
 _atom_site_fract_z
 _atom_site_occupancy
  Ce  Ce0  1  0.835703  0.162400  0.326696  1
  Dy  Dy1  1  0.694612  0.256713  0.952265  1
  Dy  Dy2  1  0.305737  0.739255  0.037584  1
  Dy  Dy3  1  0.701670  0.739255  0.433519  1
  Dy  Dy4  1  0.304447  0.256713  0.562098  1
  Er  Er5  1  0.809758  0.488556  0.678798  1
  Er  Er6  1  0.183384  0.859410  0.676025  1
  Er  Er7  1  0.202713  0.529479  0.326766  1
  Er  Er8  1  0.596322  0.773561  0.814440  1
  Er  Er9  1  0.959120  0.773561  0.177239  1
  Er  Er10  1  0.038120  0.217465  0.819211  1
  Er  Er11  1  0.398254  0.217465  0.179346  1
  Ga  Ga12  1  0.495686  0.492826  0.997140  1
  Ga  Ga13  1  0.502235  0.000412  0.498178  1
  Co  Co14  1  0.839612  0.491570  0.343441  1
  Co  Co15  1  0.148128  0.491570  0.651958  1
  Co  Co16  1  0.984668  0.113454  0.128786  1
  Co  Co17  1  0.999830  0.896336  0.896506  1
