# generated using pymatgen
data_Ti2Zn2Ir3Rh
_symmetry_space_group_name_H-M   'P 1'
_cell_length_a   4.34856700
_cell_length_b   6.08952801
_cell_length_c   13.01723103
_cell_angle_alpha   89.99258559
_cell_angle_beta   89.99978896
_cell_angle_gamma   90.00000940
_symmetry_Int_Tables_number   1
_chemical_formula_structural   Ti2Zn2Ir3Rh
_chemical_formula_sum   'Ti6 Zn6 Ir9 Rh3'
_cell_volume   344.70565443
_cell_formula_units_Z   3
loop_
 _symmetry_equiv_pos_site_id
 _symmetry_equiv_pos_as_xyz
  1  'x, y, z'
loop_
 _atom_site_type_symbol
 _atom_site_label
 _atom_site_symmetry_multiplicity
 _atom_site_fract_x
 _atom_site_fract_y
 _atom_site_fract_z
 _atom_site_occupancy
  Ti  Ti0  1  0.000000  0.999422  0.999455  1
  Ti  Ti1  1  0.499868  0.500433  0.166523  1
  Ti  Ti2  1  0.999869  0.999490  0.333366  1
  Ti  Ti3  1  0.499998  0.500609  0.500374  1
  Ti  Ti4  1  0.000120  0.999709  0.667055  1
  Ti  Ti5  1  0.500095  0.500470  0.833241  1
  Zn  Zn6  1  0.999999  0.500154  0.999183  1
  Zn  Zn7  1  0.499718  0.999815  0.166623  1
  Zn  Zn8  1  0.999717  0.500103  0.333347  1
  Zn  Zn9  1  0.499999  0.999208  0.500418  1
  Zn  Zn10  1  0.000287  0.501159  0.667375  1
  Zn  Zn11  1  0.500291  0.999392  0.833037  1
  Ir  Ir12  1  0.499996  0.250446  0.999836  1
  Ir  Ir13  1  0.500003  0.750119  0.999949  1
  Ir  Ir14  1  0.999802  0.249902  0.166581  1
  Ir  Ir15  1  0.999803  0.750134  0.166559  1
  Ir  Ir16  1  0.499799  0.250305  0.333479  1
  Ir  Ir17  1  0.499801  0.750176  0.333245  1
  Ir  Ir18  1  0.000000  0.249828  0.500283  1
  Ir  Ir19  1  0.000005  0.750170  0.499945  1
  Ir  Ir20  1  0.500200  0.249253  0.666745  1
  Rh  Rh21  1  0.500215  0.749630  0.666705  1
  Rh  Rh22  1  0.000212  0.250147  0.833126  1
  Rh  Rh23  1  0.000203  0.749929  0.833550  1
