# generated using pymatgen
data_LaY7(HgPt)2
_symmetry_space_group_name_H-M   'P 1'
_cell_length_a   9.75679505
_cell_length_b   9.75679553
_cell_length_c   9.73473400
_cell_angle_alpha   60.07671892
_cell_angle_beta   60.07671539
_cell_angle_gamma   60.24230495
_symmetry_Int_Tables_number   1
_chemical_formula_structural   LaY7(HgPt)2
_chemical_formula_sum   'La2 Y14 Hg4 Pt4'
_cell_volume   657.22932642
_cell_formula_units_Z   2
loop_
 _symmetry_equiv_pos_site_id
 _symmetry_equiv_pos_as_xyz
  1  'x, y, z'
loop_
 _atom_site_type_symbol
 _atom_site_label
 _atom_site_symmetry_multiplicity
 _atom_site_fract_x
 _atom_site_fract_y
 _atom_site_fract_z
 _atom_site_occupancy
  La  La0  1  0.353280  0.353280  0.355477  1
  La  La1  1  0.353282  0.353282  0.937970  1
  Y  Y2  1  0.357705  0.931189  0.355556  1
  Y  Y3  1  0.931189  0.357705  0.355556  1
  Y  Y4  1  0.812293  0.188618  0.188479  1
  Y  Y5  1  0.188615  0.812300  0.810604  1
  Y  Y6  1  0.188618  0.812293  0.188479  1
  Y  Y7  1  0.812300  0.188615  0.810604  1
  Y  Y8  1  0.186568  0.186568  0.813443  1
  Y  Y9  1  0.810157  0.810157  0.189854  1
  Y  Y10  1  0.936729  0.564945  0.565136  1
  Y  Y11  1  0.564964  0.936727  0.933201  1
  Y  Y12  1  0.564945  0.936729  0.565136  1
  Y  Y13  1  0.936727  0.564964  0.933201  1
  Y  Y14  1  0.566132  0.566132  0.933877  1
  Y  Y15  1  0.938314  0.938314  0.561691  1
  Hg  Hg16  1  0.589874  0.589874  0.582072  1
  Hg  Hg17  1  0.589874  0.589874  0.238168  1
  Hg  Hg18  1  0.592804  0.235094  0.586063  1
  Hg  Hg19  1  0.235094  0.592804  0.586063  1
  Pt  Pt20  1  0.139999  0.139999  0.151007  1
  Pt  Pt21  1  0.140010  0.140010  0.568993  1
  Pt  Pt22  1  0.136903  0.573625  0.144685  1
  Pt  Pt23  1  0.573625  0.136903  0.144685  1
