# generated using pymatgen
data_Nd2Mn2P6N13
_symmetry_space_group_name_H-M   'P 1'
_cell_length_a   7.27604944
_cell_length_b   7.35540481
_cell_length_c   7.27605000
_cell_angle_alpha   109.63770081
_cell_angle_beta   108.69478779
_cell_angle_gamma   109.63769623
_symmetry_Int_Tables_number   1
_chemical_formula_structural   Nd2Mn2P6N13
_chemical_formula_sum   'Nd2 Mn2 P6 N13'
_cell_volume   301.37067512
_cell_formula_units_Z   1
loop_
 _symmetry_equiv_pos_site_id
 _symmetry_equiv_pos_as_xyz
  1  'x, y, z'
loop_
 _atom_site_type_symbol
 _atom_site_label
 _atom_site_symmetry_multiplicity
 _atom_site_fract_x
 _atom_site_fract_y
 _atom_site_fract_z
 _atom_site_occupancy
  Nd  Nd0  1  0.285652  0.292736  0.285652  1
  Nd  Nd1  1  0.992916  0.707264  0.992916  1
  Mn  Mn2  1  0.691657  0.000000  0.988866  1
  Mn  Mn3  1  0.988866  0.000000  0.691657  1
  P  P4  1  0.501888  0.246100  0.755660  1
  P  P5  1  0.509561  0.753900  0.255788  1
  P  P6  1  0.755660  0.246100  0.501888  1
  P  P7  1  0.256552  0.500000  0.756552  1
  P  P8  1  0.756552  0.500000  0.256552  1
  P  P9  1  0.255788  0.753900  0.509561  1
  N  N10  1  0.956277  0.000000  0.956277  1
  N  N11  1  0.003954  0.725543  0.434141  1
  N  N12  1  0.286896  0.703308  0.286896  1
  N  N13  1  0.289438  0.572529  0.576509  1
  N  N14  1  0.576509  0.572529  0.289438  1
  N  N15  1  0.583587  0.296692  0.583587  1
  N  N16  1  0.728164  0.000000  0.438051  1
  N  N17  1  0.438051  0.000000  0.728164  1
  N  N18  1  0.716907  0.427471  0.003979  1
  N  N19  1  0.278411  0.274457  0.708596  1
  N  N20  1  0.708596  0.274457  0.278411  1
  N  N21  1  0.003979  0.427471  0.716907  1
  N  N22  1  0.434141  0.725543  0.003954  1
