# generated using pymatgen
data_Pa3Cu3Sn4
_symmetry_space_group_name_H-M   'P 1'
_cell_length_a   8.27838658
_cell_length_b   8.28139878
_cell_length_c   8.28041160
_cell_angle_alpha   109.51225500
_cell_angle_beta   109.45686204
_cell_angle_gamma   109.45445433
_symmetry_Int_Tables_number   1
_chemical_formula_structural   Pa3Cu3Sn4
_chemical_formula_sum   'Pa6 Cu6 Sn8'
_cell_volume   436.94442780
_cell_formula_units_Z   2
loop_
 _symmetry_equiv_pos_site_id
 _symmetry_equiv_pos_as_xyz
  1  'x, y, z'
loop_
 _atom_site_type_symbol
 _atom_site_label
 _atom_site_symmetry_multiplicity
 _atom_site_fract_x
 _atom_site_fract_y
 _atom_site_fract_z
 _atom_site_occupancy
  Pa  Pa0  1  0.874941  0.750126  0.125228  1
  Pa  Pa1  1  0.125160  0.374926  0.249961  1
  Pa  Pa2  1  0.624795  0.250000  0.375092  1
  Pa  Pa3  1  0.750029  0.875130  0.624961  1
  Pa  Pa4  1  0.375066  0.124885  0.749960  1
  Pa  Pa5  1  0.250038  0.625035  0.874931  1
  Cu  Cu6  1  0.750266  0.375054  0.125165  1
  Cu  Cu7  1  0.624836  0.874986  0.249835  1
  Cu  Cu8  1  0.249938  0.125149  0.375015  1
  Cu  Cu9  1  0.374853  0.749770  0.624850  1
  Cu  Cu10  1  0.875042  0.624956  0.750034  1
  Cu  Cu11  1  0.125090  0.250088  0.875056  1
  Sn  Sn12  1  0.170704  0.999917  0.000065  1
  Sn  Sn13  1  0.670786  0.000063  0.000085  1
  Sn  Sn14  1  0.499876  0.499856  0.170536  1
  Sn  Sn15  1  0.328790  0.828794  0.328733  1
  Sn  Sn16  1  0.000078  0.670431  0.499962  1
  Sn  Sn17  1  0.999938  0.171018  0.499888  1
  Sn  Sn18  1  0.500031  0.500040  0.670916  1
  Sn  Sn19  1  0.829744  0.329777  0.829729  1
