# generated using pymatgen
data_Nd4TcBr4
_symmetry_space_group_name_H-M   'P 1'
_cell_length_a   9.38564183
_cell_length_b   9.38564189
_cell_length_c   6.76841844
_cell_angle_alpha   88.89709177
_cell_angle_beta   88.89708987
_cell_angle_gamma   89.29309868
_symmetry_Int_Tables_number   1
_chemical_formula_structural   Nd4TcBr4
_chemical_formula_sum   'Nd8 Tc2 Br8'
_cell_volume   595.96821890
_cell_formula_units_Z   2
loop_
 _symmetry_equiv_pos_site_id
 _symmetry_equiv_pos_as_xyz
  1  'x, y, z'
loop_
 _atom_site_type_symbol
 _atom_site_label
 _atom_site_symmetry_multiplicity
 _atom_site_fract_x
 _atom_site_fract_y
 _atom_site_fract_z
 _atom_site_occupancy
  Nd  Nd0  1  0.247928  0.900974  0.011050  1
  Nd  Nd1  1  0.752072  0.099026  0.988950  1
  Nd  Nd2  1  0.099026  0.752072  0.488950  1
  Nd  Nd3  1  0.900974  0.247928  0.511050  1
  Nd  Nd4  1  0.751697  0.901992  0.502300  1
  Nd  Nd5  1  0.248303  0.098008  0.497700  1
  Nd  Nd6  1  0.098008  0.248303  0.997700  1
  Nd  Nd7  1  0.901992  0.751697  0.002300  1
  Tc  Tc8  1  0.996876  0.003124  0.250000  1
  Tc  Tc9  1  0.003124  0.996876  0.750000  1
  Br  Br10  1  0.412918  0.820222  0.428760  1
  Br  Br11  1  0.587082  0.179778  0.571240  1
  Br  Br12  1  0.179778  0.587082  0.071240  1
  Br  Br13  1  0.820222  0.412918  0.928760  1
  Br  Br14  1  0.409667  0.181573  0.076830  1
  Br  Br15  1  0.590333  0.818427  0.923170  1
  Br  Br16  1  0.818427  0.590333  0.423170  1
  Br  Br17  1  0.181573  0.409667  0.576830  1
