# generated using pymatgen
data_CeHoTc3Ge4
_symmetry_space_group_name_H-M   'P 1'
_cell_length_a   8.31027700
_cell_length_b   5.73634652
_cell_length_c   7.02128503
_cell_angle_alpha   76.22930651
_cell_angle_beta   90.00000000
_cell_angle_gamma   90.00000000
_symmetry_Int_Tables_number   1
_chemical_formula_structural   CeHoTc3Ge4
_chemical_formula_sum   'Ce2 Ho2 Tc6 Ge8'
_cell_volume   325.08824752
_cell_formula_units_Z   2
loop_
 _symmetry_equiv_pos_site_id
 _symmetry_equiv_pos_as_xyz
  1  'x, y, z'
loop_
 _atom_site_type_symbol
 _atom_site_label
 _atom_site_symmetry_multiplicity
 _atom_site_fract_x
 _atom_site_fract_y
 _atom_site_fract_z
 _atom_site_occupancy
  Ce  Ce0  1  0.554445  0.077856  0.245949  1
  Ce  Ce1  1  0.054445  0.422144  0.754051  1
  Ho  Ho2  1  0.441882  0.924292  0.754174  1
  Ho  Ho3  1  0.941882  0.575708  0.245826  1
  Tc  Tc4  1  0.210352  0.114822  0.110508  1
  Tc  Tc5  1  0.710352  0.385178  0.889492  1
  Tc  Tc6  1  0.796666  0.888867  0.886163  1
  Tc  Tc7  1  0.296666  0.611133  0.113837  1
  Tc  Tc8  1  0.998739  0.997840  0.497178  1
  Tc  Tc9  1  0.498739  0.502160  0.502822  1
  Ge  Ge10  1  0.903185  0.115985  0.131703  1
  Ge  Ge11  1  0.403185  0.384015  0.868297  1
  Ge  Ge12  1  0.099178  0.875123  0.875691  1
  Ge  Ge13  1  0.599178  0.624877  0.124309  1
  Ge  Ge14  1  0.745781  0.221713  0.580664  1
  Ge  Ge15  1  0.245781  0.278287  0.419336  1
  Ge  Ge16  1  0.249771  0.775642  0.419666  1
  Ge  Ge17  1  0.749771  0.724358  0.580334  1
