# generated using pymatgen
data_KSb12(IrRu)2
_symmetry_space_group_name_H-M   'P 1'
_cell_length_a   8.16802839
_cell_length_b   8.16802901
_cell_length_c   8.16763847
_cell_angle_alpha   109.47573730
_cell_angle_beta   109.45277432
_cell_angle_gamma   109.48708137
_symmetry_Int_Tables_number   1
_chemical_formula_structural   KSb12(IrRu)2
_chemical_formula_sum   'K1 Sb12 Ir2 Ru2'
_cell_volume   419.46791217
_cell_formula_units_Z   1
loop_
 _symmetry_equiv_pos_site_id
 _symmetry_equiv_pos_as_xyz
  1  'x, y, z'
loop_
 _atom_site_type_symbol
 _atom_site_label
 _atom_site_symmetry_multiplicity
 _atom_site_fract_x
 _atom_site_fract_y
 _atom_site_fract_z
 _atom_site_occupancy
  K  K0  1  0.000000  0.000000  0.000000  1
  Sb  Sb1  1  0.658852  0.841380  0.500233  1
  Sb  Sb2  1  0.341148  0.158620  0.499767  1
  Sb  Sb3  1  0.844731  0.186318  0.344728  1
  Sb  Sb4  1  0.814032  0.658920  0.158954  1
  Sb  Sb5  1  0.841590  0.500004  0.655272  1
  Sb  Sb6  1  0.185968  0.341080  0.841046  1
  Sb  Sb7  1  0.155269  0.813682  0.655272  1
  Sb  Sb8  1  0.499965  0.655078  0.841046  1
  Sb  Sb9  1  0.500035  0.344922  0.158954  1
  Sb  Sb10  1  0.158410  0.499996  0.344728  1
  Sb  Sb11  1  0.344648  0.844116  0.188764  1
  Sb  Sb12  1  0.655352  0.155884  0.811236  1
  Ir  Ir13  1  0.500000  0.000000  0.000000  1
  Ir  Ir14  1  0.000000  0.500000  0.000000  1
  Ru  Ru15  1  0.500000  0.500000  0.500000  1
  Ru  Ru16  1  0.000000  0.000000  0.500000  1
