# generated using pymatgen
data_Cs2Sb(WO4)3
_symmetry_space_group_name_H-M   'P 1'
_cell_length_a   7.38225892
_cell_length_b   7.38225869
_cell_length_c   7.37870240
_cell_angle_alpha   60.87096298
_cell_angle_beta   60.87096413
_cell_angle_gamma   60.58207565
_symmetry_Int_Tables_number   1
_chemical_formula_structural   Cs2Sb(WO4)3
_chemical_formula_sum   'Cs2 Sb1 W3 O12'
_cell_volume   289.30797334
_cell_formula_units_Z   1
loop_
 _symmetry_equiv_pos_site_id
 _symmetry_equiv_pos_as_xyz
  1  'x, y, z'
loop_
 _atom_site_type_symbol
 _atom_site_label
 _atom_site_symmetry_multiplicity
 _atom_site_fract_x
 _atom_site_fract_y
 _atom_site_fract_z
 _atom_site_occupancy
  Cs  Cs0  1  0.865277  0.883471  0.378667  1
  Cs  Cs1  1  0.116529  0.134723  0.621333  1
  Sb  Sb2  1  0.497047  0.502953  0.000000  1
  W  W3  1  0.994449  0.508152  0.998838  1
  W  W4  1  0.491848  0.005551  0.001162  1
  W  W5  1  0.497207  0.502793  0.500000  1
  O  O6  1  0.186544  0.194453  0.059486  1
  O  O7  1  0.562815  0.567514  0.682001  1
  O  O8  1  0.178411  0.569759  0.066143  1
  O  O9  1  0.557384  0.183940  0.696898  1
  O  O10  1  0.562443  0.184929  0.066036  1
  O  O11  1  0.178433  0.563794  0.696421  1
  O  O12  1  0.805547  0.813456  0.940514  1
  O  O13  1  0.432486  0.437185  0.317999  1
  O  O14  1  0.815071  0.437557  0.933964  1
  O  O15  1  0.436206  0.821567  0.303579  1
  O  O16  1  0.430241  0.821589  0.933857  1
  O  O17  1  0.816060  0.442616  0.303102  1
