# generated using pymatgen
data_Er8TaTi10Si16Au
_symmetry_space_group_name_H-M   'P 1'
_cell_length_a   7.03881539
_cell_length_b   7.03819064
_cell_length_c   12.84144911
_cell_angle_alpha   90.16714835
_cell_angle_beta   89.86121468
_cell_angle_gamma   89.50869197
_symmetry_Int_Tables_number   1
_chemical_formula_structural   Er8TaTi10Si16Au
_chemical_formula_sum   'Er8 Ta1 Ti10 Si16 Au1'
_cell_volume   636.14412400
_cell_formula_units_Z   1
loop_
 _symmetry_equiv_pos_site_id
 _symmetry_equiv_pos_as_xyz
  1  'x, y, z'
loop_
 _atom_site_type_symbol
 _atom_site_label
 _atom_site_symmetry_multiplicity
 _atom_site_fract_x
 _atom_site_fract_y
 _atom_site_fract_z
 _atom_site_occupancy
  Er  Er0  1  0.341390  0.001164  0.466904  1
  Er  Er1  1  0.497355  0.841676  0.716942  1
  Er  Er2  1  0.501768  0.156655  0.214775  1
  Er  Er3  1  0.841627  0.498026  0.283024  1
  Er  Er4  1  0.156657  0.501807  0.785463  1
  Er  Er5  1  0.656938  0.001639  0.968830  1
  Er  Er6  1  0.001670  0.340549  0.532974  1
  Er  Er7  1  0.001895  0.656772  0.031115  1
  Ta  Ta8  1  0.173883  0.825584  0.249430  1
  Ti  Ti9  1  0.825500  0.174988  0.750415  1
  Ti  Ti10  1  0.672090  0.672111  0.500085  1
  Ti  Ti11  1  0.147143  0.007653  0.876574  1
  Ti  Ti12  1  0.494793  0.651974  0.123285  1
  Ti  Ti13  1  0.507038  0.350690  0.625650  1
  Ti  Ti14  1  0.651588  0.495027  0.877242  1
  Ti  Ti15  1  0.349716  0.507097  0.374227  1
  Ti  Ti16  1  0.850603  0.990805  0.373334  1
  Ti  Ti17  1  0.007534  0.146493  0.123919  1
  Ti  Ti18  1  0.991681  0.850462  0.626136  1
  Si  Si19  1  0.202398  0.133111  0.683931  1
  Si  Si20  1  0.373929  0.720375  0.927634  1
  Si  Si21  1  0.631671  0.293926  0.432413  1
  Si  Si22  1  0.720412  0.373703  0.071863  1
  Si  Si23  1  0.293824  0.630865  0.568098  1
  Si  Si24  1  0.798026  0.865645  0.182122  1
  Si  Si25  1  0.133249  0.202231  0.316692  1
  Si  Si26  1  0.865765  0.798547  0.817414  1
  Si  Si27  1  0.288335  0.940081  0.064038  1
  Si  Si28  1  0.546854  0.791165  0.314714  1
  Si  Si29  1  0.454104  0.207699  0.810017  1
  Si  Si30  1  0.791189  0.547345  0.685162  1
  Si  Si31  1  0.207499  0.453114  0.189848  1
  Si  Si32  1  0.708355  0.047485  0.564204  1
  Si  Si33  1  0.938016  0.286658  0.934335  1
  Si  Si34  1  0.046773  0.707373  0.436716  1
  Au  Au35  1  0.328733  0.329507  0.000476  1
