# generated using pymatgen
data_K3Yb(CeSe3)2
_symmetry_space_group_name_H-M   'P 1'
_cell_length_a   7.48065512
_cell_length_b   7.48065454
_cell_length_c   8.05944535
_cell_angle_alpha   98.89833284
_cell_angle_beta   98.89833365
_cell_angle_gamma   119.95772694
_symmetry_Int_Tables_number   1
_chemical_formula_structural   K3Yb(CeSe3)2
_chemical_formula_sum   'K3 Yb1 Ce2 Se6'
_cell_volume   371.60718547
_cell_formula_units_Z   1
loop_
 _symmetry_equiv_pos_site_id
 _symmetry_equiv_pos_as_xyz
  1  'x, y, z'
loop_
 _atom_site_type_symbol
 _atom_site_label
 _atom_site_symmetry_multiplicity
 _atom_site_fract_x
 _atom_site_fract_y
 _atom_site_fract_z
 _atom_site_occupancy
  K  K0  1  0.837029  0.162971  0.500000  1
  K  K1  1  0.500000  0.500000  0.500000  1
  K  K2  1  0.162971  0.837029  0.500000  1
  Yb  Yb3  1  0.000000  0.000000  0.000000  1
  Ce  Ce4  1  0.667183  0.332817  0.000000  1
  Ce  Ce5  1  0.332817  0.667183  0.000000  1
  Se  Se6  1  0.728943  0.728943  0.205307  1
  Se  Se7  1  0.408732  0.069051  0.206536  1
  Se  Se8  1  0.069051  0.408732  0.206536  1
  Se  Se9  1  0.930950  0.591269  0.793465  1
  Se  Se10  1  0.591269  0.930950  0.793465  1
  Se  Se11  1  0.271058  0.271058  0.794693  1
