# generated using pymatgen
data_Tm6MnCo16P12W
_symmetry_space_group_name_H-M   'P 1'
_cell_length_a   3.67759600
_cell_length_b   10.52798700
_cell_length_c   12.15902200
_cell_angle_alpha   90.00000000
_cell_angle_beta   90.00000000
_cell_angle_gamma   90.00000000
_symmetry_Int_Tables_number   1
_chemical_formula_structural   Tm6MnCo16P12W
_chemical_formula_sum   'Tm6 Mn1 Co16 P12 W1'
_cell_volume   470.76915792
_cell_formula_units_Z   1
loop_
 _symmetry_equiv_pos_site_id
 _symmetry_equiv_pos_as_xyz
  1  'x, y, z'
loop_
 _atom_site_type_symbol
 _atom_site_label
 _atom_site_symmetry_multiplicity
 _atom_site_fract_x
 _atom_site_fract_y
 _atom_site_fract_z
 _atom_site_occupancy
  Tm  Tm0  1  0.000000  0.500000  0.523237  1
  Tm  Tm1  1  0.500000  0.000000  0.474566  1
  Tm  Tm2  1  0.500000  0.818736  0.204485  1
  Tm  Tm3  1  0.500000  0.181264  0.204485  1
  Tm  Tm4  1  0.000000  0.680653  0.794043  1
  Tm  Tm5  1  0.000000  0.319347  0.794043  1
  Mn  Mn6  1  0.500000  0.500000  0.160024  1
  Co  Co7  1  0.500000  0.500000  0.702136  1
  Co  Co8  1  0.000000  0.000000  0.299046  1
  Co  Co9  1  0.000000  0.500000  0.986001  1
  Co  Co10  1  0.500000  0.000000  0.013594  1
  Co  Co11  1  0.500000  0.333806  0.993672  1
  Co  Co12  1  0.500000  0.666194  0.993672  1
  Co  Co13  1  0.000000  0.168070  0.010353  1
  Co  Co14  1  0.000000  0.831930  0.010353  1
  Co  Co15  1  0.500000  0.297295  0.430338  1
  Co  Co16  1  0.500000  0.702705  0.430338  1
  Co  Co17  1  0.000000  0.204538  0.567743  1
  Co  Co18  1  0.000000  0.795462  0.567743  1
  Co  Co19  1  0.500000  0.877403  0.707094  1
  Co  Co20  1  0.500000  0.122597  0.707094  1
  Co  Co21  1  0.000000  0.621422  0.291879  1
  Co  Co22  1  0.000000  0.378578  0.291879  1
  P  P23  1  0.500000  0.500000  0.881642  1
  P  P24  1  0.000000  0.000000  0.120393  1
  P  P25  1  0.500000  0.500000  0.346635  1
  P  P26  1  0.000000  0.000000  0.647767  1
  P  P27  1  0.500000  0.312537  0.615722  1
  P  P28  1  0.500000  0.687463  0.615722  1
  P  P29  1  0.000000  0.188167  0.382894  1
  P  P30  1  0.000000  0.811833  0.382894  1
  P  P31  1  0.500000  0.842067  0.893189  1
  P  P32  1  0.500000  0.157933  0.893189  1
  P  P33  1  0.000000  0.651519  0.109429  1
  P  P34  1  0.000000  0.348481  0.109429  1
  W  W35  1  0.000000  0.000000  0.843281  1
