# generated using pymatgen
data_ErTmFeIr3
_symmetry_space_group_name_H-M   'P 1'
_cell_length_a   5.13993090
_cell_length_b   5.13993045
_cell_length_c   5.13993068
_cell_angle_alpha   63.91554179
_cell_angle_beta   63.91554528
_cell_angle_gamma   63.91555288
_symmetry_Int_Tables_number   1
_chemical_formula_structural   ErTmFeIr3
_chemical_formula_sum   'Er1 Tm1 Fe1 Ir3'
_cell_volume   104.30484350
_cell_formula_units_Z   1
loop_
 _symmetry_equiv_pos_site_id
 _symmetry_equiv_pos_as_xyz
  1  'x, y, z'
loop_
 _atom_site_type_symbol
 _atom_site_label
 _atom_site_symmetry_multiplicity
 _atom_site_fract_x
 _atom_site_fract_y
 _atom_site_fract_z
 _atom_site_occupancy
  Er  Er0  1  0.251415  0.251415  0.251415  1
  Tm  Tm1  1  0.998140  0.998140  0.998140  1
  Fe  Fe2  1  0.625046  0.625046  0.625046  1
  Ir  Ir3  1  0.625208  0.625208  0.124985  1
  Ir  Ir4  1  0.625208  0.124985  0.625208  1
  Ir  Ir5  1  0.124985  0.625208  0.625208  1
