# generated using pymatgen
data_PrNd3(HoPb)6
_symmetry_space_group_name_H-M   'P 1'
_cell_length_a   9.16622668
_cell_length_b   9.16165753
_cell_length_c   6.72766200
_cell_angle_alpha   90.00000000
_cell_angle_beta   90.00000000
_cell_angle_gamma   119.49176637
_symmetry_Int_Tables_number   1
_chemical_formula_structural   PrNd3(HoPb)6
_chemical_formula_sum   'Pr1 Nd3 Ho6 Pb6'
_cell_volume   491.76870835
_cell_formula_units_Z   1
loop_
 _symmetry_equiv_pos_site_id
 _symmetry_equiv_pos_as_xyz
  1  'x, y, z'
loop_
 _atom_site_type_symbol
 _atom_site_label
 _atom_site_symmetry_multiplicity
 _atom_site_fract_x
 _atom_site_fract_y
 _atom_site_fract_z
 _atom_site_occupancy
  Pr  Pr0  1  0.998597  0.762345  0.250000  1
  Nd  Nd1  1  0.238536  0.001597  0.750000  1
  Nd  Nd2  1  0.001308  0.237655  0.750000  1
  Nd  Nd3  1  0.761867  0.998482  0.250000  1
  Ho  Ho4  1  0.667134  0.332981  0.999915  1
  Ho  Ho5  1  0.332845  0.667070  0.999922  1
  Ho  Ho6  1  0.332845  0.667070  0.500078  1
  Ho  Ho7  1  0.667134  0.332981  0.500085  1
  Ho  Ho8  1  0.756015  0.756351  0.750000  1
  Ho  Ho9  1  0.243692  0.243654  0.250000  1
  Pb  Pb10  1  0.401498  0.401609  0.750000  1
  Pb  Pb11  1  0.603983  0.997651  0.750000  1
  Pb  Pb12  1  0.997399  0.603878  0.750000  1
  Pb  Pb13  1  0.597384  0.597936  0.250000  1
  Pb  Pb14  1  0.397341  0.003211  0.250000  1
  Pb  Pb15  1  0.002422  0.395533  0.250000  1
