# generated using pymatgen
data_SrPF36
_symmetry_space_group_name_H-M   'P 1'
_cell_length_a   6.44031705
_cell_length_b   10.62489978
_cell_length_c   10.71937658
_cell_angle_alpha   89.42486029
_cell_angle_beta   100.52640633
_cell_angle_gamma   74.74971565
_symmetry_Int_Tables_number   1
_chemical_formula_structural   SrPF36
_chemical_formula_sum   'Sr1 P1 F36'
_cell_volume   694.45742027
_cell_formula_units_Z   1
loop_
 _symmetry_equiv_pos_site_id
 _symmetry_equiv_pos_as_xyz
  1  'x, y, z'
loop_
 _atom_site_type_symbol
 _atom_site_label
 _atom_site_symmetry_multiplicity
 _atom_site_fract_x
 _atom_site_fract_y
 _atom_site_fract_z
 _atom_site_occupancy
  Sr  Sr0  1  0.787358  0.866238  0.858756  1
  P  P1  1  0.332296  0.176338  0.177041  1
  F  F2  1  0.281103  0.415568  0.902805  1
  F  F3  1  0.644208  0.658162  0.103905  1
  F  F4  1  0.346834  0.223461  0.575277  1
  F  F5  1  0.616769  0.808125  0.418621  1
  F  F6  1  0.928986  0.194639  0.817206  1
  F  F7  1  0.184445  0.747551  0.191925  1
  F  F8  1  0.715687  0.873774  0.066051  1
  F  F9  1  0.330468  0.146222  0.030632  1
  F  F10  1  0.736289  0.605159  0.868567  1
  F  F11  1  0.227393  0.325323  0.136784  1
  F  F12  1  0.348491  0.458056  0.793968  1
  F  F13  1  0.601938  0.556451  0.175696  1
  F  F14  1  0.751354  0.596509  0.736711  1
  F  F15  1  0.328703  0.209041  0.323148  1
  F  F16  1  0.748264  0.953980  0.566719  1
  F  F17  1  0.188111  0.978059  0.485252  1
  F  F18  1  0.359535  0.197616  0.707664  1
  F  F19  1  0.668225  0.837186  0.298852  1
  F  F20  1  0.825050  0.037364  0.660110  1
  F  F21  1  0.103761  0.919918  0.374595  1
  F  F22  1  0.825605  0.020850  0.006074  1
  F  F23  1  0.187527  0.081163  0.186948  1
  F  F24  1  0.859811  0.301158  0.723721  1
  F  F25  1  0.133500  0.626874  0.209978  1
  F  F26  1  0.154541  0.725322  0.882846  1
  F  F27  1  0.767891  0.390048  0.993248  1
  F  F28  1  0.421764  0.906727  0.732935  1
  F  F29  1  0.586827  0.123981  0.209543  1
  F  F30  1  0.104521  0.717118  0.511320  1
  F  F31  1  0.873799  0.229329  0.429399  1
  F  F32  1  0.110066  0.627215  0.612888  1
  F  F33  1  0.849870  0.351409  0.364221  1
  F  F34  1  0.285290  0.817843  0.808897  1
  F  F35  1  0.757370  0.290379  0.080058  1
  F  F36  1  0.476892  0.447739  0.504101  1
  F  F37  1  0.549462  0.558108  0.473536  1
