# generated using pymatgen
data_Yb11InP9
_symmetry_space_group_name_H-M   'P 1'
_cell_length_a   10.97037657
_cell_length_b   10.97037634
_cell_length_c   10.97037545
_cell_angle_alpha   120.81156100
_cell_angle_beta   116.44724191
_cell_angle_gamma   92.43065610
_symmetry_Int_Tables_number   1
_chemical_formula_structural   Yb11InP9
_chemical_formula_sum   'Yb22 In2 P18'
_cell_volume   950.34934710
_cell_formula_units_Z   2
loop_
 _symmetry_equiv_pos_site_id
 _symmetry_equiv_pos_as_xyz
  1  'x, y, z'
loop_
 _atom_site_type_symbol
 _atom_site_label
 _atom_site_symmetry_multiplicity
 _atom_site_fract_x
 _atom_site_fract_y
 _atom_site_fract_z
 _atom_site_occupancy
  Yb  Yb0  1  0.564912  0.920526  0.797211  1
  Yb  Yb1  1  0.319651  0.663921  0.985425  1
  Yb  Yb2  1  0.123316  0.767702  0.202789  1
  Yb  Yb3  1  0.326516  0.326516  0.000000  1
  Yb  Yb4  1  0.315142  0.052636  0.628587  1
  Yb  Yb5  1  0.074560  0.445967  0.258958  1
  Yb  Yb6  1  0.932524  0.746955  0.364479  1
  Yb  Yb7  1  0.064912  0.267702  0.644386  1
  Yb  Yb8  1  0.382476  0.568044  0.635521  1
  Yb  Yb9  1  0.574560  0.315602  0.628593  1
  Yb  Yb10  1  0.623316  0.420526  0.355614  1
  Yb  Yb11  1  0.687009  0.945967  0.371407  1
  Yb  Yb12  1  0.178495  0.163921  0.344270  1
  Yb  Yb13  1  0.424049  0.686555  0.371413  1
  Yb  Yb14  1  0.924049  0.552636  0.737494  1
  Yb  Yb15  1  0.678495  0.334226  0.014575  1
  Yb  Yb16  1  0.826516  0.826516  0.000000  1
  Yb  Yb17  1  0.432524  0.068044  0.185568  1
  Yb  Yb18  1  0.819651  0.834226  0.655730  1
  Yb  Yb19  1  0.815142  0.186555  0.262506  1
  Yb  Yb20  1  0.882476  0.246955  0.814432  1
  Yb  Yb21  1  0.187009  0.815602  0.741042  1
  In  In22  1  0.607128  0.607128  0.000000  1
  In  In23  1  0.107128  0.107128  0.000000  1
  P  P24  1  0.994607  0.991169  0.350234  1
  P  P25  1  0.909788  0.533372  0.437628  1
  P  P26  1  0.095746  0.472160  0.562372  1
  P  P27  1  0.374797  0.362593  0.746294  1
  P  P28  1  0.874797  0.128502  0.012204  1
  P  P29  1  0.616299  0.628502  0.253706  1
  P  P30  1  0.749011  0.249011  0.500000  1
  P  P31  1  0.640934  0.644371  0.649766  1
  P  P32  1  0.831586  0.539878  0.992370  1
  P  P33  1  0.116299  0.862593  0.987796  1
  P  P34  1  0.494607  0.144371  0.003437  1
  P  P35  1  0.595746  0.033372  0.623586  1
  P  P36  1  0.140934  0.491169  0.996563  1
  P  P37  1  0.249011  0.749011  0.500000  1
  P  P38  1  0.409788  0.972160  0.376414  1
  P  P39  1  0.331586  0.339216  0.291708  1
  P  P40  1  0.547508  0.839216  0.007630  1
  P  P41  1  0.047508  0.039878  0.708292  1
