# generated using pymatgen
data_Sc2Ta2NbRe24
_symmetry_space_group_name_H-M   'P 1'
_cell_length_a   8.43579481
_cell_length_b   8.43579316
_cell_length_c   8.42461700
_cell_angle_alpha   109.44450887
_cell_angle_beta   109.44450248
_cell_angle_gamma   109.50392767
_symmetry_Int_Tables_number   1
_chemical_formula_structural   Sc2Ta2NbRe24
_chemical_formula_sum   'Sc2 Ta2 Nb1 Re24'
_cell_volume   461.62690080
_cell_formula_units_Z   1
loop_
 _symmetry_equiv_pos_site_id
 _symmetry_equiv_pos_as_xyz
  1  'x, y, z'
loop_
 _atom_site_type_symbol
 _atom_site_label
 _atom_site_symmetry_multiplicity
 _atom_site_fract_x
 _atom_site_fract_y
 _atom_site_fract_z
 _atom_site_occupancy
  Sc  Sc0  1  0.000027  0.000027  0.631184  1
  Sc  Sc1  1  0.000045  0.000045  0.997929  1
  Ta  Ta2  1  0.999916  0.631854  0.999431  1
  Ta  Ta3  1  0.631854  0.999916  0.999431  1
  Nb  Nb4  1  0.368231  0.368231  0.367730  1
  Re  Re5  1  0.999997  0.397211  0.680963  1
  Re  Re6  1  0.282230  0.600733  0.600164  1
  Re  Re7  1  0.717712  0.318607  0.317939  1
  Re  Re8  1  0.318607  0.717712  0.317939  1
  Re  Re9  1  0.676157  0.999877  0.396127  1
  Re  Re10  1  0.999877  0.676157  0.396127  1
  Re  Re11  1  0.602844  0.602844  0.283930  1
  Re  Re12  1  0.806117  0.806117  0.182077  1
  Re  Re13  1  0.376469  0.193583  0.000673  1
  Re  Re14  1  0.193583  0.376469  0.000673  1
  Re  Re15  1  0.623687  0.817365  0.624544  1
  Re  Re16  1  0.376355  0.999848  0.196275  1
  Re  Re17  1  0.999848  0.376355  0.196275  1
  Re  Re18  1  0.817365  0.623687  0.624544  1
  Re  Re19  1  0.182792  0.806434  0.807284  1
  Re  Re20  1  0.806434  0.182792  0.807284  1
  Re  Re21  1  0.193934  0.999760  0.375945  1
  Re  Re22  1  0.999760  0.193934  0.375945  1
  Re  Re23  1  0.623804  0.623804  0.819965  1
  Re  Re24  1  0.397211  0.999997  0.680963  1
  Re  Re25  1  0.600733  0.282230  0.600164  1
  Re  Re26  1  0.681438  0.399245  0.999319  1
  Re  Re27  1  0.399245  0.681438  0.999319  1
  Re  Re28  1  0.323729  0.323729  0.719853  1
