# generated using pymatgen
data_Er7Tm(Lu3Pt4)4
_symmetry_space_group_name_H-M   'P 1'
_cell_length_a   7.37269209
_cell_length_b   7.45947202
_cell_length_c   14.48466116
_cell_angle_alpha   90.00087634
_cell_angle_beta   89.98322883
_cell_angle_gamma   89.99253688
_symmetry_Int_Tables_number   1
_chemical_formula_structural   Er7Tm(Lu3Pt4)4
_chemical_formula_sum   'Er7 Tm1 Lu12 Pt16'
_cell_volume   796.60403820
_cell_formula_units_Z   1
loop_
 _symmetry_equiv_pos_site_id
 _symmetry_equiv_pos_as_xyz
  1  'x, y, z'
loop_
 _atom_site_type_symbol
 _atom_site_label
 _atom_site_symmetry_multiplicity
 _atom_site_fract_x
 _atom_site_fract_y
 _atom_site_fract_z
 _atom_site_occupancy
  Er  Er0  1  0.000657  0.820639  0.907549  1
  Er  Er1  1  0.499341  0.320561  0.092459  1
  Er  Er2  1  0.999323  0.179422  0.407629  1
  Er  Er3  1  0.499364  0.320754  0.407698  1
  Er  Er4  1  0.999325  0.179343  0.092464  1
  Er  Er5  1  0.500706  0.679433  0.907572  1
  Er  Er6  1  0.000659  0.820592  0.592361  1
  Tm  Tm7  1  0.500764  0.679564  0.592435  1
  Lu  Lu8  1  0.656489  0.167369  0.622711  1
  Lu  Lu9  1  0.156585  0.332636  0.877218  1
  Lu  Lu10  1  0.343475  0.832634  0.122770  1
  Lu  Lu11  1  0.843444  0.667322  0.377283  1
  Lu  Lu12  1  0.343615  0.832560  0.377337  1
  Lu  Lu13  1  0.843501  0.667396  0.122742  1
  Lu  Lu14  1  0.656546  0.167385  0.877229  1
  Lu  Lu15  1  0.156714  0.332668  0.622657  1
  Lu  Lu16  1  0.819003  0.509909  0.749923  1
  Lu  Lu17  1  0.319080  0.990071  0.749916  1
  Lu  Lu18  1  0.180990  0.490111  0.250015  1
  Lu  Lu19  1  0.680992  0.009911  0.250009  1
  Pt  Pt20  1  0.683281  0.964830  0.458946  1
  Pt  Pt21  1  0.183280  0.534706  0.041344  1
  Pt  Pt22  1  0.316914  0.034850  0.958864  1
  Pt  Pt23  1  0.815604  0.466019  0.541444  1
  Pt  Pt24  1  0.316921  0.033807  0.541485  1
  Pt  Pt25  1  0.816816  0.465284  0.958710  1
  Pt  Pt26  1  0.683277  0.965141  0.041288  1
  Pt  Pt27  1  0.183531  0.535130  0.458945  1
  Pt  Pt28  1  0.453929  0.385872  0.749700  1
  Pt  Pt29  1  0.953699  0.114398  0.749919  1
  Pt  Pt30  1  0.546169  0.614516  0.249979  1
  Pt  Pt31  1  0.046241  0.885380  0.250060  1
  Pt  Pt32  1  0.681311  0.856323  0.749426  1
  Pt  Pt33  1  0.181925  0.643382  0.749748  1
  Pt  Pt34  1  0.318189  0.143324  0.250009  1
  Pt  Pt35  1  0.818338  0.356757  0.250155  1
