# generated using pymatgen
data_Ca2Tb2GaNi13
_symmetry_space_group_name_H-M   'P 1'
_cell_length_a   4.95472064
_cell_length_b   4.92638799
_cell_length_c   12.45249530
_cell_angle_alpha   78.62525749
_cell_angle_beta   78.52474194
_cell_angle_gamma   59.80958027
_symmetry_Int_Tables_number   1
_chemical_formula_structural   Ca2Tb2GaNi13
_chemical_formula_sum   'Ca2 Tb2 Ga1 Ni13'
_cell_volume   255.77147397
_cell_formula_units_Z   1
loop_
 _symmetry_equiv_pos_site_id
 _symmetry_equiv_pos_as_xyz
  1  'x, y, z'
loop_
 _atom_site_type_symbol
 _atom_site_label
 _atom_site_symmetry_multiplicity
 _atom_site_fract_x
 _atom_site_fract_y
 _atom_site_fract_z
 _atom_site_occupancy
  Ca  Ca0  1  0.850428  0.850365  0.448781  1
  Ca  Ca1  1  0.149572  0.149635  0.551219  1
  Tb  Tb2  1  0.944997  0.944488  0.165519  1
  Tb  Tb3  1  0.055003  0.055512  0.834481  1
  Ga  Ga4  1  0.500000  0.000000  0.000000  1
  Ni  Ni5  1  0.500000  0.500000  0.500000  1
  Ni  Ni6  1  0.723798  0.717914  0.834488  1
  Ni  Ni7  1  0.276202  0.282086  0.165512  1
  Ni  Ni8  1  0.613736  0.608168  0.164358  1
  Ni  Ni9  1  0.386264  0.391832  0.835642  1
  Ni  Ni10  1  0.000000  0.500000  0.000000  1
  Ni  Ni11  1  0.500000  0.500000  0.000000  1
  Ni  Ni12  1  0.392198  0.391216  0.327336  1
  Ni  Ni13  1  0.889250  0.391216  0.327336  1
  Ni  Ni14  1  0.391461  0.890131  0.326948  1
  Ni  Ni15  1  0.607802  0.608784  0.672664  1
  Ni  Ni16  1  0.110750  0.608784  0.672664  1
  Ni  Ni17  1  0.608539  0.109869  0.673052  1
