# generated using pymatgen
data_YHo5Al24(Os3Pd)2
_symmetry_space_group_name_H-M   'P 1'
_cell_length_a   8.82923187
_cell_length_b   8.85259564
_cell_length_c   9.57550000
_cell_angle_alpha   90.00000000
_cell_angle_beta   90.00000000
_cell_angle_gamma   120.07856840
_symmetry_Int_Tables_number   1
_chemical_formula_structural   YHo5Al24(Os3Pd)2
_chemical_formula_sum   'Y1 Ho5 Al24 Os6 Pd2'
_cell_volume   647.65133221
_cell_formula_units_Z   1
loop_
 _symmetry_equiv_pos_site_id
 _symmetry_equiv_pos_as_xyz
  1  'x, y, z'
loop_
 _atom_site_type_symbol
 _atom_site_label
 _atom_site_symmetry_multiplicity
 _atom_site_fract_x
 _atom_site_fract_y
 _atom_site_fract_z
 _atom_site_occupancy
  Y  Y0  1  0.804894  0.187395  0.750000  1
  Ho  Ho1  1  0.196806  0.384114  0.250000  1
  Ho  Ho2  1  0.802797  0.615660  0.750000  1
  Ho  Ho3  1  0.610894  0.805599  0.250000  1
  Ho  Ho4  1  0.388939  0.194653  0.750000  1
  Ho  Ho5  1  0.196830  0.812811  0.250000  1
  Al  Al6  1  0.337615  0.668824  0.025112  1
  Al  Al7  1  0.661928  0.330895  0.975356  1
  Al  Al8  1  0.661928  0.330895  0.524644  1
  Al  Al9  1  0.337615  0.668824  0.474888  1
  Al  Al10  1  0.168236  0.324849  0.577568  1
  Al  Al11  1  0.832163  0.675411  0.422104  1
  Al  Al12  1  0.671497  0.835728  0.577054  1
  Al  Al13  1  0.832163  0.675411  0.077896  1
  Al  Al14  1  0.328122  0.164129  0.422500  1
  Al  Al15  1  0.168236  0.324849  0.922432  1
  Al  Al16  1  0.167794  0.843200  0.577758  1
  Al  Al17  1  0.328122  0.164129  0.077500  1
  Al  Al18  1  0.831979  0.156688  0.421634  1
  Al  Al19  1  0.671497  0.835728  0.922946  1
  Al  Al20  1  0.831979  0.156688  0.078366  1
  Al  Al21  1  0.167794  0.843200  0.922242  1
  Al  Al22  1  0.561295  0.123909  0.250000  1
  Al  Al23  1  0.438763  0.876578  0.750000  1
  Al  Al24  1  0.877046  0.438662  0.250000  1
  Al  Al25  1  0.123563  0.562274  0.750000  1
  Al  Al26  1  0.561417  0.437729  0.250000  1
  Al  Al27  1  0.438524  0.562543  0.750000  1
  Al  Al28  1  0.002497  0.001287  0.250000  1
  Al  Al29  1  0.998385  0.997696  0.750000  1
  Os  Os30  1  0.499583  0.999762  0.000356  1
  Os  Os31  1  0.499583  0.999762  0.499644  1
  Os  Os32  1  0.500033  0.500061  0.999989  1
  Os  Os33  1  0.500033  0.500061  0.500011  1
  Os  Os34  1  0.999868  0.000241  0.999809  1
  Os  Os35  1  0.999868  0.000241  0.500191  1
  Pd  Pd36  1  0.999855  0.499756  0.999993  1
  Pd  Pd37  1  0.999855  0.499756  0.500007  1
