# generated using pymatgen
data_Hf12Ga5Cu7N4
_symmetry_space_group_name_H-M   'P 1'
_cell_length_a   8.40830275
_cell_length_b   8.41082322
_cell_length_c   8.40830300
_cell_angle_alpha   60.00991546
_cell_angle_beta   60.00000295
_cell_angle_gamma   60.00990766
_symmetry_Int_Tables_number   1
_chemical_formula_structural   Hf12Ga5Cu7N4
_chemical_formula_sum   'Hf12 Ga5 Cu7 N4'
_cell_volume   420.53801229
_cell_formula_units_Z   1
loop_
 _symmetry_equiv_pos_site_id
 _symmetry_equiv_pos_as_xyz
  1  'x, y, z'
loop_
 _atom_site_type_symbol
 _atom_site_label
 _atom_site_symmetry_multiplicity
 _atom_site_fract_x
 _atom_site_fract_y
 _atom_site_fract_z
 _atom_site_occupancy
  Hf  Hf0  1  0.809761  0.191476  0.189001  1
  Hf  Hf1  1  0.188860  0.811431  0.188860  1
  Hf  Hf2  1  0.810848  0.811431  0.188860  1
  Hf  Hf3  1  0.188860  0.811431  0.810848  1
  Hf  Hf4  1  0.809761  0.191476  0.809761  1
  Hf  Hf5  1  0.189001  0.191476  0.809761  1
  Hf  Hf6  1  0.440266  0.058875  0.060593  1
  Hf  Hf7  1  0.062573  0.437429  0.062573  1
  Hf  Hf8  1  0.437424  0.437429  0.062573  1
  Hf  Hf9  1  0.062573  0.437429  0.437424  1
  Hf  Hf10  1  0.440266  0.058875  0.440266  1
  Hf  Hf11  1  0.060593  0.058875  0.440266  1
  Ga  Ga12  1  0.831117  0.506651  0.831117  1
  Ga  Ga13  1  0.620881  0.626639  0.131598  1
  Ga  Ga14  1  0.620881  0.626639  0.620881  1
  Ga  Ga15  1  0.131598  0.626639  0.620881  1
  Ga  Ga16  1  0.624897  0.125307  0.624897  1
  Cu  Cu17  1  0.417355  0.415619  0.749670  1
  Cu  Cu18  1  0.417355  0.415619  0.417355  1
  Cu  Cu19  1  0.749670  0.415619  0.417355  1
  Cu  Cu20  1  0.416756  0.749731  0.416756  1
  Cu  Cu21  1  0.832695  0.832938  0.501673  1
  Cu  Cu22  1  0.832695  0.832938  0.832695  1
  Cu  Cu23  1  0.501673  0.832938  0.832695  1
  N  N24  1  0.126034  0.123177  0.624756  1
  N  N25  1  0.126034  0.123177  0.126034  1
  N  N26  1  0.624756  0.123177  0.126034  1
  N  N27  1  0.124813  0.625561  0.124813  1
