# generated using pymatgen
data_CrCd3As(PN2)6
_symmetry_space_group_name_H-M   'P 1'
_cell_length_a   7.34120985
_cell_length_b   7.39113645
_cell_length_c   7.39113706
_cell_angle_alpha   109.60764444
_cell_angle_beta   109.33444540
_cell_angle_gamma   109.33444733
_symmetry_Int_Tables_number   1
_chemical_formula_structural   CrCd3As(PN2)6
_chemical_formula_sum   'Cr1 Cd3 As1 P6 N12'
_cell_volume   309.24204665
_cell_formula_units_Z   1
loop_
 _symmetry_equiv_pos_site_id
 _symmetry_equiv_pos_as_xyz
  1  'x, y, z'
loop_
 _atom_site_type_symbol
 _atom_site_label
 _atom_site_symmetry_multiplicity
 _atom_site_fract_x
 _atom_site_fract_y
 _atom_site_fract_z
 _atom_site_occupancy
  Cr  Cr0  1  0.619460  0.000000  0.000000  1
  Cd  Cd1  1  0.000551  0.000000  0.676629  1
  Cd  Cd2  1  0.000551  0.676629  0.000000  1
  Cd  Cd3  1  0.323923  0.323371  0.323371  1
  As  As4  1  0.950093  0.000000  0.000000  1
  P  P5  1  0.255681  0.748783  0.500837  1
  P  P6  1  0.754844  0.247946  0.499163  1
  P  P7  1  0.754844  0.499163  0.247946  1
  P  P8  1  0.255681  0.500837  0.748783  1
  P  P9  1  0.506898  0.752054  0.251217  1
  P  P10  1  0.506898  0.251217  0.752054  1
  N  N11  1  0.708994  0.275554  0.275554  1
  N  N12  1  0.292436  0.717529  0.288224  1
  N  N13  1  0.304630  0.581149  0.581149  1
  N  N14  1  0.574907  0.570695  0.282471  1
  N  N15  1  0.433440  0.724446  0.000000  1
  N  N16  1  0.004212  0.711776  0.429305  1
  N  N17  1  0.574907  0.282471  0.570695  1
  N  N18  1  0.723481  0.000000  0.418851  1
  N  N19  1  0.433440  0.000000  0.724446  1
  N  N20  1  0.723481  0.418851  0.000000  1
  N  N21  1  0.292436  0.288224  0.717529  1
  N  N22  1  0.004212  0.429305  0.711776  1
