# generated using pymatgen
data_ErTm9(IrOs)2
_symmetry_space_group_name_H-M   'P 1'
_cell_length_a   6.35015869
_cell_length_b   7.27610818
_cell_length_c   8.31221901
_cell_angle_alpha   96.68704045
_cell_angle_beta   112.45715102
_cell_angle_gamma   89.98169647
_symmetry_Int_Tables_number   1
_chemical_formula_structural   ErTm9(IrOs)2
_chemical_formula_sum   'Er1 Tm9 Ir2 Os2'
_cell_volume   352.11343197
_cell_formula_units_Z   1
loop_
 _symmetry_equiv_pos_site_id
 _symmetry_equiv_pos_as_xyz
  1  'x, y, z'
loop_
 _atom_site_type_symbol
 _atom_site_label
 _atom_site_symmetry_multiplicity
 _atom_site_fract_x
 _atom_site_fract_y
 _atom_site_fract_z
 _atom_site_occupancy
  Er  Er0  1  0.969208  0.916217  0.179064  1
  Tm  Tm1  1  0.790353  0.583944  0.821028  1
  Tm  Tm2  1  0.026271  0.082206  0.816456  1
  Tm  Tm3  1  0.209725  0.417935  0.183294  1
  Tm  Tm4  1  0.652780  0.817985  0.440406  1
  Tm  Tm5  1  0.212525  0.681962  0.559748  1
  Tm  Tm6  1  0.350340  0.178662  0.561660  1
  Tm  Tm7  1  0.788813  0.321282  0.438470  1
  Tm  Tm8  1  0.422625  0.749869  0.999866  1
  Tm  Tm9  1  0.578352  0.250037  0.000071  1
  Ir  Ir10  1  0.173636  0.423132  0.779916  1
  Ir  Ir11  1  0.393979  0.077162  0.219932  1
  Os  Os12  1  0.824228  0.575067  0.217356  1
  Os  Os13  1  0.607167  0.924539  0.782733  1
