# generated using pymatgen
data_TbY2In3Ga2Pd
_symmetry_space_group_name_H-M   'P 1'
_cell_length_a   7.26685500
_cell_length_b   7.26685472
_cell_length_c   4.44472500
_cell_angle_alpha   90.00000000
_cell_angle_beta   90.00000000
_cell_angle_gamma   119.99999673
_symmetry_Int_Tables_number   1
_chemical_formula_structural   TbY2In3Ga2Pd
_chemical_formula_sum   'Tb1 Y2 In3 Ga2 Pd1'
_cell_volume   203.26776603
_cell_formula_units_Z   1
loop_
 _symmetry_equiv_pos_site_id
 _symmetry_equiv_pos_as_xyz
  1  'x, y, z'
loop_
 _atom_site_type_symbol
 _atom_site_label
 _atom_site_symmetry_multiplicity
 _atom_site_fract_x
 _atom_site_fract_y
 _atom_site_fract_z
 _atom_site_occupancy
  Tb  Tb0  1  0.413207  0.413207  0.500000  1
  Y  Y1  1  0.586793  0.000000  0.500000  1
  Y  Y2  1  0.000000  0.586793  0.500000  1
  In  In3  1  0.751282  0.751282  0.000000  1
  In  In4  1  0.248718  0.000000  0.000000  1
  In  In5  1  0.000000  0.248718  0.000000  1
  Ga  Ga6  1  0.666667  0.333333  0.000000  1
  Ga  Ga7  1  0.333333  0.666667  0.000000  1
  Pd  Pd8  1  0.000000  0.000000  0.500000  1
