# generated using pymatgen
data_Mn2BeB2Ir3Rh2
_symmetry_space_group_name_H-M   'P 1'
_cell_length_a   9.14329579
_cell_length_b   9.17215879
_cell_length_c   2.87525500
_cell_angle_alpha   90.00000000
_cell_angle_beta   90.00000000
_cell_angle_gamma   90.07156252
_symmetry_Int_Tables_number   1
_chemical_formula_structural   Mn2BeB2Ir3Rh2
_chemical_formula_sum   'Mn4 Be2 B4 Ir6 Rh4'
_cell_volume   241.12950940
_cell_formula_units_Z   2
loop_
 _symmetry_equiv_pos_site_id
 _symmetry_equiv_pos_as_xyz
  1  'x, y, z'
loop_
 _atom_site_type_symbol
 _atom_site_label
 _atom_site_symmetry_multiplicity
 _atom_site_fract_x
 _atom_site_fract_y
 _atom_site_fract_z
 _atom_site_occupancy
  Mn  Mn0  1  0.676209  0.176757  0.000000  1
  Mn  Mn1  1  0.323791  0.823243  0.000000  1
  Mn  Mn2  1  0.176734  0.323155  0.000000  1
  Mn  Mn3  1  0.823266  0.676845  0.000000  1
  Be  Be4  1  0.000000  0.000000  0.000000  1
  Be  Be5  1  0.500000  0.500000  0.000000  1
  B  B6  1  0.130553  0.631233  0.000000  1
  B  B7  1  0.869447  0.368767  0.000000  1
  B  B8  1  0.630879  0.869457  0.000000  1
  B  B9  1  0.369121  0.130543  0.000000  1
  Ir  Ir10  1  0.067700  0.794710  0.500000  1
  Ir  Ir11  1  0.704768  0.432963  0.500000  1
  Ir  Ir12  1  0.932300  0.205290  0.500000  1
  Ir  Ir13  1  0.295232  0.567037  0.500000  1
  Ir  Ir14  1  0.567849  0.705625  0.500000  1
  Ir  Ir15  1  0.432151  0.294375  0.500000  1
  Rh  Rh16  1  0.205673  0.067788  0.500000  1
  Rh  Rh17  1  0.794327  0.932212  0.500000  1
  Rh  Rh18  1  0.500000  0.000000  0.500000  1
  Rh  Rh19  1  0.000000  0.500000  0.500000  1
