# generated using pymatgen
data_CrAgF4
_symmetry_space_group_name_H-M   'P 1'
_cell_length_a   5.62150100
_cell_length_b   7.64985881
_cell_length_c   8.26661409
_cell_angle_alpha   78.18603979
_cell_angle_beta   90.00000000
_cell_angle_gamma   90.00000000
_symmetry_Int_Tables_number   1
_chemical_formula_structural   CrAgF4
_chemical_formula_sum   'Cr4 Ag4 F16'
_cell_volume   347.96464198
_cell_formula_units_Z   4
loop_
 _symmetry_equiv_pos_site_id
 _symmetry_equiv_pos_as_xyz
  1  'x, y, z'
loop_
 _atom_site_type_symbol
 _atom_site_label
 _atom_site_symmetry_multiplicity
 _atom_site_fract_x
 _atom_site_fract_y
 _atom_site_fract_z
 _atom_site_occupancy
  Cr  Cr0  1  0.743698  0.704445  0.160421  1
  Cr  Cr1  1  0.243698  0.795555  0.839579  1
  Cr  Cr2  1  0.256302  0.295555  0.839579  1
  Cr  Cr3  1  0.756302  0.204445  0.160421  1
  Ag  Ag4  1  0.218415  0.895037  0.366054  1
  Ag  Ag5  1  0.718415  0.604963  0.633946  1
  Ag  Ag6  1  0.781585  0.104963  0.633946  1
  Ag  Ag7  1  0.281585  0.395037  0.366054  1
  F  F8  1  0.491104  0.134496  0.302759  1
  F  F9  1  0.991104  0.365504  0.697241  1
  F  F10  1  0.508896  0.865504  0.697241  1
  F  F11  1  0.008896  0.634496  0.302759  1
  F  F12  1  0.951884  0.184842  0.354827  1
  F  F13  1  0.451884  0.315158  0.645173  1
  F  F14  1  0.048116  0.815158  0.645173  1
  F  F15  1  0.548116  0.684842  0.354827  1
  F  F16  1  0.837162  0.954686  0.157561  1
  F  F17  1  0.337162  0.545314  0.842439  1
  F  F18  1  0.162838  0.045314  0.842439  1
  F  F19  1  0.662838  0.454686  0.157561  1
  F  F20  1  0.448762  0.786290  0.034568  1
  F  F21  1  0.948762  0.713710  0.965432  1
  F  F22  1  0.551238  0.213710  0.965432  1
  F  F23  1  0.051238  0.286290  0.034568  1
