# generated using pymatgen
data_PrTi3(BiO4)3
_symmetry_space_group_name_H-M   'P 1'
_cell_length_a   5.46547200
_cell_length_b   5.48530589
_cell_length_c   17.05474928
_cell_angle_alpha   80.89274029
_cell_angle_beta   90.00000000
_cell_angle_gamma   90.00000000
_symmetry_Int_Tables_number   1
_chemical_formula_structural   PrTi3(BiO4)3
_chemical_formula_sum   'Pr2 Ti6 Bi6 O24'
_cell_volume   504.85218759
_cell_formula_units_Z   2
loop_
 _symmetry_equiv_pos_site_id
 _symmetry_equiv_pos_as_xyz
  1  'x, y, z'
loop_
 _atom_site_type_symbol
 _atom_site_label
 _atom_site_symmetry_multiplicity
 _atom_site_fract_x
 _atom_site_fract_y
 _atom_site_fract_z
 _atom_site_occupancy
  Pr  Pr0  1  0.254247  0.104719  0.869151  1
  Pr  Pr1  1  0.745753  0.604719  0.869151  1
  Ti  Ti2  1  0.755871  0.057139  0.993424  1
  Ti  Ti3  1  0.244129  0.557139  0.993424  1
  Ti  Ti4  1  0.751689  0.183843  0.744602  1
  Ti  Ti5  1  0.248311  0.683843  0.744602  1
  Ti  Ti6  1  0.752987  0.926974  0.255859  1
  Ti  Ti7  1  0.247013  0.426974  0.255859  1
  Bi  Bi8  1  0.276202  0.191958  0.580373  1
  Bi  Bi9  1  0.723798  0.691958  0.580373  1
  Bi  Bi10  1  0.257489  0.939936  0.132877  1
  Bi  Bi11  1  0.742511  0.439936  0.132877  1
  Bi  Bi12  1  0.227729  0.778637  0.426833  1
  Bi  Bi13  1  0.772271  0.278637  0.426833  1
  O  O14  1  0.463799  0.314167  0.971872  1
  O  O15  1  0.536201  0.814167  0.971872  1
  O  O16  1  0.507665  0.009357  0.499525  1
  O  O17  1  0.492335  0.509357  0.499525  1
  O  O18  1  0.818988  0.150132  0.880694  1
  O  O19  1  0.181012  0.650132  0.880694  1
  O  O20  1  0.681711  0.252279  0.639648  1
  O  O21  1  0.318289  0.752279  0.639648  1
  O  O22  1  0.481792  0.415991  0.780165  1
  O  O23  1  0.518208  0.915991  0.780165  1
  O  O24  1  0.977466  0.465083  0.751542  1
  O  O25  1  0.022534  0.965083  0.751542  1
  O  O26  1  0.951647  0.377411  0.008147  1
  O  O27  1  0.048353  0.877411  0.008147  1
  O  O28  1  0.991429  0.508677  0.502252  1
  O  O29  1  0.008571  0.008677  0.502252  1
  O  O30  1  0.679921  0.044278  0.108990  1
  O  O31  1  0.320079  0.544278  0.108990  1
  O  O32  1  0.807349  0.880021  0.358699  1
  O  O33  1  0.192651  0.380021  0.358699  1
  O  O34  1  0.018896  0.192510  0.218384  1
  O  O35  1  0.981104  0.692510  0.218384  1
  O  O36  1  0.537050  0.235291  0.242764  1
  O  O37  1  0.462950  0.735291  0.242764  1
