# generated using pymatgen
data_Ce3Dy4Tm(CdRu)2
_symmetry_space_group_name_H-M   'P 1'
_cell_length_a   9.57705281
_cell_length_b   9.57534167
_cell_length_c   9.67657112
_cell_angle_alpha   60.29212216
_cell_angle_beta   60.28591240
_cell_angle_gamma   60.63618741
_symmetry_Int_Tables_number   1
_chemical_formula_structural   Ce3Dy4Tm(CdRu)2
_chemical_formula_sum   'Ce6 Dy8 Tm2 Cd4 Ru4'
_cell_volume   633.19728573
_cell_formula_units_Z   2
loop_
 _symmetry_equiv_pos_site_id
 _symmetry_equiv_pos_as_xyz
  1  'x, y, z'
loop_
 _atom_site_type_symbol
 _atom_site_label
 _atom_site_symmetry_multiplicity
 _atom_site_fract_x
 _atom_site_fract_y
 _atom_site_fract_z
 _atom_site_occupancy
  Ce  Ce0  1  0.187543  0.811405  0.185136  1
  Ce  Ce1  1  0.810980  0.188050  0.185332  1
  Ce  Ce2  1  0.346983  0.347360  0.959049  1
  Ce  Ce3  1  0.348530  0.959519  0.346957  1
  Ce  Ce4  1  0.959835  0.348883  0.346278  1
  Ce  Ce5  1  0.344697  0.345038  0.353651  1
  Dy  Dy6  1  0.562959  0.934813  0.935015  1
  Dy  Dy7  1  0.938331  0.937765  0.562927  1
  Dy  Dy8  1  0.564243  0.934465  0.564325  1
  Dy  Dy9  1  0.934507  0.564120  0.565361  1
  Dy  Dy10  1  0.190133  0.191210  0.805078  1
  Dy  Dy11  1  0.811055  0.188362  0.808882  1
  Dy  Dy12  1  0.187822  0.810780  0.808887  1
  Dy  Dy13  1  0.809037  0.808578  0.185673  1
  Tm  Tm14  1  0.560069  0.559253  0.939919  1
  Tm  Tm15  1  0.935261  0.562390  0.935009  1
  Cd  Cd16  1  0.583345  0.582293  0.252863  1
  Cd  Cd17  1  0.580425  0.254864  0.583153  1
  Cd  Cd18  1  0.253856  0.580281  0.584154  1
  Cd  Cd19  1  0.580543  0.580256  0.580507  1
  Ru  Ru20  1  0.143263  0.143231  0.561029  1
  Ru  Ru21  1  0.155559  0.581831  0.148287  1
  Ru  Ru22  1  0.582273  0.155591  0.149025  1
  Ru  Ru23  1  0.128749  0.129663  0.153502  1
