# generated using pymatgen
data_CaCo4As3Rh
_symmetry_space_group_name_H-M   'P 1'
_cell_length_a   3.81114900
_cell_length_b   10.85977900
_cell_length_c   12.34708800
_cell_angle_alpha   90.00000000
_cell_angle_beta   90.00000000
_cell_angle_gamma   90.00000000
_symmetry_Int_Tables_number   1
_chemical_formula_structural   CaCo4As3Rh
_chemical_formula_sum   'Ca4 Co16 As12 Rh4'
_cell_volume   511.02419053
_cell_formula_units_Z   4
loop_
 _symmetry_equiv_pos_site_id
 _symmetry_equiv_pos_as_xyz
  1  'x, y, z'
loop_
 _atom_site_type_symbol
 _atom_site_label
 _atom_site_symmetry_multiplicity
 _atom_site_fract_x
 _atom_site_fract_y
 _atom_site_fract_z
 _atom_site_occupancy
  Ca  Ca0  1  0.250000  0.585160  0.704757  1
  Ca  Ca1  1  0.250000  0.914840  0.204757  1
  Ca  Ca2  1  0.750000  0.414840  0.295243  1
  Ca  Ca3  1  0.750000  0.085160  0.795243  1
  Co  Co4  1  0.250000  0.406907  0.489076  1
  Co  Co5  1  0.250000  0.093093  0.989076  1
  Co  Co6  1  0.750000  0.593093  0.510924  1
  Co  Co7  1  0.750000  0.906907  0.010924  1
  Co  Co8  1  0.250000  0.214175  0.174324  1
  Co  Co9  1  0.250000  0.285825  0.674324  1
  Co  Co10  1  0.750000  0.785825  0.825676  1
  Co  Co11  1  0.750000  0.714175  0.325676  1
  Co  Co12  1  0.250000  0.884515  0.698811  1
  Co  Co13  1  0.250000  0.615485  0.198811  1
  Co  Co14  1  0.750000  0.115485  0.301189  1
  Co  Co15  1  0.750000  0.384515  0.801189  1
  Co  Co16  1  0.250000  0.465036  0.932171  1
  Co  Co17  1  0.250000  0.034964  0.432171  1
  Co  Co18  1  0.750000  0.534964  0.067829  1
  Co  Co19  1  0.750000  0.965036  0.567829  1
  As  As20  1  0.250000  0.418096  0.113916  1
  As  As21  1  0.250000  0.081904  0.613916  1
  As  As22  1  0.750000  0.581904  0.886084  1
  As  As23  1  0.750000  0.918096  0.386084  1
  As  As24  1  0.250000  0.269683  0.865076  1
  As  As25  1  0.250000  0.230317  0.365076  1
  As  As26  1  0.750000  0.730317  0.134924  1
  As  As27  1  0.750000  0.769683  0.634924  1
  As  As28  1  0.250000  0.593402  0.388346  1
  As  As29  1  0.250000  0.906598  0.888346  1
  As  As30  1  0.750000  0.406598  0.611654  1
  As  As31  1  0.750000  0.093402  0.111654  1
  Rh  Rh32  1  0.250000  0.714070  0.990155  1
  Rh  Rh33  1  0.250000  0.785930  0.490155  1
  Rh  Rh34  1  0.750000  0.285930  0.009845  1
  Rh  Rh35  1  0.750000  0.214070  0.509845  1
