# generated using pymatgen
data_Ho3Er(SiNi2)4
_symmetry_space_group_name_H-M   'P 1'
_cell_length_a   5.35176502
_cell_length_b   6.34964400
_cell_length_c   6.98163516
_cell_angle_alpha   90.00000000
_cell_angle_beta   89.99307622
_cell_angle_gamma   90.00000000
_symmetry_Int_Tables_number   1
_chemical_formula_structural   Ho3Er(SiNi2)4
_chemical_formula_sum   'Ho3 Er1 Si4 Ni8'
_cell_volume   237.24854673
_cell_formula_units_Z   1
loop_
 _symmetry_equiv_pos_site_id
 _symmetry_equiv_pos_as_xyz
  1  'x, y, z'
loop_
 _atom_site_type_symbol
 _atom_site_label
 _atom_site_symmetry_multiplicity
 _atom_site_fract_x
 _atom_site_fract_y
 _atom_site_fract_z
 _atom_site_occupancy
  Ho  Ho0  1  0.149188  0.750000  0.531125  1
  Ho  Ho1  1  0.649461  0.250000  0.969384  1
  Ho  Ho2  1  0.850174  0.250000  0.469412  1
  Er  Er3  1  0.350192  0.750000  0.030894  1
  Si  Si4  1  0.649455  0.750000  0.377516  1
  Si  Si5  1  0.850215  0.750000  0.878285  1
  Si  Si6  1  0.350042  0.250000  0.622219  1
  Si  Si7  1  0.149582  0.250000  0.122364  1
  Ni  Ni8  1  0.909494  0.557084  0.172335  1
  Ni  Ni9  1  0.590808  0.943709  0.674618  1
  Ni  Ni10  1  0.091891  0.056020  0.826327  1
  Ni  Ni11  1  0.408651  0.444139  0.326123  1
  Ni  Ni12  1  0.091891  0.443980  0.826327  1
  Ni  Ni13  1  0.408651  0.055861  0.326123  1
  Ni  Ni14  1  0.909494  0.942916  0.172335  1
  Ni  Ni15  1  0.590808  0.556291  0.674618  1
