# generated using pymatgen
data_Hf2Mn2NbGa6
_symmetry_space_group_name_H-M   'P 1'
_cell_length_a   5.34891300
_cell_length_b   7.63471500
_cell_length_c   8.70678800
_cell_angle_alpha   90.00000000
_cell_angle_beta   90.00000000
_cell_angle_gamma   90.00000000
_symmetry_Int_Tables_number   1
_chemical_formula_structural   Hf2Mn2NbGa6
_chemical_formula_sum   'Hf4 Mn4 Nb2 Ga12'
_cell_volume   355.56281339
_cell_formula_units_Z   2
loop_
 _symmetry_equiv_pos_site_id
 _symmetry_equiv_pos_as_xyz
  1  'x, y, z'
loop_
 _atom_site_type_symbol
 _atom_site_label
 _atom_site_symmetry_multiplicity
 _atom_site_fract_x
 _atom_site_fract_y
 _atom_site_fract_z
 _atom_site_occupancy
  Hf  Hf0  1  0.000000  0.841704  0.719053  1
  Hf  Hf1  1  0.500000  0.158296  0.219053  1
  Hf  Hf2  1  0.000000  0.841704  0.280947  1
  Hf  Hf3  1  0.500000  0.158296  0.780947  1
  Mn  Mn4  1  0.750000  0.500000  0.250000  1
  Mn  Mn5  1  0.750000  0.500000  0.750000  1
  Mn  Mn6  1  0.250000  0.500000  0.750000  1
  Mn  Mn7  1  0.250000  0.500000  0.250000  1
  Nb  Nb8  1  0.000000  0.282431  0.000000  1
  Nb  Nb9  1  0.500000  0.717569  0.500000  1
  Ga  Ga10  1  0.000000  0.563603  0.500000  1
  Ga  Ga11  1  0.000000  0.629354  0.000000  1
  Ga  Ga12  1  0.760491  0.962697  0.000000  1
  Ga  Ga13  1  0.000000  0.232769  0.308529  1
  Ga  Ga14  1  0.500000  0.436397  0.000000  1
  Ga  Ga15  1  0.500000  0.767231  0.191471  1
  Ga  Ga16  1  0.260491  0.037303  0.500000  1
  Ga  Ga17  1  0.500000  0.370646  0.500000  1
  Ga  Ga18  1  0.000000  0.232769  0.691471  1
  Ga  Ga19  1  0.500000  0.767231  0.808529  1
  Ga  Ga20  1  0.739509  0.037303  0.500000  1
  Ga  Ga21  1  0.239509  0.962697  0.000000  1
