# generated using pymatgen
data_Yb7HfSi16Mo11W
_symmetry_space_group_name_H-M   'P 1'
_cell_length_a   6.70401737
_cell_length_b   6.89455987
_cell_length_c   12.98392963
_cell_angle_alpha   89.74552452
_cell_angle_beta   89.95022993
_cell_angle_gamma   90.21987785
_symmetry_Int_Tables_number   1
_chemical_formula_structural   Yb7HfSi16Mo11W
_chemical_formula_sum   'Yb7 Hf1 Si16 Mo11 W1'
_cell_volume   600.12287211
_cell_formula_units_Z   1
loop_
 _symmetry_equiv_pos_site_id
 _symmetry_equiv_pos_as_xyz
  1  'x, y, z'
loop_
 _atom_site_type_symbol
 _atom_site_label
 _atom_site_symmetry_multiplicity
 _atom_site_fract_x
 _atom_site_fract_y
 _atom_site_fract_z
 _atom_site_occupancy
  Yb  Yb0  1  0.998107  0.165950  0.090835  1
  Yb  Yb1  1  0.002540  0.834582  0.908961  1
  Yb  Yb2  1  0.502566  0.665238  0.909849  1
  Yb  Yb3  1  0.002552  0.834834  0.589688  1
  Yb  Yb4  1  0.497804  0.332808  0.090724  1
  Yb  Yb5  1  0.999480  0.167624  0.410060  1
  Yb  Yb6  1  0.498451  0.330893  0.408693  1
  Hf  Hf7  1  0.500521  0.673843  0.598856  1
  Si  Si8  1  0.034960  0.130431  0.748008  1
  Si  Si9  1  0.964053  0.873387  0.250975  1
  Si  Si10  1  0.464294  0.624088  0.249393  1
  Si  Si11  1  0.535746  0.373773  0.748035  1
  Si  Si12  1  0.301385  0.865264  0.749783  1
  Si  Si13  1  0.699258  0.130966  0.250494  1
  Si  Si14  1  0.198552  0.366822  0.250236  1
  Si  Si15  1  0.802240  0.635860  0.749766  1
  Si  Si16  1  0.167673  0.461901  0.545583  1
  Si  Si17  1  0.836481  0.542247  0.456907  1
  Si  Si18  1  0.341323  0.953439  0.457564  1
  Si  Si19  1  0.841675  0.542910  0.045367  1
  Si  Si20  1  0.657974  0.039065  0.545290  1
  Si  Si21  1  0.158241  0.456895  0.953329  1
  Si  Si22  1  0.658842  0.043678  0.953939  1
  Si  Si23  1  0.341465  0.957215  0.045307  1
  Mo  Mo24  1  0.837864  0.507144  0.251240  1
  Mo  Mo25  1  0.338082  0.990154  0.250954  1
  Mo  Mo26  1  0.662912  0.002952  0.746814  1
  Mo  Mo27  1  0.333300  0.165602  0.625165  1
  Mo  Mo28  1  0.662074  0.827524  0.375369  1
  Mo  Mo29  1  0.165926  0.667371  0.373685  1
  Mo  Mo30  1  0.665001  0.831407  0.127991  1
  Mo  Mo31  1  0.830525  0.338331  0.625299  1
  Mo  Mo32  1  0.334587  0.167791  0.869928  1
  Mo  Mo33  1  0.833452  0.333603  0.870948  1
  Mo  Mo34  1  0.164533  0.667774  0.127641  1
  W  W35  1  0.165559  0.496635  0.747327  1
