# generated using pymatgen
data_Rb10EuSn12
_symmetry_space_group_name_H-M   'P 1'
_cell_length_a   10.88078632
_cell_length_b   10.88078790
_cell_length_c   10.88078700
_cell_angle_alpha   109.47121337
_cell_angle_beta   109.47121631
_cell_angle_gamma   109.47122203
_symmetry_Int_Tables_number   1
_chemical_formula_structural   Rb10EuSn12
_chemical_formula_sum   'Rb10 Eu1 Sn12'
_cell_volume   991.65155923
_cell_formula_units_Z   1
loop_
 _symmetry_equiv_pos_site_id
 _symmetry_equiv_pos_as_xyz
  1  'x, y, z'
loop_
 _atom_site_type_symbol
 _atom_site_label
 _atom_site_symmetry_multiplicity
 _atom_site_fract_x
 _atom_site_fract_y
 _atom_site_fract_z
 _atom_site_occupancy
  Rb  Rb0  1  0.500000  0.250000  0.750000  1
  Rb  Rb1  1  0.750000  0.250000  0.500000  1
  Rb  Rb2  1  0.250000  0.750000  0.500000  1
  Rb  Rb3  1  0.500000  0.750000  0.250000  1
  Rb  Rb4  1  0.598066  0.000000  0.000000  1
  Rb  Rb5  1  0.401934  0.401934  0.401934  1
  Rb  Rb6  1  0.000000  0.598066  0.000000  1
  Rb  Rb7  1  0.000000  0.000000  0.598066  1
  Rb  Rb8  1  0.750000  0.500000  0.250000  1
  Rb  Rb9  1  0.250000  0.500000  0.750000  1
  Eu  Eu10  1  0.000000  0.000000  0.000000  1
  Sn  Sn11  1  0.000000  0.172496  0.339539  1
  Sn  Sn12  1  0.827504  0.167042  0.827504  1
  Sn  Sn13  1  0.660461  0.660461  0.832958  1
  Sn  Sn14  1  0.339539  0.172496  0.000000  1
  Sn  Sn15  1  0.172496  0.339539  0.000000  1
  Sn  Sn16  1  0.339539  0.000000  0.172496  1
  Sn  Sn17  1  0.660461  0.832958  0.660461  1
  Sn  Sn18  1  0.832958  0.660461  0.660461  1
  Sn  Sn19  1  0.000000  0.339539  0.172496  1
  Sn  Sn20  1  0.827504  0.827504  0.167042  1
  Sn  Sn21  1  0.167042  0.827504  0.827504  1
  Sn  Sn22  1  0.172496  0.000000  0.339539  1
