# generated using pymatgen
data_SmHo6Th(ReB6)4
_symmetry_space_group_name_H-M   'P 1'
_cell_length_a   3.70698600
_cell_length_b   9.19358632
_cell_length_c   11.59930716
_cell_angle_alpha   90.02115111
_cell_angle_beta   90.00000000
_cell_angle_gamma   90.00000000
_symmetry_Int_Tables_number   1
_chemical_formula_structural   SmHo6Th(ReB6)4
_chemical_formula_sum   'Sm1 Ho6 Th1 Re4 B24'
_cell_volume   395.31011166
_cell_formula_units_Z   1
loop_
 _symmetry_equiv_pos_site_id
 _symmetry_equiv_pos_as_xyz
  1  'x, y, z'
loop_
 _atom_site_type_symbol
 _atom_site_label
 _atom_site_symmetry_multiplicity
 _atom_site_fract_x
 _atom_site_fract_y
 _atom_site_fract_z
 _atom_site_occupancy
  Sm  Sm0  1  0.000000  0.678288  0.587084  1
  Ho  Ho1  1  0.000000  0.823402  0.084953  1
  Ho  Ho2  1  0.000000  0.176006  0.914500  1
  Ho  Ho3  1  0.000000  0.942031  0.368701  1
  Ho  Ho4  1  0.000000  0.056390  0.631877  1
  Ho  Ho5  1  0.000000  0.443095  0.127938  1
  Ho  Ho6  1  0.000000  0.557590  0.870895  1
  Th  Th7  1  0.000000  0.322097  0.413932  1
  Re  Re8  1  0.000000  0.639000  0.319072  1
  Re  Re9  1  0.000000  0.361122  0.680982  1
  Re  Re10  1  0.000000  0.138146  0.178169  1
  Re  Re11  1  0.000000  0.862373  0.821858  1
  B  B12  1  0.500000  0.555318  0.430591  1
  B  B13  1  0.500000  0.445691  0.570093  1
  B  B14  1  0.500000  0.053017  0.066264  1
  B  B15  1  0.500000  0.946984  0.933549  1
  B  B16  1  0.500000  0.750115  0.415968  1
  B  B17  1  0.500000  0.250448  0.585474  1
  B  B18  1  0.500000  0.248554  0.080203  1
  B  B19  1  0.500000  0.751165  0.919078  1
  B  B20  1  0.500000  0.791938  0.263745  1
  B  B21  1  0.500000  0.207993  0.736800  1
  B  B22  1  0.500000  0.290057  0.231914  1
  B  B23  1  0.500000  0.709124  0.767203  1
  B  B24  1  0.500000  0.631535  0.183655  1
  B  B25  1  0.500000  0.369413  0.816066  1
  B  B26  1  0.500000  0.128930  0.311948  1
  B  B27  1  0.500000  0.870396  0.687440  1
  B  B28  1  0.500000  0.981871  0.210512  1
  B  B29  1  0.500000  0.017765  0.789403  1
  B  B30  1  0.500000  0.484960  0.285391  1
  B  B31  1  0.500000  0.516883  0.714554  1
  B  B32  1  0.500000  0.601055  0.027663  1
  B  B33  1  0.500000  0.399285  0.971669  1
  B  B34  1  0.500000  0.096534  0.473109  1
  B  B35  1  0.500000  0.901426  0.527746  1
