# generated using pymatgen
data_Sm2Tc2C3
_symmetry_space_group_name_H-M   'P 1'
_cell_length_a   5.78402752
_cell_length_b   5.78402759
_cell_length_c   5.80096553
_cell_angle_alpha   75.74070745
_cell_angle_beta   75.74070773
_cell_angle_gamma   34.65973686
_symmetry_Int_Tables_number   1
_chemical_formula_structural   Sm2Tc2C3
_chemical_formula_sum   'Sm2 Tc2 C3'
_cell_volume   106.63136085
_cell_formula_units_Z   1
loop_
 _symmetry_equiv_pos_site_id
 _symmetry_equiv_pos_as_xyz
  1  'x, y, z'
loop_
 _atom_site_type_symbol
 _atom_site_label
 _atom_site_symmetry_multiplicity
 _atom_site_fract_x
 _atom_site_fract_y
 _atom_site_fract_z
 _atom_site_occupancy
  Sm  Sm0  1  0.390505  0.390505  0.828340  1
  Sm  Sm1  1  0.609495  0.609495  0.171660  1
  Tc  Tc2  1  0.154692  0.154692  0.610222  1
  Tc  Tc3  1  0.845308  0.845308  0.389778  1
  C  C4  1  0.000000  0.000000  0.500000  1
  C  C5  1  0.278412  0.278412  0.265816  1
  C  C6  1  0.721588  0.721588  0.734184  1
