# generated using pymatgen
data_NdTm2(NiRh2)3
_symmetry_space_group_name_H-M   'P 1'
_cell_length_a   5.28559537
_cell_length_b   5.28559597
_cell_length_c   8.71260966
_cell_angle_alpha   72.34225525
_cell_angle_beta   72.34225393
_cell_angle_gamma   60.00000034
_symmetry_Int_Tables_number   1
_chemical_formula_structural   NdTm2(NiRh2)3
_chemical_formula_sum   'Nd1 Tm2 Ni3 Rh6'
_cell_volume   197.44493636
_cell_formula_units_Z   1
loop_
 _symmetry_equiv_pos_site_id
 _symmetry_equiv_pos_as_xyz
  1  'x, y, z'
loop_
 _atom_site_type_symbol
 _atom_site_label
 _atom_site_symmetry_multiplicity
 _atom_site_fract_x
 _atom_site_fract_y
 _atom_site_fract_z
 _atom_site_occupancy
  Nd  Nd0  1  0.000000  0.000000  0.000000  1
  Tm  Tm1  1  0.140728  0.140728  0.577817  1
  Tm  Tm2  1  0.859272  0.859272  0.422183  1
  Ni  Ni3  1  0.333032  0.333032  0.000904  1
  Ni  Ni4  1  0.666968  0.666968  0.999096  1
  Ni  Ni5  1  0.500000  0.500000  0.500000  1
  Rh  Rh6  1  0.081869  0.584144  0.749843  1
  Rh  Rh7  1  0.584144  0.584144  0.749843  1
  Rh  Rh8  1  0.584144  0.081869  0.749843  1
  Rh  Rh9  1  0.918131  0.415856  0.250157  1
  Rh  Rh10  1  0.415856  0.415856  0.250157  1
  Rh  Rh11  1  0.415856  0.918131  0.250157  1
