# generated using pymatgen
data_Li2LuThSi3
_symmetry_space_group_name_H-M   'P 1'
_cell_length_a   9.21308041
_cell_length_b   9.21308056
_cell_length_c   6.80677600
_cell_angle_alpha   90.00000000
_cell_angle_beta   90.00000000
_cell_angle_gamma   152.87892241
_symmetry_Int_Tables_number   1
_chemical_formula_structural   Li2LuThSi3
_chemical_formula_sum   'Li4 Lu2 Th2 Si6'
_cell_volume   263.38707086
_cell_formula_units_Z   2
loop_
 _symmetry_equiv_pos_site_id
 _symmetry_equiv_pos_as_xyz
  1  'x, y, z'
loop_
 _atom_site_type_symbol
 _atom_site_label
 _atom_site_symmetry_multiplicity
 _atom_site_fract_x
 _atom_site_fract_y
 _atom_site_fract_z
 _atom_site_occupancy
  Li  Li0  1  0.191461  0.808539  0.061419  1
  Li  Li1  1  0.191461  0.808539  0.438581  1
  Li  Li2  1  0.808539  0.191461  0.938581  1
  Li  Li3  1  0.808539  0.191461  0.561419  1
  Lu  Lu4  1  0.346355  0.653645  0.250000  1
  Lu  Lu5  1  0.653645  0.346355  0.750000  1
  Th  Th6  1  0.553523  0.446477  0.250000  1
  Th  Th7  1  0.446477  0.553523  0.750000  1
  Si  Si8  1  0.724720  0.275280  0.250000  1
  Si  Si9  1  0.275280  0.724720  0.750000  1
  Si  Si10  1  0.060855  0.939145  0.928316  1
  Si  Si11  1  0.939145  0.060855  0.071684  1
  Si  Si12  1  0.939145  0.060855  0.428316  1
  Si  Si13  1  0.060855  0.939145  0.571684  1
