# generated using pymatgen
data_ScH5Ir
_symmetry_space_group_name_H-M   'P 1'
_cell_length_a   4.29457600
_cell_length_b   4.55689300
_cell_length_c   11.39628000
_cell_angle_alpha   90.00000000
_cell_angle_beta   90.00000000
_cell_angle_gamma   90.00000000
_symmetry_Int_Tables_number   1
_chemical_formula_structural   ScH5Ir
_chemical_formula_sum   'Sc4 H20 Ir4'
_cell_volume   223.02432565
_cell_formula_units_Z   4
loop_
 _symmetry_equiv_pos_site_id
 _symmetry_equiv_pos_as_xyz
  1  'x, y, z'
loop_
 _atom_site_type_symbol
 _atom_site_label
 _atom_site_symmetry_multiplicity
 _atom_site_fract_x
 _atom_site_fract_y
 _atom_site_fract_z
 _atom_site_occupancy
  Sc  Sc0  1  0.726750  0.361510  0.151664  1
  Sc  Sc1  1  0.226750  0.138490  0.848336  1
  Sc  Sc2  1  0.273250  0.861510  0.348336  1
  Sc  Sc3  1  0.773250  0.638490  0.651664  1
  H  H4  1  0.969391  0.354752  0.986385  1
  H  H5  1  0.358244  0.894253  0.685838  1
  H  H6  1  0.988424  0.904493  0.997413  1
  H  H7  1  0.678923  0.910734  0.823266  1
  H  H8  1  0.380455  0.359836  0.314235  1
  H  H9  1  0.821077  0.089266  0.323266  1
  H  H10  1  0.488424  0.595507  0.002587  1
  H  H11  1  0.321077  0.410734  0.676734  1
  H  H12  1  0.858244  0.605747  0.314162  1
  H  H13  1  0.530609  0.645248  0.486385  1
  H  H14  1  0.011576  0.404493  0.502587  1
  H  H15  1  0.030609  0.854752  0.513615  1
  H  H16  1  0.619545  0.859836  0.185765  1
  H  H17  1  0.880455  0.140164  0.685765  1
  H  H18  1  0.119545  0.640164  0.814235  1
  H  H19  1  0.141756  0.105747  0.185838  1
  H  H20  1  0.469391  0.145248  0.013615  1
  H  H21  1  0.641756  0.394253  0.814162  1
  H  H22  1  0.511576  0.095507  0.497413  1
  H  H23  1  0.178923  0.589266  0.176734  1
  Ir  Ir24  1  0.182995  0.129732  0.593069  1
  Ir  Ir25  1  0.317005  0.870268  0.093069  1
  Ir  Ir26  1  0.817005  0.629732  0.906931  1
  Ir  Ir27  1  0.682995  0.370268  0.406931  1
