# generated using pymatgen
data_SmTh2PaPd12
_symmetry_space_group_name_H-M   'P 1'
_cell_length_a   5.88251000
_cell_length_b   5.88251078
_cell_length_c   9.85781100
_cell_angle_alpha   90.00000000
_cell_angle_beta   90.00000000
_cell_angle_gamma   119.99999561
_symmetry_Int_Tables_number   1
_chemical_formula_structural   SmTh2PaPd12
_chemical_formula_sum   'Sm1 Th2 Pa1 Pd12'
_cell_volume   295.41772150
_cell_formula_units_Z   1
loop_
 _symmetry_equiv_pos_site_id
 _symmetry_equiv_pos_as_xyz
  1  'x, y, z'
loop_
 _atom_site_type_symbol
 _atom_site_label
 _atom_site_symmetry_multiplicity
 _atom_site_fract_x
 _atom_site_fract_y
 _atom_site_fract_z
 _atom_site_occupancy
  Sm  Sm0  1  0.000000  0.000000  0.000000  1
  Th  Th1  1  0.333333  0.666667  0.244159  1
  Th  Th2  1  0.666667  0.333333  0.755841  1
  Pa  Pa3  1  0.000000  0.000000  0.500000  1
  Pd  Pd4  1  0.500000  0.500000  0.500000  1
  Pd  Pd5  1  0.500000  0.000000  0.500000  1
  Pd  Pd6  1  0.000000  0.500000  0.500000  1
  Pd  Pd7  1  0.500000  0.500000  0.000000  1
  Pd  Pd8  1  0.500000  0.000000  0.000000  1
  Pd  Pd9  1  0.000000  0.500000  0.000000  1
  Pd  Pd10  1  0.828742  0.657482  0.256547  1
  Pd  Pd11  1  0.342518  0.171258  0.256547  1
  Pd  Pd12  1  0.828742  0.171258  0.256547  1
  Pd  Pd13  1  0.171258  0.342518  0.743453  1
  Pd  Pd14  1  0.657482  0.828742  0.743453  1
  Pd  Pd15  1  0.171258  0.828742  0.743453  1
