# generated using pymatgen
data_PrNd4FeReO12
_symmetry_space_group_name_H-M   'P 1'
_cell_length_a   7.05612166
_cell_length_b   7.05612190
_cell_length_c   7.60104600
_cell_angle_alpha   74.47763119
_cell_angle_beta   74.47763066
_cell_angle_gamma   50.84737013
_symmetry_Int_Tables_number   1
_chemical_formula_structural   PrNd4FeReO12
_chemical_formula_sum   'Pr1 Nd4 Fe1 Re1 O12'
_cell_volume   280.29402047
_cell_formula_units_Z   1
loop_
 _symmetry_equiv_pos_site_id
 _symmetry_equiv_pos_as_xyz
  1  'x, y, z'
loop_
 _atom_site_type_symbol
 _atom_site_label
 _atom_site_symmetry_multiplicity
 _atom_site_fract_x
 _atom_site_fract_y
 _atom_site_fract_z
 _atom_site_occupancy
  Pr  Pr0  1  0.008214  0.991786  0.500000  1
  Nd  Nd1  1  0.318760  0.293427  0.357838  1
  Nd  Nd2  1  0.706573  0.681240  0.642162  1
  Nd  Nd3  1  0.691879  0.692056  0.167548  1
  Nd  Nd4  1  0.307944  0.308121  0.832452  1
  Fe  Fe5  1  0.753781  0.246219  0.000000  1
  Re  Re6  1  0.232506  0.767494  0.000000  1
  O  O7  1  0.102025  0.590845  0.574441  1
  O  O8  1  0.007694  0.990663  0.179791  1
  O  O9  1  0.409155  0.897975  0.425559  1
  O  O10  1  0.480495  0.521302  0.176674  1
  O  O11  1  0.101091  0.590403  0.078141  1
  O  O12  1  0.912317  0.402652  0.418114  1
  O  O13  1  0.009337  0.992306  0.820209  1
  O  O14  1  0.597348  0.087682  0.581886  1
  O  O15  1  0.478698  0.519505  0.823326  1
  O  O16  1  0.573536  0.100951  0.078548  1
  O  O17  1  0.409597  0.898909  0.921859  1
  O  O18  1  0.899049  0.426464  0.921452  1
