# generated using pymatgen
data_TmGaFeCo
_symmetry_space_group_name_H-M   'P 1'
_cell_length_a   4.91118000
_cell_length_b   3.94776800
_cell_length_c   6.70315800
_cell_angle_alpha   90.00000000
_cell_angle_beta   90.00000000
_cell_angle_gamma   90.00000000
_symmetry_Int_Tables_number   1
_chemical_formula_structural   TmGaFeCo
_chemical_formula_sum   'Tm2 Ga2 Fe2 Co2'
_cell_volume   129.96216288
_cell_formula_units_Z   2
loop_
 _symmetry_equiv_pos_site_id
 _symmetry_equiv_pos_as_xyz
  1  'x, y, z'
loop_
 _atom_site_type_symbol
 _atom_site_label
 _atom_site_symmetry_multiplicity
 _atom_site_fract_x
 _atom_site_fract_y
 _atom_site_fract_z
 _atom_site_occupancy
  Tm  Tm0  1  0.250001  0.499999  0.193659  1
  Tm  Tm1  1  0.750000  0.499999  0.806341  1
  Ga  Ga2  1  0.750000  0.000000  0.160552  1
  Ga  Ga3  1  0.250001  0.000000  0.839448  1
  Fe  Fe4  1  0.000000  0.000000  0.500000  1
  Fe  Fe5  1  0.499999  0.000000  0.500000  1
  Co  Co6  1  0.750000  0.499999  0.397006  1
  Co  Co7  1  0.250001  0.499999  0.602994  1
