# generated using pymatgen
data_Tm4Ga24CoPt8
_symmetry_space_group_name_H-M   'P 1'
_cell_length_a   7.48065551
_cell_length_b   7.50885343
_cell_length_c   13.26408593
_cell_angle_alpha   84.36997780
_cell_angle_beta   79.24452421
_cell_angle_gamma   60.32432277
_symmetry_Int_Tables_number   1
_chemical_formula_structural   Tm4Ga24CoPt8
_chemical_formula_sum   'Tm4 Ga24 Co1 Pt8'
_cell_volume   635.95198264
_cell_formula_units_Z   1
loop_
 _symmetry_equiv_pos_site_id
 _symmetry_equiv_pos_as_xyz
  1  'x, y, z'
loop_
 _atom_site_type_symbol
 _atom_site_label
 _atom_site_symmetry_multiplicity
 _atom_site_fract_x
 _atom_site_fract_y
 _atom_site_fract_z
 _atom_site_occupancy
  Tm  Tm0  1  0.400746  0.162674  0.809866  1
  Tm  Tm1  1  0.599254  0.837326  0.190134  1
  Tm  Tm2  1  0.726324  0.498230  0.811070  1
  Tm  Tm3  1  0.273676  0.501770  0.188930  1
  Ga  Ga4  1  0.695651  0.822216  0.942008  1
  Ga  Ga5  1  0.304349  0.177784  0.057992  1
  Ga  Ga6  1  0.145321  0.833082  0.561176  1
  Ga  Ga7  1  0.854679  0.166918  0.438824  1
  Ga  Ga8  1  0.480049  0.167564  0.556968  1
  Ga  Ga9  1  0.519951  0.832436  0.443032  1
  Ga  Ga10  1  0.220279  0.166347  0.320792  1
  Ga  Ga11  1  0.779721  0.833653  0.679208  1
  Ga  Ga12  1  0.434162  0.504729  0.678352  1
  Ga  Ga13  1  0.565838  0.495271  0.321648  1
  Ga  Ga14  1  0.106380  0.162818  0.676354  1
  Ga  Ga15  1  0.893620  0.837182  0.323646  1
  Ga  Ga16  1  0.347154  0.496144  0.942490  1
  Ga  Ga17  1  0.652846  0.503856  0.057510  1
  Ga  Ga18  1  0.019754  0.185152  0.945843  1
  Ga  Ga19  1  0.980246  0.814848  0.054157  1
  Ga  Ga20  1  0.186535  0.497777  0.442690  1
  Ga  Ga21  1  0.813465  0.502223  0.557310  1
  Ga  Ga22  1  0.738919  0.164927  0.180602  1
  Ga  Ga23  1  0.261081  0.835073  0.819398  1
  Ga  Ga24  1  0.059071  0.617336  0.823469  1
  Ga  Ga25  1  0.940929  0.382664  0.176531  1
  Ga  Ga26  1  0.860212  0.036311  0.818057  1
  Ga  Ga27  1  0.139788  0.963689  0.181943  1
  Co  Co28  1  0.000000  0.500000  0.000000  1
  Pt  Pt29  1  0.116660  0.494896  0.641186  1
  Pt  Pt30  1  0.883340  0.505104  0.358814  1
  Pt  Pt31  1  0.660495  0.169031  0.999447  1
  Pt  Pt32  1  0.339505  0.830969  0.000553  1
  Pt  Pt33  1  0.540489  0.165881  0.358728  1
  Pt  Pt34  1  0.459511  0.834119  0.641272  1
  Pt  Pt35  1  0.777181  0.175821  0.638714  1
  Pt  Pt36  1  0.222819  0.824179  0.361286  1
