# generated using pymatgen
data_SmYCCl
_symmetry_space_group_name_H-M   'P 1'
_cell_length_a   3.68804900
_cell_length_b   3.68804914
_cell_length_c   13.85095600
_cell_angle_alpha   90.00000000
_cell_angle_beta   90.00000000
_cell_angle_gamma   120.00000769
_symmetry_Int_Tables_number   1
_chemical_formula_structural   SmYCCl
_chemical_formula_sum   'Sm2 Y2 C2 Cl2'
_cell_volume   163.15625548
_cell_formula_units_Z   2
loop_
 _symmetry_equiv_pos_site_id
 _symmetry_equiv_pos_as_xyz
  1  'x, y, z'
loop_
 _atom_site_type_symbol
 _atom_site_label
 _atom_site_symmetry_multiplicity
 _atom_site_fract_x
 _atom_site_fract_y
 _atom_site_fract_z
 _atom_site_occupancy
  Sm  Sm0  1  0.333333  0.666667  0.094710  1
  Sm  Sm1  1  0.666667  0.333333  0.594710  1
  Y  Y2  1  0.666667  0.333333  0.905554  1
  Y  Y3  1  0.333333  0.666667  0.405554  1
  C  C4  1  0.000000  0.000000  0.995677  1
  C  C5  1  0.000000  0.000000  0.495677  1
  Cl  Cl6  1  0.666667  0.333333  0.254059  1
  Cl  Cl7  1  0.333333  0.666667  0.754059  1
