# generated using pymatgen
data_TmPa3Ga6Os7
_symmetry_space_group_name_H-M   'P 1'
_cell_length_a   7.27243511
_cell_length_b   7.27243573
_cell_length_c   7.27243576
_cell_angle_alpha   109.55057772
_cell_angle_beta   109.55057821
_cell_angle_gamma   109.55056752
_symmetry_Int_Tables_number   1
_chemical_formula_structural   TmPa3Ga6Os7
_chemical_formula_sum   'Tm1 Pa3 Ga6 Os7'
_cell_volume   295.21281198
_cell_formula_units_Z   1
loop_
 _symmetry_equiv_pos_site_id
 _symmetry_equiv_pos_as_xyz
  1  'x, y, z'
loop_
 _atom_site_type_symbol
 _atom_site_label
 _atom_site_symmetry_multiplicity
 _atom_site_fract_x
 _atom_site_fract_y
 _atom_site_fract_z
 _atom_site_occupancy
  Tm  Tm0  1  0.500000  0.500000  0.500000  1
  Pa  Pa1  1  0.000000  0.000000  0.500000  1
  Pa  Pa2  1  0.000000  0.500000  0.000000  1
  Pa  Pa3  1  0.500000  0.000000  0.000000  1
  Ga  Ga4  1  0.689210  0.689210  0.993429  1
  Ga  Ga5  1  0.310790  0.006571  0.310790  1
  Ga  Ga6  1  0.006571  0.310790  0.310790  1
  Ga  Ga7  1  0.310790  0.310790  0.006571  1
  Ga  Ga8  1  0.689210  0.993429  0.689210  1
  Ga  Ga9  1  0.993429  0.689210  0.689210  1
  Os  Os10  1  0.753242  0.246758  0.500000  1
  Os  Os11  1  0.753242  0.500000  0.246758  1
  Os  Os12  1  0.500000  0.246758  0.753242  1
  Os  Os13  1  0.246758  0.500000  0.753242  1
  Os  Os14  1  0.246758  0.753242  0.500000  1
  Os  Os15  1  0.500000  0.753242  0.246758  1
  Os  Os16  1  0.000000  0.000000  0.000000  1
