# generated using pymatgen
data_Ho4Al18Ir4RuAu
_symmetry_space_group_name_H-M   'P 1'
_cell_length_a   7.58855696
_cell_length_b   7.58855802
_cell_length_c   9.47816694
_cell_angle_alpha   89.99487346
_cell_angle_beta   89.99487330
_cell_angle_gamma   119.75903954
_symmetry_Int_Tables_number   1
_chemical_formula_structural   Ho4Al18Ir4RuAu
_chemical_formula_sum   'Ho4 Al18 Ir4 Ru1 Au1'
_cell_volume   473.83029397
_cell_formula_units_Z   1
loop_
 _symmetry_equiv_pos_site_id
 _symmetry_equiv_pos_as_xyz
  1  'x, y, z'
loop_
 _atom_site_type_symbol
 _atom_site_label
 _atom_site_symmetry_multiplicity
 _atom_site_fract_x
 _atom_site_fract_y
 _atom_site_fract_z
 _atom_site_occupancy
  Ho  Ho0  1  0.993858  0.668469  0.251210  1
  Ho  Ho1  1  0.003203  0.329457  0.749211  1
  Ho  Ho2  1  0.670543  0.996797  0.250789  1
  Ho  Ho3  1  0.331531  0.006142  0.748790  1
  Al  Al4  1  0.127364  0.125232  0.250941  1
  Al  Al5  1  0.874768  0.872636  0.749059  1
  Al  Al6  1  0.012800  0.337193  0.077635  1
  Al  Al7  1  0.009833  0.674430  0.922520  1
  Al  Al8  1  0.001430  0.665301  0.573915  1
  Al  Al9  1  0.334699  0.998570  0.426085  1
  Al  Al10  1  0.000821  0.334169  0.424989  1
  Al  Al11  1  0.665831  0.999179  0.575011  1
  Al  Al12  1  0.662807  0.987200  0.922365  1
  Al  Al13  1  0.325570  0.990167  0.077480  1
  Al  Al14  1  0.332171  0.332314  0.551252  1
  Al  Al15  1  0.667686  0.667829  0.448748  1
  Al  Al16  1  0.663256  0.672982  0.058705  1
  Al  Al17  1  0.327018  0.336744  0.941295  1
  Al  Al18  1  0.340587  0.551920  0.249785  1
  Al  Al19  1  0.660268  0.457894  0.742679  1
  Al  Al20  1  0.542106  0.339732  0.257321  1
  Al  Al21  1  0.448080  0.659413  0.750215  1
  Ir  Ir22  1  0.328603  0.671397  0.500000  1
  Ir  Ir23  1  0.672641  0.327359  0.500000  1
  Ir  Ir24  1  0.999779  0.000221  0.000000  1
  Ir  Ir25  1  0.000621  0.999379  0.500000  1
  Ru  Ru26  1  0.328581  0.671419  0.000000  1
  Au  Au27  1  0.673546  0.326454  0.000000  1
