# generated using pymatgen
data_Er3Tm(CO3)6
_symmetry_space_group_name_H-M   'P 1'
_cell_length_a   8.09686737
_cell_length_b   8.30806756
_cell_length_c   8.34476702
_cell_angle_alpha   119.86921120
_cell_angle_beta   90.04369906
_cell_angle_gamma   89.97462266
_symmetry_Int_Tables_number   1
_chemical_formula_structural   Er3Tm(CO3)6
_chemical_formula_sum   'Er3 Tm1 C6 O18'
_cell_volume   486.77988235
_cell_formula_units_Z   1
loop_
 _symmetry_equiv_pos_site_id
 _symmetry_equiv_pos_as_xyz
  1  'x, y, z'
loop_
 _atom_site_type_symbol
 _atom_site_label
 _atom_site_symmetry_multiplicity
 _atom_site_fract_x
 _atom_site_fract_y
 _atom_site_fract_z
 _atom_site_occupancy
  Er  Er0  1  0.966422  0.665379  0.332364  1
  Er  Er1  1  0.533623  0.667621  0.333708  1
  Er  Er2  1  0.466137  0.332379  0.666285  1
  Tm  Tm3  1  0.033620  0.334568  0.667620  1
  C  C4  1  0.248908  0.965886  0.373207  1
  C  C5  1  0.249822  0.408474  0.035204  1
  C  C6  1  0.750198  0.370526  0.407816  1
  C  C7  1  0.249936  0.629193  0.592795  1
  C  C8  1  0.750310  0.590917  0.963876  1
  C  C9  1  0.751205  0.035034  0.627112  1
  O  O10  1  0.110629  0.879606  0.321374  1
  O  O11  1  0.388391  0.881595  0.322064  1
  O  O12  1  0.750144  0.662968  0.143978  1
  O  O13  1  0.388739  0.443676  0.120459  1
  O  O14  1  0.111170  0.440826  0.120274  1
  O  O15  1  0.749813  0.478753  0.335103  1
  O  O16  1  0.751536  0.854210  0.518399  1
  O  O17  1  0.111148  0.680124  0.557949  1
  O  O18  1  0.388833  0.680982  0.559061  1
  O  O19  1  0.611332  0.318498  0.441170  1
  O  O20  1  0.889219  0.320561  0.443580  1
  O  O21  1  0.247865  0.146622  0.482523  1
  O  O22  1  0.249612  0.520352  0.664819  1
  O  O23  1  0.889210  0.557619  0.878844  1
  O  O24  1  0.611414  0.556089  0.878775  1
  O  O25  1  0.249278  0.337103  0.855179  1
  O  O26  1  0.611756  0.119184  0.678466  1
  O  O27  1  0.889730  0.121256  0.677997  1
