# generated using pymatgen
data_ErTm2CoI3
_symmetry_space_group_name_H-M   'P 1'
_cell_length_a   4.08372600
_cell_length_b   8.78407428
_cell_length_c   12.07299161
_cell_angle_alpha   94.32444854
_cell_angle_beta   90.00000000
_cell_angle_gamma   90.00000000
_symmetry_Int_Tables_number   1
_chemical_formula_structural   ErTm2CoI3
_chemical_formula_sum   'Er2 Tm4 Co2 I6'
_cell_volume   431.84641139
_cell_formula_units_Z   2
loop_
 _symmetry_equiv_pos_site_id
 _symmetry_equiv_pos_as_xyz
  1  'x, y, z'
loop_
 _atom_site_type_symbol
 _atom_site_label
 _atom_site_symmetry_multiplicity
 _atom_site_fract_x
 _atom_site_fract_y
 _atom_site_fract_z
 _atom_site_occupancy
  Er  Er0  1  0.750000  0.898800  0.189817  1
  Er  Er1  1  0.250000  0.101200  0.810183  1
  Tm  Tm2  1  0.750000  0.255120  0.599999  1
  Tm  Tm3  1  0.250000  0.744880  0.400001  1
  Tm  Tm4  1  0.750000  0.871007  0.623033  1
  Tm  Tm5  1  0.250000  0.128993  0.376967  1
  Co  Co6  1  0.750000  0.943969  0.409472  1
  Co  Co7  1  0.250000  0.056031  0.590528  1
  I  I8  1  0.750000  0.419664  0.366082  1
  I  I9  1  0.250000  0.580336  0.633918  1
  I  I10  1  0.750000  0.859774  0.889643  1
  I  I11  1  0.250000  0.140226  0.110357  1
  I  I12  1  0.750000  0.360554  0.864464  1
  I  I13  1  0.250000  0.639446  0.135536  1
