# generated using pymatgen
data_LiHoSiO4
_symmetry_space_group_name_H-M   'P 1'
_cell_length_a   6.20988400
_cell_length_b   5.42886137
_cell_length_c   10.89476192
_cell_angle_alpha   66.32687510
_cell_angle_beta   90.00000000
_cell_angle_gamma   90.00000000
_symmetry_Int_Tables_number   1
_chemical_formula_structural   LiHoSiO4
_chemical_formula_sum   'Li4 Ho4 Si4 O16'
_cell_volume   336.38360616
_cell_formula_units_Z   4
loop_
 _symmetry_equiv_pos_site_id
 _symmetry_equiv_pos_as_xyz
  1  'x, y, z'
loop_
 _atom_site_type_symbol
 _atom_site_label
 _atom_site_symmetry_multiplicity
 _atom_site_fract_x
 _atom_site_fract_y
 _atom_site_fract_z
 _atom_site_occupancy
  Li  Li0  1  0.134040  0.918785  0.430102  1
  Li  Li1  1  0.634040  0.081215  0.069898  1
  Li  Li2  1  0.865960  0.081215  0.569898  1
  Li  Li3  1  0.365960  0.918785  0.930102  1
  Ho  Ho4  1  0.116285  0.445834  0.847637  1
  Ho  Ho5  1  0.883715  0.554166  0.152363  1
  Ho  Ho6  1  0.616285  0.554166  0.652363  1
  Ho  Ho7  1  0.383715  0.445834  0.347637  1
  Si  Si8  1  0.652051  0.904047  0.359253  1
  Si  Si9  1  0.347949  0.095953  0.640747  1
  Si  Si10  1  0.152051  0.095953  0.140747  1
  Si  Si11  1  0.847949  0.904047  0.859253  1
  O  O12  1  0.858819  0.232260  0.775582  1
  O  O13  1  0.641181  0.232260  0.275582  1
  O  O14  1  0.163121  0.186766  0.523432  1
  O  O15  1  0.837566  0.757395  0.752326  1
  O  O16  1  0.141181  0.767740  0.224418  1
  O  O17  1  0.571444  0.227463  0.554583  1
  O  O18  1  0.662434  0.757395  0.252326  1
  O  O19  1  0.428556  0.772537  0.445417  1
  O  O20  1  0.071444  0.772537  0.945417  1
  O  O21  1  0.663121  0.813234  0.976568  1
  O  O22  1  0.162434  0.242605  0.247674  1
  O  O23  1  0.928556  0.227463  0.054583  1
  O  O24  1  0.336879  0.186766  0.023432  1
  O  O25  1  0.337566  0.242605  0.747674  1
  O  O26  1  0.358819  0.767740  0.724418  1
  O  O27  1  0.836879  0.813234  0.476568  1
