# generated using pymatgen
data_Y3ThCdFe
_symmetry_space_group_name_H-M   'P 1'
_cell_length_a   9.60072051
_cell_length_b   9.60071992
_cell_length_c   9.60072000
_cell_angle_alpha   59.99999971
_cell_angle_beta   60.00000175
_cell_angle_gamma   60.00000112
_symmetry_Int_Tables_number   1
_chemical_formula_structural   Y3ThCdFe
_chemical_formula_sum   'Y12 Th4 Cd4 Fe4'
_cell_volume   625.74363606
_cell_formula_units_Z   4
loop_
 _symmetry_equiv_pos_site_id
 _symmetry_equiv_pos_as_xyz
  1  'x, y, z'
loop_
 _atom_site_type_symbol
 _atom_site_label
 _atom_site_symmetry_multiplicity
 _atom_site_fract_x
 _atom_site_fract_y
 _atom_site_fract_z
 _atom_site_occupancy
  Y  Y0  1  0.811873  0.188127  0.188127  1
  Y  Y1  1  0.188127  0.811873  0.811873  1
  Y  Y2  1  0.188127  0.811873  0.188127  1
  Y  Y3  1  0.811873  0.188127  0.811873  1
  Y  Y4  1  0.188127  0.188127  0.811873  1
  Y  Y5  1  0.811873  0.811873  0.188127  1
  Y  Y6  1  0.937827  0.562173  0.562173  1
  Y  Y7  1  0.562173  0.937827  0.937827  1
  Y  Y8  1  0.562173  0.937827  0.562173  1
  Y  Y9  1  0.937827  0.562173  0.937827  1
  Y  Y10  1  0.562173  0.562173  0.937827  1
  Y  Y11  1  0.937827  0.937827  0.562173  1
  Th  Th12  1  0.343548  0.343548  0.343548  1
  Th  Th13  1  0.343548  0.343548  0.969358  1
  Th  Th14  1  0.343548  0.969358  0.343548  1
  Th  Th15  1  0.969358  0.343548  0.343548  1
  Cd  Cd16  1  0.580471  0.580471  0.580471  1
  Cd  Cd17  1  0.580471  0.580471  0.258585  1
  Cd  Cd18  1  0.580471  0.258585  0.580471  1
  Cd  Cd19  1  0.258585  0.580471  0.580471  1
  Fe  Fe20  1  0.145233  0.145233  0.145233  1
  Fe  Fe21  1  0.145233  0.145233  0.564300  1
  Fe  Fe22  1  0.145233  0.564300  0.145233  1
  Fe  Fe23  1  0.564300  0.145233  0.145233  1
