# generated using pymatgen
data_Sn4PtRh5
_symmetry_space_group_name_H-M   'P 1'
_cell_length_a   5.63548158
_cell_length_b   7.39401100
_cell_length_c   8.68597606
_cell_angle_alpha   90.00000000
_cell_angle_beta   90.31666289
_cell_angle_gamma   90.00000000
_symmetry_Int_Tables_number   1
_chemical_formula_structural   Sn4PtRh5
_chemical_formula_sum   'Sn8 Pt2 Rh10'
_cell_volume   361.92878298
_cell_formula_units_Z   2
loop_
 _symmetry_equiv_pos_site_id
 _symmetry_equiv_pos_as_xyz
  1  'x, y, z'
loop_
 _atom_site_type_symbol
 _atom_site_label
 _atom_site_symmetry_multiplicity
 _atom_site_fract_x
 _atom_site_fract_y
 _atom_site_fract_z
 _atom_site_occupancy
  Sn  Sn0  1  0.752738  0.907413  0.854093  1
  Sn  Sn1  1  0.747262  0.407413  0.645907  1
  Sn  Sn2  1  0.252740  0.101418  0.139070  1
  Sn  Sn3  1  0.247260  0.601418  0.360930  1
  Sn  Sn4  1  0.746331  0.936197  0.409873  1
  Sn  Sn5  1  0.753669  0.436197  0.090127  1
  Sn  Sn6  1  0.255022  0.059971  0.595438  1
  Sn  Sn7  1  0.244978  0.559971  0.904562  1
  Pt  Pt8  1  0.998919  0.254116  0.379635  1
  Pt  Pt9  1  0.501081  0.754116  0.120365  1
  Rh  Rh10  1  0.746304  0.584072  0.368700  1
  Rh  Rh11  1  0.753696  0.084072  0.131300  1
  Rh  Rh12  1  0.248664  0.413149  0.628482  1
  Rh  Rh13  1  0.251336  0.913149  0.871518  1
  Rh  Rh14  1  0.499161  0.745556  0.621688  1
  Rh  Rh15  1  0.000839  0.245556  0.878312  1
  Rh  Rh16  1  0.002173  0.748241  0.619343  1
  Rh  Rh17  1  0.497827  0.248241  0.880657  1
  Rh  Rh18  1  0.500842  0.249867  0.380710  1
  Rh  Rh19  1  0.999158  0.749867  0.119290  1
