# generated using pymatgen
data_Tb2CeNd(SbAu)4
_symmetry_space_group_name_H-M   'P 1'
_cell_length_a   4.61331200
_cell_length_b   4.61331216
_cell_length_c   16.69447500
_cell_angle_alpha   90.00000000
_cell_angle_beta   90.00000000
_cell_angle_gamma   120.00001316
_symmetry_Int_Tables_number   1
_chemical_formula_structural   Tb2CeNd(SbAu)4
_chemical_formula_sum   'Tb2 Ce1 Nd1 Sb4 Au4'
_cell_volume   307.70107242
_cell_formula_units_Z   1
loop_
 _symmetry_equiv_pos_site_id
 _symmetry_equiv_pos_as_xyz
  1  'x, y, z'
loop_
 _atom_site_type_symbol
 _atom_site_label
 _atom_site_symmetry_multiplicity
 _atom_site_fract_x
 _atom_site_fract_y
 _atom_site_fract_z
 _atom_site_occupancy
  Tb  Tb0  1  0.000000  0.000000  0.250471  1
  Tb  Tb1  1  0.000000  0.000000  0.749529  1
  Ce  Ce2  1  0.000000  0.000000  0.500000  1
  Nd  Nd3  1  0.000000  0.000000  0.000000  1
  Sb  Sb4  1  0.333333  0.666667  0.389423  1
  Sb  Sb5  1  0.666667  0.333333  0.610577  1
  Sb  Sb6  1  0.666667  0.333333  0.888066  1
  Sb  Sb7  1  0.333333  0.666667  0.111934  1
  Au  Au8  1  0.666667  0.333333  0.338786  1
  Au  Au9  1  0.333333  0.666667  0.661214  1
  Au  Au10  1  0.333333  0.666667  0.834242  1
  Au  Au11  1  0.666667  0.333333  0.165758  1
