# generated using pymatgen
data_Dy3Ni2RhPb3
_symmetry_space_group_name_H-M   'P 1'
_cell_length_a   7.65940800
_cell_length_b   7.65940945
_cell_length_c   3.81104600
_cell_angle_alpha   90.00000000
_cell_angle_beta   90.00000000
_cell_angle_gamma   120.00000239
_symmetry_Int_Tables_number   1
_chemical_formula_structural   Dy3Ni2RhPb3
_chemical_formula_sum   'Dy3 Ni2 Rh1 Pb3'
_cell_volume   193.62672607
_cell_formula_units_Z   1
loop_
 _symmetry_equiv_pos_site_id
 _symmetry_equiv_pos_as_xyz
  1  'x, y, z'
loop_
 _atom_site_type_symbol
 _atom_site_label
 _atom_site_symmetry_multiplicity
 _atom_site_fract_x
 _atom_site_fract_y
 _atom_site_fract_z
 _atom_site_occupancy
  Dy  Dy0  1  0.406953  0.402105  0.500000  1
  Dy  Dy1  1  0.597895  0.004848  0.500000  1
  Dy  Dy2  1  0.995152  0.593047  0.500000  1
  Ni  Ni3  1  0.333333  0.666667  0.000000  1
  Ni  Ni4  1  0.000000  0.000000  0.500000  1
  Rh  Rh5  1  0.666667  0.333333  0.000000  1
  Pb  Pb6  1  0.735728  0.742954  0.000000  1
  Pb  Pb7  1  0.257046  0.992774  0.000000  1
  Pb  Pb8  1  0.007226  0.264272  0.000000  1
