# generated using pymatgen
data_Nb6Al2ZnCu3C2
_symmetry_space_group_name_H-M   'P 1'
_cell_length_a   8.29588871
_cell_length_b   8.28407917
_cell_length_c   8.28407937
_cell_angle_alpha   60.05347536
_cell_angle_beta   59.95282852
_cell_angle_gamma   59.95283321
_symmetry_Int_Tables_number   1
_chemical_formula_structural   Nb6Al2ZnCu3C2
_chemical_formula_sum   'Nb12 Al4 Zn2 Cu6 C4'
_cell_volume   402.44020864
_cell_formula_units_Z   2
loop_
 _symmetry_equiv_pos_site_id
 _symmetry_equiv_pos_as_xyz
  1  'x, y, z'
loop_
 _atom_site_type_symbol
 _atom_site_label
 _atom_site_symmetry_multiplicity
 _atom_site_fract_x
 _atom_site_fract_y
 _atom_site_fract_z
 _atom_site_occupancy
  Nb  Nb0  1  0.818058  0.183305  0.818051  1
  Nb  Nb1  1  0.068285  0.432840  0.432840  1
  Nb  Nb2  1  0.432206  0.067853  0.067853  1
  Nb  Nb3  1  0.069414  0.431949  0.066695  1
  Nb  Nb4  1  0.432662  0.432559  0.066976  1
  Nb  Nb5  1  0.069414  0.066695  0.431949  1
  Nb  Nb6  1  0.818058  0.818051  0.183305  1
  Nb  Nb7  1  0.183964  0.817160  0.817160  1
  Nb  Nb8  1  0.817913  0.182147  0.182147  1
  Nb  Nb9  1  0.182197  0.183024  0.817441  1
  Nb  Nb10  1  0.432662  0.066976  0.432559  1
  Nb  Nb11  1  0.182197  0.817441  0.183024  1
  Al  Al12  1  0.621821  0.629828  0.629828  1
  Al  Al13  1  0.131478  0.620172  0.620172  1
  Al  Al14  1  0.616670  0.125000  0.625000  1
  Al  Al15  1  0.616670  0.625000  0.125000  1
  Zn  Zn16  1  0.743616  0.419403  0.419403  1
  Zn  Zn17  1  0.832424  0.830597  0.830597  1
  Cu  Cu18  1  0.419615  0.416978  0.416978  1
  Cu  Cu19  1  0.503574  0.833022  0.833022  1
  Cu  Cu20  1  0.832775  0.505737  0.831806  1
  Cu  Cu21  1  0.832775  0.831806  0.505737  1
  Cu  Cu22  1  0.420316  0.744263  0.418194  1
  Cu  Cu23  1  0.420316  0.418194  0.744263  1
  C  C24  1  0.125229  0.124646  0.124646  1
  C  C25  1  0.624522  0.125354  0.125354  1
  C  C26  1  0.125584  0.625000  0.125000  1
  C  C27  1  0.125584  0.125000  0.625000  1
