# generated using pymatgen
data_TbEr3Al18NiIr5
_symmetry_space_group_name_H-M   'P 1'
_cell_length_a   7.53542574
_cell_length_b   7.53327906
_cell_length_c   9.43773321
_cell_angle_alpha   90.17194127
_cell_angle_beta   90.16903153
_cell_angle_gamma   119.76841268
_symmetry_Int_Tables_number   1
_chemical_formula_structural   TbEr3Al18NiIr5
_chemical_formula_sum   'Tb1 Er3 Al18 Ni1 Ir5'
_cell_volume   465.04105976
_cell_formula_units_Z   1
loop_
 _symmetry_equiv_pos_site_id
 _symmetry_equiv_pos_as_xyz
  1  'x, y, z'
loop_
 _atom_site_type_symbol
 _atom_site_label
 _atom_site_symmetry_multiplicity
 _atom_site_fract_x
 _atom_site_fract_y
 _atom_site_fract_z
 _atom_site_occupancy
  Tb  Tb0  1  0.331504  0.005805  0.750247  1
  Er  Er1  1  0.994170  0.668136  0.249916  1
  Er  Er2  1  0.005781  0.331574  0.749989  1
  Er  Er3  1  0.668375  0.994552  0.249865  1
  Al  Al4  1  0.123802  0.124178  0.246963  1
  Al  Al5  1  0.874960  0.875518  0.753190  1
  Al  Al6  1  0.000030  0.332261  0.074230  1
  Al  Al7  1  0.999263  0.667423  0.926559  1
  Al  Al8  1  0.999057  0.665927  0.573504  1
  Al  Al9  1  0.333525  0.000113  0.424966  1
  Al  Al10  1  0.000202  0.333417  0.425704  1
  Al  Al11  1  0.666918  0.999382  0.573442  1
  Al  Al12  1  0.668492  0.999828  0.926656  1
  Al  Al13  1  0.332150  0.000134  0.075029  1
  Al  Al14  1  0.333505  0.333754  0.552537  1
  Al  Al15  1  0.666634  0.666617  0.445246  1
  Al  Al16  1  0.669392  0.669505  0.054012  1
  Al  Al17  1  0.330981  0.331473  0.948181  1
  Al  Al18  1  0.338594  0.546804  0.249422  1
  Al  Al19  1  0.661992  0.454147  0.750422  1
  Al  Al20  1  0.546861  0.338889  0.249444  1
  Al  Al21  1  0.453519  0.660626  0.750460  1
  Ni  Ni22  1  0.999773  0.999981  0.001013  1
  Ir  Ir23  1  0.672315  0.328468  0.000182  1
  Ir  Ir24  1  0.328190  0.672118  0.000117  1
  Ir  Ir25  1  0.328023  0.671683  0.499590  1
  Ir  Ir26  1  0.672194  0.328106  0.499503  1
  Ir  Ir27  1  0.999797  0.999583  0.499611  1
