# generated using pymatgen
data_CaCe(Al4Co)2
_symmetry_space_group_name_H-M   'P 1'
_cell_length_a   4.04682100
_cell_length_b   6.83619300
_cell_length_c   7.66083500
_cell_angle_alpha   90.00000000
_cell_angle_beta   90.00000000
_cell_angle_gamma   90.00000000
_symmetry_Int_Tables_number   1
_chemical_formula_structural   CaCe(Al4Co)2
_chemical_formula_sum   'Ca1 Ce1 Al8 Co2'
_cell_volume   211.93584650
_cell_formula_units_Z   1
loop_
 _symmetry_equiv_pos_site_id
 _symmetry_equiv_pos_as_xyz
  1  'x, y, z'
loop_
 _atom_site_type_symbol
 _atom_site_label
 _atom_site_symmetry_multiplicity
 _atom_site_fract_x
 _atom_site_fract_y
 _atom_site_fract_z
 _atom_site_occupancy
  Ca  Ca0  1  0.000000  0.612347  0.750000  1
  Ce  Ce1  1  0.000000  0.393362  0.250000  1
  Al  Al2  1  0.500000  0.297056  0.566861  1
  Al  Al3  1  0.500000  0.703330  0.432526  1
  Al  Al4  1  0.500000  0.297056  0.933139  1
  Al  Al5  1  0.500000  0.703330  0.067474  1
  Al  Al6  1  0.000000  0.000514  0.001930  1
  Al  Al7  1  0.000000  0.000514  0.498070  1
  Al  Al8  1  0.500000  0.047710  0.250000  1
  Al  Al9  1  0.500000  0.952542  0.750000  1
  Co  Co10  1  0.000000  0.186641  0.750000  1
  Co  Co11  1  0.000000  0.805600  0.250000  1
