# generated using pymatgen
data_DyErFe6(P3Ir2)2
_symmetry_space_group_name_H-M   'P 1'
_cell_length_a   3.79489800
_cell_length_b   10.25055500
_cell_length_c   12.18946800
_cell_angle_alpha   90.00000000
_cell_angle_beta   90.00000000
_cell_angle_gamma   90.00000000
_symmetry_Int_Tables_number   1
_chemical_formula_structural   DyErFe6(P3Ir2)2
_chemical_formula_sum   'Dy2 Er2 Fe12 P12 Ir8'
_cell_volume   474.16799735
_cell_formula_units_Z   2
loop_
 _symmetry_equiv_pos_site_id
 _symmetry_equiv_pos_as_xyz
  1  'x, y, z'
loop_
 _atom_site_type_symbol
 _atom_site_label
 _atom_site_symmetry_multiplicity
 _atom_site_fract_x
 _atom_site_fract_y
 _atom_site_fract_z
 _atom_site_occupancy
  Dy  Dy0  1  0.750000  0.418966  0.286936  1
  Dy  Dy1  1  0.750000  0.081034  0.786936  1
  Er  Er2  1  0.250000  0.581022  0.712941  1
  Er  Er3  1  0.250000  0.918978  0.212941  1
  Fe  Fe4  1  0.250000  0.222858  0.170420  1
  Fe  Fe5  1  0.250000  0.277142  0.670420  1
  Fe  Fe6  1  0.750000  0.776673  0.829472  1
  Fe  Fe7  1  0.750000  0.723327  0.329472  1
  Fe  Fe8  1  0.250000  0.877062  0.695549  1
  Fe  Fe9  1  0.250000  0.622938  0.195549  1
  Fe  Fe10  1  0.750000  0.122280  0.304282  1
  Fe  Fe11  1  0.750000  0.377720  0.804282  1
  Fe  Fe12  1  0.250000  0.458085  0.937020  1
  Fe  Fe13  1  0.250000  0.041915  0.437020  1
  Fe  Fe14  1  0.750000  0.542169  0.062695  1
  Fe  Fe15  1  0.750000  0.957831  0.562695  1
  P  P16  1  0.250000  0.428594  0.113151  1
  P  P17  1  0.250000  0.071406  0.613151  1
  P  P18  1  0.750000  0.571530  0.886323  1
  P  P19  1  0.750000  0.928470  0.386323  1
  P  P20  1  0.250000  0.273246  0.852136  1
  P  P21  1  0.250000  0.226754  0.352136  1
  P  P22  1  0.750000  0.727230  0.148064  1
  P  P23  1  0.750000  0.772770  0.648064  1
  P  P24  1  0.250000  0.604266  0.375323  1
  P  P25  1  0.250000  0.895734  0.875323  1
  P  P26  1  0.750000  0.396161  0.624843  1
  P  P27  1  0.750000  0.103839  0.124843  1
  Ir  Ir28  1  0.250000  0.709156  0.983903  1
  Ir  Ir29  1  0.250000  0.790844  0.483903  1
  Ir  Ir30  1  0.750000  0.290817  0.016177  1
  Ir  Ir31  1  0.750000  0.209183  0.516177  1
  Ir  Ir32  1  0.250000  0.405441  0.476346  1
  Ir  Ir33  1  0.250000  0.094559  0.976346  1
  Ir  Ir34  1  0.750000  0.594550  0.524420  1
  Ir  Ir35  1  0.750000  0.905450  0.024420  1
