# generated using pymatgen
data_Hf5Zr5Ga2(SnPb2)2
_symmetry_space_group_name_H-M   'P 1'
_cell_length_a   8.75492501
_cell_length_b   8.74258275
_cell_length_c   5.93969500
_cell_angle_alpha   90.00000000
_cell_angle_beta   90.00000000
_cell_angle_gamma   119.95337569
_symmetry_Int_Tables_number   1
_chemical_formula_structural   Hf5Zr5Ga2(SnPb2)2
_chemical_formula_sum   'Hf5 Zr5 Ga2 Sn2 Pb4'
_cell_volume   393.90437649
_cell_formula_units_Z   1
loop_
 _symmetry_equiv_pos_site_id
 _symmetry_equiv_pos_as_xyz
  1  'x, y, z'
loop_
 _atom_site_type_symbol
 _atom_site_label
 _atom_site_symmetry_multiplicity
 _atom_site_fract_x
 _atom_site_fract_y
 _atom_site_fract_z
 _atom_site_occupancy
  Hf  Hf0  1  0.000000  0.730651  0.250000  1
  Hf  Hf1  1  0.674526  0.337564  0.000353  1
  Hf  Hf2  1  0.325474  0.663039  0.000353  1
  Hf  Hf3  1  0.325474  0.663039  0.499647  1
  Hf  Hf4  1  0.674526  0.337564  0.499647  1
  Zr  Zr5  1  0.740824  0.734341  0.750000  1
  Zr  Zr6  1  0.259176  0.993518  0.750000  1
  Zr  Zr7  1  0.000000  0.266972  0.750000  1
  Zr  Zr8  1  0.260607  0.267408  0.250000  1
  Zr  Zr9  1  0.739393  0.006802  0.250000  1
  Ga  Ga10  1  0.000000  0.999041  0.002122  1
  Ga  Ga11  1  0.000000  0.999041  0.497878  1
  Sn  Sn12  1  0.000000  0.609835  0.750000  1
  Sn  Sn13  1  0.000000  0.390125  0.250000  1
  Pb  Pb14  1  0.389322  0.386596  0.750000  1
  Pb  Pb15  1  0.610678  0.997273  0.750000  1
  Pb  Pb16  1  0.612119  0.614656  0.250000  1
  Pb  Pb17  1  0.387881  0.002536  0.250000  1
