# generated using pymatgen
data_Yb6TmLuBi6
_symmetry_space_group_name_H-M   'P 1'
_cell_length_a   8.12949857
_cell_length_b   8.33802249
_cell_length_c   8.33802206
_cell_angle_alpha   109.97227307
_cell_angle_beta   108.96539388
_cell_angle_gamma   108.96539612
_symmetry_Int_Tables_number   1
_chemical_formula_structural   Yb6TmLuBi6
_chemical_formula_sum   'Yb6 Tm1 Lu1 Bi6'
_cell_volume   437.76505721
_cell_formula_units_Z   1
loop_
 _symmetry_equiv_pos_site_id
 _symmetry_equiv_pos_as_xyz
  1  'x, y, z'
loop_
 _atom_site_type_symbol
 _atom_site_label
 _atom_site_symmetry_multiplicity
 _atom_site_fract_x
 _atom_site_fract_y
 _atom_site_fract_z
 _atom_site_occupancy
  Yb  Yb0  1  0.500857  0.999488  0.647078  1
  Yb  Yb1  1  0.353859  0.352390  0.353046  1
  Yb  Yb2  1  0.501469  0.000656  0.147610  1
  Yb  Yb3  1  0.001369  0.647591  0.500512  1
  Yb  Yb4  1  0.853779  0.852922  0.852409  1
  Yb  Yb5  1  0.000813  0.146954  0.499344  1
  Tm  Tm6  1  0.143167  0.500000  0.000000  1
  Lu  Lu7  1  0.643101  0.500000  0.000000  1
  Bi  Bi8  1  0.377305  0.621852  0.758555  1
  Bi  Bi9  1  0.876804  0.258353  0.121982  1
  Bi  Bi10  1  0.618750  0.741445  0.363297  1
  Bi  Bi11  1  0.118450  0.863629  0.241647  1
  Bi  Bi12  1  0.255454  0.136703  0.878148  1
  Bi  Bi13  1  0.754822  0.378018  0.636371  1
