# generated using pymatgen
data_ThP2PdRu
_symmetry_space_group_name_H-M   'P 1'
_cell_length_a   4.25823100
_cell_length_b   4.25823100
_cell_length_c   9.53825600
_cell_angle_alpha   90.00000000
_cell_angle_beta   90.00000000
_cell_angle_gamma   90.00000000
_symmetry_Int_Tables_number   1
_chemical_formula_structural   ThP2PdRu
_chemical_formula_sum   'Th2 P4 Pd2 Ru2'
_cell_volume   172.95272498
_cell_formula_units_Z   2
loop_
 _symmetry_equiv_pos_site_id
 _symmetry_equiv_pos_as_xyz
  1  'x, y, z'
loop_
 _atom_site_type_symbol
 _atom_site_label
 _atom_site_symmetry_multiplicity
 _atom_site_fract_x
 _atom_site_fract_y
 _atom_site_fract_z
 _atom_site_occupancy
  Th  Th0  1  0.000000  0.500000  0.741341  1
  Th  Th1  1  0.500000  0.000000  0.258659  1
  P  P2  1  0.500000  0.000000  0.852681  1
  P  P3  1  0.000000  0.500000  0.147319  1
  P  P4  1  0.000000  0.000000  0.500000  1
  P  P5  1  0.500000  0.500000  0.500000  1
  Pd  Pd6  1  0.500000  0.500000  0.000000  1
  Pd  Pd7  1  0.000000  0.000000  0.000000  1
  Ru  Ru8  1  0.000000  0.500000  0.391054  1
  Ru  Ru9  1  0.500000  0.000000  0.608946  1
