# generated using pymatgen
data_Ba3TlOs6O18F
_symmetry_space_group_name_H-M   'P 1'
_cell_length_a   8.16651227
_cell_length_b   8.17125877
_cell_length_c   8.16651317
_cell_angle_alpha   109.48299280
_cell_angle_beta   109.45944768
_cell_angle_gamma   109.48298859
_symmetry_Int_Tables_number   1
_chemical_formula_structural   Ba3TlOs6O18F
_chemical_formula_sum   'Ba3 Tl1 Os6 O18 F1'
_cell_volume   419.44715722
_cell_formula_units_Z   1
loop_
 _symmetry_equiv_pos_site_id
 _symmetry_equiv_pos_as_xyz
  1  'x, y, z'
loop_
 _atom_site_type_symbol
 _atom_site_label
 _atom_site_symmetry_multiplicity
 _atom_site_fract_x
 _atom_site_fract_y
 _atom_site_fract_z
 _atom_site_occupancy
  Ba  Ba0  1  0.000016  0.000938  0.331805  1
  Ba  Ba1  1  0.668195  0.669133  0.668211  1
  Ba  Ba2  1  0.331789  0.000922  0.999984  1
  Tl  Tl3  1  0.000000  0.332861  0.000000  1
  Os  Os4  1  0.501414  0.363692  0.864076  1
  Os  Os5  1  0.498107  0.635910  0.135646  1
  Os  Os6  1  0.362662  0.862278  0.498586  1
  Os  Os7  1  0.637539  0.137803  0.501893  1
  Os  Os8  1  0.864354  0.500265  0.362461  1
  Os  Os9  1  0.135924  0.499616  0.637338  1
  O  O10  1  0.698366  0.351486  0.068179  1
  O  O11  1  0.646340  0.347245  0.715240  1
  O  O12  1  0.284760  0.632005  0.931100  1
  O  O13  1  0.651099  0.302649  0.369739  1
  O  O14  1  0.349944  0.720006  0.652116  1
  O  O15  1  0.931821  0.283306  0.630187  1
  O  O16  1  0.068900  0.700904  0.353660  1
  O  O17  1  0.999192  0.662462  0.661657  1
  O  O18  1  0.662465  0.663270  0.000808  1
  O  O19  1  0.718641  0.651551  0.348901  1
  O  O20  1  0.347884  0.067890  0.697828  1
  O  O21  1  0.661947  0.999328  0.660574  1
  O  O22  1  0.998627  0.337381  0.338053  1
  O  O23  1  0.630261  0.932910  0.281359  1
  O  O24  1  0.369813  0.653119  0.301634  1
  O  O25  1  0.302172  0.370062  0.650056  1
  O  O26  1  0.338343  0.000805  0.337535  1
  O  O27  1  0.339426  0.338753  0.001373  1
  F  F28  1  0.000000  0.981447  0.000000  1
