# generated using pymatgen
data_ThZnPt3Au
_symmetry_space_group_name_H-M   'P 1'
_cell_length_a   5.52024167
_cell_length_b   5.52024074
_cell_length_c   5.25914182
_cell_angle_alpha   58.34364515
_cell_angle_beta   58.34364891
_cell_angle_gamma   60.00000802
_symmetry_Int_Tables_number   1
_chemical_formula_structural   ThZnPt3Au
_chemical_formula_sum   'Th1 Zn1 Pt3 Au1'
_cell_volume   110.40195912
_cell_formula_units_Z   1
loop_
 _symmetry_equiv_pos_site_id
 _symmetry_equiv_pos_as_xyz
  1  'x, y, z'
loop_
 _atom_site_type_symbol
 _atom_site_label
 _atom_site_symmetry_multiplicity
 _atom_site_fract_x
 _atom_site_fract_y
 _atom_site_fract_z
 _atom_site_occupancy
  Th  Th0  1  0.003950  0.003950  0.988149  1
  Zn  Zn1  1  0.622637  0.622637  0.132088  1
  Pt  Pt2  1  0.622598  0.125593  0.629210  1
  Pt  Pt3  1  0.125593  0.622598  0.629210  1
  Pt  Pt4  1  0.622598  0.622598  0.629210  1
  Au  Au5  1  0.252623  0.252623  0.242132  1
