# generated using pymatgen
data_Dy3YB16Mo3W
_symmetry_space_group_name_H-M   'P 1'
_cell_length_a   3.62623200
_cell_length_b   6.03506615
_cell_length_c   11.66252910
_cell_angle_alpha   90.00501882
_cell_angle_beta   90.00000000
_cell_angle_gamma   90.00000000
_symmetry_Int_Tables_number   1
_chemical_formula_structural   Dy3YB16Mo3W
_chemical_formula_sum   'Dy3 Y1 B16 Mo3 W1'
_cell_volume   255.22920001
_cell_formula_units_Z   1
loop_
 _symmetry_equiv_pos_site_id
 _symmetry_equiv_pos_as_xyz
  1  'x, y, z'
loop_
 _atom_site_type_symbol
 _atom_site_label
 _atom_site_symmetry_multiplicity
 _atom_site_fract_x
 _atom_site_fract_y
 _atom_site_fract_z
 _atom_site_occupancy
  Dy  Dy0  1  0.000000  0.872885  0.850122  1
  Dy  Dy1  1  0.000000  0.627203  0.350216  1
  Dy  Dy2  1  0.000000  0.373171  0.649911  1
  Y  Y3  1  0.000000  0.126969  0.149607  1
  B  B4  1  0.500000  0.476970  0.193426  1
  B  B5  1  0.500000  0.523551  0.806464  1
  B  B6  1  0.500000  0.975937  0.306536  1
  B  B7  1  0.500000  0.023219  0.693448  1
  B  B8  1  0.500000  0.287733  0.313593  1
  B  B9  1  0.500000  0.713047  0.686130  1
  B  B10  1  0.500000  0.786622  0.186080  1
  B  B11  1  0.500000  0.212973  0.813780  1
  B  B12  1  0.500000  0.366901  0.468299  1
  B  B13  1  0.500000  0.633663  0.532095  1
  B  B14  1  0.500000  0.866513  0.031795  1
  B  B15  1  0.500000  0.133206  0.967988  1
  B  B16  1  0.500000  0.386298  0.047467  1
  B  B17  1  0.500000  0.614027  0.952485  1
  B  B18  1  0.500000  0.885778  0.452718  1
  B  B19  1  0.500000  0.113669  0.547696  1
  Mo  Mo20  1  0.000000  0.869404  0.584193  1
  Mo  Mo21  1  0.000000  0.629809  0.083672  1
  Mo  Mo22  1  0.000000  0.370143  0.916344  1
  W  W23  1  0.000000  0.130308  0.415935  1
