# generated using pymatgen
data_Lu3Ge3Os2
_symmetry_space_group_name_H-M   'P 1'
_cell_length_a   5.72919116
_cell_length_b   5.72919200
_cell_length_c   13.68668700
_cell_angle_alpha   90.00000000
_cell_angle_beta   90.00000000
_cell_angle_gamma   136.45611955
_symmetry_Int_Tables_number   1
_chemical_formula_structural   Lu3Ge3Os2
_chemical_formula_sum   'Lu6 Ge6 Os4'
_cell_volume   309.49059492
_cell_formula_units_Z   2
loop_
 _symmetry_equiv_pos_site_id
 _symmetry_equiv_pos_as_xyz
  1  'x, y, z'
loop_
 _atom_site_type_symbol
 _atom_site_label
 _atom_site_symmetry_multiplicity
 _atom_site_fract_x
 _atom_site_fract_y
 _atom_site_fract_z
 _atom_site_occupancy
  Lu  Lu0  1  0.923065  0.076935  0.386154  1
  Lu  Lu1  1  0.076935  0.923065  0.613846  1
  Lu  Lu2  1  0.923065  0.076935  0.113846  1
  Lu  Lu3  1  0.076935  0.923065  0.886154  1
  Lu  Lu4  1  0.648156  0.351844  0.250000  1
  Lu  Lu5  1  0.351844  0.648156  0.750000  1
  Ge  Ge6  1  0.612675  0.387325  0.459642  1
  Ge  Ge7  1  0.387325  0.612675  0.540358  1
  Ge  Ge8  1  0.612675  0.387325  0.040358  1
  Ge  Ge9  1  0.387325  0.612675  0.959642  1
  Ge  Ge10  1  0.339108  0.660892  0.250000  1
  Ge  Ge11  1  0.660892  0.339108  0.750000  1
  Os  Os12  1  0.787535  0.212465  0.915534  1
  Os  Os13  1  0.212465  0.787535  0.084466  1
  Os  Os14  1  0.787535  0.212465  0.584466  1
  Os  Os15  1  0.212465  0.787535  0.415534  1
