# generated using pymatgen
data_Er7Sn23Ir6
_symmetry_space_group_name_H-M   'P 1'
_cell_length_a   9.83461900
_cell_length_b   9.83461934
_cell_length_c   10.10268600
_cell_angle_alpha   90.00000000
_cell_angle_beta   90.00000000
_cell_angle_gamma   120.00000220
_symmetry_Int_Tables_number   1
_chemical_formula_structural   Er7Sn23Ir6
_chemical_formula_sum   'Er7 Sn23 Ir6'
_cell_volume   846.21860917
_cell_formula_units_Z   1
loop_
 _symmetry_equiv_pos_site_id
 _symmetry_equiv_pos_as_xyz
  1  'x, y, z'
loop_
 _atom_site_type_symbol
 _atom_site_label
 _atom_site_symmetry_multiplicity
 _atom_site_fract_x
 _atom_site_fract_y
 _atom_site_fract_z
 _atom_site_occupancy
  Er  Er0  1  0.480760  0.519240  0.306855  1
  Er  Er1  1  0.519240  0.480760  0.693145  1
  Er  Er2  1  0.480760  0.961521  0.306855  1
  Er  Er3  1  0.519240  0.038479  0.693145  1
  Er  Er4  1  0.038479  0.519240  0.306855  1
  Er  Er5  1  0.961521  0.480760  0.693145  1
  Er  Er6  1  0.000000  0.000000  0.000000  1
  Sn  Sn7  1  0.119694  0.880306  0.284052  1
  Sn  Sn8  1  0.880306  0.119694  0.715948  1
  Sn  Sn9  1  0.119694  0.239387  0.284052  1
  Sn  Sn10  1  0.880306  0.760613  0.715948  1
  Sn  Sn11  1  0.760613  0.880306  0.284052  1
  Sn  Sn12  1  0.239387  0.119694  0.715948  1
  Sn  Sn13  1  0.777248  0.222752  0.456975  1
  Sn  Sn14  1  0.222752  0.777248  0.543025  1
  Sn  Sn15  1  0.777248  0.554496  0.456975  1
  Sn  Sn16  1  0.222752  0.445504  0.543025  1
  Sn  Sn17  1  0.445504  0.222752  0.456975  1
  Sn  Sn18  1  0.554496  0.777248  0.543025  1
  Sn  Sn19  1  0.352538  0.000000  0.000000  1
  Sn  Sn20  1  0.647462  0.000000  0.000000  1
  Sn  Sn21  1  0.000000  0.352538  0.000000  1
  Sn  Sn22  1  0.000000  0.647462  0.000000  1
  Sn  Sn23  1  0.647462  0.647462  0.000000  1
  Sn  Sn24  1  0.352538  0.352538  0.000000  1
  Sn  Sn25  1  0.333333  0.666667  0.124861  1
  Sn  Sn26  1  0.666667  0.333333  0.875139  1
  Sn  Sn27  1  0.333333  0.666667  0.826316  1
  Sn  Sn28  1  0.666667  0.333333  0.173684  1
  Sn  Sn29  1  0.000000  0.000000  0.500000  1
  Ir  Ir30  1  0.831045  0.168955  0.198582  1
  Ir  Ir31  1  0.168955  0.831045  0.801418  1
  Ir  Ir32  1  0.831045  0.662091  0.198582  1
  Ir  Ir33  1  0.168955  0.337909  0.801418  1
  Ir  Ir34  1  0.337909  0.168955  0.198582  1
  Ir  Ir35  1  0.662091  0.831045  0.801418  1
