# generated using pymatgen
data_Hf3ZrMn3Si4W
_symmetry_space_group_name_H-M   'P 1'
_cell_length_a   3.60213900
_cell_length_b   6.68210633
_cell_length_c   7.83016030
_cell_angle_alpha   89.42568809
_cell_angle_beta   90.00000000
_cell_angle_gamma   90.00000000
_symmetry_Int_Tables_number   1
_chemical_formula_structural   Hf3ZrMn3Si4W
_chemical_formula_sum   'Hf3 Zr1 Mn3 Si4 W1'
_cell_volume   188.46151797
_cell_formula_units_Z   1
loop_
 _symmetry_equiv_pos_site_id
 _symmetry_equiv_pos_as_xyz
  1  'x, y, z'
loop_
 _atom_site_type_symbol
 _atom_site_label
 _atom_site_symmetry_multiplicity
 _atom_site_fract_x
 _atom_site_fract_y
 _atom_site_fract_z
 _atom_site_occupancy
  Hf  Hf0  1  0.250000  0.536990  0.179397  1
  Hf  Hf1  1  0.250000  0.035516  0.330987  1
  Hf  Hf2  1  0.750000  0.968608  0.668773  1
  Zr  Zr3  1  0.750000  0.462684  0.824183  1
  Mn  Mn4  1  0.250000  0.634527  0.563447  1
  Mn  Mn5  1  0.250000  0.134658  0.937537  1
  Mn  Mn6  1  0.750000  0.362599  0.438849  1
  Si  Si7  1  0.250000  0.765175  0.857091  1
  Si  Si8  1  0.250000  0.268174  0.625429  1
  Si  Si9  1  0.750000  0.238330  0.131103  1
  Si  Si10  1  0.750000  0.728121  0.380764  1
  W  W11  1  0.750000  0.864619  0.062440  1
