# generated using pymatgen
data_Ho6Er3Tm3Ir4
_symmetry_space_group_name_H-M   'P 1'
_cell_length_a   6.36008614
_cell_length_b   7.21440642
_cell_length_c   9.10633615
_cell_angle_alpha   90.01133433
_cell_angle_beta   90.11422199
_cell_angle_gamma   89.96254166
_symmetry_Int_Tables_number   1
_chemical_formula_structural   Ho6Er3Tm3Ir4
_chemical_formula_sum   'Ho6 Er3 Tm3 Ir4'
_cell_volume   417.83644277
_cell_formula_units_Z   1
loop_
 _symmetry_equiv_pos_site_id
 _symmetry_equiv_pos_as_xyz
  1  'x, y, z'
loop_
 _atom_site_type_symbol
 _atom_site_label
 _atom_site_symmetry_multiplicity
 _atom_site_fract_x
 _atom_site_fract_y
 _atom_site_fract_z
 _atom_site_occupancy
  Ho  Ho0  1  0.327883  0.677426  0.061695  1
  Ho  Ho1  1  0.172312  0.177473  0.438174  1
  Ho  Ho2  1  0.870922  0.533712  0.250035  1
  Ho  Ho3  1  0.629026  0.033830  0.249824  1
  Ho  Ho4  1  0.128535  0.466064  0.749995  1
  Ho  Ho5  1  0.371470  0.966176  0.750073  1
  Er  Er6  1  0.827925  0.822785  0.562450  1
  Er  Er7  1  0.328392  0.676832  0.437853  1
  Er  Er8  1  0.171742  0.177016  0.061952  1
  Tm  Tm9  1  0.671815  0.323072  0.562568  1
  Tm  Tm10  1  0.828190  0.823056  0.937680  1
  Tm  Tm11  1  0.671935  0.322783  0.937510  1
  Ir  Ir12  1  0.044106  0.883374  0.249972  1
  Ir  Ir13  1  0.455974  0.383343  0.249896  1
  Ir  Ir14  1  0.954549  0.116695  0.750623  1
  Ir  Ir15  1  0.545224  0.616363  0.749700  1
