# generated using pymatgen
data_Y4Tm8Co5Pb
_symmetry_space_group_name_H-M   'P 1'
_cell_length_a   8.18630647
_cell_length_b   8.18630560
_cell_length_c   8.18630635
_cell_angle_alpha   110.98450040
_cell_angle_beta   110.52454937
_cell_angle_gamma   106.93435945
_symmetry_Int_Tables_number   1
_chemical_formula_structural   Y4Tm8Co5Pb
_chemical_formula_sum   'Y4 Tm8 Co5 Pb1'
_cell_volume   421.69578201
_cell_formula_units_Z   1
loop_
 _symmetry_equiv_pos_site_id
 _symmetry_equiv_pos_as_xyz
  1  'x, y, z'
loop_
 _atom_site_type_symbol
 _atom_site_label
 _atom_site_symmetry_multiplicity
 _atom_site_fract_x
 _atom_site_fract_y
 _atom_site_fract_z
 _atom_site_occupancy
  Y  Y0  1  0.287506  0.186985  0.474490  1
  Y  Y1  1  0.712494  0.813015  0.525510  1
  Y  Y2  1  0.287506  0.813015  0.100520  1
  Y  Y3  1  0.712494  0.186985  0.899480  1
  Tm  Tm4  1  0.620011  0.312759  0.307252  1
  Tm  Tm5  1  0.379989  0.687241  0.692748  1
  Tm  Tm6  1  0.005507  0.312759  0.692748  1
  Tm  Tm7  1  0.994493  0.687241  0.307252  1
  Tm  Tm8  1  0.210496  0.404057  0.193562  1
  Tm  Tm9  1  0.789504  0.595943  0.806438  1
  Tm  Tm10  1  0.210496  0.016934  0.806438  1
  Tm  Tm11  1  0.789504  0.983066  0.193562  1
  Co  Co12  1  0.000000  0.376248  0.376248  1
  Co  Co13  1  0.000000  0.623752  0.623752  1
  Co  Co14  1  0.386538  0.886538  0.500000  1
  Co  Co15  1  0.613462  0.113462  0.500000  1
  Co  Co16  1  0.000000  0.000000  0.000000  1
  Pb  Pb17  1  0.500000  0.500000  0.000000  1
