# generated using pymatgen
data_Gd3HfCr6O24
_symmetry_space_group_name_H-M   'P 1'
_cell_length_a   9.47689273
_cell_length_b   9.47689182
_cell_length_c   10.09437400
_cell_angle_alpha   117.99630105
_cell_angle_beta   62.00368818
_cell_angle_gamma   120.00001373
_symmetry_Int_Tables_number   1
_chemical_formula_structural   Gd3HfCr6O24
_chemical_formula_sum   'Gd3 Hf1 Cr6 O24'
_cell_volume   659.78991989
_cell_formula_units_Z   1
loop_
 _symmetry_equiv_pos_site_id
 _symmetry_equiv_pos_as_xyz
  1  'x, y, z'
loop_
 _atom_site_type_symbol
 _atom_site_label
 _atom_site_symmetry_multiplicity
 _atom_site_fract_x
 _atom_site_fract_y
 _atom_site_fract_z
 _atom_site_occupancy
  Gd  Gd0  1  0.650324  0.351685  0.063707  1
  Gd  Gd1  1  0.851663  0.139552  0.435199  1
  Gd  Gd2  1  0.133000  0.857908  0.582533  1
  Hf  Hf3  1  0.356453  0.653945  0.941470  1
  Cr  Cr4  1  0.243380  0.021301  0.244143  1
  Cr  Cr5  1  0.979999  0.463339  0.242303  1
  Cr  Cr6  1  0.532327  0.753375  0.244002  1
  Cr  Cr7  1  0.467662  0.269170  0.754163  1
  Cr  Cr8  1  0.044902  0.533398  0.755608  1
  Cr  Cr9  1  0.736122  0.956300  0.751933  1
  O  O10  1  0.162077  0.498763  0.093406  1
  O  O11  1  0.495542  0.752371  0.095174  1
  O  O12  1  0.239238  0.836382  0.095638  1
  O  O13  1  0.434786  0.172006  0.206892  1
  O  O14  1  0.827098  0.471044  0.210777  1
  O  O15  1  0.530973  0.563589  0.208306  1
  O  O16  1  0.097337  0.082527  0.264066  1
  O  O17  1  0.919636  0.274292  0.258330  1
  O  O18  1  0.720899  0.901614  0.259758  1
  O  O19  1  0.200642  0.993544  0.410588  1
  O  O20  1  0.010199  0.611285  0.410174  1
  O  O21  1  0.383413  0.799385  0.411201  1
  O  O22  1  0.631433  0.245380  0.592337  1
  O  O23  1  0.017082  0.372655  0.592800  1
  O  O24  1  0.762115  0.985760  0.586223  1
  O  O25  1  0.287655  0.116899  0.720730  1
  O  O26  1  0.117688  0.716729  0.722620  1
  O  O27  1  0.883698  0.885332  0.723589  1
  O  O28  1  0.457488  0.462028  0.807001  1
  O  O29  1  0.186935  0.534355  0.812395  1
  O  O30  1  0.533096  0.804160  0.811888  1
  O  O31  1  0.754031  0.149309  0.894976  1
  O  O32  1  0.491079  0.254672  0.898512  1
  O  O33  1  0.860023  0.515947  0.897565  1
