# generated using pymatgen
data_Tb2Zn14Ir3
_symmetry_space_group_name_H-M   'P 1'
_cell_length_a   6.82528138
_cell_length_b   6.82528187
_cell_length_c   6.82528016
_cell_angle_alpha   82.13282418
_cell_angle_beta   82.13282416
_cell_angle_gamma   82.13283342
_symmetry_Int_Tables_number   1
_chemical_formula_structural   Tb2Zn14Ir3
_chemical_formula_sum   'Tb2 Zn14 Ir3'
_cell_volume   309.72559949
_cell_formula_units_Z   1
loop_
 _symmetry_equiv_pos_site_id
 _symmetry_equiv_pos_as_xyz
  1  'x, y, z'
loop_
 _atom_site_type_symbol
 _atom_site_label
 _atom_site_symmetry_multiplicity
 _atom_site_fract_x
 _atom_site_fract_y
 _atom_site_fract_z
 _atom_site_occupancy
  Tb  Tb0  1  0.678140  0.678140  0.678140  1
  Tb  Tb1  1  0.321860  0.321860  0.321860  1
  Zn  Zn2  1  0.354259  0.354259  0.840473  1
  Zn  Zn3  1  0.840473  0.354259  0.354259  1
  Zn  Zn4  1  0.099036  0.099036  0.099036  1
  Zn  Zn5  1  0.900964  0.900964  0.900964  1
  Zn  Zn6  1  0.295635  0.704365  0.000000  1
  Zn  Zn7  1  0.704365  0.000000  0.295635  1
  Zn  Zn8  1  0.000000  0.295635  0.704365  1
  Zn  Zn9  1  0.704365  0.295635  0.000000  1
  Zn  Zn10  1  0.295635  0.000000  0.704365  1
  Zn  Zn11  1  0.000000  0.704365  0.295635  1
  Zn  Zn12  1  0.159527  0.645741  0.645741  1
  Zn  Zn13  1  0.645741  0.645741  0.159527  1
  Zn  Zn14  1  0.645741  0.159527  0.645741  1
  Zn  Zn15  1  0.354259  0.840473  0.354259  1
  Ir  Ir16  1  0.000000  0.000000  0.500000  1
  Ir  Ir17  1  0.000000  0.500000  0.000000  1
  Ir  Ir18  1  0.500000  0.000000  0.000000  1
