# generated using pymatgen
data_ErPu7(BeSi3)4
_symmetry_space_group_name_H-M   'P 1'
_cell_length_a   7.86128900
_cell_length_b   7.85845147
_cell_length_c   8.12006200
_cell_angle_alpha   90.00000000
_cell_angle_beta   90.00000000
_cell_angle_gamma   120.01194935
_symmetry_Int_Tables_number   1
_chemical_formula_structural   ErPu7(BeSi3)4
_chemical_formula_sum   'Er1 Pu7 Be4 Si12'
_cell_volume   434.37858785
_cell_formula_units_Z   1
loop_
 _symmetry_equiv_pos_site_id
 _symmetry_equiv_pos_as_xyz
  1  'x, y, z'
loop_
 _atom_site_type_symbol
 _atom_site_label
 _atom_site_symmetry_multiplicity
 _atom_site_fract_x
 _atom_site_fract_y
 _atom_site_fract_z
 _atom_site_occupancy
  Er  Er0  1  0.500084  0.000167  0.250000  1
  Pu  Pu1  1  0.499807  0.999614  0.750000  1
  Pu  Pu2  1  0.999546  0.499868  0.250000  1
  Pu  Pu3  1  0.000492  0.500145  0.750000  1
  Pu  Pu4  1  0.500322  0.499868  0.250000  1
  Pu  Pu5  1  0.499651  0.500145  0.750000  1
  Pu  Pu6  1  0.000011  0.000023  0.250000  1
  Pu  Pu7  1  0.000067  0.000135  0.750000  1
  Be  Be8  1  0.333775  0.667552  0.001537  1
  Be  Be9  1  0.666219  0.332436  0.997801  1
  Be  Be10  1  0.666219  0.332436  0.502199  1
  Be  Be11  1  0.333775  0.667552  0.498463  1
  Si  Si12  1  0.172370  0.344738  0.000630  1
  Si  Si13  1  0.827652  0.655304  0.000791  1
  Si  Si14  1  0.654085  0.827953  0.997874  1
  Si  Si15  1  0.827652  0.655304  0.499209  1
  Si  Si16  1  0.345881  0.172041  0.998331  1
  Si  Si17  1  0.172370  0.344738  0.499370  1
  Si  Si18  1  0.173868  0.827953  0.997874  1
  Si  Si19  1  0.345881  0.172041  0.501669  1
  Si  Si20  1  0.826161  0.172041  0.998331  1
  Si  Si21  1  0.654085  0.827953  0.502126  1
  Si  Si22  1  0.826161  0.172041  0.501669  1
  Si  Si23  1  0.173868  0.827953  0.502126  1
