# generated using pymatgen
data_Zr3Sc5(Si4Os3)4
_symmetry_space_group_name_H-M   'P 1'
_cell_length_a   10.00907844
_cell_length_b   10.00341558
_cell_length_c   13.40430041
_cell_angle_alpha   53.79129507
_cell_angle_beta   53.77319649
_cell_angle_gamma   30.96841061
_symmetry_Int_Tables_number   1
_chemical_formula_structural   Zr3Sc5(Si4Os3)4
_chemical_formula_sum   'Zr3 Sc5 Si16 Os12'
_cell_volume   545.57343873
_cell_formula_units_Z   1
loop_
 _symmetry_equiv_pos_site_id
 _symmetry_equiv_pos_as_xyz
  1  'x, y, z'
loop_
 _atom_site_type_symbol
 _atom_site_label
 _atom_site_symmetry_multiplicity
 _atom_site_fract_x
 _atom_site_fract_y
 _atom_site_fract_z
 _atom_site_occupancy
  Zr  Zr0  1  0.443716  0.708696  0.850210  1
  Zr  Zr1  1  0.705503  0.444577  0.353275  1
  Zr  Zr2  1  0.556012  0.291508  0.149115  1
  Sc  Sc3  1  0.036225  0.295020  0.637893  1
  Sc  Sc4  1  0.706395  0.962933  0.861554  1
  Sc  Sc5  1  0.964131  0.704928  0.362324  1
  Sc  Sc6  1  0.294083  0.036835  0.138134  1
  Sc  Sc7  1  0.289665  0.559523  0.648493  1
  Si  Si8  1  0.976422  0.253155  0.891482  1
  Si  Si9  1  0.745612  0.025590  0.609128  1
  Si  Si10  1  0.022800  0.747182  0.108559  1
  Si  Si11  1  0.251060  0.978317  0.391283  1
  Si  Si12  1  0.145140  0.386006  0.897962  1
  Si  Si13  1  0.617349  0.854366  0.599975  1
  Si  Si14  1  0.855898  0.614509  0.100618  1
  Si  Si15  1  0.384044  0.143951  0.400384  1
  Si  Si16  1  0.081027  0.574145  0.565624  1
  Si  Si17  1  0.425431  0.921484  0.935246  1
  Si  Si18  1  0.920380  0.426239  0.435666  1
  Si  Si19  1  0.574013  0.079042  0.064672  1
  Si  Si20  1  0.617492  0.381374  0.749520  1
  Si  Si21  1  0.383617  0.616614  0.249827  1
  Si  Si22  1  0.123382  0.875854  0.749690  1
  Si  Si23  1  0.876236  0.123617  0.250100  1
  Os  Os24  1  0.893816  0.144423  0.584069  1
  Os  Os25  1  0.854017  0.108785  0.915608  1
  Os  Os26  1  0.107941  0.855506  0.414206  1
  Os  Os27  1  0.146126  0.890348  0.084655  1
  Os  Os28  1  0.830265  0.646653  0.783900  1
  Os  Os29  1  0.352993  0.168398  0.716518  1
  Os  Os30  1  0.169306  0.353186  0.216343  1
  Os  Os31  1  0.646387  0.830540  0.283959  1
  Os  Os32  1  0.243651  0.514097  0.928243  1
  Os  Os33  1  0.487194  0.755691  0.572133  1
  Os  Os34  1  0.758436  0.484093  0.071641  1
  Os  Os35  1  0.514234  0.242816  0.427994  1
