# generated using pymatgen
data_K5Sb6
_symmetry_space_group_name_H-M   'P 1'
_cell_length_a   16.98069360
_cell_length_b   16.98069260
_cell_length_c   5.48382300
_cell_angle_alpha   90.00000000
_cell_angle_beta   90.00000000
_cell_angle_gamma   162.77867612
_symmetry_Int_Tables_number   1
_chemical_formula_structural   K5Sb6
_chemical_formula_sum   'K5 Sb6'
_cell_volume   468.14372616
_cell_formula_units_Z   1
loop_
 _symmetry_equiv_pos_site_id
 _symmetry_equiv_pos_as_xyz
  1  'x, y, z'
loop_
 _atom_site_type_symbol
 _atom_site_label
 _atom_site_symmetry_multiplicity
 _atom_site_fract_x
 _atom_site_fract_y
 _atom_site_fract_z
 _atom_site_occupancy
  K  K0  1  0.000000  0.000000  0.000000  1
  K  K1  1  0.618326  0.381674  0.000000  1
  K  K2  1  0.381674  0.618326  0.000000  1
  K  K3  1  0.803514  0.196485  0.500000  1
  K  K4  1  0.196485  0.803514  0.500000  1
  Sb  Sb5  1  0.730928  0.269072  0.000000  1
  Sb  Sb6  1  0.269072  0.730928  0.000000  1
  Sb  Sb7  1  0.914796  0.085204  0.500000  1
  Sb  Sb8  1  0.549065  0.450934  0.500000  1
  Sb  Sb9  1  0.450934  0.549065  0.500000  1
  Sb  Sb10  1  0.085204  0.914796  0.500000  1
