# generated using pymatgen
data_Cs6TbNpBr12
_symmetry_space_group_name_H-M   'P 1'
_cell_length_a   10.04131823
_cell_length_b   10.06924414
_cell_length_c   8.31353400
_cell_angle_alpha   90.00000000
_cell_angle_beta   90.00000000
_cell_angle_gamma   89.79540668
_symmetry_Int_Tables_number   1
_chemical_formula_structural   Cs6TbNpBr12
_chemical_formula_sum   'Cs6 Tb1 Np1 Br12'
_cell_volume   840.56346660
_cell_formula_units_Z   1
loop_
 _symmetry_equiv_pos_site_id
 _symmetry_equiv_pos_as_xyz
  1  'x, y, z'
loop_
 _atom_site_type_symbol
 _atom_site_label
 _atom_site_symmetry_multiplicity
 _atom_site_fract_x
 _atom_site_fract_y
 _atom_site_fract_z
 _atom_site_occupancy
  Cs  Cs0  1  0.000000  0.000000  0.500000  1
  Cs  Cs1  1  0.000000  0.000000  0.000000  1
  Cs  Cs2  1  0.234071  0.583064  0.500000  1
  Cs  Cs3  1  0.765929  0.416936  0.500000  1
  Cs  Cs4  1  0.416772  0.237486  0.000000  1
  Cs  Cs5  1  0.583228  0.762514  0.000000  1
  Tb  Tb6  1  0.000000  0.500000  0.000000  1
  Np  Np7  1  0.500000  0.000000  0.500000  1
  Br  Br8  1  0.698082  0.059397  0.745173  1
  Br  Br9  1  0.301918  0.940603  0.745173  1
  Br  Br10  1  0.943069  0.691992  0.240325  1
  Br  Br11  1  0.056931  0.308008  0.240325  1
  Br  Br12  1  0.301918  0.940603  0.254827  1
  Br  Br13  1  0.698082  0.059397  0.254827  1
  Br  Br14  1  0.056931  0.308008  0.759675  1
  Br  Br15  1  0.943069  0.691992  0.759675  1
  Br  Br16  1  0.568065  0.720175  0.500000  1
  Br  Br17  1  0.431935  0.279825  0.500000  1
  Br  Br18  1  0.272221  0.569252  0.000000  1
  Br  Br19  1  0.727779  0.430748  0.000000  1
