# generated using pymatgen
data_Y8CrOs3C8
_symmetry_space_group_name_H-M   'P 1'
_cell_length_a   5.11623700
_cell_length_b   6.49812659
_cell_length_c   9.80599000
_cell_angle_alpha   90.10289100
_cell_angle_beta   90.00000000
_cell_angle_gamma   90.00000000
_symmetry_Int_Tables_number   1
_chemical_formula_structural   Y8CrOs3C8
_chemical_formula_sum   'Y8 Cr1 Os3 C8'
_cell_volume   326.00898329
_cell_formula_units_Z   1
loop_
 _symmetry_equiv_pos_site_id
 _symmetry_equiv_pos_as_xyz
  1  'x, y, z'
loop_
 _atom_site_type_symbol
 _atom_site_label
 _atom_site_symmetry_multiplicity
 _atom_site_fract_x
 _atom_site_fract_y
 _atom_site_fract_z
 _atom_site_occupancy
  Y  Y0  1  0.250000  0.684703  0.556925  1
  Y  Y1  1  0.750000  0.319614  0.446318  1
  Y  Y2  1  0.750000  0.816994  0.052083  1
  Y  Y3  1  0.250000  0.178823  0.945620  1
  Y  Y4  1  0.250000  0.529093  0.212835  1
  Y  Y5  1  0.750000  0.472586  0.781843  1
  Y  Y6  1  0.750000  0.975029  0.717115  1
  Y  Y7  1  0.250000  0.029195  0.286511  1
  Cr  Cr8  1  0.250000  0.727784  0.861757  1
  Os  Os9  1  0.750000  0.274552  0.136132  1
  Os  Os10  1  0.750000  0.775488  0.363318  1
  Os  Os11  1  0.250000  0.228233  0.638898  1
  C  C12  1  0.250000  0.466919  0.764265  1
  C  C13  1  0.750000  0.539812  0.241101  1
  C  C14  1  0.750000  0.039168  0.257964  1
  C  C15  1  0.250000  0.956341  0.743785  1
  C  C16  1  0.250000  0.812530  0.041064  1
  C  C17  1  0.750000  0.175658  0.950472  1
  C  C18  1  0.750000  0.676952  0.549925  1
  C  C19  1  0.250000  0.320524  0.452068  1
