# generated using pymatgen
data_NaSmSiS4
_symmetry_space_group_name_H-M   'P 1'
_cell_length_a   6.65790700
_cell_length_b   6.48336743
_cell_length_c   8.00575282
_cell_angle_alpha   74.13137766
_cell_angle_beta   90.00000000
_cell_angle_gamma   90.00000000
_symmetry_Int_Tables_number   1
_chemical_formula_structural   NaSmSiS4
_chemical_formula_sum   'Na2 Sm2 Si2 S8'
_cell_volume   332.40418814
_cell_formula_units_Z   2
loop_
 _symmetry_equiv_pos_site_id
 _symmetry_equiv_pos_as_xyz
  1  'x, y, z'
loop_
 _atom_site_type_symbol
 _atom_site_label
 _atom_site_symmetry_multiplicity
 _atom_site_fract_x
 _atom_site_fract_y
 _atom_site_fract_z
 _atom_site_occupancy
  Na  Na0  1  0.996670  0.737970  0.065355  1
  Na  Na1  1  0.496670  0.262030  0.934645  1
  Sm  Sm2  1  0.495643  0.225362  0.446687  1
  Sm  Sm3  1  0.995643  0.774638  0.553313  1
  Si  Si4  1  0.460209  0.768559  0.309970  1
  Si  Si5  1  0.960209  0.231441  0.690030  1
  S  S6  1  0.445828  0.565063  0.145761  1
  S  S7  1  0.231672  0.009817  0.255856  1
  S  S8  1  0.726507  0.961979  0.275190  1
  S  S9  1  0.910471  0.410927  0.426101  1
  S  S10  1  0.410471  0.589073  0.573899  1
  S  S11  1  0.226507  0.038021  0.724810  1
  S  S12  1  0.731672  0.990183  0.744144  1
  S  S13  1  0.945828  0.434937  0.854239  1
