# generated using pymatgen
data_Tm4ScOs7
_symmetry_space_group_name_H-M   'P 1'
_cell_length_a   5.37737302
_cell_length_b   5.37741493
_cell_length_c   8.80463600
_cell_angle_alpha   89.99989793
_cell_angle_beta   90.00020416
_cell_angle_gamma   119.99813352
_symmetry_Int_Tables_number   1
_chemical_formula_structural   Tm4ScOs7
_chemical_formula_sum   'Tm4 Sc1 Os7'
_cell_volume   220.49254889
_cell_formula_units_Z   1
loop_
 _symmetry_equiv_pos_site_id
 _symmetry_equiv_pos_as_xyz
  1  'x, y, z'
loop_
 _atom_site_type_symbol
 _atom_site_label
 _atom_site_symmetry_multiplicity
 _atom_site_fract_x
 _atom_site_fract_y
 _atom_site_fract_z
 _atom_site_occupancy
  Tm  Tm0  1  0.666668  0.333331  0.575945  1
  Tm  Tm1  1  0.333332  0.666669  0.424055  1
  Tm  Tm2  1  0.333332  0.666670  0.060631  1
  Tm  Tm3  1  0.666668  0.333330  0.939369  1
  Sc  Sc4  1  0.000000  0.000000  0.500000  1
  Os  Os5  1  0.000000  0.000000  0.000000  1
  Os  Os6  1  0.172780  0.345553  0.754739  1
  Os  Os7  1  0.172772  0.827226  0.754736  1
  Os  Os8  1  0.654448  0.827220  0.754739  1
  Os  Os9  1  0.827220  0.654447  0.245261  1
  Os  Os10  1  0.827228  0.172774  0.245264  1
  Os  Os11  1  0.345552  0.172780  0.245261  1
