# generated using pymatgen
data_Ho16Cd2Hg2RuPt3
_symmetry_space_group_name_H-M   'P 1'
_cell_length_a   9.63561200
_cell_length_b   9.63561160
_cell_length_c   9.64067460
_cell_angle_alpha   59.62668289
_cell_angle_beta   59.62668417
_cell_angle_gamma   59.65456599
_symmetry_Int_Tables_number   1
_chemical_formula_structural   Ho16Cd2Hg2RuPt3
_chemical_formula_sum   'Ho16 Cd2 Hg2 Ru1 Pt3'
_cell_volume   627.68757166
_cell_formula_units_Z   1
loop_
 _symmetry_equiv_pos_site_id
 _symmetry_equiv_pos_as_xyz
  1  'x, y, z'
loop_
 _atom_site_type_symbol
 _atom_site_label
 _atom_site_symmetry_multiplicity
 _atom_site_fract_x
 _atom_site_fract_y
 _atom_site_fract_z
 _atom_site_occupancy
  Ho  Ho0  1  0.602153  0.602153  0.601687  1
  Ho  Ho1  1  0.600843  0.600843  0.196095  1
  Ho  Ho2  1  0.601723  0.194136  0.601242  1
  Ho  Ho3  1  0.194136  0.601723  0.601242  1
  Ho  Ho4  1  0.064590  0.438441  0.439405  1
  Ho  Ho5  1  0.438876  0.059611  0.059558  1
  Ho  Ho6  1  0.438441  0.064590  0.439405  1
  Ho  Ho7  1  0.059611  0.438876  0.059558  1
  Ho  Ho8  1  0.438463  0.438463  0.064996  1
  Ho  Ho9  1  0.058896  0.058896  0.439850  1
  Ho  Ho10  1  0.184712  0.814928  0.815595  1
  Ho  Ho11  1  0.810206  0.185406  0.187613  1
  Ho  Ho12  1  0.814928  0.184712  0.815595  1
  Ho  Ho13  1  0.185406  0.810206  0.187613  1
  Ho  Ho14  1  0.814827  0.814827  0.186549  1
  Ho  Ho15  1  0.185989  0.185989  0.810872  1
  Cd  Cd16  1  0.830798  0.504553  0.831301  1
  Cd  Cd17  1  0.504553  0.830798  0.831301  1
  Hg  Hg18  1  0.833637  0.833637  0.835145  1
  Hg  Hg19  1  0.834814  0.834814  0.492150  1
  Ru  Ru20  1  0.393306  0.393306  0.394063  1
  Pt  Pt21  1  0.393925  0.393925  0.821115  1
  Pt  Pt22  1  0.393649  0.821514  0.394022  1
  Pt  Pt23  1  0.821514  0.393649  0.394022  1
