# generated using pymatgen
data_Er6Lu14Cd3Hg3Ru2
_symmetry_space_group_name_H-M   'P 1'
_cell_length_a   9.41933900
_cell_length_b   9.41933900
_cell_length_c   9.59493800
_cell_angle_alpha   90.00000000
_cell_angle_beta   90.00000000
_cell_angle_gamma   120.00001052
_symmetry_Int_Tables_number   1
_chemical_formula_structural   Er6Lu14Cd3Hg3Ru2
_chemical_formula_sum   'Er6 Lu14 Cd3 Hg3 Ru2'
_cell_volume   737.24801742
_cell_formula_units_Z   1
loop_
 _symmetry_equiv_pos_site_id
 _symmetry_equiv_pos_as_xyz
  1  'x, y, z'
loop_
 _atom_site_type_symbol
 _atom_site_label
 _atom_site_symmetry_multiplicity
 _atom_site_fract_x
 _atom_site_fract_y
 _atom_site_fract_z
 _atom_site_occupancy
  Er  Er0  1  0.539898  0.460102  0.250000  1
  Er  Er1  1  0.539898  0.079796  0.250000  1
  Er  Er2  1  0.920204  0.460102  0.250000  1
  Er  Er3  1  0.460037  0.539963  0.750000  1
  Er  Er4  1  0.460037  0.920073  0.750000  1
  Er  Er5  1  0.079927  0.539963  0.750000  1
  Lu  Lu6  1  0.000000  0.000000  0.491081  1
  Lu  Lu7  1  0.000000  0.000000  0.008919  1
  Lu  Lu8  1  0.210112  0.789888  0.440064  1
  Lu  Lu9  1  0.210112  0.420227  0.440064  1
  Lu  Lu10  1  0.579773  0.789888  0.440064  1
  Lu  Lu11  1  0.789948  0.210052  0.559240  1
  Lu  Lu12  1  0.789948  0.579898  0.559240  1
  Lu  Lu13  1  0.420102  0.210052  0.559240  1
  Lu  Lu14  1  0.789948  0.210052  0.940760  1
  Lu  Lu15  1  0.789948  0.579898  0.940760  1
  Lu  Lu16  1  0.420102  0.210052  0.940760  1
  Lu  Lu17  1  0.210112  0.789888  0.059936  1
  Lu  Lu18  1  0.210112  0.420227  0.059936  1
  Lu  Lu19  1  0.579773  0.789888  0.059936  1
  Cd  Cd20  1  0.111445  0.888555  0.750000  1
  Cd  Cd21  1  0.111445  0.222890  0.750000  1
  Cd  Cd22  1  0.777110  0.888555  0.750000  1
  Hg  Hg23  1  0.879867  0.120133  0.250000  1
  Hg  Hg24  1  0.879867  0.759733  0.250000  1
  Hg  Hg25  1  0.240267  0.120133  0.250000  1
  Ru  Ru26  1  0.333333  0.666667  0.250000  1
  Ru  Ru27  1  0.666667  0.333333  0.750000  1
