# generated using pymatgen
data_Gd4Dy3Ho(B6Ru)4
_symmetry_space_group_name_H-M   'P 1'
_cell_length_a   3.67681000
_cell_length_b   9.16721100
_cell_length_c   11.54837000
_cell_angle_alpha   89.99845102
_cell_angle_beta   90.00000000
_cell_angle_gamma   90.00000000
_symmetry_Int_Tables_number   1
_chemical_formula_structural   Gd4Dy3Ho(B6Ru)4
_chemical_formula_sum   'Gd4 Dy3 Ho1 B24 Ru4'
_cell_volume   389.25043404
_cell_formula_units_Z   1
loop_
 _symmetry_equiv_pos_site_id
 _symmetry_equiv_pos_as_xyz
  1  'x, y, z'
loop_
 _atom_site_type_symbol
 _atom_site_label
 _atom_site_symmetry_multiplicity
 _atom_site_fract_x
 _atom_site_fract_y
 _atom_site_fract_z
 _atom_site_occupancy
  Gd  Gd0  1  0.000000  0.322869  0.413896  1
  Gd  Gd1  1  0.000000  0.677112  0.586134  1
  Gd  Gd2  1  0.000000  0.822861  0.086065  1
  Gd  Gd3  1  0.000000  0.177154  0.913901  1
  Dy  Dy4  1  0.000000  0.944010  0.372292  1
  Dy  Dy5  1  0.000000  0.056071  0.627682  1
  Dy  Dy6  1  0.000000  0.444028  0.127572  1
  Ho  Ho7  1  0.000000  0.555998  0.872376  1
  B  B8  1  0.500000  0.554482  0.432204  1
  B  B9  1  0.500000  0.445456  0.567769  1
  B  B10  1  0.500000  0.054472  0.067751  1
  B  B11  1  0.500000  0.945473  0.932277  1
  B  B12  1  0.500000  0.748291  0.419312  1
  B  B13  1  0.500000  0.251731  0.580642  1
  B  B14  1  0.500000  0.248275  0.080643  1
  B  B15  1  0.500000  0.751546  0.919389  1
  B  B16  1  0.500000  0.790745  0.266548  1
  B  B17  1  0.500000  0.209282  0.733441  1
  B  B18  1  0.500000  0.290720  0.233406  1
  B  B19  1  0.500000  0.709076  0.766684  1
  B  B20  1  0.500000  0.632033  0.185301  1
  B  B21  1  0.500000  0.368143  0.814774  1
  B  B22  1  0.500000  0.132012  0.314671  1
  B  B23  1  0.500000  0.868019  0.685358  1
  B  B24  1  0.500000  0.984541  0.212962  1
  B  B25  1  0.500000  0.015450  0.787025  1
  B  B26  1  0.500000  0.484550  0.287003  1
  B  B27  1  0.500000  0.515517  0.713159  1
  B  B28  1  0.500000  0.608108  0.029590  1
  B  B29  1  0.500000  0.392073  0.970096  1
  B  B30  1  0.500000  0.108130  0.470210  1
  B  B31  1  0.500000  0.891916  0.529766  1
  Ru  Ru32  1  0.000000  0.638550  0.320551  1
  Ru  Ru33  1  0.000000  0.361519  0.679470  1
  Ru  Ru34  1  0.000000  0.138491  0.179255  1
  Ru  Ru35  1  0.000000  0.861299  0.820825  1
