# generated using pymatgen
data_YbSc(NbSe2)6
_symmetry_space_group_name_H-M   'P 1'
_cell_length_a   6.08642500
_cell_length_b   6.08642590
_cell_length_c   14.23935000
_cell_angle_alpha   90.00000000
_cell_angle_beta   90.00000000
_cell_angle_gamma   119.99998966
_symmetry_Int_Tables_number   1
_chemical_formula_structural   YbSc(NbSe2)6
_chemical_formula_sum   'Yb1 Sc1 Nb6 Se12'
_cell_volume   456.82036453
_cell_formula_units_Z   1
loop_
 _symmetry_equiv_pos_site_id
 _symmetry_equiv_pos_as_xyz
  1  'x, y, z'
loop_
 _atom_site_type_symbol
 _atom_site_label
 _atom_site_symmetry_multiplicity
 _atom_site_fract_x
 _atom_site_fract_y
 _atom_site_fract_z
 _atom_site_occupancy
  Yb  Yb0  1  0.333333  0.666667  0.250000  1
  Sc  Sc1  1  0.666667  0.333333  0.750000  1
  Nb  Nb2  1  0.000000  0.000000  0.509926  1
  Nb  Nb3  1  0.000000  0.000000  0.990074  1
  Nb  Nb4  1  0.333333  0.666667  0.991280  1
  Nb  Nb5  1  0.666667  0.333333  0.989172  1
  Nb  Nb6  1  0.666667  0.333333  0.510828  1
  Nb  Nb7  1  0.333333  0.666667  0.508720  1
  Se  Se8  1  0.333676  0.327764  0.392362  1
  Se  Se9  1  0.672236  0.005910  0.392362  1
  Se  Se10  1  0.994090  0.666324  0.392362  1
  Se  Se11  1  0.328803  0.334286  0.627576  1
  Se  Se12  1  0.005482  0.671197  0.627576  1
  Se  Se13  1  0.665714  0.994518  0.627576  1
  Se  Se14  1  0.665714  0.671197  0.872424  1
  Se  Se15  1  0.328803  0.994518  0.872424  1
  Se  Se16  1  0.005482  0.334286  0.872424  1
  Se  Se17  1  0.672236  0.666324  0.107638  1
  Se  Se18  1  0.994090  0.327764  0.107638  1
  Se  Se19  1  0.333676  0.005910  0.107638  1
