# generated using pymatgen
data_K3BaSb3PPt4
_symmetry_space_group_name_H-M   'P 1'
_cell_length_a   7.01595280
_cell_length_b   7.01595271
_cell_length_c   7.01595237
_cell_angle_alpha   90.42377256
_cell_angle_beta   90.42377837
_cell_angle_gamma   90.42377347
_symmetry_Int_Tables_number   1
_chemical_formula_structural   K3BaSb3PPt4
_chemical_formula_sum   'K3 Ba1 Sb3 P1 Pt4'
_cell_volume   345.32190544
_cell_formula_units_Z   1
loop_
 _symmetry_equiv_pos_site_id
 _symmetry_equiv_pos_as_xyz
  1  'x, y, z'
loop_
 _atom_site_type_symbol
 _atom_site_label
 _atom_site_symmetry_multiplicity
 _atom_site_fract_x
 _atom_site_fract_y
 _atom_site_fract_z
 _atom_site_occupancy
  K  K0  1  0.611917  0.387257  0.868920  1
  K  K1  1  0.387257  0.868920  0.611917  1
  K  K2  1  0.868920  0.611917  0.387257  1
  Ba  Ba3  1  0.122364  0.122364  0.122364  1
  Sb  Sb4  1  0.581207  0.914991  0.094163  1
  Sb  Sb5  1  0.094163  0.581207  0.914991  1
  Sb  Sb6  1  0.914991  0.094163  0.581207  1
  P  P7  1  0.402873  0.402873  0.402873  1
  Pt  Pt8  1  0.180059  0.355032  0.629196  1
  Pt  Pt9  1  0.629196  0.180059  0.355032  1
  Pt  Pt10  1  0.852023  0.852023  0.852023  1
  Pt  Pt11  1  0.355032  0.629196  0.180059  1
