# generated using pymatgen
data_Sr4GaGeIr4
_symmetry_space_group_name_H-M   'P 1'
_cell_length_a   5.89669581
_cell_length_b   5.89669508
_cell_length_c   7.76644786
_cell_angle_alpha   80.56794634
_cell_angle_beta   80.56794753
_cell_angle_gamma   62.56430090
_symmetry_Int_Tables_number   1
_chemical_formula_structural   Sr4GaGeIr4
_chemical_formula_sum   'Sr4 Ga1 Ge1 Ir4'
_cell_volume   235.22697305
_cell_formula_units_Z   1
loop_
 _symmetry_equiv_pos_site_id
 _symmetry_equiv_pos_as_xyz
  1  'x, y, z'
loop_
 _atom_site_type_symbol
 _atom_site_label
 _atom_site_symmetry_multiplicity
 _atom_site_fract_x
 _atom_site_fract_y
 _atom_site_fract_z
 _atom_site_occupancy
  Sr  Sr0  1  0.991327  0.718341  0.139393  1
  Sr  Sr1  1  0.281659  0.008673  0.360607  1
  Sr  Sr2  1  0.010655  0.283383  0.858750  1
  Sr  Sr3  1  0.716617  0.989345  0.641250  1
  Ga  Ga4  1  0.423626  0.576374  0.750000  1
  Ge  Ge5  1  0.571789  0.428211  0.250000  1
  Ir  Ir6  1  0.494577  0.786057  0.995188  1
  Ir  Ir7  1  0.213943  0.505423  0.504812  1
  Ir  Ir8  1  0.510994  0.215186  0.015634  1
  Ir  Ir9  1  0.784814  0.489006  0.484366  1
