# generated using pymatgen
data_Tb3DyGa3SiRu4
_symmetry_space_group_name_H-M   'P 1'
_cell_length_a   4.47655800
_cell_length_b   7.15734328
_cell_length_c   7.14810956
_cell_angle_alpha   90.10974011
_cell_angle_beta   90.00000000
_cell_angle_gamma   90.00000000
_symmetry_Int_Tables_number   1
_chemical_formula_structural   Tb3DyGa3SiRu4
_chemical_formula_sum   'Tb3 Dy1 Ga3 Si1 Ru4'
_cell_volume   229.02688508
_cell_formula_units_Z   1
loop_
 _symmetry_equiv_pos_site_id
 _symmetry_equiv_pos_as_xyz
  1  'x, y, z'
loop_
 _atom_site_type_symbol
 _atom_site_label
 _atom_site_symmetry_multiplicity
 _atom_site_fract_x
 _atom_site_fract_y
 _atom_site_fract_z
 _atom_site_occupancy
  Tb  Tb0  1  0.250000  0.984434  0.807556  1
  Tb  Tb1  1  0.750000  0.016839  0.196626  1
  Tb  Tb2  1  0.750000  0.517065  0.306231  1
  Dy  Dy3  1  0.250000  0.475833  0.694739  1
  Ga  Ga4  1  0.250000  0.305265  0.107184  1
  Ga  Ga5  1  0.750000  0.691124  0.891430  1
  Ga  Ga6  1  0.250000  0.801738  0.398353  1
  Si  Si7  1  0.750000  0.196730  0.600670  1
  Ru  Ru8  1  0.750000  0.858607  0.565897  1
  Ru  Ru9  1  0.250000  0.161970  0.446049  1
  Ru  Ru10  1  0.750000  0.329969  0.919618  1
  Ru  Ru11  1  0.250000  0.660426  0.065648  1
