# generated using pymatgen
data_Ca4Y3ErHg8
_symmetry_space_group_name_H-M   'P 1'
_cell_length_a   7.53665600
_cell_length_b   7.51501200
_cell_length_c   7.44894000
_cell_angle_alpha   90.00000000
_cell_angle_beta   90.00230976
_cell_angle_gamma   90.00000000
_symmetry_Int_Tables_number   1
_chemical_formula_structural   Ca4Y3ErHg8
_chemical_formula_sum   'Ca4 Y3 Er1 Hg8'
_cell_volume   421.89351257
_cell_formula_units_Z   1
loop_
 _symmetry_equiv_pos_site_id
 _symmetry_equiv_pos_as_xyz
  1  'x, y, z'
loop_
 _atom_site_type_symbol
 _atom_site_label
 _atom_site_symmetry_multiplicity
 _atom_site_fract_x
 _atom_site_fract_y
 _atom_site_fract_z
 _atom_site_occupancy
  Ca  Ca0  1  0.749518  0.250000  0.000118  1
  Ca  Ca1  1  0.249533  0.750000  0.499892  1
  Ca  Ca2  1  0.750470  0.250000  0.500110  1
  Ca  Ca3  1  0.250479  0.750000  0.999899  1
  Y  Y4  1  0.749353  0.750000  0.000004  1
  Y  Y5  1  0.750645  0.750000  0.499994  1
  Y  Y6  1  0.249344  0.250000  0.500009  1
  Er  Er7  1  0.250597  0.250000  0.999985  1
  Hg  Hg8  1  0.000820  0.499459  0.247904  1
  Hg  Hg9  1  0.000820  0.000543  0.247904  1
  Hg  Hg10  1  0.499568  0.000757  0.250599  1
  Hg  Hg11  1  0.499568  0.499243  0.250599  1
  Hg  Hg12  1  0.499202  0.499467  0.749394  1
  Hg  Hg13  1  0.499202  0.000535  0.749394  1
  Hg  Hg14  1  0.000440  0.000771  0.752098  1
  Hg  Hg15  1  0.000440  0.499229  0.752098  1
