# generated using pymatgen
data_Ho2Er2As6Rh7
_symmetry_space_group_name_H-M   'P 1'
_cell_length_a   7.26534167
_cell_length_b   7.26385771
_cell_length_c   7.26385703
_cell_angle_alpha   109.46073184
_cell_angle_beta   109.47232045
_cell_angle_gamma   109.47232643
_symmetry_Int_Tables_number   1
_chemical_formula_structural   Ho2Er2As6Rh7
_chemical_formula_sum   'Ho2 Er2 As6 Rh7'
_cell_volume   295.12985997
_cell_formula_units_Z   1
loop_
 _symmetry_equiv_pos_site_id
 _symmetry_equiv_pos_as_xyz
  1  'x, y, z'
loop_
 _atom_site_type_symbol
 _atom_site_label
 _atom_site_symmetry_multiplicity
 _atom_site_fract_x
 _atom_site_fract_y
 _atom_site_fract_z
 _atom_site_occupancy
  Ho  Ho0  1  0.000000  0.500000  0.000000  1
  Ho  Ho1  1  0.000000  0.000000  0.500000  1
  Er  Er2  1  0.500000  0.500000  0.500000  1
  Er  Er3  1  0.500000  0.000000  0.000000  1
  As  As4  1  0.681996  0.999906  0.682090  1
  As  As5  1  0.681996  0.682090  0.999906  1
  As  As6  1  0.318004  0.317910  0.000094  1
  As  As7  1  0.000000  0.682082  0.682082  1
  As  As8  1  0.000000  0.317918  0.317918  1
  As  As9  1  0.318004  0.000094  0.317910  1
  Rh  Rh10  1  0.500000  0.750000  0.250000  1
  Rh  Rh11  1  0.749857  0.250002  0.499855  1
  Rh  Rh12  1  0.250143  0.749998  0.500145  1
  Rh  Rh13  1  0.250143  0.500145  0.749998  1
  Rh  Rh14  1  0.000000  0.000000  0.000000  1
  Rh  Rh15  1  0.500000  0.250000  0.750000  1
  Rh  Rh16  1  0.749857  0.499855  0.250002  1
