# generated using pymatgen
data_Zr6Zn21Ag2As
_symmetry_space_group_name_H-M   'P 1'
_cell_length_a   8.84132836
_cell_length_b   8.84132818
_cell_length_c   8.84132874
_cell_angle_alpha   59.94134540
_cell_angle_beta   59.94134816
_cell_angle_gamma   59.94134305
_symmetry_Int_Tables_number   1
_chemical_formula_structural   Zr6Zn21Ag2As
_chemical_formula_sum   'Zr6 Zn21 Ag2 As1'
_cell_volume   488.04450945
_cell_formula_units_Z   1
loop_
 _symmetry_equiv_pos_site_id
 _symmetry_equiv_pos_as_xyz
  1  'x, y, z'
loop_
 _atom_site_type_symbol
 _atom_site_label
 _atom_site_symmetry_multiplicity
 _atom_site_fract_x
 _atom_site_fract_y
 _atom_site_fract_z
 _atom_site_occupancy
  Zr  Zr0  1  0.708694  0.289209  0.289209  1
  Zr  Zr1  1  0.287001  0.713256  0.713256  1
  Zr  Zr2  1  0.289209  0.708694  0.289209  1
  Zr  Zr3  1  0.713256  0.287001  0.713256  1
  Zr  Zr4  1  0.289209  0.289209  0.708694  1
  Zr  Zr5  1  0.713256  0.713256  0.287001  1
  Zn  Zn6  1  0.872524  0.872524  0.872524  1
  Zn  Zn7  1  0.126397  0.126397  0.623218  1
  Zn  Zn8  1  0.126397  0.623218  0.126397  1
  Zn  Zn9  1  0.878181  0.878181  0.370858  1
  Zn  Zn10  1  0.878181  0.370858  0.878181  1
  Zn  Zn11  1  0.623218  0.126397  0.126397  1
  Zn  Zn12  1  0.370858  0.878181  0.878181  1
  Zn  Zn13  1  0.504733  0.999630  0.999630  1
  Zn  Zn14  1  0.000124  0.500725  0.500725  1
  Zn  Zn15  1  0.999630  0.504733  0.999630  1
  Zn  Zn16  1  0.500725  0.000124  0.500725  1
  Zn  Zn17  1  0.999630  0.999630  0.504733  1
  Zn  Zn18  1  0.500725  0.500725  0.000124  1
  Zn  Zn19  1  0.336297  0.336297  0.336297  1
  Zn  Zn20  1  0.664945  0.664945  0.664945  1
  Zn  Zn21  1  0.336506  0.336506  0.992113  1
  Zn  Zn22  1  0.336506  0.992113  0.336506  1
  Zn  Zn23  1  0.664113  0.664113  0.007118  1
  Zn  Zn24  1  0.664113  0.007118  0.664113  1
  Zn  Zn25  1  0.992113  0.336506  0.336506  1
  Zn  Zn26  1  0.007118  0.664113  0.664113  1
  Ag  Ag27  1  0.121685  0.121685  0.121685  1
  Ag  Ag28  1  0.993495  0.993495  0.993495  1
  As  As29  1  0.501160  0.501160  0.501160  1
