# generated using pymatgen
data_Tb2Y4Fe4Co13NiP12
_symmetry_space_group_name_H-M   'P 1'
_cell_length_a   3.70730900
_cell_length_b   10.56176000
_cell_length_c   12.11212400
_cell_angle_alpha   90.00000000
_cell_angle_beta   90.00000000
_cell_angle_gamma   90.00000000
_symmetry_Int_Tables_number   1
_chemical_formula_structural   Tb2Y4Fe4Co13NiP12
_chemical_formula_sum   'Tb2 Y4 Fe4 Co13 Ni1 P12'
_cell_volume   474.25878944
_cell_formula_units_Z   1
loop_
 _symmetry_equiv_pos_site_id
 _symmetry_equiv_pos_as_xyz
  1  'x, y, z'
loop_
 _atom_site_type_symbol
 _atom_site_label
 _atom_site_symmetry_multiplicity
 _atom_site_fract_x
 _atom_site_fract_y
 _atom_site_fract_z
 _atom_site_occupancy
  Tb  Tb0  1  0.000000  0.500000  0.520310  1
  Tb  Tb1  1  0.500000  0.000000  0.477734  1
  Y  Y2  1  0.500000  0.819027  0.204465  1
  Y  Y3  1  0.500000  0.180973  0.204465  1
  Y  Y4  1  0.000000  0.682448  0.796405  1
  Y  Y5  1  0.000000  0.317552  0.796405  1
  Fe  Fe6  1  0.500000  0.500000  0.155255  1
  Fe  Fe7  1  0.000000  0.000000  0.844430  1
  Fe  Fe8  1  0.000000  0.500000  0.988787  1
  Fe  Fe9  1  0.500000  0.000000  0.011463  1
  Co  Co10  1  0.000000  0.000000  0.298341  1
  Co  Co11  1  0.500000  0.331755  0.994411  1
  Co  Co12  1  0.500000  0.668245  0.994411  1
  Co  Co13  1  0.000000  0.168060  0.005264  1
  Co  Co14  1  0.000000  0.831940  0.005264  1
  Co  Co15  1  0.500000  0.297264  0.430326  1
  Co  Co16  1  0.500000  0.702736  0.430326  1
  Co  Co17  1  0.000000  0.202821  0.569706  1
  Co  Co18  1  0.000000  0.797179  0.569706  1
  Co  Co19  1  0.500000  0.878971  0.709748  1
  Co  Co20  1  0.500000  0.121029  0.709748  1
  Co  Co21  1  0.000000  0.620733  0.290302  1
  Co  Co22  1  0.000000  0.379267  0.290302  1
  Ni  Ni23  1  0.500000  0.500000  0.702065  1
  P  P24  1  0.500000  0.500000  0.886221  1
  P  P25  1  0.000000  0.000000  0.115366  1
  P  P26  1  0.500000  0.500000  0.341060  1
  P  P27  1  0.000000  0.000000  0.658674  1
  P  P28  1  0.500000  0.308823  0.615595  1
  P  P29  1  0.500000  0.691177  0.615595  1
  P  P30  1  0.000000  0.190174  0.383519  1
  P  P31  1  0.000000  0.809826  0.383519  1
  P  P32  1  0.500000  0.847864  0.893825  1
  P  P33  1  0.500000  0.152136  0.893825  1
  P  P34  1  0.000000  0.652686  0.106582  1
  P  P35  1  0.000000  0.347314  0.106582  1
