# generated using pymatgen
data_Dy2Th(P2Rh3)3
_symmetry_space_group_name_H-M   'P 1'
_cell_length_a   3.96336300
_cell_length_b   11.22533300
_cell_length_c   12.82163600
_cell_angle_alpha   90.00000000
_cell_angle_beta   90.00000000
_cell_angle_gamma   90.00000000
_symmetry_Int_Tables_number   1
_chemical_formula_structural   Dy2Th(P2Rh3)3
_chemical_formula_sum   'Dy4 Th2 P12 Rh18'
_cell_volume   570.43547642
_cell_formula_units_Z   2
loop_
 _symmetry_equiv_pos_site_id
 _symmetry_equiv_pos_as_xyz
  1  'x, y, z'
loop_
 _atom_site_type_symbol
 _atom_site_label
 _atom_site_symmetry_multiplicity
 _atom_site_fract_x
 _atom_site_fract_y
 _atom_site_fract_z
 _atom_site_occupancy
  Dy  Dy0  1  0.500000  0.813596  0.204816  1
  Dy  Dy1  1  0.500000  0.186404  0.204816  1
  Dy  Dy2  1  0.000000  0.686404  0.795184  1
  Dy  Dy3  1  0.000000  0.313596  0.795184  1
  Th  Th4  1  0.000000  0.500000  0.524647  1
  Th  Th5  1  0.500000  0.000000  0.475353  1
  P  P6  1  0.500000  0.500000  0.879263  1
  P  P7  1  0.000000  0.000000  0.120737  1
  P  P8  1  0.500000  0.500000  0.348515  1
  P  P9  1  0.000000  0.000000  0.651485  1
  P  P10  1  0.500000  0.312940  0.620609  1
  P  P11  1  0.500000  0.687060  0.620609  1
  P  P12  1  0.000000  0.187060  0.379391  1
  P  P13  1  0.000000  0.812940  0.379391  1
  P  P14  1  0.500000  0.846122  0.893901  1
  P  P15  1  0.500000  0.153878  0.893901  1
  P  P16  1  0.000000  0.653878  0.106099  1
  P  P17  1  0.000000  0.346122  0.106099  1
  Rh  Rh18  1  0.500000  0.500000  0.169606  1
  Rh  Rh19  1  0.000000  0.000000  0.830394  1
  Rh  Rh20  1  0.500000  0.500000  0.702906  1
  Rh  Rh21  1  0.000000  0.000000  0.297094  1
  Rh  Rh22  1  0.000000  0.500000  0.978914  1
  Rh  Rh23  1  0.500000  0.000000  0.021086  1
  Rh  Rh24  1  0.500000  0.334236  0.993891  1
  Rh  Rh25  1  0.500000  0.665764  0.993891  1
  Rh  Rh26  1  0.000000  0.165764  0.006109  1
  Rh  Rh27  1  0.000000  0.834236  0.006109  1
  Rh  Rh28  1  0.500000  0.297294  0.431263  1
  Rh  Rh29  1  0.500000  0.702706  0.431263  1
  Rh  Rh30  1  0.000000  0.202706  0.568737  1
  Rh  Rh31  1  0.000000  0.797294  0.568737  1
  Rh  Rh32  1  0.500000  0.872855  0.712190  1
  Rh  Rh33  1  0.500000  0.127145  0.712190  1
  Rh  Rh34  1  0.000000  0.627145  0.287810  1
  Rh  Rh35  1  0.000000  0.372855  0.287810  1
