# generated using pymatgen
data_Lu6Cr2Fe(Co5P4)3
_symmetry_space_group_name_H-M   'P 1'
_cell_length_a   3.65545000
_cell_length_b   10.47701100
_cell_length_c   12.05994000
_cell_angle_alpha   90.00000000
_cell_angle_beta   90.00000000
_cell_angle_gamma   90.00000000
_symmetry_Int_Tables_number   1
_chemical_formula_structural   Lu6Cr2Fe(Co5P4)3
_chemical_formula_sum   'Lu6 Cr2 Fe1 Co15 P12'
_cell_volume   461.87387182
_cell_formula_units_Z   1
loop_
 _symmetry_equiv_pos_site_id
 _symmetry_equiv_pos_as_xyz
  1  'x, y, z'
loop_
 _atom_site_type_symbol
 _atom_site_label
 _atom_site_symmetry_multiplicity
 _atom_site_fract_x
 _atom_site_fract_y
 _atom_site_fract_z
 _atom_site_occupancy
  Lu  Lu0  1  0.000000  0.500000  0.523924  1
  Lu  Lu1  1  0.500000  0.000000  0.476396  1
  Lu  Lu2  1  0.500000  0.818117  0.204240  1
  Lu  Lu3  1  0.500000  0.181883  0.204240  1
  Lu  Lu4  1  0.000000  0.680754  0.796083  1
  Lu  Lu5  1  0.000000  0.319246  0.796083  1
  Cr  Cr6  1  0.500000  0.500000  0.155280  1
  Cr  Cr7  1  0.000000  0.000000  0.843712  1
  Fe  Fe8  1  0.000000  0.500000  0.987380  1
  Co  Co9  1  0.500000  0.500000  0.700016  1
  Co  Co10  1  0.000000  0.000000  0.299186  1
  Co  Co11  1  0.500000  0.000000  0.013410  1
  Co  Co12  1  0.500000  0.330479  0.991996  1
  Co  Co13  1  0.500000  0.669521  0.991996  1
  Co  Co14  1  0.000000  0.166721  0.008094  1
  Co  Co15  1  0.000000  0.833279  0.008094  1
  Co  Co16  1  0.500000  0.296393  0.431122  1
  Co  Co17  1  0.500000  0.703607  0.431122  1
  Co  Co18  1  0.000000  0.203610  0.569067  1
  Co  Co19  1  0.000000  0.796390  0.569067  1
  Co  Co20  1  0.500000  0.878536  0.707862  1
  Co  Co21  1  0.500000  0.121464  0.707862  1
  Co  Co22  1  0.000000  0.621932  0.292124  1
  Co  Co23  1  0.000000  0.378068  0.292124  1
  P  P24  1  0.500000  0.500000  0.881526  1
  P  P25  1  0.000000  0.000000  0.119914  1
  P  P26  1  0.500000  0.500000  0.346378  1
  P  P27  1  0.000000  0.000000  0.654238  1
  P  P28  1  0.500000  0.312559  0.617049  1
  P  P29  1  0.500000  0.687441  0.617049  1
  P  P30  1  0.000000  0.187119  0.383143  1
  P  P31  1  0.000000  0.812881  0.383143  1
  P  P32  1  0.500000  0.847218  0.890772  1
  P  P33  1  0.500000  0.152782  0.890772  1
  P  P34  1  0.000000  0.652679  0.107766  1
  P  P35  1  0.000000  0.347321  0.107766  1
