# generated using pymatgen
data_Er4AlB4Ir9
_symmetry_space_group_name_H-M   'P 1'
_cell_length_a   10.75765969
_cell_length_b   10.75765916
_cell_length_c   10.75765986
_cell_angle_alpha   29.66242622
_cell_angle_beta   29.66243151
_cell_angle_gamma   29.66242982
_symmetry_Int_Tables_number   1
_chemical_formula_structural   Er4AlB4Ir9
_chemical_formula_sum   'Er4 Al1 B4 Ir9'
_cell_volume   269.94767340
_cell_formula_units_Z   1
loop_
 _symmetry_equiv_pos_site_id
 _symmetry_equiv_pos_as_xyz
  1  'x, y, z'
loop_
 _atom_site_type_symbol
 _atom_site_label
 _atom_site_symmetry_multiplicity
 _atom_site_fract_x
 _atom_site_fract_y
 _atom_site_fract_z
 _atom_site_occupancy
  Er  Er0  1  0.150555  0.150555  0.150555  1
  Er  Er1  1  0.950037  0.950037  0.950037  1
  Er  Er2  1  0.849445  0.849445  0.849445  1
  Er  Er3  1  0.049963  0.049963  0.049963  1
  Al  Al4  1  0.500000  0.500000  0.500000  1
  B  B5  1  0.615598  0.615598  0.615598  1
  B  B6  1  0.717659  0.717659  0.717659  1
  B  B7  1  0.384402  0.384402  0.384402  1
  B  B8  1  0.282341  0.282341  0.282341  1
  Ir  Ir9  1  0.401311  0.902031  0.401311  1
  Ir  Ir10  1  0.902031  0.401311  0.401311  1
  Ir  Ir11  1  0.500000  0.500000  0.000000  1
  Ir  Ir12  1  0.500000  0.000000  0.500000  1
  Ir  Ir13  1  0.000000  0.500000  0.500000  1
  Ir  Ir14  1  0.598689  0.097969  0.598689  1
  Ir  Ir15  1  0.598689  0.598689  0.097969  1
  Ir  Ir16  1  0.097969  0.598689  0.598689  1
  Ir  Ir17  1  0.401311  0.401311  0.902031  1
