# generated using pymatgen
data_Dy3Mg3Si2Rh
_symmetry_space_group_name_H-M   'P 1'
_cell_length_a   7.18212900
_cell_length_b   7.18212997
_cell_length_c   4.29198000
_cell_angle_alpha   90.00000000
_cell_angle_beta   90.00000000
_cell_angle_gamma   120.00000013
_symmetry_Int_Tables_number   1
_chemical_formula_structural   Dy3Mg3Si2Rh
_chemical_formula_sum   'Dy3 Mg3 Si2 Rh1'
_cell_volume   191.73207926
_cell_formula_units_Z   1
loop_
 _symmetry_equiv_pos_site_id
 _symmetry_equiv_pos_as_xyz
  1  'x, y, z'
loop_
 _atom_site_type_symbol
 _atom_site_label
 _atom_site_symmetry_multiplicity
 _atom_site_fract_x
 _atom_site_fract_y
 _atom_site_fract_z
 _atom_site_occupancy
  Dy  Dy0  1  0.411155  0.000000  0.000000  1
  Dy  Dy1  1  0.000000  0.411156  0.000000  1
  Dy  Dy2  1  0.588845  0.588845  0.000000  1
  Mg  Mg3  1  0.758397  0.000000  0.500001  1
  Mg  Mg4  1  0.241603  0.241602  0.500001  1
  Mg  Mg5  1  0.000000  0.758398  0.500001  1
  Si  Si6  1  0.666667  0.333334  0.500001  1
  Si  Si7  1  0.333333  0.666666  0.500001  1
  Rh  Rh8  1  0.000000  0.000000  0.000000  1
