# generated using pymatgen
data_NaPr2Nd4CoI12
_symmetry_space_group_name_H-M   'P 1'
_cell_length_a   9.98833107
_cell_length_b   9.98606030
_cell_length_c   10.10458802
_cell_angle_alpha   106.81213278
_cell_angle_beta   107.23317946
_cell_angle_gamma   106.80450824
_symmetry_Int_Tables_number   1
_chemical_formula_structural   NaPr2Nd4CoI12
_chemical_formula_sum   'Na1 Pr2 Nd4 Co1 I12'
_cell_volume   840.49775265
_cell_formula_units_Z   1
loop_
 _symmetry_equiv_pos_site_id
 _symmetry_equiv_pos_as_xyz
  1  'x, y, z'
loop_
 _atom_site_type_symbol
 _atom_site_label
 _atom_site_symmetry_multiplicity
 _atom_site_fract_x
 _atom_site_fract_y
 _atom_site_fract_z
 _atom_site_occupancy
  Na  Na0  1  0.500045  0.500043  0.500002  1
  Pr  Pr1  1  0.901557  0.702535  0.972608  1
  Pr  Pr2  1  0.701322  0.972384  0.901367  1
  Nd  Nd3  1  0.971451  0.896369  0.687950  1
  Nd  Nd4  1  0.028962  0.104357  0.312412  1
  Nd  Nd5  1  0.098783  0.295997  0.027595  1
  Nd  Nd6  1  0.297234  0.027855  0.098293  1
  Co  Co7  1  0.000477  0.000501  0.000319  1
  I  I8  1  0.543526  0.622982  0.851199  1
  I  I9  1  0.453806  0.374764  0.147651  1
  I  I10  1  0.317672  0.925831  0.776659  1
  I  I11  1  0.374077  0.145952  0.450906  1
  I  I12  1  0.925286  0.774428  0.317971  1
  I  I13  1  0.681821  0.074797  0.225329  1
  I  I14  1  0.075182  0.226626  0.684138  1
  I  I15  1  0.775392  0.318816  0.925409  1
  I  I16  1  0.227730  0.682881  0.075501  1
  I  I17  1  0.853058  0.546662  0.625965  1
  I  I18  1  0.146743  0.453043  0.371798  1
  I  I19  1  0.625875  0.853177  0.546925  1
