# generated using pymatgen
data_Rb6I2O9
_symmetry_space_group_name_H-M   'P 1'
_cell_length_a   8.72942637
_cell_length_b   8.72942714
_cell_length_c   11.46949984
_cell_angle_alpha   67.30282388
_cell_angle_beta   67.30281754
_cell_angle_gamma   89.09984055
_symmetry_Int_Tables_number   1
_chemical_formula_structural   Rb6I2O9
_chemical_formula_sum   'Rb12 I4 O18'
_cell_volume   734.71597083
_cell_formula_units_Z   2
loop_
 _symmetry_equiv_pos_site_id
 _symmetry_equiv_pos_as_xyz
  1  'x, y, z'
loop_
 _atom_site_type_symbol
 _atom_site_label
 _atom_site_symmetry_multiplicity
 _atom_site_fract_x
 _atom_site_fract_y
 _atom_site_fract_z
 _atom_site_occupancy
  Rb  Rb0  1  0.488960  0.751576  0.018790  1
  Rb  Rb1  1  0.248424  0.511040  0.481210  1
  Rb  Rb2  1  0.511040  0.248424  0.981210  1
  Rb  Rb3  1  0.751576  0.488960  0.518790  1
  Rb  Rb4  1  0.994529  0.737774  0.023181  1
  Rb  Rb5  1  0.262226  0.005471  0.476819  1
  Rb  Rb6  1  0.005471  0.262226  0.976819  1
  Rb  Rb7  1  0.737774  0.994529  0.523181  1
  Rb  Rb8  1  0.105827  0.353216  0.251306  1
  Rb  Rb9  1  0.646784  0.894173  0.248694  1
  Rb  Rb10  1  0.894173  0.646784  0.748694  1
  Rb  Rb11  1  0.353216  0.105827  0.751306  1
  I  I12  1  0.370590  0.629410  0.750000  1
  I  I13  1  0.629410  0.370590  0.250000  1
  I  I14  1  0.122438  0.877562  0.250000  1
  I  I15  1  0.877562  0.122438  0.750000  1
  O  O16  1  0.100050  0.661193  0.257209  1
  O  O17  1  0.338807  0.899950  0.242791  1
  O  O18  1  0.899950  0.338807  0.742791  1
  O  O19  1  0.661193  0.100050  0.757209  1
  O  O20  1  0.791688  0.018693  0.954385  1
  O  O21  1  0.981307  0.208312  0.545615  1
  O  O22  1  0.208312  0.981307  0.045615  1
  O  O23  1  0.018693  0.791688  0.454385  1
  O  O24  1  0.670259  0.567975  0.266219  1
  O  O25  1  0.432025  0.329741  0.233781  1
  O  O26  1  0.329741  0.432025  0.733781  1
  O  O27  1  0.567975  0.670259  0.766219  1
  O  O28  1  0.519699  0.257502  0.444587  1
  O  O29  1  0.742498  0.480301  0.055413  1
  O  O30  1  0.480301  0.742498  0.555413  1
  O  O31  1  0.257502  0.519699  0.944587  1
  O  O32  1  0.217849  0.782151  0.750000  1
  O  O33  1  0.782151  0.217849  0.250000  1
