# generated using pymatgen
data_Ac2ZnSi3
_symmetry_space_group_name_H-M   'P 1'
_cell_length_a   4.48531536
_cell_length_b   4.42405580
_cell_length_c   21.92112438
_cell_angle_alpha   84.24300089
_cell_angle_beta   95.77618212
_cell_angle_gamma   90.00638644
_symmetry_Int_Tables_number   1
_chemical_formula_structural   Ac2ZnSi3
_chemical_formula_sum   'Ac6 Zn3 Si9'
_cell_volume   430.57381961
_cell_formula_units_Z   3
loop_
 _symmetry_equiv_pos_site_id
 _symmetry_equiv_pos_as_xyz
  1  'x, y, z'
loop_
 _atom_site_type_symbol
 _atom_site_label
 _atom_site_symmetry_multiplicity
 _atom_site_fract_x
 _atom_site_fract_y
 _atom_site_fract_z
 _atom_site_occupancy
  Ac  Ac0  1  0.373538  0.876252  0.247124  1
  Ac  Ac1  1  0.040197  0.209515  0.580677  1
  Ac  Ac2  1  0.706936  0.542752  0.914283  1
  Ac  Ac3  1  0.292868  0.457805  0.085021  1
  Ac  Ac4  1  0.959568  0.791155  0.418650  1
  Ac  Ac5  1  0.626126  0.124494  0.751861  1
  Zn  Zn6  1  0.903709  0.345404  0.306340  1
  Zn  Zn7  1  0.570177  0.678712  0.639439  1
  Zn  Zn8  1  0.236954  0.012207  0.973027  1
  Si  Si9  1  0.764233  0.986046  0.028804  1
  Si  Si10  1  0.430952  0.319775  0.362177  1
  Si  Si11  1  0.097329  0.653233  0.695184  1
  Si  Si12  1  0.842932  0.402758  0.193844  1
  Si  Si13  1  0.509516  0.736062  0.527223  1
  Si  Si14  1  0.176069  0.069459  0.860544  1
  Si  Si15  1  0.823104  0.931502  0.138530  1
  Si  Si16  1  0.489657  0.264720  0.472095  1
  Si  Si17  1  0.156136  0.598150  0.805178  1
