# generated using pymatgen
data_YThScAl3
_symmetry_space_group_name_H-M   'P 1'
_cell_length_a   5.82049100
_cell_length_b   5.82049069
_cell_length_c   9.31426300
_cell_angle_alpha   90.00000000
_cell_angle_beta   90.00000000
_cell_angle_gamma   119.99999607
_symmetry_Int_Tables_number   1
_chemical_formula_structural   YThScAl3
_chemical_formula_sum   'Y2 Th2 Sc2 Al6'
_cell_volume   273.27403319
_cell_formula_units_Z   2
loop_
 _symmetry_equiv_pos_site_id
 _symmetry_equiv_pos_as_xyz
  1  'x, y, z'
loop_
 _atom_site_type_symbol
 _atom_site_label
 _atom_site_symmetry_multiplicity
 _atom_site_fract_x
 _atom_site_fract_y
 _atom_site_fract_z
 _atom_site_occupancy
  Y  Y0  1  0.666667  0.333333  0.940156  1
  Y  Y1  1  0.333333  0.666667  0.059844  1
  Th  Th2  1  0.333333  0.666667  0.447078  1
  Th  Th3  1  0.666667  0.333333  0.552922  1
  Sc  Sc4  1  0.000000  0.000000  0.500000  1
  Sc  Sc5  1  0.000000  0.000000  0.000000  1
  Al  Al6  1  0.827028  0.172972  0.245939  1
  Al  Al7  1  0.827028  0.654058  0.245939  1
  Al  Al8  1  0.345942  0.172972  0.245939  1
  Al  Al9  1  0.172972  0.827028  0.754061  1
  Al  Al10  1  0.172972  0.345942  0.754061  1
  Al  Al11  1  0.654058  0.827028  0.754061  1
