# generated using pymatgen
data_Tb12Tc3Au
_symmetry_space_group_name_H-M   'P 1'
_cell_length_a   6.37305786
_cell_length_b   7.44073515
_cell_length_c   9.31380500
_cell_angle_alpha   90.00000000
_cell_angle_beta   90.00000000
_cell_angle_gamma   90.14432274
_symmetry_Int_Tables_number   1
_chemical_formula_structural   Tb12Tc3Au
_chemical_formula_sum   'Tb12 Tc3 Au1'
_cell_volume   441.66142663
_cell_formula_units_Z   1
loop_
 _symmetry_equiv_pos_site_id
 _symmetry_equiv_pos_as_xyz
  1  'x, y, z'
loop_
 _atom_site_type_symbol
 _atom_site_label
 _atom_site_symmetry_multiplicity
 _atom_site_fract_x
 _atom_site_fract_y
 _atom_site_fract_z
 _atom_site_occupancy
  Tb  Tb0  1  0.619543  0.047849  0.250000  1
  Tb  Tb1  1  0.366405  0.956473  0.750000  1
  Tb  Tb2  1  0.127465  0.461741  0.750000  1
  Tb  Tb3  1  0.868837  0.525893  0.250000  1
  Tb  Tb4  1  0.169653  0.187784  0.055053  1
  Tb  Tb5  1  0.826386  0.824932  0.930201  1
  Tb  Tb6  1  0.668084  0.320318  0.934197  1
  Tb  Tb7  1  0.826386  0.824932  0.569799  1
  Tb  Tb8  1  0.343343  0.668635  0.058018  1
  Tb  Tb9  1  0.169653  0.187784  0.444947  1
  Tb  Tb10  1  0.343343  0.668635  0.441982  1
  Tb  Tb11  1  0.668084  0.320318  0.565803  1
  Tc  Tc12  1  0.449728  0.387427  0.250000  1
  Tc  Tc13  1  0.537113  0.613802  0.750000  1
  Tc  Tc14  1  0.964965  0.113530  0.750000  1
  Au  Au15  1  0.051011  0.889946  0.250000  1
