# generated using pymatgen
data_PrDy5(SnRh)6
_symmetry_space_group_name_H-M   'P 1'
_cell_length_a   7.52355134
_cell_length_b   7.50736309
_cell_length_c   7.94591500
_cell_angle_alpha   90.00000000
_cell_angle_beta   90.00000000
_cell_angle_gamma   119.92845530
_symmetry_Int_Tables_number   1
_chemical_formula_structural   PrDy5(SnRh)6
_chemical_formula_sum   'Pr1 Dy5 Sn6 Rh6'
_cell_volume   388.95333725
_cell_formula_units_Z   1
loop_
 _symmetry_equiv_pos_site_id
 _symmetry_equiv_pos_as_xyz
  1  'x, y, z'
loop_
 _atom_site_type_symbol
 _atom_site_label
 _atom_site_symmetry_multiplicity
 _atom_site_fract_x
 _atom_site_fract_y
 _atom_site_fract_z
 _atom_site_occupancy
  Pr  Pr0  1  0.999907  0.587762  0.250000  1
  Dy  Dy1  1  0.592263  0.000094  0.750000  1
  Dy  Dy2  1  0.407717  0.407867  0.750000  1
  Dy  Dy3  1  0.000035  0.594412  0.750000  1
  Dy  Dy4  1  0.592269  0.999615  0.250000  1
  Dy  Dy5  1  0.407709  0.407302  0.250000  1
  Sn  Sn6  1  0.258852  0.001823  0.999501  1
  Sn  Sn7  1  0.741173  0.743008  0.500540  1
  Sn  Sn8  1  0.999969  0.255806  0.505622  1
  Sn  Sn9  1  0.999969  0.255806  0.994378  1
  Sn  Sn10  1  0.741173  0.743008  0.999460  1
  Sn  Sn11  1  0.258852  0.001823  0.500499  1
  Rh  Rh12  1  0.663379  0.331104  0.994332  1
  Rh  Rh13  1  0.663379  0.331104  0.505668  1
  Rh  Rh14  1  0.336670  0.667696  0.994437  1
  Rh  Rh15  1  0.336670  0.667696  0.505563  1
  Rh  Rh16  1  0.000013  0.998399  0.750000  1
  Rh  Rh17  1  0.000001  0.005673  0.250000  1
