# generated using pymatgen
data_Zr3Sc(MnOs)4
_symmetry_space_group_name_H-M   'P 1'
_cell_length_a   5.15521672
_cell_length_b   5.14472990
_cell_length_c   8.65421600
_cell_angle_alpha   90.04680794
_cell_angle_beta   89.92248999
_cell_angle_gamma   120.11721274
_symmetry_Int_Tables_number   1
_chemical_formula_structural   Zr3Sc(MnOs)4
_chemical_formula_sum   'Zr3 Sc1 Mn4 Os4'
_cell_volume   198.54241567
_cell_formula_units_Z   1
loop_
 _symmetry_equiv_pos_site_id
 _symmetry_equiv_pos_as_xyz
  1  'x, y, z'
loop_
 _atom_site_type_symbol
 _atom_site_label
 _atom_site_symmetry_multiplicity
 _atom_site_fract_x
 _atom_site_fract_y
 _atom_site_fract_z
 _atom_site_occupancy
  Zr  Zr0  1  0.331166  0.665973  0.432847  1
  Zr  Zr1  1  0.664535  0.334141  0.564950  1
  Zr  Zr2  1  0.663833  0.333394  0.938818  1
  Sc  Sc3  1  0.330329  0.665772  0.063402  1
  Mn  Mn4  1  0.171778  0.337435  0.749141  1
  Mn  Mn5  1  0.174330  0.832816  0.750299  1
  Mn  Mn6  1  0.341023  0.166740  0.249739  1
  Mn  Mn7  1  0.835945  0.663781  0.250362  1
  Os  Os8  1  0.654196  0.827315  0.749950  1
  Os  Os9  1  0.000527  0.000516  0.000547  1
  Os  Os10  1  0.827675  0.172741  0.249986  1
  Os  Os11  1  0.004663  0.999376  0.499960  1
