# generated using pymatgen
data_DyY4Mn2Co17P12
_symmetry_space_group_name_H-M   'P 1'
_cell_length_a   12.03817700
_cell_length_b   12.03000400
_cell_length_c   3.66967000
_cell_angle_alpha   90.00000000
_cell_angle_beta   90.00000000
_cell_angle_gamma   119.97345710
_symmetry_Int_Tables_number   1
_chemical_formula_structural   DyY4Mn2Co17P12
_chemical_formula_sum   'Dy1 Y4 Mn2 Co17 P12'
_cell_volume   460.36281351
_cell_formula_units_Z   1
loop_
 _symmetry_equiv_pos_site_id
 _symmetry_equiv_pos_as_xyz
  1  'x, y, z'
loop_
 _atom_site_type_symbol
 _atom_site_label
 _atom_site_symmetry_multiplicity
 _atom_site_fract_x
 _atom_site_fract_y
 _atom_site_fract_z
 _atom_site_occupancy
  Dy  Dy0  1  0.333402  0.666653  0.000000  1
  Y  Y1  1  0.666727  0.333390  0.000000  1
  Y  Y2  1  0.186587  0.186127  0.500000  1
  Y  Y3  1  0.813381  0.999419  0.500000  1
  Y  Y4  1  0.000057  0.811923  0.500000  1
  Mn  Mn5  1  0.556848  0.557149  0.000000  1
  Mn  Mn6  1  0.443066  0.000143  0.000000  1
  Co  Co7  1  0.000050  0.447921  0.000000  1
  Co  Co8  1  0.823305  0.201101  0.000000  1
  Co  Co9  1  0.800948  0.621794  0.000000  1
  Co  Co10  1  0.376811  0.178047  0.000000  1
  Co  Co11  1  0.199134  0.820809  0.000000  1
  Co  Co12  1  0.623015  0.801152  0.000000  1
  Co  Co13  1  0.176824  0.377958  0.000000  1
  Co  Co14  1  0.643159  0.125659  0.500000  1
  Co  Co15  1  0.875411  0.516226  0.500000  1
  Co  Co16  1  0.482857  0.357415  0.500000  1
  Co  Co17  1  0.124807  0.640871  0.500000  1
  Co  Co18  1  0.516878  0.874252  0.500000  1
  Co  Co19  1  0.356711  0.482675  0.500000  1
  Co  Co20  1  0.716262  0.715962  0.500000  1
  Co  Co21  1  0.283649  0.999537  0.500000  1
  Co  Co22  1  0.000085  0.285342  0.500000  1
  Co  Co23  1  0.000034  0.000960  0.000000  1
  P  P24  1  0.364712  0.365383  0.000000  1
  P  P25  1  0.635239  0.000574  0.000000  1
  P  P26  1  0.000002  0.631772  0.000000  1
  P  P27  1  0.834874  0.314512  0.500000  1
  P  P28  1  0.686060  0.519937  0.500000  1
  P  P29  1  0.479485  0.165665  0.500000  1
  P  P30  1  0.313941  0.833710  0.500000  1
  P  P31  1  0.520352  0.686189  0.500000  1
  P  P32  1  0.165351  0.479771  0.500000  1
  P  P33  1  0.819576  0.818961  0.000000  1
  P  P34  1  0.180376  0.999341  0.000000  1
  P  P35  1  0.000024  0.181696  0.000000  1
