# generated using pymatgen
data_Yb3Pa(B6Os)2
_symmetry_space_group_name_H-M   'P 1'
_cell_length_a   3.67363100
_cell_length_b   9.09854335
_cell_length_c   11.42551846
_cell_angle_alpha   90.49666923
_cell_angle_beta   90.00000000
_cell_angle_gamma   90.00000000
_symmetry_Int_Tables_number   1
_chemical_formula_structural   Yb3Pa(B6Os)2
_chemical_formula_sum   'Yb6 Pa2 B24 Os4'
_cell_volume   381.88007463
_cell_formula_units_Z   2
loop_
 _symmetry_equiv_pos_site_id
 _symmetry_equiv_pos_as_xyz
  1  'x, y, z'
loop_
 _atom_site_type_symbol
 _atom_site_label
 _atom_site_symmetry_multiplicity
 _atom_site_fract_x
 _atom_site_fract_y
 _atom_site_fract_z
 _atom_site_occupancy
  Yb  Yb0  1  0.000000  0.825330  0.085564  1
  Yb  Yb1  1  0.000000  0.174670  0.914436  1
  Yb  Yb2  1  0.000000  0.945659  0.374140  1
  Yb  Yb3  1  0.000000  0.054341  0.625860  1
  Yb  Yb4  1  0.000000  0.442070  0.129905  1
  Yb  Yb5  1  0.000000  0.557930  0.870095  1
  Pa  Pa6  1  0.000000  0.317847  0.411642  1
  Pa  Pa7  1  0.000000  0.682153  0.588358  1
  B  B8  1  0.500000  0.553539  0.432921  1
  B  B9  1  0.500000  0.446461  0.567079  1
  B  B10  1  0.500000  0.054834  0.068378  1
  B  B11  1  0.500000  0.945166  0.931622  1
  B  B12  1  0.500000  0.749282  0.419500  1
  B  B13  1  0.500000  0.250718  0.580500  1
  B  B14  1  0.500000  0.249445  0.081386  1
  B  B15  1  0.500000  0.750555  0.918614  1
  B  B16  1  0.500000  0.791414  0.266796  1
  B  B17  1  0.500000  0.208586  0.733204  1
  B  B18  1  0.500000  0.292207  0.233684  1
  B  B19  1  0.500000  0.707793  0.766316  1
  B  B20  1  0.500000  0.630204  0.186067  1
  B  B21  1  0.500000  0.369796  0.813933  1
  B  B22  1  0.500000  0.132433  0.314766  1
  B  B23  1  0.500000  0.867567  0.685234  1
  B  B24  1  0.500000  0.983796  0.212570  1
  B  B25  1  0.500000  0.016204  0.787430  1
  B  B26  1  0.500000  0.483599  0.287593  1
  B  B27  1  0.500000  0.516401  0.712407  1
  B  B28  1  0.500000  0.593919  0.026486  1
  B  B29  1  0.500000  0.406081  0.973514  1
  B  B30  1  0.500000  0.114113  0.468830  1
  B  B31  1  0.500000  0.885887  0.531170  1
  Os  Os32  1  0.000000  0.635480  0.324805  1
  Os  Os33  1  0.000000  0.364520  0.675195  1
  Os  Os34  1  0.000000  0.142564  0.183364  1
  Os  Os35  1  0.000000  0.857436  0.816636  1
