# generated using pymatgen
data_Na4V(WO4)3
_symmetry_space_group_name_H-M   'P 1'
_cell_length_a   5.51080475
_cell_length_b   5.53580118
_cell_length_c   7.81758317
_cell_angle_alpha   90.43490430
_cell_angle_beta   90.31431400
_cell_angle_gamma   90.04606753
_symmetry_Int_Tables_number   1
_chemical_formula_structural   Na4V(WO4)3
_chemical_formula_sum   'Na4 V1 W3 O12'
_cell_volume   238.47827247
_cell_formula_units_Z   1
loop_
 _symmetry_equiv_pos_site_id
 _symmetry_equiv_pos_as_xyz
  1  'x, y, z'
loop_
 _atom_site_type_symbol
 _atom_site_label
 _atom_site_symmetry_multiplicity
 _atom_site_fract_x
 _atom_site_fract_y
 _atom_site_fract_z
 _atom_site_occupancy
  Na  Na0  1  0.998531  0.490314  0.268263  1
  Na  Na1  1  0.501635  0.986091  0.742459  1
  Na  Na2  1  0.000727  0.495204  0.739600  1
  Na  Na3  1  0.499163  0.983992  0.270922  1
  V  V4  1  0.500183  0.492929  0.503133  1
  W  W5  1  0.999664  0.993907  0.003929  1
  W  W6  1  0.000507  0.993800  0.504060  1
  W  W7  1  0.499698  0.493222  0.003055  1
  O  O8  1  0.261246  0.220283  0.473561  1
  O  O9  1  0.063601  0.998456  0.755857  1
  O  O10  1  0.282677  0.793536  0.035515  1
  O  O11  1  0.226440  0.731602  0.475831  1
  O  O12  1  0.800319  0.710141  0.970357  1
  O  O13  1  0.440963  0.498216  0.763200  1
  O  O14  1  0.558798  0.491216  0.242826  1
  O  O15  1  0.198655  0.278329  0.035389  1
  O  O16  1  0.774116  0.255597  0.530284  1
  O  O17  1  0.717128  0.194447  0.970194  1
  O  O18  1  0.936628  0.989698  0.250539  1
  O  O19  1  0.739320  0.766615  0.532223  1
