# generated using pymatgen
data_SrNdUS5
_symmetry_space_group_name_H-M   'P 1'
_cell_length_a   7.55715100
_cell_length_b   8.15276400
_cell_length_c   11.93006000
_cell_angle_alpha   90.00000000
_cell_angle_beta   90.00000000
_cell_angle_gamma   90.00000000
_symmetry_Int_Tables_number   1
_chemical_formula_structural   SrNdUS5
_chemical_formula_sum   'Sr4 Nd4 U4 S20'
_cell_volume   735.03090328
_cell_formula_units_Z   4
loop_
 _symmetry_equiv_pos_site_id
 _symmetry_equiv_pos_as_xyz
  1  'x, y, z'
loop_
 _atom_site_type_symbol
 _atom_site_label
 _atom_site_symmetry_multiplicity
 _atom_site_fract_x
 _atom_site_fract_y
 _atom_site_fract_z
 _atom_site_occupancy
  Sr  Sr0  1  0.461153  0.503717  0.323554  1
  Sr  Sr1  1  0.961153  0.496283  0.176446  1
  Sr  Sr2  1  0.038847  0.996283  0.823554  1
  Sr  Sr3  1  0.538847  0.003717  0.676446  1
  Nd  Nd4  1  0.538068  0.499522  0.672487  1
  Nd  Nd5  1  0.038068  0.500478  0.827513  1
  Nd  Nd6  1  0.961932  0.000478  0.172487  1
  Nd  Nd7  1  0.461932  0.999522  0.327513  1
  U  U8  1  0.932615  0.752531  0.492323  1
  U  U9  1  0.432615  0.247469  0.007677  1
  U  U10  1  0.567385  0.747469  0.992323  1
  U  U11  1  0.067385  0.252531  0.507677  1
  S  S12  1  0.821687  0.735416  0.707990  1
  S  S13  1  0.321687  0.264584  0.792010  1
  S  S14  1  0.678313  0.764584  0.207990  1
  S  S15  1  0.178313  0.235416  0.292010  1
  S  S16  1  0.557803  0.752033  0.495631  1
  S  S17  1  0.057803  0.247967  0.004369  1
  S  S18  1  0.942197  0.747967  0.995631  1
  S  S19  1  0.442197  0.252033  0.504369  1
  S  S20  1  0.150997  0.763640  0.313592  1
  S  S21  1  0.650997  0.236360  0.186408  1
  S  S22  1  0.349003  0.736360  0.813592  1
  S  S23  1  0.849003  0.263640  0.686408  1
  S  S24  1  0.161786  0.960516  0.581427  1
  S  S25  1  0.661786  0.039484  0.918573  1
  S  S26  1  0.338214  0.539484  0.081427  1
  S  S27  1  0.838214  0.460516  0.418573  1
  S  S28  1  0.831556  0.043538  0.412476  1
  S  S29  1  0.331556  0.956462  0.087524  1
  S  S30  1  0.668444  0.456462  0.912476  1
  S  S31  1  0.168444  0.543538  0.587524  1
