# generated using pymatgen
data_ErCdNi3Pt
_symmetry_space_group_name_H-M   'P 1'
_cell_length_a   5.00045830
_cell_length_b   5.00045815
_cell_length_c   5.13355882
_cell_angle_alpha   60.85404164
_cell_angle_beta   60.85403668
_cell_angle_gamma   60.00000032
_symmetry_Int_Tables_number   1
_chemical_formula_structural   ErCdNi3Pt
_chemical_formula_sum   'Er1 Cd1 Ni3 Pt1'
_cell_volume   91.92007713
_cell_formula_units_Z   1
loop_
 _symmetry_equiv_pos_site_id
 _symmetry_equiv_pos_as_xyz
  1  'x, y, z'
loop_
 _atom_site_type_symbol
 _atom_site_label
 _atom_site_symmetry_multiplicity
 _atom_site_fract_x
 _atom_site_fract_y
 _atom_site_fract_z
 _atom_site_occupancy
  Er  Er0  1  0.248803  0.248803  0.253591  1
  Cd  Cd1  1  0.004064  0.004064  0.987809  1
  Ni  Ni2  1  0.625114  0.122126  0.627645  1
  Ni  Ni3  1  0.122126  0.625114  0.627645  1
  Ni  Ni4  1  0.625114  0.625114  0.627645  1
  Pt  Pt5  1  0.624779  0.624779  0.125664  1
