# generated using pymatgen
data_Th6Cd17SiAg6
_symmetry_space_group_name_H-M   'P 1'
_cell_length_a   9.92012962
_cell_length_b   9.92012648
_cell_length_c   9.92013000
_cell_angle_alpha   59.99997493
_cell_angle_beta   59.99998541
_cell_angle_gamma   59.99998172
_symmetry_Int_Tables_number   1
_chemical_formula_structural   Th6Cd17SiAg6
_chemical_formula_sum   'Th6 Cd17 Si1 Ag6'
_cell_volume   690.29818579
_cell_formula_units_Z   1
loop_
 _symmetry_equiv_pos_site_id
 _symmetry_equiv_pos_as_xyz
  1  'x, y, z'
loop_
 _atom_site_type_symbol
 _atom_site_label
 _atom_site_symmetry_multiplicity
 _atom_site_fract_x
 _atom_site_fract_y
 _atom_site_fract_z
 _atom_site_occupancy
  Th  Th0  1  0.794957  0.794957  0.205043  1
  Th  Th1  1  0.205043  0.794957  0.205043  1
  Th  Th2  1  0.794957  0.205043  0.205043  1
  Th  Th3  1  0.205043  0.205043  0.794957  1
  Th  Th4  1  0.794957  0.205043  0.794957  1
  Th  Th5  1  0.205043  0.794957  0.794957  1
  Cd  Cd6  1  0.832868  0.832868  0.501396  1
  Cd  Cd7  1  0.832868  0.501396  0.832868  1
  Cd  Cd8  1  0.501396  0.832868  0.832868  1
  Cd  Cd9  1  0.832868  0.832868  0.832868  1
  Cd  Cd10  1  0.167132  0.167132  0.498604  1
  Cd  Cd11  1  0.167132  0.498604  0.167132  1
  Cd  Cd12  1  0.498604  0.167132  0.167132  1
  Cd  Cd13  1  0.167132  0.167132  0.167132  1
  Cd  Cd14  1  0.622760  0.622760  0.131719  1
  Cd  Cd15  1  0.622760  0.131718  0.622760  1
  Cd  Cd16  1  0.131719  0.622760  0.622760  1
  Cd  Cd17  1  0.622760  0.622760  0.622760  1
  Cd  Cd18  1  0.377240  0.377240  0.868281  1
  Cd  Cd19  1  0.377240  0.868282  0.377240  1
  Cd  Cd20  1  0.868281  0.377240  0.377240  1
  Cd  Cd21  1  0.377240  0.377240  0.377240  1
  Cd  Cd22  1  0.500000  0.500000  0.500000  1
  Si  Si23  1  0.000000  0.000000  0.000000  1
  Ag  Ag24  1  0.000000  0.000000  0.500000  1
  Ag  Ag25  1  0.500000  0.000000  0.500000  1
  Ag  Ag26  1  0.000000  0.500000  0.500000  1
  Ag  Ag27  1  0.500000  0.500000  0.000000  1
  Ag  Ag28  1  0.000000  0.500000  0.000000  1
  Ag  Ag29  1  0.500000  0.000000  0.000000  1
