# generated using pymatgen
data_Ca10PtRh3
_symmetry_space_group_name_H-M   'P 1'
_cell_length_a   8.75835601
_cell_length_b   8.75064229
_cell_length_c   7.65127723
_cell_angle_alpha   82.85335882
_cell_angle_beta   82.87015784
_cell_angle_gamma   43.84682632
_symmetry_Int_Tables_number   1
_chemical_formula_structural   Ca10PtRh3
_chemical_formula_sum   'Ca10 Pt1 Rh3'
_cell_volume   402.55997677
_cell_formula_units_Z   1
loop_
 _symmetry_equiv_pos_site_id
 _symmetry_equiv_pos_as_xyz
  1  'x, y, z'
loop_
 _atom_site_type_symbol
 _atom_site_label
 _atom_site_symmetry_multiplicity
 _atom_site_fract_x
 _atom_site_fract_y
 _atom_site_fract_z
 _atom_site_occupancy
  Ca  Ca0  1  0.023278  0.798023  0.916242  1
  Ca  Ca1  1  0.199845  0.979394  0.582040  1
  Ca  Ca2  1  0.980687  0.199865  0.082091  1
  Ca  Ca3  1  0.801895  0.019349  0.420906  1
  Ca  Ca4  1  0.363657  0.201073  0.820040  1
  Ca  Ca5  1  0.798803  0.634804  0.677677  1
  Ca  Ca6  1  0.635010  0.797063  0.177832  1
  Ca  Ca7  1  0.198637  0.366512  0.323944  1
  Ca  Ca8  1  0.573899  0.427257  0.748070  1
  Ca  Ca9  1  0.425328  0.575969  0.251203  1
  Pt  Pt10  1  0.598397  0.178661  0.083458  1
  Rh  Rh11  1  0.178526  0.598587  0.583610  1
  Rh  Rh12  1  0.400090  0.822708  0.917139  1
  Rh  Rh13  1  0.821948  0.400735  0.415747  1
