# generated using pymatgen
data_Nd15Ho(HgRh)4
_symmetry_space_group_name_H-M   'P 1'
_cell_length_a   9.91410977
_cell_length_b   9.91410948
_cell_length_c   9.87972500
_cell_angle_alpha   60.11466551
_cell_angle_beta   60.11466649
_cell_angle_gamma   59.95124884
_symmetry_Int_Tables_number   1
_chemical_formula_structural   Nd15Ho(HgRh)4
_chemical_formula_sum   'Nd15 Ho1 Hg4 Rh4'
_cell_volume   687.58598107
_cell_formula_units_Z   1
loop_
 _symmetry_equiv_pos_site_id
 _symmetry_equiv_pos_as_xyz
  1  'x, y, z'
loop_
 _atom_site_type_symbol
 _atom_site_label
 _atom_site_symmetry_multiplicity
 _atom_site_fract_x
 _atom_site_fract_y
 _atom_site_fract_z
 _atom_site_occupancy
  Nd  Nd0  1  0.938435  0.938435  0.561565  1
  Nd  Nd1  1  0.561796  0.561796  0.938204  1
  Nd  Nd2  1  0.691998  0.691998  0.308002  1
  Nd  Nd3  1  0.149259  0.552711  0.149014  1
  Nd  Nd4  1  0.689421  0.309286  0.690735  1
  Nd  Nd5  1  0.150738  0.150738  0.146110  1
  Nd  Nd6  1  0.552711  0.149259  0.149014  1
  Nd  Nd7  1  0.689421  0.309286  0.310558  1
  Nd  Nd8  1  0.150738  0.150738  0.552413  1
  Nd  Nd9  1  0.309286  0.689421  0.310558  1
  Nd  Nd10  1  0.309286  0.689421  0.690735  1
  Nd  Nd11  1  0.940083  0.559768  0.563088  1
  Nd  Nd12  1  0.940083  0.559768  0.937061  1
  Nd  Nd13  1  0.559768  0.940083  0.563088  1
  Nd  Nd14  1  0.559768  0.940083  0.937061  1
  Ho  Ho15  1  0.309097  0.309097  0.690903  1
  Hg  Hg16  1  0.915556  0.915556  0.252490  1
  Hg  Hg17  1  0.253002  0.916611  0.915193  1
  Hg  Hg18  1  0.915556  0.915556  0.916398  1
  Hg  Hg19  1  0.916611  0.253002  0.915193  1
  Rh  Rh20  1  0.356230  0.356230  0.923862  1
  Rh  Rh21  1  0.357031  0.927893  0.357537  1
  Rh  Rh22  1  0.927893  0.357031  0.357537  1
  Rh  Rh23  1  0.356230  0.356230  0.363676  1
