# generated using pymatgen
data_TbErReC2
_symmetry_space_group_name_H-M   'P 1'
_cell_length_a   5.10278400
_cell_length_b   6.58463000
_cell_length_c   9.84536800
_cell_angle_alpha   90.00000000
_cell_angle_beta   90.00000000
_cell_angle_gamma   90.00000000
_symmetry_Int_Tables_number   1
_chemical_formula_structural   TbErReC2
_chemical_formula_sum   'Tb4 Er4 Re4 C8'
_cell_volume   330.80381946
_cell_formula_units_Z   4
loop_
 _symmetry_equiv_pos_site_id
 _symmetry_equiv_pos_as_xyz
  1  'x, y, z'
loop_
 _atom_site_type_symbol
 _atom_site_label
 _atom_site_symmetry_multiplicity
 _atom_site_fract_x
 _atom_site_fract_y
 _atom_site_fract_z
 _atom_site_occupancy
  Tb  Tb0  1  0.750000  0.468174  0.784445  1
  Tb  Tb1  1  0.250000  0.031826  0.284445  1
  Tb  Tb2  1  0.750000  0.968174  0.715555  1
  Tb  Tb3  1  0.250000  0.531826  0.215555  1
  Er  Er4  1  0.750000  0.821760  0.057073  1
  Er  Er5  1  0.250000  0.678240  0.557073  1
  Er  Er6  1  0.750000  0.321760  0.442927  1
  Er  Er7  1  0.250000  0.178240  0.942927  1
  Re  Re8  1  0.750000  0.277392  0.134043  1
  Re  Re9  1  0.250000  0.222608  0.634043  1
  Re  Re10  1  0.750000  0.777392  0.365957  1
  Re  Re11  1  0.250000  0.722608  0.865957  1
  C  C12  1  0.750000  0.174383  0.950849  1
  C  C13  1  0.250000  0.825617  0.049151  1
  C  C14  1  0.750000  0.674383  0.549151  1
  C  C15  1  0.250000  0.325617  0.450849  1
  C  C16  1  0.750000  0.044806  0.259494  1
  C  C17  1  0.250000  0.455194  0.759494  1
  C  C18  1  0.750000  0.544806  0.240506  1
  C  C19  1  0.250000  0.955194  0.740506  1
