# generated using pymatgen
data_Er3Pa5(CoB14)2
_symmetry_space_group_name_H-M   'P 1'
_cell_length_a   7.22640200
_cell_length_b   7.22623617
_cell_length_c   7.57603800
_cell_angle_alpha   90.00000000
_cell_angle_beta   90.00000000
_cell_angle_gamma   90.47197044
_symmetry_Int_Tables_number   1
_chemical_formula_structural   Er3Pa5(CoB14)2
_chemical_formula_sum   'Er3 Pa5 Co2 B28'
_cell_volume   395.60491449
_cell_formula_units_Z   1
loop_
 _symmetry_equiv_pos_site_id
 _symmetry_equiv_pos_as_xyz
  1  'x, y, z'
loop_
 _atom_site_type_symbol
 _atom_site_label
 _atom_site_symmetry_multiplicity
 _atom_site_fract_x
 _atom_site_fract_y
 _atom_site_fract_z
 _atom_site_occupancy
  Er  Er0  1  0.808579  0.664299  0.000000  1
  Er  Er1  1  0.834174  0.692041  0.500000  1
  Er  Er2  1  0.166289  0.308508  0.500000  1
  Pa  Pa3  1  0.190986  0.328643  0.000000  1
  Pa  Pa4  1  0.671738  0.193374  0.000000  1
  Pa  Pa5  1  0.327296  0.805066  0.000000  1
  Pa  Pa6  1  0.693141  0.173416  0.500000  1
  Pa  Pa7  1  0.308230  0.827115  0.500000  1
  Co  Co8  1  0.999147  0.000220  0.000000  1
  Co  Co9  1  0.501304  0.501100  0.500000  1
  B  B10  1  0.173551  0.039770  0.232735  1
  B  B11  1  0.960388  0.174573  0.235339  1
  B  B12  1  0.039068  0.825611  0.230738  1
  B  B13  1  0.675011  0.461240  0.269353  1
  B  B14  1  0.325858  0.539285  0.268753  1
  B  B15  1  0.825220  0.960202  0.229450  1
  B  B16  1  0.540690  0.674683  0.271179  1
  B  B17  1  0.460190  0.326518  0.269617  1
  B  B18  1  0.825220  0.960202  0.770550  1
  B  B19  1  0.039068  0.825611  0.769262  1
  B  B20  1  0.960388  0.174573  0.764661  1
  B  B21  1  0.325858  0.539285  0.731247  1
  B  B22  1  0.675011  0.461240  0.730647  1
  B  B23  1  0.173551  0.039770  0.767265  1
  B  B24  1  0.460190  0.326518  0.730383  1
  B  B25  1  0.540690  0.674683  0.728821  1
  B  B26  1  0.091626  0.591530  0.247634  1
  B  B27  1  0.410199  0.089860  0.248094  1
  B  B28  1  0.588130  0.912100  0.249902  1
  B  B29  1  0.909735  0.409096  0.248509  1
  B  B30  1  0.909735  0.409096  0.751491  1
  B  B31  1  0.588130  0.912100  0.750098  1
  B  B32  1  0.410199  0.089860  0.751906  1
  B  B33  1  0.091626  0.591530  0.752366  1
  B  B34  1  0.998525  0.997582  0.391643  1
  B  B35  1  0.501365  0.501060  0.109059  1
  B  B36  1  0.998525  0.997582  0.608357  1
  B  B37  1  0.501365  0.501060  0.890941  1
