# generated using pymatgen
data_Nd8Er12Si15Ge
_symmetry_space_group_name_H-M   'P 1'
_cell_length_a   7.47148447
_cell_length_b   14.72942165
_cell_length_c   7.75915616
_cell_angle_alpha   89.99049423
_cell_angle_beta   89.97846383
_cell_angle_gamma   89.90941466
_symmetry_Int_Tables_number   1
_chemical_formula_structural   Nd8Er12Si15Ge
_chemical_formula_sum   'Nd8 Er12 Si15 Ge1'
_cell_volume   853.89900186
_cell_formula_units_Z   1
loop_
 _symmetry_equiv_pos_site_id
 _symmetry_equiv_pos_as_xyz
  1  'x, y, z'
loop_
 _atom_site_type_symbol
 _atom_site_label
 _atom_site_symmetry_multiplicity
 _atom_site_fract_x
 _atom_site_fract_y
 _atom_site_fract_z
 _atom_site_occupancy
  Nd  Nd0  1  0.021450  0.097895  0.178813  1
  Nd  Nd1  1  0.021876  0.401784  0.179175  1
  Nd  Nd2  1  0.521487  0.097886  0.321199  1
  Nd  Nd3  1  0.520805  0.401641  0.321982  1
  Nd  Nd4  1  0.477823  0.598110  0.677710  1
  Nd  Nd5  1  0.478529  0.902057  0.678722  1
  Nd  Nd6  1  0.980062  0.598217  0.820297  1
  Nd  Nd7  1  0.978578  0.902021  0.821129  1
  Er  Er8  1  0.346152  0.249959  0.010581  1
  Er  Er9  1  0.320566  0.623498  0.178298  1
  Er  Er10  1  0.321631  0.876631  0.178054  1
  Er  Er11  1  0.822607  0.623843  0.323412  1
  Er  Er12  1  0.821645  0.876627  0.322058  1
  Er  Er13  1  0.846271  0.249912  0.489345  1
  Er  Er14  1  0.153728  0.750166  0.510583  1
  Er  Er15  1  0.178307  0.123287  0.678028  1
  Er  Er16  1  0.178146  0.376547  0.677815  1
  Er  Er17  1  0.678330  0.123288  0.821948  1
  Er  Er18  1  0.677981  0.376236  0.821279  1
  Er  Er19  1  0.653719  0.750980  0.989289  1
  Si  Si20  1  0.646855  0.960317  0.031548  1
  Si  Si21  1  0.026835  0.749958  0.113134  1
  Si  Si22  1  0.726978  0.250004  0.121673  1
  Si  Si23  1  0.226997  0.249985  0.378310  1
  Si  Si24  1  0.527047  0.749961  0.386694  1
  Si  Si25  1  0.146998  0.539719  0.468327  1
  Si  Si26  1  0.146838  0.960293  0.468393  1
  Si  Si27  1  0.853135  0.039681  0.531585  1
  Si  Si28  1  0.852877  0.460336  0.531594  1
  Si  Si29  1  0.472878  0.249911  0.613084  1
  Si  Si30  1  0.772984  0.749976  0.621875  1
  Si  Si31  1  0.273214  0.749921  0.878264  1
  Si  Si32  1  0.972831  0.249999  0.886854  1
  Si  Si33  1  0.353123  0.039637  0.968440  1
  Si  Si34  1  0.349277  0.459470  0.967698  1
  Ge  Ge35  1  0.651440  0.540240  0.032810  1
