# generated using pymatgen
data_Sc3CoB2Ir3Rh
_symmetry_space_group_name_H-M   'P 1'
_cell_length_a   3.07899500
_cell_length_b   9.45791545
_cell_length_c   9.41879953
_cell_angle_alpha   90.13434187
_cell_angle_beta   90.00000000
_cell_angle_gamma   90.00000000
_symmetry_Int_Tables_number   1
_chemical_formula_structural   Sc3CoB2Ir3Rh
_chemical_formula_sum   'Sc6 Co2 B4 Ir6 Rh2'
_cell_volume   274.28292375
_cell_formula_units_Z   2
loop_
 _symmetry_equiv_pos_site_id
 _symmetry_equiv_pos_as_xyz
  1  'x, y, z'
loop_
 _atom_site_type_symbol
 _atom_site_label
 _atom_site_symmetry_multiplicity
 _atom_site_fract_x
 _atom_site_fract_y
 _atom_site_fract_z
 _atom_site_occupancy
  Sc  Sc0  1  0.000000  0.176433  0.675824  1
  Sc  Sc1  1  0.000000  0.823567  0.324176  1
  Sc  Sc2  1  0.000000  0.324870  0.175495  1
  Sc  Sc3  1  0.000000  0.675130  0.824505  1
  Sc  Sc4  1  0.000000  0.000000  0.000000  1
  Sc  Sc5  1  0.000000  0.500000  0.500000  1
  Co  Co6  1  0.500000  0.000000  0.500000  1
  Co  Co7  1  0.500000  0.500000  0.000000  1
  B  B8  1  0.000000  0.610489  0.109924  1
  B  B9  1  0.000000  0.389511  0.890076  1
  B  B10  1  0.000000  0.889686  0.609377  1
  B  B11  1  0.000000  0.110314  0.390623  1
  Ir  Ir12  1  0.500000  0.771297  0.064830  1
  Ir  Ir13  1  0.500000  0.435745  0.728120  1
  Ir  Ir14  1  0.500000  0.228703  0.935170  1
  Ir  Ir15  1  0.500000  0.564255  0.271880  1
  Ir  Ir16  1  0.500000  0.729956  0.565371  1
  Ir  Ir17  1  0.500000  0.270044  0.434629  1
  Rh  Rh18  1  0.500000  0.063333  0.228107  1
  Rh  Rh19  1  0.500000  0.936667  0.771893  1
