# generated using pymatgen
data_Tm4Fe11Ni5(P3W)4
_symmetry_space_group_name_H-M   'P 1'
_cell_length_a   3.70109900
_cell_length_b   10.30959896
_cell_length_c   12.04614255
_cell_angle_alpha   89.76375121
_cell_angle_beta   90.00000000
_cell_angle_gamma   90.00000000
_symmetry_Int_Tables_number   1
_chemical_formula_structural   Tm4Fe11Ni5(P3W)4
_chemical_formula_sum   'Tm4 Fe11 Ni5 P12 W4'
_cell_volume   459.63890336
_cell_formula_units_Z   1
loop_
 _symmetry_equiv_pos_site_id
 _symmetry_equiv_pos_as_xyz
  1  'x, y, z'
loop_
 _atom_site_type_symbol
 _atom_site_label
 _atom_site_symmetry_multiplicity
 _atom_site_fract_x
 _atom_site_fract_y
 _atom_site_fract_z
 _atom_site_occupancy
  Tm  Tm0  1  0.250000  0.583014  0.710108  1
  Tm  Tm1  1  0.250000  0.915329  0.210479  1
  Tm  Tm2  1  0.750000  0.419883  0.290737  1
  Tm  Tm3  1  0.750000  0.082429  0.789314  1
  Fe  Fe4  1  0.250000  0.281149  0.673063  1
  Fe  Fe5  1  0.750000  0.781719  0.828020  1
  Fe  Fe6  1  0.750000  0.718767  0.328206  1
  Fe  Fe7  1  0.250000  0.884035  0.697975  1
  Fe  Fe8  1  0.250000  0.616110  0.199133  1
  Fe  Fe9  1  0.750000  0.118449  0.298884  1
  Fe  Fe10  1  0.750000  0.382716  0.801878  1
  Fe  Fe11  1  0.250000  0.463473  0.935169  1
  Fe  Fe12  1  0.250000  0.037244  0.433918  1
  Fe  Fe13  1  0.750000  0.535156  0.064849  1
  Fe  Fe14  1  0.750000  0.964195  0.563580  1
  Ni  Ni15  1  0.250000  0.408769  0.484478  1
  Ni  Ni16  1  0.250000  0.089930  0.984289  1
  Ni  Ni17  1  0.750000  0.591936  0.516759  1
  Ni  Ni18  1  0.750000  0.905956  0.015752  1
  Ni  Ni19  1  0.250000  0.222106  0.172951  1
  P  P20  1  0.250000  0.425938  0.112888  1
  P  P21  1  0.250000  0.078400  0.613739  1
  P  P22  1  0.750000  0.578119  0.885566  1
  P  P23  1  0.750000  0.922511  0.384910  1
  P  P24  1  0.250000  0.272005  0.857419  1
  P  P25  1  0.250000  0.229213  0.360140  1
  P  P26  1  0.750000  0.725994  0.144002  1
  P  P27  1  0.750000  0.773193  0.643628  1
  P  P28  1  0.250000  0.599488  0.384034  1
  P  P29  1  0.250000  0.899897  0.881817  1
  P  P30  1  0.750000  0.401705  0.617618  1
  P  P31  1  0.750000  0.093385  0.113160  1
  W  W32  1  0.250000  0.703898  0.991641  1
  W  W33  1  0.250000  0.796471  0.491659  1
  W  W34  1  0.750000  0.292161  0.008964  1
  W  W35  1  0.750000  0.205258  0.509272  1
