# generated using pymatgen
data_Y4Sc3IO14
_symmetry_space_group_name_H-M   'P 1'
_cell_length_a   7.44756733
_cell_length_b   7.44755211
_cell_length_c   7.44752483
_cell_angle_alpha   59.04149944
_cell_angle_beta   59.04101997
_cell_angle_gamma   59.04121234
_symmetry_Int_Tables_number   1
_chemical_formula_structural   Y4Sc3IO14
_chemical_formula_sum   'Y4 Sc3 I1 O14'
_cell_volume   285.70906165
_cell_formula_units_Z   1
loop_
 _symmetry_equiv_pos_site_id
 _symmetry_equiv_pos_as_xyz
  1  'x, y, z'
loop_
 _atom_site_type_symbol
 _atom_site_label
 _atom_site_symmetry_multiplicity
 _atom_site_fract_x
 _atom_site_fract_y
 _atom_site_fract_z
 _atom_site_occupancy
  Y  Y0  1  0.500009  0.999997  0.499994  1
  Y  Y1  1  0.000002  0.500007  0.499996  1
  Y  Y2  1  0.500002  0.500000  0.000001  1
  Y  Y3  1  0.499990  0.500011  0.500002  1
  Sc  Sc4  1  0.000004  0.499995  0.000005  1
  Sc  Sc5  1  0.500001  0.000009  0.000000  1
  Sc  Sc6  1  0.999975  0.000010  0.499984  1
  I  I7  1  0.999968  0.999973  0.000070  1
  O  O8  1  0.629795  0.629792  0.629793  1
  O  O9  1  0.370213  0.370203  0.370209  1
  O  O10  1  0.307408  0.926234  0.926233  1
  O  O11  1  0.081989  0.651029  0.651041  1
  O  O12  1  0.926243  0.307394  0.926238  1
  O  O13  1  0.926248  0.926241  0.307363  1
  O  O14  1  0.348969  0.348970  0.918008  1
  O  O15  1  0.348963  0.918009  0.348970  1
  O  O16  1  0.918001  0.348962  0.348975  1
  O  O17  1  0.651033  0.651039  0.081987  1
  O  O18  1  0.073771  0.073765  0.692580  1
  O  O19  1  0.692624  0.073759  0.073759  1
  O  O20  1  0.651028  0.081994  0.651037  1
  O  O21  1  0.073764  0.692611  0.073758  1
