# generated using pymatgen
data_Tb5Tm7ZnCo4Pb
_symmetry_space_group_name_H-M   'P 1'
_cell_length_a   8.26728083
_cell_length_b   8.26728043
_cell_length_c   8.26814569
_cell_angle_alpha   112.27377292
_cell_angle_beta   109.18291962
_cell_angle_gamma   106.99619888
_symmetry_Int_Tables_number   1
_chemical_formula_structural   Tb5Tm7ZnCo4Pb
_chemical_formula_sum   'Tb5 Tm7 Zn1 Co4 Pb1'
_cell_volume   434.11063284
_cell_formula_units_Z   1
loop_
 _symmetry_equiv_pos_site_id
 _symmetry_equiv_pos_as_xyz
  1  'x, y, z'
loop_
 _atom_site_type_symbol
 _atom_site_label
 _atom_site_symmetry_multiplicity
 _atom_site_fract_x
 _atom_site_fract_y
 _atom_site_fract_z
 _atom_site_occupancy
  Tb  Tb0  1  0.432326  0.229130  0.201852  1
  Tb  Tb1  1  0.569961  0.772285  0.799372  1
  Tb  Tb2  1  0.027087  0.229410  0.799372  1
  Tb  Tb3  1  0.972721  0.769525  0.201852  1
  Tb  Tb4  1  0.179692  0.283309  0.463001  1
  Tm  Tm5  1  0.820463  0.717007  0.537470  1
  Tm  Tm6  1  0.179670  0.717397  0.897065  1
  Tm  Tm7  1  0.819208  0.283182  0.102390  1
  Tm  Tm8  1  0.324827  0.638140  0.312837  1
  Tm  Tm9  1  0.677082  0.362999  0.688067  1
  Tm  Tm10  1  0.325066  0.010984  0.688067  1
  Tm  Tm11  1  0.674699  0.988011  0.312837  1
  Zn  Zn12  1  0.999616  0.998392  0.998008  1
  Co  Co13  1  0.346468  0.998301  0.344769  1
  Co  Co14  1  0.653862  0.999675  0.653537  1
  Co  Co15  1  0.113729  0.616250  0.500019  1
  Co  Co16  1  0.883769  0.386289  0.500019  1
  Pb  Pb17  1  0.499753  0.499714  0.999467  1
