# generated using pymatgen
data_TbLu7Ti12Si15Ge
_symmetry_space_group_name_H-M   'P 1'
_cell_length_a   7.00215874
_cell_length_b   6.99960422
_cell_length_c   12.84686376
_cell_angle_alpha   89.93939629
_cell_angle_beta   89.94960718
_cell_angle_gamma   89.93981374
_symmetry_Int_Tables_number   1
_chemical_formula_structural   TbLu7Ti12Si15Ge
_chemical_formula_sum   'Tb1 Lu7 Ti12 Si15 Ge1'
_cell_volume   629.65391072
_cell_formula_units_Z   1
loop_
 _symmetry_equiv_pos_site_id
 _symmetry_equiv_pos_as_xyz
  1  'x, y, z'
loop_
 _atom_site_type_symbol
 _atom_site_label
 _atom_site_symmetry_multiplicity
 _atom_site_fract_x
 _atom_site_fract_y
 _atom_site_fract_z
 _atom_site_occupancy
  Tb  Tb0  1  0.996302  0.659748  0.033368  1
  Lu  Lu1  1  0.341252  0.001340  0.466525  1
  Lu  Lu2  1  0.499349  0.840167  0.716613  1
  Lu  Lu3  1  0.501247  0.159439  0.217526  1
  Lu  Lu4  1  0.840686  0.498327  0.283585  1
  Lu  Lu5  1  0.159627  0.502441  0.783075  1
  Lu  Lu6  1  0.658880  0.998507  0.966374  1
  Lu  Lu7  1  0.000761  0.341797  0.532431  1
  Ti  Ti8  1  0.327330  0.326347  0.999967  1
  Ti  Ti9  1  0.173414  0.827234  0.250478  1
  Ti  Ti10  1  0.824542  0.173271  0.749845  1
  Ti  Ti11  1  0.673166  0.673254  0.499970  1
  Ti  Ti12  1  0.151805  0.006745  0.876239  1
  Ti  Ti13  1  0.492134  0.650723  0.126435  1
  Ti  Ti14  1  0.509048  0.350504  0.625485  1
  Ti  Ti15  1  0.650872  0.490871  0.873240  1
  Ti  Ti16  1  0.349711  0.507385  0.374837  1
  Ti  Ti17  1  0.849432  0.992868  0.376487  1
  Ti  Ti18  1  0.007683  0.151913  0.124478  1
  Ti  Ti19  1  0.990953  0.847626  0.623264  1
  Si  Si20  1  0.369869  0.703971  0.932210  1
  Si  Si21  1  0.632453  0.296513  0.432854  1
  Si  Si22  1  0.701335  0.365686  0.066965  1
  Si  Si23  1  0.296577  0.632530  0.567368  1
  Si  Si24  1  0.794958  0.869836  0.184594  1
  Si  Si25  1  0.132555  0.203611  0.317740  1
  Si  Si26  1  0.867714  0.797227  0.815911  1
  Si  Si27  1  0.293781  0.954599  0.064822  1
  Si  Si28  1  0.546370  0.792759  0.315269  1
  Si  Si29  1  0.455375  0.207485  0.815708  1
  Si  Si30  1  0.792833  0.546791  0.684793  1
  Si  Si31  1  0.208525  0.451932  0.186361  1
  Si  Si32  1  0.707391  0.046938  0.564755  1
  Si  Si33  1  0.952698  0.289911  0.934520  1
  Si  Si34  1  0.046948  0.707593  0.435250  1
  Ge  Ge35  1  0.202426  0.132109  0.680657  1
