# generated using pymatgen
data_Hf3Ti7(BeSb3)2
_symmetry_space_group_name_H-M   'P 1'
_cell_length_a   8.22770000
_cell_length_b   8.22770118
_cell_length_c   5.53900100
_cell_angle_alpha   90.00000000
_cell_angle_beta   90.00000000
_cell_angle_gamma   120.00000330
_symmetry_Int_Tables_number   1
_chemical_formula_structural   Hf3Ti7(BeSb3)2
_chemical_formula_sum   'Hf3 Ti7 Be2 Sb6'
_cell_volume   324.72746266
_cell_formula_units_Z   1
loop_
 _symmetry_equiv_pos_site_id
 _symmetry_equiv_pos_as_xyz
  1  'x, y, z'
loop_
 _atom_site_type_symbol
 _atom_site_label
 _atom_site_symmetry_multiplicity
 _atom_site_fract_x
 _atom_site_fract_y
 _atom_site_fract_z
 _atom_site_occupancy
  Hf  Hf0  1  0.239305  0.239305  0.750000  1
  Hf  Hf1  1  0.760695  0.000000  0.750000  1
  Hf  Hf2  1  0.000000  0.760695  0.750000  1
  Ti  Ti3  1  0.666667  0.333333  0.498005  1
  Ti  Ti4  1  0.333333  0.666667  0.498005  1
  Ti  Ti5  1  0.333333  0.666667  0.001995  1
  Ti  Ti6  1  0.666667  0.333333  0.001995  1
  Ti  Ti7  1  0.737785  0.737785  0.250000  1
  Ti  Ti8  1  0.262215  0.000000  0.250000  1
  Ti  Ti9  1  0.000000  0.262215  0.250000  1
  Be  Be10  1  0.000000  0.000000  0.046781  1
  Be  Be11  1  0.000000  0.000000  0.453219  1
  Sb  Sb12  1  0.386221  0.386221  0.250000  1
  Sb  Sb13  1  0.613779  0.000000  0.250000  1
  Sb  Sb14  1  0.000000  0.613779  0.250000  1
  Sb  Sb15  1  0.600252  0.600252  0.750000  1
  Sb  Sb16  1  0.399748  0.000000  0.750000  1
  Sb  Sb17  1  0.000000  0.399748  0.750000  1
