# generated using pymatgen
data_FeAsCl14
_symmetry_space_group_name_H-M   'P 1'
_cell_length_a   10.38791721
_cell_length_b   10.65519935
_cell_length_c   11.33768201
_cell_angle_alpha   81.29956940
_cell_angle_beta   89.98461560
_cell_angle_gamma   90.01385883
_symmetry_Int_Tables_number   1
_chemical_formula_structural   FeAsCl14
_chemical_formula_sum   'Fe2 As2 Cl28'
_cell_volume   1240.47434449
_cell_formula_units_Z   2
loop_
 _symmetry_equiv_pos_site_id
 _symmetry_equiv_pos_as_xyz
  1  'x, y, z'
loop_
 _atom_site_type_symbol
 _atom_site_label
 _atom_site_symmetry_multiplicity
 _atom_site_fract_x
 _atom_site_fract_y
 _atom_site_fract_z
 _atom_site_occupancy
  Fe  Fe0  1  0.246657  0.331130  0.079947  1
  Fe  Fe1  1  0.746805  0.668739  0.419974  1
  As  As2  1  0.752580  0.678721  0.911634  1
  As  As3  1  0.252638  0.321354  0.588293  1
  Cl  Cl4  1  0.233487  0.759928  0.362028  1
  Cl  Cl5  1  0.733834  0.240106  0.137940  1
  Cl  Cl6  1  0.747573  0.250165  0.637293  1
  Cl  Cl7  1  0.247263  0.749784  0.862802  1
  Cl  Cl8  1  0.570493  0.051807  0.035529  1
  Cl  Cl9  1  0.070479  0.948217  0.464530  1
  Cl  Cl10  1  0.440860  0.940384  0.965906  1
  Cl  Cl11  1  0.940880  0.059608  0.534204  1
  Cl  Cl12  1  0.810942  0.169550  0.296191  1
  Cl  Cl13  1  0.311079  0.830346  0.203909  1
  Cl  Cl14  1  0.185505  0.828884  0.699920  1
  Cl  Cl15  1  0.685359  0.171161  0.800098  1
  Cl  Cl16  1  0.339823  0.213844  0.229165  1
  Cl  Cl17  1  0.839906  0.786152  0.270781  1
  Cl  Cl18  1  0.665102  0.735853  0.736812  1
  Cl  Cl19  1  0.165142  0.264195  0.763132  1
  Cl  Cl20  1  0.388312  0.411644  0.946860  1
  Cl  Cl21  1  0.888401  0.588360  0.553063  1
  Cl  Cl22  1  0.632622  0.625787  0.063481  1
  Cl  Cl23  1  0.132685  0.374171  0.436515  1
  Cl  Cl24  1  0.871696  0.518229  0.900799  1
  Cl  Cl25  1  0.371727  0.481916  0.599126  1
  Cl  Cl26  1  0.128258  0.480440  0.139535  1
  Cl  Cl27  1  0.628153  0.519526  0.360500  1
  Cl  Cl28  1  0.109152  0.205537  0.991271  1
  Cl  Cl29  1  0.609326  0.794389  0.508805  1
  Cl  Cl30  1  0.876626  0.828034  0.947418  1
  Cl  Cl31  1  0.376634  0.172039  0.552540  1
