# generated using pymatgen
data_Mn2InCuS4
_symmetry_space_group_name_H-M   'P 1'
_cell_length_a   6.84222660
_cell_length_b   6.84222611
_cell_length_c   6.84222675
_cell_angle_alpha   131.67147760
_cell_angle_beta   131.67147196
_cell_angle_gamma   70.74839016
_symmetry_Int_Tables_number   1
_chemical_formula_structural   Mn2InCuS4
_chemical_formula_sum   'Mn2 In1 Cu1 S4'
_cell_volume   175.07136402
_cell_formula_units_Z   1
loop_
 _symmetry_equiv_pos_site_id
 _symmetry_equiv_pos_as_xyz
  1  'x, y, z'
loop_
 _atom_site_type_symbol
 _atom_site_label
 _atom_site_symmetry_multiplicity
 _atom_site_fract_x
 _atom_site_fract_y
 _atom_site_fract_z
 _atom_site_occupancy
  Mn  Mn0  1  0.750000  0.250000  0.500000  1
  Mn  Mn1  1  0.250000  0.750000  0.500000  1
  In  In2  1  0.500000  0.500000  0.000000  1
  Cu  Cu3  1  0.000000  0.000000  0.000000  1
  S  S4  1  0.361526  0.361526  0.472638  1
  S  S5  1  0.111112  0.638474  0.000000  1
  S  S6  1  0.888888  0.888888  0.527362  1
  S  S7  1  0.638474  0.111112  0.000000  1
