# generated using pymatgen
data_Dy3Hf3Sc2(Co4P3)4
_symmetry_space_group_name_H-M   'P 1'
_cell_length_a   12.18852658
_cell_length_b   12.17234872
_cell_length_c   3.66207600
_cell_angle_alpha   90.00000000
_cell_angle_beta   90.00000000
_cell_angle_gamma   119.95609657
_symmetry_Int_Tables_number   1
_chemical_formula_structural   Dy3Hf3Sc2(Co4P3)4
_chemical_formula_sum   'Dy3 Hf3 Sc2 Co16 P12'
_cell_volume   470.73397143
_cell_formula_units_Z   1
loop_
 _symmetry_equiv_pos_site_id
 _symmetry_equiv_pos_as_xyz
  1  'x, y, z'
loop_
 _atom_site_type_symbol
 _atom_site_label
 _atom_site_symmetry_multiplicity
 _atom_site_fract_x
 _atom_site_fract_y
 _atom_site_fract_z
 _atom_site_occupancy
  Dy  Dy0  1  0.667097  0.333538  0.000000  1
  Dy  Dy1  1  0.332903  0.666442  0.000000  1
  Dy  Dy2  1  0.000000  0.819957  0.500000  1
  Hf  Hf3  1  0.556306  0.556564  0.000000  1
  Hf  Hf4  1  0.443694  0.000257  0.000000  1
  Hf  Hf5  1  0.000000  0.440734  0.000000  1
  Sc  Sc6  1  0.183119  0.183166  0.500000  1
  Sc  Sc7  1  0.816881  0.000046  0.500000  1
  Co  Co8  1  0.823490  0.192529  0.000000  1
  Co  Co9  1  0.804519  0.628032  0.000000  1
  Co  Co10  1  0.371292  0.177951  0.000000  1
  Co  Co11  1  0.195481  0.823513  0.000000  1
  Co  Co12  1  0.628708  0.806660  0.000000  1
  Co  Co13  1  0.176510  0.369039  0.000000  1
  Co  Co14  1  0.645334  0.123629  0.500000  1
  Co  Co15  1  0.875841  0.519463  0.500000  1
  Co  Co16  1  0.479285  0.355667  0.500000  1
  Co  Co17  1  0.124159  0.643622  0.500000  1
  Co  Co18  1  0.520715  0.876382  0.500000  1
  Co  Co19  1  0.354666  0.478295  0.500000  1
  Co  Co20  1  0.721617  0.724098  0.500000  1
  Co  Co21  1  0.278383  0.002481  0.500000  1
  Co  Co22  1  0.000000  0.274345  0.500000  1
  Co  Co23  1  0.000000  0.001860  0.000000  1
  P  P24  1  0.346827  0.346842  0.000000  1
  P  P25  1  0.653173  0.000014  0.000000  1
  P  P26  1  0.000000  0.649260  0.000000  1
  P  P27  1  0.829022  0.306215  0.500000  1
  P  P28  1  0.692968  0.522420  0.500000  1
  P  P29  1  0.479179  0.171676  0.500000  1
  P  P30  1  0.307032  0.829452  0.500000  1
  P  P31  1  0.520821  0.692497  0.500000  1
  P  P32  1  0.170978  0.477193  0.500000  1
  P  P33  1  0.822198  0.826814  0.000000  1
  P  P34  1  0.177802  0.004616  0.000000  1
  P  P35  1  0.000000  0.174732  0.000000  1
