# generated using pymatgen
data_Tb3Sc(Co4P3)2
_symmetry_space_group_name_H-M   'P 1'
_cell_length_a   3.72524900
_cell_length_b   10.66571900
_cell_length_c   12.36779600
_cell_angle_alpha   90.00000000
_cell_angle_beta   90.00000000
_cell_angle_gamma   90.00000000
_symmetry_Int_Tables_number   1
_chemical_formula_structural   Tb3Sc(Co4P3)2
_chemical_formula_sum   'Tb6 Sc2 Co16 P12'
_cell_volume   491.40294797
_cell_formula_units_Z   2
loop_
 _symmetry_equiv_pos_site_id
 _symmetry_equiv_pos_as_xyz
  1  'x, y, z'
loop_
 _atom_site_type_symbol
 _atom_site_label
 _atom_site_symmetry_multiplicity
 _atom_site_fract_x
 _atom_site_fract_y
 _atom_site_fract_z
 _atom_site_occupancy
  Tb  Tb0  1  0.000000  0.500000  0.527699  1
  Tb  Tb1  1  0.500000  0.000000  0.472301  1
  Tb  Tb2  1  0.500000  0.822150  0.205781  1
  Tb  Tb3  1  0.500000  0.177850  0.205781  1
  Tb  Tb4  1  0.000000  0.677850  0.794219  1
  Tb  Tb5  1  0.000000  0.322150  0.794219  1
  Sc  Sc6  1  0.500000  0.500000  0.156988  1
  Sc  Sc7  1  0.000000  0.000000  0.843012  1
  Co  Co8  1  0.500000  0.500000  0.705002  1
  Co  Co9  1  0.000000  0.000000  0.294998  1
  Co  Co10  1  0.000000  0.500000  0.987357  1
  Co  Co11  1  0.500000  0.000000  0.012643  1
  Co  Co12  1  0.500000  0.331491  0.994658  1
  Co  Co13  1  0.500000  0.668509  0.994658  1
  Co  Co14  1  0.000000  0.168509  0.005342  1
  Co  Co15  1  0.000000  0.831491  0.005342  1
  Co  Co16  1  0.500000  0.295432  0.432933  1
  Co  Co17  1  0.500000  0.704568  0.432933  1
  Co  Co18  1  0.000000  0.204568  0.567067  1
  Co  Co19  1  0.000000  0.795432  0.567067  1
  Co  Co20  1  0.500000  0.877961  0.702568  1
  Co  Co21  1  0.500000  0.122039  0.702568  1
  Co  Co22  1  0.000000  0.622039  0.297432  1
  Co  Co23  1  0.000000  0.377961  0.297432  1
  P  P24  1  0.500000  0.500000  0.885671  1
  P  P25  1  0.000000  0.000000  0.114329  1
  P  P26  1  0.500000  0.500000  0.359293  1
  P  P27  1  0.000000  0.000000  0.640707  1
  P  P28  1  0.500000  0.309087  0.615040  1
  P  P29  1  0.500000  0.690913  0.615040  1
  P  P30  1  0.000000  0.190913  0.384960  1
  P  P31  1  0.000000  0.809087  0.384960  1
  P  P32  1  0.500000  0.839735  0.893210  1
  P  P33  1  0.500000  0.160265  0.893210  1
  P  P34  1  0.000000  0.660265  0.106790  1
  P  P35  1  0.000000  0.339735  0.106790  1
