# generated using pymatgen
data_Lu11Th(TcPt)2
_symmetry_space_group_name_H-M   'P 1'
_cell_length_a   6.32986653
_cell_length_b   7.17432658
_cell_length_c   9.09574400
_cell_angle_alpha   90.00000000
_cell_angle_beta   90.00000000
_cell_angle_gamma   90.20745404
_symmetry_Int_Tables_number   1
_chemical_formula_structural   Lu11Th(TcPt)2
_chemical_formula_sum   'Lu11 Th1 Tc2 Pt2'
_cell_volume   413.05803692
_cell_formula_units_Z   1
loop_
 _symmetry_equiv_pos_site_id
 _symmetry_equiv_pos_as_xyz
  1  'x, y, z'
loop_
 _atom_site_type_symbol
 _atom_site_label
 _atom_site_symmetry_multiplicity
 _atom_site_fract_x
 _atom_site_fract_y
 _atom_site_fract_z
 _atom_site_occupancy
  Lu  Lu0  1  0.328733  0.681034  0.065349  1
  Lu  Lu1  1  0.178377  0.178494  0.434925  1
  Lu  Lu2  1  0.666684  0.314997  0.559495  1
  Lu  Lu3  1  0.828811  0.824036  0.940841  1
  Lu  Lu4  1  0.666684  0.314997  0.940505  1
  Lu  Lu5  1  0.828811  0.824036  0.559159  1
  Lu  Lu6  1  0.328733  0.681034  0.434651  1
  Lu  Lu7  1  0.178377  0.178494  0.065075  1
  Lu  Lu8  1  0.617490  0.034860  0.250000  1
  Lu  Lu9  1  0.129964  0.465814  0.750000  1
  Lu  Lu10  1  0.372169  0.966474  0.750000  1
  Th  Th11  1  0.867437  0.543602  0.250000  1
  Tc  Tc12  1  0.024873  0.878625  0.250000  1
  Tc  Tc13  1  0.482520  0.391512  0.250000  1
  Pt  Pt14  1  0.955032  0.111432  0.750000  1
  Pt  Pt15  1  0.545305  0.610561  0.750000  1
