# generated using pymatgen
data_Ho2MoRuF14
_symmetry_space_group_name_H-M   'P 1'
_cell_length_a   5.53704200
_cell_length_b   8.84475041
_cell_length_c   11.92142100
_cell_angle_alpha   62.82350878
_cell_angle_beta   90.00000000
_cell_angle_gamma   90.00000000
_symmetry_Int_Tables_number   1
_chemical_formula_structural   Ho2MoRuF14
_chemical_formula_sum   'Ho4 Mo2 Ru2 F28'
_cell_volume   519.38341530
_cell_formula_units_Z   2
loop_
 _symmetry_equiv_pos_site_id
 _symmetry_equiv_pos_as_xyz
  1  'x, y, z'
loop_
 _atom_site_type_symbol
 _atom_site_label
 _atom_site_symmetry_multiplicity
 _atom_site_fract_x
 _atom_site_fract_y
 _atom_site_fract_z
 _atom_site_occupancy
  Ho  Ho0  1  0.761202  0.813884  0.763685  1
  Ho  Ho1  1  0.261202  0.186116  0.736315  1
  Ho  Ho2  1  0.239361  0.189107  0.229987  1
  Ho  Ho3  1  0.739361  0.810893  0.270013  1
  Mo  Mo4  1  0.242966  0.728422  0.042305  1
  Mo  Mo5  1  0.742966  0.271578  0.457695  1
  Ru  Ru6  1  0.756246  0.274665  0.954451  1
  Ru  Ru7  1  0.256246  0.725335  0.545549  1
  F  F8  1  0.442667  0.708366  0.913456  1
  F  F9  1  0.942667  0.291634  0.586544  1
  F  F10  1  0.555183  0.296595  0.082357  1
  F  F11  1  0.055183  0.703405  0.417643  1
  F  F12  1  0.433677  0.278446  0.548751  1
  F  F13  1  0.933677  0.721554  0.951249  1
  F  F14  1  0.554155  0.720249  0.455951  1
  F  F15  1  0.054155  0.279751  0.044049  1
  F  F16  1  0.771617  0.516049  0.859052  1
  F  F17  1  0.271617  0.483951  0.640948  1
  F  F18  1  0.230429  0.479451  0.141761  1
  F  F19  1  0.730429  0.520549  0.358239  1
  F  F20  1  0.753600  0.034095  0.047052  1
  F  F21  1  0.253600  0.965905  0.452948  1
  F  F22  1  0.241295  0.978018  0.945883  1
  F  F23  1  0.741295  0.021982  0.554117  1
  F  F24  1  0.967348  0.723622  0.641229  1
  F  F25  1  0.467348  0.276378  0.858771  1
  F  F26  1  0.040029  0.268101  0.358047  1
  F  F27  1  0.540029  0.731899  0.141953  1
  F  F28  1  0.046096  0.751420  0.172690  1
  F  F29  1  0.546096  0.248580  0.327310  1
  F  F30  1  0.952746  0.256888  0.823205  1
  F  F31  1  0.452746  0.743112  0.676795  1
  F  F32  1  0.422588  0.972085  0.233414  1
  F  F33  1  0.922588  0.027915  0.266586  1
  F  F34  1  0.588797  0.029958  0.770093  1
  F  F35  1  0.088797  0.970042  0.729907  1
