# generated using pymatgen
data_Tb3YAl4Pd3Rh
_symmetry_space_group_name_H-M   'P 1'
_cell_length_a   4.44545800
_cell_length_b   6.88889812
_cell_length_c   7.81848414
_cell_angle_alpha   89.92651837
_cell_angle_beta   90.00000000
_cell_angle_gamma   90.00000000
_symmetry_Int_Tables_number   1
_chemical_formula_structural   Tb3YAl4Pd3Rh
_chemical_formula_sum   'Tb3 Y1 Al4 Pd3 Rh1'
_cell_volume   239.43546379
_cell_formula_units_Z   1
loop_
 _symmetry_equiv_pos_site_id
 _symmetry_equiv_pos_as_xyz
  1  'x, y, z'
loop_
 _atom_site_type_symbol
 _atom_site_label
 _atom_site_symmetry_multiplicity
 _atom_site_fract_x
 _atom_site_fract_y
 _atom_site_fract_z
 _atom_site_occupancy
  Tb  Tb0  1  0.250000  0.036104  0.322636  1
  Tb  Tb1  1  0.750000  0.973863  0.679769  1
  Tb  Tb2  1  0.750000  0.464603  0.817459  1
  Y  Y3  1  0.250000  0.532413  0.180672  1
  Al  Al4  1  0.250000  0.146534  0.936153  1
  Al  Al5  1  0.250000  0.639092  0.562421  1
  Al  Al6  1  0.750000  0.854936  0.061302  1
  Al  Al7  1  0.750000  0.354878  0.440010  1
  Pd  Pd8  1  0.250000  0.774582  0.881211  1
  Pd  Pd9  1  0.750000  0.726936  0.380799  1
  Pd  Pd10  1  0.750000  0.226334  0.119728  1
  Rh  Rh11  1  0.250000  0.269724  0.617839  1
