# generated using pymatgen
data_Sm8Lu7Sc5Pb16
_symmetry_space_group_name_H-M   'P 1'
_cell_length_a   8.08723271
_cell_length_b   8.17222178
_cell_length_c   15.43573328
_cell_angle_alpha   90.02033221
_cell_angle_beta   89.94100653
_cell_angle_gamma   90.07282203
_symmetry_Int_Tables_number   1
_chemical_formula_structural   Sm8Lu7Sc5Pb16
_chemical_formula_sum   'Sm8 Lu7 Sc5 Pb16'
_cell_volume   1020.15636021
_cell_formula_units_Z   1
loop_
 _symmetry_equiv_pos_site_id
 _symmetry_equiv_pos_as_xyz
  1  'x, y, z'
loop_
 _atom_site_type_symbol
 _atom_site_label
 _atom_site_symmetry_multiplicity
 _atom_site_fract_x
 _atom_site_fract_y
 _atom_site_fract_z
 _atom_site_occupancy
  Sm  Sm0  1  0.468021  0.677919  0.598216  1
  Sm  Sm1  1  0.967751  0.822579  0.901568  1
  Sm  Sm2  1  0.532243  0.322500  0.098286  1
  Sm  Sm3  1  0.032423  0.177451  0.401751  1
  Sm  Sm4  1  0.532198  0.321972  0.402306  1
  Sm  Sm5  1  0.032357  0.177433  0.098304  1
  Sm  Sm6  1  0.468104  0.677654  0.901313  1
  Sm  Sm7  1  0.967504  0.823015  0.598478  1
  Lu  Lu8  1  0.127750  0.341922  0.876877  1
  Lu  Lu9  1  0.372159  0.842283  0.122722  1
  Lu  Lu10  1  0.871680  0.657958  0.377866  1
  Lu  Lu11  1  0.372129  0.842094  0.377319  1
  Lu  Lu12  1  0.872163  0.657775  0.122736  1
  Lu  Lu13  1  0.627782  0.157672  0.877261  1
  Lu  Lu14  1  0.127611  0.342312  0.622631  1
  Sc  Sc15  1  0.627851  0.158160  0.623299  1
  Sc  Sc16  1  0.795414  0.492866  0.749668  1
  Sc  Sc17  1  0.296503  0.007352  0.749583  1
  Sc  Sc18  1  0.204141  0.506723  0.250029  1
  Sc  Sc19  1  0.704122  0.993281  0.250102  1
  Pb  Pb20  1  0.709942  0.964438  0.457340  1
  Pb  Pb21  1  0.210960  0.537588  0.044739  1
  Pb  Pb22  1  0.288967  0.037634  0.955178  1
  Pb  Pb23  1  0.787105  0.458665  0.545477  1
  Pb  Pb24  1  0.292635  0.038660  0.545184  1
  Pb  Pb25  1  0.789194  0.462408  0.955127  1
  Pb  Pb26  1  0.711006  0.962304  0.044760  1
  Pb  Pb27  1  0.210699  0.537482  0.455350  1
  Pb  Pb28  1  0.437098  0.368423  0.748461  1
  Pb  Pb29  1  0.932903  0.129336  0.748785  1
  Pb  Pb30  1  0.564529  0.629187  0.250048  1
  Pb  Pb31  1  0.064429  0.870807  0.250076  1
  Pb  Pb32  1  0.656587  0.848574  0.749216  1
  Pb  Pb33  1  0.157121  0.653460  0.749884  1
  Pb  Pb34  1  0.343434  0.153839  0.250018  1
  Pb  Pb35  1  0.843487  0.346272  0.250041  1
