# generated using pymatgen
data_Tb12Th4Mg3CdRh4
_symmetry_space_group_name_H-M   'P 1'
_cell_length_a   9.80875609
_cell_length_b   9.80875667
_cell_length_c   9.80875623
_cell_angle_alpha   59.95315057
_cell_angle_beta   59.95315139
_cell_angle_gamma   59.95314819
_symmetry_Int_Tables_number   1
_chemical_formula_structural   Tb12Th4Mg3CdRh4
_chemical_formula_sum   'Tb12 Th4 Mg3 Cd1 Rh4'
_cell_volume   666.59975331
_cell_formula_units_Z   1
loop_
 _symmetry_equiv_pos_site_id
 _symmetry_equiv_pos_as_xyz
  1  'x, y, z'
loop_
 _atom_site_type_symbol
 _atom_site_label
 _atom_site_symmetry_multiplicity
 _atom_site_fract_x
 _atom_site_fract_y
 _atom_site_fract_z
 _atom_site_occupancy
  Tb  Tb0  1  0.812543  0.187909  0.187909  1
  Tb  Tb1  1  0.186398  0.813107  0.813107  1
  Tb  Tb2  1  0.187909  0.812543  0.187909  1
  Tb  Tb3  1  0.813107  0.186398  0.813107  1
  Tb  Tb4  1  0.187909  0.187909  0.812543  1
  Tb  Tb5  1  0.813107  0.813107  0.186398  1
  Tb  Tb6  1  0.935292  0.565694  0.565694  1
  Tb  Tb7  1  0.563902  0.935456  0.935456  1
  Tb  Tb8  1  0.565694  0.935292  0.565694  1
  Tb  Tb9  1  0.935456  0.563902  0.935456  1
  Tb  Tb10  1  0.565694  0.565694  0.935292  1
  Tb  Tb11  1  0.935456  0.935456  0.563902  1
  Th  Th12  1  0.346932  0.346932  0.346932  1
  Th  Th13  1  0.350111  0.350111  0.951940  1
  Th  Th14  1  0.350111  0.951940  0.350111  1
  Th  Th15  1  0.951940  0.350111  0.350111  1
  Mg  Mg16  1  0.578727  0.578727  0.262072  1
  Mg  Mg17  1  0.578727  0.262072  0.578727  1
  Mg  Mg18  1  0.262072  0.578727  0.578727  1
  Cd  Cd19  1  0.581345  0.581345  0.581345  1
  Rh  Rh20  1  0.144976  0.144976  0.144976  1
  Rh  Rh21  1  0.143603  0.143603  0.565383  1
  Rh  Rh22  1  0.143603  0.565383  0.143603  1
  Rh  Rh23  1  0.565383  0.143603  0.143603  1
