# generated using pymatgen
data_DyTeBrO3
_symmetry_space_group_name_H-M   'P 1'
_cell_length_a   7.17649000
_cell_length_b   7.93505493
_cell_length_c   8.50727263
_cell_angle_alpha   74.07893080
_cell_angle_beta   90.00000000
_cell_angle_gamma   90.00000000
_symmetry_Int_Tables_number   1
_chemical_formula_structural   DyTeBrO3
_chemical_formula_sum   'Dy4 Te4 Br4 O12'
_cell_volume   465.87040101
_cell_formula_units_Z   4
loop_
 _symmetry_equiv_pos_site_id
 _symmetry_equiv_pos_as_xyz
  1  'x, y, z'
loop_
 _atom_site_type_symbol
 _atom_site_label
 _atom_site_symmetry_multiplicity
 _atom_site_fract_x
 _atom_site_fract_y
 _atom_site_fract_z
 _atom_site_occupancy
  Dy  Dy0  1  0.752970  0.284586  0.383406  1
  Dy  Dy1  1  0.252970  0.215414  0.616594  1
  Dy  Dy2  1  0.247030  0.715414  0.616594  1
  Dy  Dy3  1  0.747030  0.784586  0.383406  1
  Te  Te4  1  0.204677  0.569330  0.274137  1
  Te  Te5  1  0.704677  0.930670  0.725863  1
  Te  Te6  1  0.795323  0.430670  0.725863  1
  Te  Te7  1  0.295323  0.069330  0.274137  1
  Br  Br8  1  0.694538  0.614725  0.115375  1
  Br  Br9  1  0.194538  0.885275  0.884625  1
  Br  Br10  1  0.305462  0.385275  0.884625  1
  Br  Br11  1  0.805462  0.114725  0.115375  1
  O  O12  1  0.303193  0.501845  0.493567  1
  O  O13  1  0.803193  0.998155  0.506433  1
  O  O14  1  0.696807  0.498155  0.506433  1
  O  O15  1  0.196807  0.001845  0.493567  1
  O  O16  1  0.053769  0.738078  0.336253  1
  O  O17  1  0.553769  0.761922  0.663747  1
  O  O18  1  0.946231  0.261922  0.663747  1
  O  O19  1  0.446231  0.238078  0.336253  1
  O  O20  1  0.055335  0.362914  0.326308  1
  O  O21  1  0.555335  0.137086  0.673692  1
  O  O22  1  0.944665  0.637086  0.673692  1
  O  O23  1  0.444665  0.862914  0.326308  1
