# generated using pymatgen
data_TbDyTm3Ru2
_symmetry_space_group_name_H-M   'P 1'
_cell_length_a   6.30419198
_cell_length_b   7.23501938
_cell_length_c   8.42184677
_cell_angle_alpha   96.84369864
_cell_angle_beta   111.97958275
_cell_angle_gamma   89.99999640
_symmetry_Int_Tables_number   1
_chemical_formula_structural   TbDyTm3Ru2
_chemical_formula_sum   'Tb2 Dy2 Tm6 Ru4'
_cell_volume   353.25574906
_cell_formula_units_Z   2
loop_
 _symmetry_equiv_pos_site_id
 _symmetry_equiv_pos_as_xyz
  1  'x, y, z'
loop_
 _atom_site_type_symbol
 _atom_site_label
 _atom_site_symmetry_multiplicity
 _atom_site_fract_x
 _atom_site_fract_y
 _atom_site_fract_z
 _atom_site_occupancy
  Tb  Tb0  1  0.788512  0.082800  0.811010  1
  Tb  Tb1  1  0.977502  0.417200  0.188990  1
  Dy  Dy2  1  0.211510  0.916783  0.188674  1
  Dy  Dy3  1  0.022836  0.583217  0.811326  1
  Tm  Tm4  1  0.204463  0.184680  0.565703  1
  Tm  Tm5  1  0.638760  0.315320  0.434297  1
  Tm  Tm6  1  0.794941  0.814823  0.434050  1
  Tm  Tm7  1  0.360891  0.685177  0.565950  1
  Tm  Tm8  1  0.420860  0.250000  0.000000  1
  Tm  Tm9  1  0.578694  0.750000  0.000000  1
  Ru  Ru10  1  0.599154  0.425018  0.777630  1
  Ru  Ru11  1  0.821523  0.074982  0.222370  1
  Ru  Ru12  1  0.401130  0.575547  0.221906  1
  Ru  Ru13  1  0.179225  0.924453  0.778094  1
