# generated using pymatgen
data_PrNdB4(RuRh)2
_symmetry_space_group_name_H-M   'P 1'
_cell_length_a   6.89945897
_cell_length_b   6.03290604
_cell_length_c   5.60427811
_cell_angle_alpha   72.61759864
_cell_angle_beta   56.56079446
_cell_angle_gamma   50.82162468
_symmetry_Int_Tables_number   1
_chemical_formula_structural   PrNdB4(RuRh)2
_chemical_formula_sum   'Pr1 Nd1 B4 Ru2 Rh2'
_cell_volume   150.45549780
_cell_formula_units_Z   1
loop_
 _symmetry_equiv_pos_site_id
 _symmetry_equiv_pos_as_xyz
  1  'x, y, z'
loop_
 _atom_site_type_symbol
 _atom_site_label
 _atom_site_symmetry_multiplicity
 _atom_site_fract_x
 _atom_site_fract_y
 _atom_site_fract_z
 _atom_site_occupancy
  Pr  Pr0  1  0.000000  0.000000  0.000000  1
  Nd  Nd1  1  0.250000  0.250000  0.250000  1
  B  B2  1  0.314133  0.685867  0.314133  1
  B  B3  1  0.685867  0.314133  0.685867  1
  B  B4  1  0.576131  0.923869  0.576131  1
  B  B5  1  0.923869  0.576131  0.923869  1
  Ru  Ru6  1  0.614889  0.614889  0.885111  1
  Ru  Ru7  1  0.885111  0.885111  0.614889  1
  Rh  Rh8  1  0.633962  0.633962  0.366038  1
  Rh  Rh9  1  0.366038  0.366038  0.633962  1
