# generated using pymatgen
data_Dy4AlPd
_symmetry_space_group_name_H-M   'P 1'
_cell_length_a   9.60903935
_cell_length_b   9.60903977
_cell_length_c   9.60904000
_cell_angle_alpha   59.99999922
_cell_angle_beta   59.99999778
_cell_angle_gamma   59.99999798
_symmetry_Int_Tables_number   1
_chemical_formula_structural   Dy4AlPd
_chemical_formula_sum   'Dy16 Al4 Pd4'
_cell_volume   627.37173719
_cell_formula_units_Z   4
loop_
 _symmetry_equiv_pos_site_id
 _symmetry_equiv_pos_as_xyz
  1  'x, y, z'
loop_
 _atom_site_type_symbol
 _atom_site_label
 _atom_site_symmetry_multiplicity
 _atom_site_fract_x
 _atom_site_fract_y
 _atom_site_fract_z
 _atom_site_occupancy
  Dy  Dy0  1  0.605531  0.605531  0.605531  1
  Dy  Dy1  1  0.605531  0.605531  0.183407  1
  Dy  Dy2  1  0.605531  0.183407  0.605531  1
  Dy  Dy3  1  0.183407  0.605531  0.605531  1
  Dy  Dy4  1  0.056717  0.443283  0.443283  1
  Dy  Dy5  1  0.443283  0.056717  0.056717  1
  Dy  Dy6  1  0.443283  0.056717  0.443283  1
  Dy  Dy7  1  0.056717  0.443283  0.056717  1
  Dy  Dy8  1  0.443283  0.443283  0.056717  1
  Dy  Dy9  1  0.056717  0.056717  0.443283  1
  Dy  Dy10  1  0.184419  0.815581  0.815581  1
  Dy  Dy11  1  0.815581  0.184419  0.184419  1
  Dy  Dy12  1  0.815581  0.184419  0.815581  1
  Dy  Dy13  1  0.184419  0.815581  0.184419  1
  Dy  Dy14  1  0.815581  0.815581  0.184419  1
  Dy  Dy15  1  0.184419  0.184419  0.815581  1
  Al  Al16  1  0.827562  0.827562  0.827562  1
  Al  Al17  1  0.827562  0.827562  0.517315  1
  Al  Al18  1  0.827562  0.517315  0.827562  1
  Al  Al19  1  0.517315  0.827562  0.827562  1
  Pd  Pd20  1  0.394497  0.394497  0.394497  1
  Pd  Pd21  1  0.394497  0.394497  0.816508  1
  Pd  Pd22  1  0.394497  0.816508  0.394497  1
  Pd  Pd23  1  0.816508  0.394497  0.394497  1
