# generated using pymatgen
data_Y4Tm6IrRh3
_symmetry_space_group_name_H-M   'P 1'
_cell_length_a   6.38063673
_cell_length_b   7.14799261
_cell_length_c   8.53656889
_cell_angle_alpha   97.00203755
_cell_angle_beta   111.84057487
_cell_angle_gamma   90.04659397
_symmetry_Int_Tables_number   1
_chemical_formula_structural   Y4Tm6IrRh3
_chemical_formula_sum   'Y4 Tm6 Ir1 Rh3'
_cell_volume   358.25025481
_cell_formula_units_Z   1
loop_
 _symmetry_equiv_pos_site_id
 _symmetry_equiv_pos_as_xyz
  1  'x, y, z'
loop_
 _atom_site_type_symbol
 _atom_site_label
 _atom_site_symmetry_multiplicity
 _atom_site_fract_x
 _atom_site_fract_y
 _atom_site_fract_z
 _atom_site_occupancy
  Y  Y0  1  0.976653  0.919841  0.190144  1
  Y  Y1  1  0.786815  0.580355  0.809785  1
  Y  Y2  1  0.024979  0.080792  0.811354  1
  Y  Y3  1  0.214143  0.419889  0.190755  1
  Tm  Tm4  1  0.647529  0.814271  0.438433  1
  Tm  Tm5  1  0.208603  0.686075  0.562006  1
  Tm  Tm6  1  0.355174  0.185259  0.559637  1
  Tm  Tm7  1  0.790901  0.313150  0.437661  1
  Tm  Tm8  1  0.424321  0.750701  0.000605  1
  Tm  Tm9  1  0.574168  0.249189  0.000563  1
  Ir  Ir10  1  0.407900  0.073157  0.223953  1
  Rh  Rh11  1  0.813416  0.571883  0.222580  1
  Rh  Rh12  1  0.590198  0.927546  0.777227  1
  Rh  Rh13  1  0.185201  0.427891  0.775299  1
