# generated using pymatgen
data_Sc8Ti8Nb4Si15Sb
_symmetry_space_group_name_H-M   'P 1'
_cell_length_a   6.74686483
_cell_length_b   6.87221915
_cell_length_c   13.12144722
_cell_angle_alpha   89.90066702
_cell_angle_beta   90.41435169
_cell_angle_gamma   90.11416771
_symmetry_Int_Tables_number   1
_chemical_formula_structural   Sc8Ti8Nb4Si15Sb
_chemical_formula_sum   'Sc8 Ti8 Nb4 Si15 Sb1'
_cell_volume   608.37013507
_cell_formula_units_Z   1
loop_
 _symmetry_equiv_pos_site_id
 _symmetry_equiv_pos_as_xyz
  1  'x, y, z'
loop_
 _atom_site_type_symbol
 _atom_site_label
 _atom_site_symmetry_multiplicity
 _atom_site_fract_x
 _atom_site_fract_y
 _atom_site_fract_z
 _atom_site_occupancy
  Sc  Sc0  1  0.494636  0.671242  0.600350  1
  Sc  Sc1  1  0.000724  0.825416  0.903492  1
  Sc  Sc2  1  0.497421  0.324614  0.094830  1
  Sc  Sc3  1  0.014642  0.184472  0.398807  1
  Sc  Sc4  1  0.497200  0.330966  0.401485  1
  Sc  Sc5  1  0.998371  0.174724  0.095253  1
  Sc  Sc6  1  0.501433  0.675952  0.904291  1
  Sc  Sc7  1  0.005251  0.819503  0.601456  1
  Ti  Ti8  1  0.654873  0.183242  0.632034  1
  Ti  Ti9  1  0.160591  0.324164  0.875337  1
  Ti  Ti10  1  0.337792  0.824858  0.125049  1
  Ti  Ti11  1  0.847699  0.660223  0.368614  1
  Ti  Ti12  1  0.331726  0.824166  0.372502  1
  Ti  Ti13  1  0.836102  0.675347  0.124645  1
  Ti  Ti14  1  0.663516  0.174291  0.874383  1
  Ti  Ti15  1  0.160931  0.327458  0.628466  1
  Nb  Nb16  1  0.833840  0.493832  0.750663  1
  Nb  Nb17  1  0.334441  0.007701  0.750665  1
  Nb  Nb18  1  0.165695  0.506175  0.249250  1
  Nb  Nb19  1  0.665241  0.991116  0.243889  1
  Si  Si20  1  0.164772  0.533849  0.039575  1
  Si  Si21  1  0.334355  0.033699  0.959523  1
  Si  Si22  1  0.832738  0.465414  0.539547  1
  Si  Si23  1  0.317232  0.037202  0.541423  1
  Si  Si24  1  0.834184  0.466684  0.959992  1
  Si  Si25  1  0.665107  0.965817  0.038253  1
  Si  Si26  1  0.169279  0.536427  0.462940  1
  Si  Si27  1  0.455678  0.385505  0.753835  1
  Si  Si28  1  0.957230  0.116673  0.751130  1
  Si  Si29  1  0.541922  0.616290  0.248650  1
  Si  Si30  1  0.041672  0.884030  0.247767  1
  Si  Si31  1  0.702967  0.866374  0.751106  1
  Si  Si32  1  0.203353  0.633390  0.753159  1
  Si  Si33  1  0.298759  0.133447  0.248093  1
  Si  Si34  1  0.795143  0.362848  0.247070  1
  Sb  Sb35  1  0.683484  0.962890  0.462478  1
