# generated using pymatgen
data_Tm2Co7Ni2P6Ru
_symmetry_space_group_name_H-M   'P 1'
_cell_length_a   3.65670300
_cell_length_b   10.27080600
_cell_length_c   11.75005700
_cell_angle_alpha   90.00000000
_cell_angle_beta   90.00000000
_cell_angle_gamma   90.00000000
_symmetry_Int_Tables_number   1
_chemical_formula_structural   Tm2Co7Ni2P6Ru
_chemical_formula_sum   'Tm4 Co14 Ni4 P12 Ru2'
_cell_volume   441.30026434
_cell_formula_units_Z   2
loop_
 _symmetry_equiv_pos_site_id
 _symmetry_equiv_pos_as_xyz
  1  'x, y, z'
loop_
 _atom_site_type_symbol
 _atom_site_label
 _atom_site_symmetry_multiplicity
 _atom_site_fract_x
 _atom_site_fract_y
 _atom_site_fract_z
 _atom_site_occupancy
  Tm  Tm0  1  0.250000  0.582120  0.702244  1
  Tm  Tm1  1  0.250000  0.917880  0.202244  1
  Tm  Tm2  1  0.750000  0.414803  0.294096  1
  Tm  Tm3  1  0.750000  0.085197  0.794096  1
  Co  Co4  1  0.750000  0.590447  0.511465  1
  Co  Co5  1  0.750000  0.909553  0.011465  1
  Co  Co6  1  0.250000  0.218818  0.176279  1
  Co  Co7  1  0.250000  0.281182  0.676279  1
  Co  Co8  1  0.750000  0.778182  0.822836  1
  Co  Co9  1  0.750000  0.721818  0.322836  1
  Co  Co10  1  0.250000  0.887009  0.702434  1
  Co  Co11  1  0.250000  0.612991  0.202434  1
  Co  Co12  1  0.750000  0.117377  0.301866  1
  Co  Co13  1  0.750000  0.382623  0.801866  1
  Co  Co14  1  0.250000  0.464888  0.931966  1
  Co  Co15  1  0.250000  0.035112  0.431966  1
  Co  Co16  1  0.750000  0.533461  0.069446  1
  Co  Co17  1  0.750000  0.966539  0.569446  1
  Ni  Ni18  1  0.750000  0.284728  0.011220  1
  Ni  Ni19  1  0.750000  0.215272  0.511220  1
  Ni  Ni20  1  0.250000  0.407280  0.484435  1
  Ni  Ni21  1  0.250000  0.092720  0.984435  1
  P  P22  1  0.250000  0.416507  0.112476  1
  P  P23  1  0.250000  0.083493  0.612476  1
  P  P24  1  0.750000  0.578874  0.886803  1
  P  P25  1  0.750000  0.921126  0.386803  1
  P  P26  1  0.250000  0.270939  0.865736  1
  P  P27  1  0.250000  0.229061  0.365736  1
  P  P28  1  0.750000  0.730612  0.132929  1
  P  P29  1  0.750000  0.769388  0.632929  1
  P  P30  1  0.250000  0.596788  0.389412  1
  P  P31  1  0.250000  0.903212  0.889412  1
  P  P32  1  0.750000  0.398149  0.611503  1
  P  P33  1  0.750000  0.101851  0.111503  1
  Ru  Ru34  1  0.250000  0.714444  0.992854  1
  Ru  Ru35  1  0.250000  0.785556  0.492854  1
