# generated using pymatgen
data_Tb7Ho(Si3Ir)4
_symmetry_space_group_name_H-M   'P 1'
_cell_length_a   8.19509200
_cell_length_b   8.19141785
_cell_length_c   7.96945800
_cell_angle_alpha   90.00000000
_cell_angle_beta   90.00000000
_cell_angle_gamma   120.01483857
_symmetry_Int_Tables_number   1
_chemical_formula_structural   Tb7Ho(Si3Ir)4
_chemical_formula_sum   'Tb7 Ho1 Si12 Ir4'
_cell_volume   463.24141017
_cell_formula_units_Z   1
loop_
 _symmetry_equiv_pos_site_id
 _symmetry_equiv_pos_as_xyz
  1  'x, y, z'
loop_
 _atom_site_type_symbol
 _atom_site_label
 _atom_site_symmetry_multiplicity
 _atom_site_fract_x
 _atom_site_fract_y
 _atom_site_fract_z
 _atom_site_occupancy
  Tb  Tb0  1  0.489136  0.978272  0.750000  1
  Tb  Tb1  1  0.977928  0.488818  0.250000  1
  Tb  Tb2  1  0.021586  0.510820  0.750000  1
  Tb  Tb3  1  0.510890  0.488818  0.250000  1
  Tb  Tb4  1  0.489234  0.510820  0.750000  1
  Tb  Tb5  1  0.000037  0.000075  0.250000  1
  Tb  Tb6  1  0.999970  0.999940  0.750000  1
  Ho  Ho7  1  0.510710  0.021418  0.250000  1
  Si  Si8  1  0.167128  0.334256  0.002528  1
  Si  Si9  1  0.833030  0.666059  0.997655  1
  Si  Si10  1  0.665960  0.833057  0.002658  1
  Si  Si11  1  0.833030  0.666059  0.502345  1
  Si  Si12  1  0.334021  0.166837  0.998249  1
  Si  Si13  1  0.167128  0.334256  0.497472  1
  Si  Si14  1  0.167097  0.833057  0.002658  1
  Si  Si15  1  0.334021  0.166837  0.501751  1
  Si  Si16  1  0.832816  0.166837  0.998249  1
  Si  Si17  1  0.665960  0.833057  0.497342  1
  Si  Si18  1  0.832816  0.166837  0.501751  1
  Si  Si19  1  0.167097  0.833057  0.497342  1
  Ir  Ir20  1  0.333711  0.667423  0.038530  1
  Ir  Ir21  1  0.666492  0.332982  0.963272  1
  Ir  Ir22  1  0.666492  0.332982  0.536728  1
  Ir  Ir23  1  0.333711  0.667423  0.461470  1
