# generated using pymatgen
data_Th3GaSn2IrRh2
_symmetry_space_group_name_H-M   'P 1'
_cell_length_a   7.51399002
_cell_length_b   7.49993827
_cell_length_c   4.09648000
_cell_angle_alpha   90.00000000
_cell_angle_beta   90.00000000
_cell_angle_gamma   120.23094320
_symmetry_Int_Tables_number   1
_chemical_formula_structural   Th3GaSn2IrRh2
_chemical_formula_sum   'Th3 Ga1 Sn2 Ir1 Rh2'
_cell_volume   199.45935007
_cell_formula_units_Z   1
loop_
 _symmetry_equiv_pos_site_id
 _symmetry_equiv_pos_as_xyz
  1  'x, y, z'
loop_
 _atom_site_type_symbol
 _atom_site_label
 _atom_site_symmetry_multiplicity
 _atom_site_fract_x
 _atom_site_fract_y
 _atom_site_fract_z
 _atom_site_occupancy
  Th  Th0  1  0.426629  0.425560  0.500000  1
  Th  Th1  1  0.587603  0.991665  0.500000  1
  Th  Th2  1  0.990018  0.586876  0.500000  1
  Ga  Ga3  1  0.751345  0.751897  0.000000  1
  Sn  Sn4  1  0.246054  0.999246  0.000000  1
  Sn  Sn5  1  0.000696  0.246743  0.000000  1
  Ir  Ir6  1  0.668843  0.341438  0.000000  1
  Rh  Rh7  1  0.341444  0.668985  0.000000  1
  Rh  Rh8  1  0.987368  0.987588  0.500000  1
