# generated using pymatgen
data_Ho3Np7O20
_symmetry_space_group_name_H-M   'P 1'
_cell_length_a   10.04149891
_cell_length_b   10.04149897
_cell_length_c   6.54416200
_cell_angle_alpha   83.71612427
_cell_angle_beta   83.71611744
_cell_angle_gamma   141.86272962
_symmetry_Int_Tables_number   1
_chemical_formula_structural   Ho3Np7O20
_chemical_formula_sum   'Ho3 Np7 O20'
_cell_volume   383.94415692
_cell_formula_units_Z   1
loop_
 _symmetry_equiv_pos_site_id
 _symmetry_equiv_pos_as_xyz
  1  'x, y, z'
loop_
 _atom_site_type_symbol
 _atom_site_label
 _atom_site_symmetry_multiplicity
 _atom_site_fract_x
 _atom_site_fract_y
 _atom_site_fract_z
 _atom_site_occupancy
  Ho  Ho0  1  0.500000  0.500000  0.000000  1
  Ho  Ho1  1  0.201289  0.798711  0.500000  1
  Ho  Ho2  1  0.798711  0.201289  0.500000  1
  Np  Np3  1  0.899999  0.100001  0.000000  1
  Np  Np4  1  0.399221  0.600779  0.500000  1
  Np  Np5  1  0.100001  0.899999  0.000000  1
  Np  Np6  1  0.000000  0.000000  0.500000  1
  Np  Np7  1  0.699735  0.300265  0.000000  1
  Np  Np8  1  0.600779  0.399221  0.500000  1
  Np  Np9  1  0.300265  0.699735  0.000000  1
  O  O10  1  0.270225  0.471342  0.875686  1
  O  O11  1  0.881088  0.881088  0.872914  1
  O  O12  1  0.774662  0.973105  0.372297  1
  O  O13  1  0.026895  0.225338  0.627703  1
  O  O14  1  0.471342  0.270225  0.875686  1
  O  O15  1  0.371971  0.371971  0.381416  1
  O  O16  1  0.628029  0.628029  0.618584  1
  O  O17  1  0.073131  0.673311  0.883023  1
  O  O18  1  0.528658  0.729775  0.124314  1
  O  O19  1  0.973105  0.774662  0.372297  1
  O  O20  1  0.225338  0.026895  0.627703  1
  O  O21  1  0.673311  0.073131  0.883023  1
  O  O22  1  0.118912  0.118912  0.127086  1
  O  O23  1  0.578883  0.182571  0.366699  1
  O  O24  1  0.817429  0.421117  0.633301  1
  O  O25  1  0.421117  0.817429  0.633301  1
  O  O26  1  0.729775  0.528658  0.124314  1
  O  O27  1  0.182571  0.578883  0.366699  1
  O  O28  1  0.326689  0.926869  0.116977  1
  O  O29  1  0.926869  0.326689  0.116977  1
