# generated using pymatgen
data_SrPr2Nd4FeI12
_symmetry_space_group_name_H-M   'P 1'
_cell_length_a   10.19126513
_cell_length_b   10.09382606
_cell_length_c   10.09513287
_cell_angle_alpha   106.27308268
_cell_angle_beta   106.61450444
_cell_angle_gamma   106.72971354
_symmetry_Int_Tables_number   1
_chemical_formula_structural   SrPr2Nd4FeI12
_chemical_formula_sum   'Sr1 Pr2 Nd4 Fe1 I12'
_cell_volume   875.48613088
_cell_formula_units_Z   1
loop_
 _symmetry_equiv_pos_site_id
 _symmetry_equiv_pos_as_xyz
  1  'x, y, z'
loop_
 _atom_site_type_symbol
 _atom_site_label
 _atom_site_symmetry_multiplicity
 _atom_site_fract_x
 _atom_site_fract_y
 _atom_site_fract_z
 _atom_site_occupancy
  Sr  Sr0  1  0.000000  0.000000  0.000000  1
  Pr  Pr1  1  0.593285  0.789390  0.522045  1
  Pr  Pr2  1  0.406715  0.210610  0.477955  1
  Nd  Nd3  1  0.803895  0.523111  0.598440  1
  Nd  Nd4  1  0.522968  0.592116  0.786517  1
  Nd  Nd5  1  0.196105  0.476889  0.401560  1
  Nd  Nd6  1  0.477032  0.407884  0.213483  1
  Fe  Fe7  1  0.500000  0.500000  0.500000  1
  I  I8  1  0.723923  0.183649  0.573286  1
  I  I9  1  0.951578  0.871257  0.643063  1
  I  I10  1  0.573002  0.721982  0.182501  1
  I  I11  1  0.129533  0.357612  0.048786  1
  I  I12  1  0.644644  0.950267  0.873502  1
  I  I13  1  0.870467  0.642388  0.951214  1
  I  I14  1  0.048422  0.128743  0.356937  1
  I  I15  1  0.814702  0.426435  0.276180  1
  I  I16  1  0.355356  0.049733  0.126498  1
  I  I17  1  0.276077  0.816351  0.426714  1
  I  I18  1  0.185298  0.573565  0.723820  1
  I  I19  1  0.426998  0.278018  0.817499  1
