# generated using pymatgen
data_PrEr3(UTc3)2
_symmetry_space_group_name_H-M   'P 1'
_cell_length_a   5.79541500
_cell_length_b   5.79541472
_cell_length_c   8.23546700
_cell_angle_alpha   90.00000000
_cell_angle_beta   90.00000000
_cell_angle_gamma   120.00000732
_symmetry_Int_Tables_number   1
_chemical_formula_structural   PrEr3(UTc3)2
_chemical_formula_sum   'Pr1 Er3 U2 Tc6'
_cell_volume   239.54543048
_cell_formula_units_Z   1
loop_
 _symmetry_equiv_pos_site_id
 _symmetry_equiv_pos_as_xyz
  1  'x, y, z'
loop_
 _atom_site_type_symbol
 _atom_site_label
 _atom_site_symmetry_multiplicity
 _atom_site_fract_x
 _atom_site_fract_y
 _atom_site_fract_z
 _atom_site_occupancy
  Pr  Pr0  1  0.333333  0.666667  0.438026  1
  Er  Er1  1  0.666667  0.333333  0.560188  1
  Er  Er2  1  0.666667  0.333333  0.941340  1
  Er  Er3  1  0.333333  0.666667  0.058781  1
  U  U4  1  0.000000  0.000000  0.499799  1
  U  U5  1  0.000000  0.000000  0.000359  1
  Tc  Tc6  1  0.835845  0.164155  0.248291  1
  Tc  Tc7  1  0.835845  0.671691  0.248291  1
  Tc  Tc8  1  0.328309  0.164155  0.248291  1
  Tc  Tc9  1  0.163395  0.836605  0.752211  1
  Tc  Tc10  1  0.163395  0.326790  0.752211  1
  Tc  Tc11  1  0.673210  0.836605  0.752211  1
