# generated using pymatgen
data_Y4TaVOs6
_symmetry_space_group_name_H-M   'P 1'
_cell_length_a   5.26402327
_cell_length_b   5.26402410
_cell_length_c   8.98892000
_cell_angle_alpha   90.00000000
_cell_angle_beta   90.00000000
_cell_angle_gamma   116.51432735
_symmetry_Int_Tables_number   1
_chemical_formula_structural   Y4TaVOs6
_chemical_formula_sum   'Y4 Ta1 V1 Os6'
_cell_volume   222.88467335
_cell_formula_units_Z   1
loop_
 _symmetry_equiv_pos_site_id
 _symmetry_equiv_pos_as_xyz
  1  'x, y, z'
loop_
 _atom_site_type_symbol
 _atom_site_label
 _atom_site_symmetry_multiplicity
 _atom_site_fract_x
 _atom_site_fract_y
 _atom_site_fract_z
 _atom_site_occupancy
  Y  Y0  1  0.329349  0.670651  0.439154  1
  Y  Y1  1  0.669145  0.330855  0.567059  1
  Y  Y2  1  0.669145  0.330855  0.932941  1
  Y  Y3  1  0.329349  0.670651  0.060846  1
  Ta  Ta4  1  0.842506  0.157494  0.250000  1
  V  V5  1  0.157513  0.842487  0.750000  1
  Os  Os6  1  0.001851  0.998149  0.505966  1
  Os  Os7  1  0.001851  0.998149  0.994034  1
  Os  Os8  1  0.824162  0.649335  0.250000  1
  Os  Os9  1  0.350665  0.175838  0.250000  1
  Os  Os10  1  0.176802  0.352337  0.750000  1
  Os  Os11  1  0.647663  0.823198  0.750000  1
