# generated using pymatgen
data_Tm3Zr7Pb6
_symmetry_space_group_name_H-M   'P 1'
_cell_length_a   8.77705900
_cell_length_b   8.78308965
_cell_length_c   6.00595600
_cell_angle_alpha   90.00000000
_cell_angle_beta   90.00000000
_cell_angle_gamma   119.97730066
_symmetry_Int_Tables_number   1
_chemical_formula_structural   Tm3Zr7Pb6
_chemical_formula_sum   'Tm3 Zr7 Pb6'
_cell_volume   401.05912661
_cell_formula_units_Z   1
loop_
 _symmetry_equiv_pos_site_id
 _symmetry_equiv_pos_as_xyz
  1  'x, y, z'
loop_
 _atom_site_type_symbol
 _atom_site_label
 _atom_site_symmetry_multiplicity
 _atom_site_fract_x
 _atom_site_fract_y
 _atom_site_fract_z
 _atom_site_occupancy
  Tm  Tm0  1  0.760659  0.757809  0.250000  1
  Tm  Tm1  1  0.002850  0.242191  0.250000  1
  Tm  Tm2  1  0.759941  0.000000  0.750000  1
  Zr  Zr3  1  0.330720  0.666902  0.501534  1
  Zr  Zr4  1  0.245030  0.000000  0.250000  1
  Zr  Zr5  1  0.663819  0.333098  0.501534  1
  Zr  Zr6  1  0.002291  0.755807  0.750000  1
  Zr  Zr7  1  0.330720  0.666902  0.998466  1
  Zr  Zr8  1  0.246484  0.244193  0.750000  1
  Zr  Zr9  1  0.663819  0.333098  0.998466  1
  Pb  Pb10  1  0.607256  0.605949  0.750000  1
  Pb  Pb11  1  0.388465  0.000000  0.750000  1
  Pb  Pb12  1  0.601993  0.000000  0.250000  1
  Pb  Pb13  1  0.001308  0.394051  0.750000  1
  Pb  Pb14  1  0.393078  0.391509  0.250000  1
  Pb  Pb15  1  0.001569  0.608491  0.250000  1
