# generated using pymatgen
data_Sr3Mn2Co(NiP2)3
_symmetry_space_group_name_H-M   'P 1'
_cell_length_a   8.43486601
_cell_length_b   8.41292813
_cell_length_c   8.41292815
_cell_angle_alpha   154.19477355
_cell_angle_beta   90.41031571
_cell_angle_gamma   95.29595091
_symmetry_Int_Tables_number   1
_chemical_formula_structural   Sr3Mn2Co(NiP2)3
_chemical_formula_sum   'Sr3 Mn2 Co1 Ni3 P6'
_cell_volume   253.09938785
_cell_formula_units_Z   1
loop_
 _symmetry_equiv_pos_site_id
 _symmetry_equiv_pos_as_xyz
  1  'x, y, z'
loop_
 _atom_site_type_symbol
 _atom_site_label
 _atom_site_symmetry_multiplicity
 _atom_site_fract_x
 _atom_site_fract_y
 _atom_site_fract_z
 _atom_site_occupancy
  Sr  Sr0  1  0.331942  0.332778  0.999163  1
  Sr  Sr1  1  0.668223  0.667267  0.000955  1
  Sr  Sr2  1  0.999449  0.000277  0.999172  1
  Mn  Mn3  1  0.249193  0.501200  0.747994  1
  Mn  Mn4  1  0.751906  0.499959  0.251947  1
  Co  Co5  1  0.581073  0.830542  0.750530  1
  Ni  Ni6  1  0.082734  0.832179  0.250555  1
  Ni  Ni7  1  0.419017  0.167853  0.251165  1
  Ni  Ni8  1  0.916571  0.168020  0.748551  1
  P  P9  1  0.314732  0.666417  0.648314  1
  P  P10  1  0.686810  0.336359  0.350452  1
  P  P11  1  0.985881  0.338695  0.647186  1
  P  P12  1  0.351942  0.999544  0.352397  1
  P  P13  1  0.014636  0.662351  0.352286  1
  P  P14  1  0.645892  0.996560  0.649333  1
