# generated using pymatgen
data_Hf8CoBi4Ir
_symmetry_space_group_name_H-M   'P 1'
_cell_length_a   8.31810515
_cell_length_b   8.31807697
_cell_length_c   8.31810603
_cell_angle_alpha   95.67892482
_cell_angle_beta   95.67906000
_cell_angle_gamma   143.33044369
_symmetry_Int_Tables_number   1
_chemical_formula_structural   Hf8CoBi4Ir
_chemical_formula_sum   'Hf8 Co1 Bi4 Ir1'
_cell_volume   326.25998608
_cell_formula_units_Z   1
loop_
 _symmetry_equiv_pos_site_id
 _symmetry_equiv_pos_as_xyz
  1  'x, y, z'
loop_
 _atom_site_type_symbol
 _atom_site_label
 _atom_site_symmetry_multiplicity
 _atom_site_fract_x
 _atom_site_fract_y
 _atom_site_fract_z
 _atom_site_occupancy
  Hf  Hf0  1  0.702043  0.587179  0.280816  1
  Hf  Hf1  1  0.587179  0.306362  0.885140  1
  Hf  Hf2  1  0.078777  0.193638  0.280816  1
  Hf  Hf3  1  0.912822  0.797959  0.719185  1
  Hf  Hf4  1  0.193637  0.912821  0.114862  1
  Hf  Hf5  1  0.797957  0.078774  0.885139  1
  Hf  Hf6  1  0.306364  0.421226  0.719184  1
  Hf  Hf7  1  0.421226  0.702041  0.114862  1
  Co  Co8  1  0.750000  0.750000  0.000000  1
  Bi  Bi9  1  0.139036  0.639038  0.778072  1
  Bi  Bi10  1  0.360963  0.139034  0.499998  1
  Bi  Bi11  1  0.639033  0.860962  0.499998  1
  Bi  Bi12  1  0.860964  0.360966  0.221927  1
  Ir  Ir13  1  0.250000  0.250000  0.000000  1
