# generated using pymatgen
data_Zr4NbSi4
_symmetry_space_group_name_H-M   'P 1'
_cell_length_a   7.07556900
_cell_length_b   7.07556900
_cell_length_c   12.96309100
_cell_angle_alpha   90.00000000
_cell_angle_beta   90.00000000
_cell_angle_gamma   90.00000000
_symmetry_Int_Tables_number   1
_chemical_formula_structural   Zr4NbSi4
_chemical_formula_sum   'Zr16 Nb4 Si16'
_cell_volume   648.97999652
_cell_formula_units_Z   4
loop_
 _symmetry_equiv_pos_site_id
 _symmetry_equiv_pos_as_xyz
  1  'x, y, z'
loop_
 _atom_site_type_symbol
 _atom_site_label
 _atom_site_symmetry_multiplicity
 _atom_site_fract_x
 _atom_site_fract_y
 _atom_site_fract_z
 _atom_site_occupancy
  Zr  Zr0  1  0.354762  0.502855  0.376219  1
  Zr  Zr1  1  0.854762  0.997145  0.373781  1
  Zr  Zr2  1  0.002855  0.145238  0.126219  1
  Zr  Zr3  1  0.997145  0.854762  0.626219  1
  Zr  Zr4  1  0.645238  0.497145  0.876219  1
  Zr  Zr5  1  0.502855  0.354762  0.623781  1
  Zr  Zr6  1  0.497145  0.645238  0.123781  1
  Zr  Zr7  1  0.145238  0.002855  0.873781  1
  Zr  Zr8  1  0.999439  0.650595  0.033538  1
  Zr  Zr9  1  0.000561  0.349405  0.533538  1
  Zr  Zr10  1  0.650595  0.999439  0.966462  1
  Zr  Zr11  1  0.150595  0.500561  0.783538  1
  Zr  Zr12  1  0.849405  0.499439  0.283538  1
  Zr  Zr13  1  0.500561  0.150595  0.216462  1
  Zr  Zr14  1  0.499439  0.849405  0.716462  1
  Zr  Zr15  1  0.349405  0.000561  0.466462  1
  Nb  Nb16  1  0.675652  0.675652  0.500000  1
  Nb  Nb17  1  0.824348  0.175652  0.750000  1
  Nb  Nb18  1  0.175652  0.824348  0.250000  1
  Nb  Nb19  1  0.324348  0.324348  0.000000  1
  Si  Si20  1  0.049537  0.699622  0.435891  1
  Si  Si21  1  0.950463  0.300378  0.935891  1
  Si  Si22  1  0.699622  0.049537  0.564109  1
  Si  Si23  1  0.199622  0.450463  0.185891  1
  Si  Si24  1  0.800378  0.549537  0.685891  1
  Si  Si25  1  0.450463  0.199622  0.814109  1
  Si  Si26  1  0.549537  0.800378  0.314109  1
  Si  Si27  1  0.300378  0.950463  0.064109  1
  Si  Si28  1  0.852152  0.797732  0.821514  1
  Si  Si29  1  0.147848  0.202268  0.321514  1
  Si  Si30  1  0.797732  0.852152  0.178486  1
  Si  Si31  1  0.297732  0.647848  0.571514  1
  Si  Si32  1  0.702268  0.352152  0.071514  1
  Si  Si33  1  0.647848  0.297732  0.428486  1
  Si  Si34  1  0.352152  0.702268  0.928486  1
  Si  Si35  1  0.202268  0.147848  0.678486  1
