# generated using pymatgen
data_Er5(Hg2Pt)2
_symmetry_space_group_name_H-M   'P 1'
_cell_length_a   3.60448700
_cell_length_b   7.94422600
_cell_length_c   18.13351000
_cell_angle_alpha   90.00000000
_cell_angle_beta   90.00000000
_cell_angle_gamma   90.00000000
_symmetry_Int_Tables_number   1
_chemical_formula_structural   Er5(Hg2Pt)2
_chemical_formula_sum   'Er10 Hg8 Pt4'
_cell_volume   519.25050823
_cell_formula_units_Z   2
loop_
 _symmetry_equiv_pos_site_id
 _symmetry_equiv_pos_as_xyz
  1  'x, y, z'
loop_
 _atom_site_type_symbol
 _atom_site_label
 _atom_site_symmetry_multiplicity
 _atom_site_fract_x
 _atom_site_fract_y
 _atom_site_fract_z
 _atom_site_occupancy
  Er  Er0  1  0.000000  0.111607  0.414300  1
  Er  Er1  1  0.000000  0.888393  0.585700  1
  Er  Er2  1  0.000000  0.388393  0.914300  1
  Er  Er3  1  0.000000  0.611607  0.085700  1
  Er  Er4  1  0.000000  0.237973  0.215767  1
  Er  Er5  1  0.000000  0.762027  0.784233  1
  Er  Er6  1  0.000000  0.262027  0.715767  1
  Er  Er7  1  0.000000  0.737973  0.284233  1
  Er  Er8  1  0.000000  0.000000  0.000000  1
  Er  Er9  1  0.000000  0.500000  0.500000  1
  Hg  Hg10  1  0.500000  0.420990  0.355015  1
  Hg  Hg11  1  0.500000  0.579010  0.644985  1
  Hg  Hg12  1  0.500000  0.079010  0.855015  1
  Hg  Hg13  1  0.500000  0.920990  0.144985  1
  Hg  Hg14  1  0.500000  0.287170  0.061871  1
  Hg  Hg15  1  0.500000  0.712830  0.938129  1
  Hg  Hg16  1  0.500000  0.212830  0.561871  1
  Hg  Hg17  1  0.500000  0.787170  0.438129  1
  Pt  Pt18  1  0.500000  0.025700  0.302658  1
  Pt  Pt19  1  0.500000  0.974300  0.697342  1
  Pt  Pt20  1  0.500000  0.474300  0.802658  1
  Pt  Pt21  1  0.500000  0.525700  0.197342  1
