# generated using pymatgen
data_La2Gd3Er(RuO7)2
_symmetry_space_group_name_H-M   'P 1'
_cell_length_a   6.51602579
_cell_length_b   6.51437238
_cell_length_c   7.57169200
_cell_angle_alpha   90.00000000
_cell_angle_beta   90.00000000
_cell_angle_gamma   110.32014799
_symmetry_Int_Tables_number   1
_chemical_formula_structural   La2Gd3Er(RuO7)2
_chemical_formula_sum   'La2 Gd3 Er1 Ru2 O14'
_cell_volume   301.39996921
_cell_formula_units_Z   1
loop_
 _symmetry_equiv_pos_site_id
 _symmetry_equiv_pos_as_xyz
  1  'x, y, z'
loop_
 _atom_site_type_symbol
 _atom_site_label
 _atom_site_symmetry_multiplicity
 _atom_site_fract_x
 _atom_site_fract_y
 _atom_site_fract_z
 _atom_site_occupancy
  La  La0  1  0.000087  0.999454  0.501118  1
  La  La1  1  0.000087  0.999454  0.998882  1
  Gd  Gd2  1  0.521203  0.073776  0.250000  1
  Gd  Gd3  1  0.926844  0.478760  0.750000  1
  Gd  Gd4  1  0.074044  0.521119  0.250000  1
  Er  Er5  1  0.481231  0.930498  0.750000  1
  Ru  Ru6  1  0.499466  0.499781  0.501045  1
  Ru  Ru7  1  0.499466  0.499781  0.998955  1
  O  O8  1  0.585273  0.590551  0.750000  1
  O  O9  1  0.413889  0.413168  0.250000  1
  O  O10  1  0.833323  0.111427  0.750000  1
  O  O11  1  0.162184  0.887109  0.250000  1
  O  O12  1  0.121084  0.837552  0.750000  1
  O  O13  1  0.886536  0.161373  0.250000  1
  O  O14  1  0.443571  0.183967  0.959151  1
  O  O15  1  0.555110  0.815835  0.466512  1
  O  O16  1  0.183897  0.440053  0.961741  1
  O  O17  1  0.815062  0.558243  0.462208  1
  O  O18  1  0.443571  0.183967  0.540849  1
  O  O19  1  0.555110  0.815835  0.033488  1
  O  O20  1  0.815062  0.558243  0.037792  1
  O  O21  1  0.183897  0.440053  0.538259  1
