# generated using pymatgen
data_Dy13Er7(CoBi2)4
_symmetry_space_group_name_H-M   'P 1'
_cell_length_a   7.96686488
_cell_length_b   8.88927432
_cell_length_c   12.41852453
_cell_angle_alpha   89.95991154
_cell_angle_beta   90.06110530
_cell_angle_gamma   90.03138748
_symmetry_Int_Tables_number   1
_chemical_formula_structural   Dy13Er7(CoBi2)4
_chemical_formula_sum   'Dy13 Er7 Co4 Bi8'
_cell_volume   879.47468110
_cell_formula_units_Z   1
loop_
 _symmetry_equiv_pos_site_id
 _symmetry_equiv_pos_as_xyz
  1  'x, y, z'
loop_
 _atom_site_type_symbol
 _atom_site_label
 _atom_site_symmetry_multiplicity
 _atom_site_fract_x
 _atom_site_fract_y
 _atom_site_fract_z
 _atom_site_occupancy
  Dy  Dy0  1  0.347846  0.749914  0.699709  1
  Dy  Dy1  1  0.652200  0.250000  0.300122  1
  Dy  Dy2  1  0.847354  0.250271  0.800036  1
  Dy  Dy3  1  0.152214  0.749876  0.200097  1
  Dy  Dy4  1  0.883846  0.749663  0.811013  1
  Dy  Dy5  1  0.115200  0.250524  0.189084  1
  Dy  Dy6  1  0.384400  0.249932  0.688624  1
  Dy  Dy7  1  0.615591  0.750010  0.311339  1
  Dy  Dy8  1  0.176500  0.037686  0.936920  1
  Dy  Dy9  1  0.052330  0.749992  0.497668  1
  Dy  Dy10  1  0.947667  0.250054  0.502301  1
  Dy  Dy11  1  0.552816  0.250266  0.002277  1
  Dy  Dy12  1  0.448570  0.749649  0.997800  1
  Er  Er13  1  0.674379  0.537567  0.562918  1
  Er  Er14  1  0.325717  0.461868  0.437068  1
  Er  Er15  1  0.173916  0.462154  0.937323  1
  Er  Er16  1  0.325686  0.038225  0.437097  1
  Er  Er17  1  0.825888  0.538199  0.062865  1
  Er  Er18  1  0.674377  0.962467  0.562942  1
  Er  Er19  1  0.825498  0.961894  0.062865  1
  Co  Co20  1  0.064055  0.749355  0.992305  1
  Co  Co21  1  0.933987  0.250800  0.008115  1
  Co  Co22  1  0.564643  0.250006  0.507679  1
  Co  Co23  1  0.435291  0.749992  0.492242  1
  Bi  Bi24  1  0.571411  0.509284  0.826611  1
  Bi  Bi25  1  0.428375  0.490680  0.173366  1
  Bi  Bi26  1  0.071473  0.490674  0.673391  1
  Bi  Bi27  1  0.428203  0.009254  0.173375  1
  Bi  Bi28  1  0.928418  0.509366  0.326753  1
  Bi  Bi29  1  0.572402  0.990505  0.826384  1
  Bi  Bi30  1  0.928485  0.990597  0.326647  1
  Bi  Bi31  1  0.071261  0.009277  0.673060  1
