# generated using pymatgen
data_Zr24Pt5Rh3
_symmetry_space_group_name_H-M   'P 1'
_cell_length_a   10.82528800
_cell_length_b   10.95437890
_cell_length_c   5.70549344
_cell_angle_alpha   89.77071051
_cell_angle_beta   90.00000000
_cell_angle_gamma   90.00000000
_symmetry_Int_Tables_number   1
_chemical_formula_structural   Zr24Pt5Rh3
_chemical_formula_sum   'Zr24 Pt5 Rh3'
_cell_volume   676.57656450
_cell_formula_units_Z   1
loop_
 _symmetry_equiv_pos_site_id
 _symmetry_equiv_pos_as_xyz
  1  'x, y, z'
loop_
 _atom_site_type_symbol
 _atom_site_label
 _atom_site_symmetry_multiplicity
 _atom_site_fract_x
 _atom_site_fract_y
 _atom_site_fract_z
 _atom_site_occupancy
  Zr  Zr0  1  0.596704  0.095337  0.996617  1
  Zr  Zr1  1  0.290460  0.210101  0.000723  1
  Zr  Zr2  1  0.789521  0.292346  0.998522  1
  Zr  Zr3  1  0.096464  0.405053  0.996610  1
  Zr  Zr4  1  0.903558  0.595073  0.997221  1
  Zr  Zr5  1  0.210113  0.708481  0.996610  1
  Zr  Zr6  1  0.709766  0.791709  0.997771  1
  Zr  Zr7  1  0.405558  0.904285  0.999087  1
  Zr  Zr8  1  0.150074  0.000000  0.250001  1
  Zr  Zr9  1  0.848845  0.000000  0.250001  1
  Zr  Zr10  1  0.349256  0.500000  0.250001  1
  Zr  Zr11  1  0.651148  0.500000  0.250001  1
  Zr  Zr12  1  0.405558  0.095715  0.500912  1
  Zr  Zr13  1  0.709766  0.208291  0.502228  1
  Zr  Zr14  1  0.210113  0.291519  0.503389  1
  Zr  Zr15  1  0.903558  0.404927  0.502778  1
  Zr  Zr16  1  0.096464  0.594947  0.503389  1
  Zr  Zr17  1  0.789521  0.707654  0.501477  1
  Zr  Zr18  1  0.290460  0.789899  0.499276  1
  Zr  Zr19  1  0.596704  0.904663  0.503382  1
  Zr  Zr20  1  0.997225  0.149020  0.749878  1
  Zr  Zr21  1  0.500045  0.352484  0.749296  1
  Zr  Zr22  1  0.500045  0.647516  0.750704  1
  Zr  Zr23  1  0.997225  0.850980  0.750122  1
  Pt  Pt24  1  0.999879  0.203375  0.250398  1
  Pt  Pt25  1  0.500294  0.296860  0.249565  1
  Pt  Pt26  1  0.500294  0.703140  0.250437  1
  Pt  Pt27  1  0.999879  0.796625  0.249604  1
  Pt  Pt28  1  0.203415  0.000000  0.750000  1
  Rh  Rh29  1  0.798020  0.000000  0.750000  1
  Rh  Rh30  1  0.297631  0.500000  0.750000  1
  Rh  Rh31  1  0.702432  0.500000  0.750000  1
