# generated using pymatgen
data_Yb16Ce3ThSn16
_symmetry_space_group_name_H-M   'P 1'
_cell_length_a   7.86006610
_cell_length_b   8.30366919
_cell_length_c   15.92472400
_cell_angle_alpha   90.06557814
_cell_angle_beta   89.99096105
_cell_angle_gamma   89.85457772
_symmetry_Int_Tables_number   1
_chemical_formula_structural   Yb16Ce3ThSn16
_chemical_formula_sum   'Yb16 Ce3 Th1 Sn16'
_cell_volume   1039.36110892
_cell_formula_units_Z   1
loop_
 _symmetry_equiv_pos_site_id
 _symmetry_equiv_pos_as_xyz
  1  'x, y, z'
loop_
 _atom_site_type_symbol
 _atom_site_label
 _atom_site_symmetry_multiplicity
 _atom_site_fract_x
 _atom_site_fract_y
 _atom_site_fract_z
 _atom_site_occupancy
  Yb  Yb0  1  0.332550  0.828078  0.876784  1
  Yb  Yb1  1  0.831172  0.671346  0.624221  1
  Yb  Yb2  1  0.667415  0.172339  0.376379  1
  Yb  Yb3  1  0.168507  0.329223  0.124034  1
  Yb  Yb4  1  0.671193  0.167348  0.124530  1
  Yb  Yb5  1  0.171687  0.332866  0.374820  1
  Yb  Yb6  1  0.329028  0.831936  0.625171  1
  Yb  Yb7  1  0.829587  0.666702  0.875155  1
  Yb  Yb8  1  0.496649  0.313897  0.905378  1
  Yb  Yb9  1  0.996449  0.185139  0.594852  1
  Yb  Yb10  1  0.503837  0.685760  0.404630  1
  Yb  Yb11  1  0.003705  0.814842  0.094058  1
  Yb  Yb12  1  0.155143  0.505870  0.749654  1
  Yb  Yb13  1  0.655112  0.994092  0.750045  1
  Yb  Yb14  1  0.845036  0.495537  0.250051  1
  Yb  Yb15  1  0.344572  0.005225  0.249589  1
  Ce  Ce16  1  0.503962  0.684311  0.094232  1
  Ce  Ce17  1  0.004496  0.816922  0.405307  1
  Ce  Ce18  1  0.495570  0.316265  0.594885  1
  Th  Th19  1  0.994851  0.185083  0.905725  1
  Sn  Sn20  1  0.327931  0.027615  0.041131  1
  Sn  Sn21  1  0.830025  0.472427  0.459183  1
  Sn  Sn22  1  0.670803  0.971442  0.540792  1
  Sn  Sn23  1  0.171641  0.528564  0.959084  1
  Sn  Sn24  1  0.670610  0.961372  0.962705  1
  Sn  Sn25  1  0.170820  0.536008  0.537519  1
  Sn  Sn26  1  0.328276  0.035516  0.462559  1
  Sn  Sn27  1  0.828271  0.462729  0.037591  1
  Sn  Sn28  1  0.529245  0.601814  0.747971  1
  Sn  Sn29  1  0.029318  0.897624  0.753726  1
  Sn  Sn30  1  0.470838  0.398612  0.246565  1
  Sn  Sn31  1  0.970007  0.102892  0.253253  1
  Sn  Sn32  1  0.284974  0.146794  0.752051  1
  Sn  Sn33  1  0.785774  0.352606  0.748748  1
  Sn  Sn34  1  0.715379  0.853872  0.249701  1
  Sn  Sn35  1  0.215567  0.647332  0.247921  1
