# generated using pymatgen
data_Sc3Al2RhC
_symmetry_space_group_name_H-M   'P 1'
_cell_length_a   8.59456558
_cell_length_b   8.59456553
_cell_length_c   8.59456500
_cell_angle_alpha   59.99999819
_cell_angle_beta   59.99999837
_cell_angle_gamma   59.99999429
_symmetry_Int_Tables_number   1
_chemical_formula_structural   Sc3Al2RhC
_chemical_formula_sum   'Sc12 Al8 Rh4 C4'
_cell_volume   448.90736362
_cell_formula_units_Z   4
loop_
 _symmetry_equiv_pos_site_id
 _symmetry_equiv_pos_as_xyz
  1  'x, y, z'
loop_
 _atom_site_type_symbol
 _atom_site_label
 _atom_site_symmetry_multiplicity
 _atom_site_fract_x
 _atom_site_fract_y
 _atom_site_fract_z
 _atom_site_occupancy
  Sc  Sc0  1  0.946263  0.946263  0.553737  1
  Sc  Sc1  1  0.696263  0.303737  0.303737  1
  Sc  Sc2  1  0.303737  0.696263  0.696263  1
  Sc  Sc3  1  0.696263  0.696263  0.303737  1
  Sc  Sc4  1  0.696263  0.303737  0.696263  1
  Sc  Sc5  1  0.303737  0.696263  0.303737  1
  Sc  Sc6  1  0.553737  0.946263  0.553737  1
  Sc  Sc7  1  0.553737  0.946263  0.946263  1
  Sc  Sc8  1  0.946263  0.553737  0.553737  1
  Sc  Sc9  1  0.946263  0.553737  0.946263  1
  Sc  Sc10  1  0.303737  0.303737  0.696263  1
  Sc  Sc11  1  0.553737  0.553737  0.946263  1
  Al  Al12  1  0.920595  0.238217  0.920595  1
  Al  Al13  1  0.329405  0.329405  0.011783  1
  Al  Al14  1  0.011783  0.329405  0.329405  1
  Al  Al15  1  0.329405  0.329405  0.329405  1
  Al  Al16  1  0.238217  0.920595  0.920595  1
  Al  Al17  1  0.920595  0.920595  0.920595  1
  Al  Al18  1  0.920595  0.920595  0.238217  1
  Al  Al19  1  0.329405  0.011783  0.329405  1
  Rh  Rh20  1  0.125000  0.625000  0.125000  1
  Rh  Rh21  1  0.125000  0.125000  0.625000  1
  Rh  Rh22  1  0.625000  0.125000  0.125000  1
  Rh  Rh23  1  0.125000  0.125000  0.125000  1
  C  C24  1  0.625000  0.125000  0.625000  1
  C  C25  1  0.625000  0.625000  0.125000  1
  C  C26  1  0.125000  0.625000  0.625000  1
  C  C27  1  0.625000  0.625000  0.625000  1
