# generated using pymatgen
data_Si2Tc2Ni3MoP
_symmetry_space_group_name_H-M   'P 1'
_cell_length_a   5.88812231
_cell_length_b   5.88812272
_cell_length_c   3.72784200
_cell_angle_alpha   90.00000000
_cell_angle_beta   90.00000000
_cell_angle_gamma   120.24779408
_symmetry_Int_Tables_number   1
_chemical_formula_structural   Si2Tc2Ni3MoP
_chemical_formula_sum   'Si2 Tc2 Ni3 Mo1 P1'
_cell_volume   111.64826379
_cell_formula_units_Z   1
loop_
 _symmetry_equiv_pos_site_id
 _symmetry_equiv_pos_as_xyz
  1  'x, y, z'
loop_
 _atom_site_type_symbol
 _atom_site_label
 _atom_site_symmetry_multiplicity
 _atom_site_fract_x
 _atom_site_fract_y
 _atom_site_fract_z
 _atom_site_occupancy
  Si  Si0  1  0.671852  0.331785  0.000000  1
  Si  Si1  1  0.331785  0.671852  0.000000  1
  Tc  Tc2  1  0.998939  0.587879  0.500000  1
  Tc  Tc3  1  0.587879  0.998939  0.500000  1
  Ni  Ni4  1  0.752378  0.752378  0.000000  1
  Ni  Ni5  1  0.246118  0.002378  0.000000  1
  Ni  Ni6  1  0.002378  0.246118  0.000000  1
  Mo  Mo7  1  0.411960  0.411960  0.500000  1
  P  P8  1  0.996710  0.996710  0.500000  1
