# generated using pymatgen
data_K2MoF7
_symmetry_space_group_name_H-M   'P 1'
_cell_length_a   7.73013565
_cell_length_b   7.73013580
_cell_length_c   9.04738647
_cell_angle_alpha   54.46150948
_cell_angle_beta   54.46150942
_cell_angle_gamma   51.50290165
_symmetry_Int_Tables_number   1
_chemical_formula_structural   K2MoF7
_chemical_formula_sum   'K4 Mo2 F14'
_cell_volume   323.21614964
_cell_formula_units_Z   2
loop_
 _symmetry_equiv_pos_site_id
 _symmetry_equiv_pos_as_xyz
  1  'x, y, z'
loop_
 _atom_site_type_symbol
 _atom_site_label
 _atom_site_symmetry_multiplicity
 _atom_site_fract_x
 _atom_site_fract_y
 _atom_site_fract_z
 _atom_site_occupancy
  K  K0  1  0.722584  0.639177  0.732599  1
  K  K1  1  0.360823  0.277416  0.767401  1
  K  K2  1  0.277416  0.360823  0.267401  1
  K  K3  1  0.639177  0.722584  0.232599  1
  Mo  Mo4  1  0.080006  0.919994  0.750000  1
  Mo  Mo5  1  0.919994  0.080006  0.250000  1
  F  F6  1  0.069281  0.767311  0.020457  1
  F  F7  1  0.232689  0.930719  0.479543  1
  F  F8  1  0.930719  0.232689  0.979543  1
  F  F9  1  0.767311  0.069281  0.520457  1
  F  F10  1  0.945679  0.265414  0.609082  1
  F  F11  1  0.734586  0.054321  0.890918  1
  F  F12  1  0.054321  0.734586  0.390918  1
  F  F13  1  0.265414  0.945679  0.109082  1
  F  F14  1  0.986941  0.697040  0.798948  1
  F  F15  1  0.302960  0.013059  0.701052  1
  F  F16  1  0.013059  0.302960  0.201052  1
  F  F17  1  0.697040  0.986941  0.298948  1
  F  F18  1  0.379603  0.620397  0.750000  1
  F  F19  1  0.620397  0.379603  0.250000  1
