# generated using pymatgen
data_Dy2(LuAu2)5
_symmetry_space_group_name_H-M   'P 1'
_cell_length_a   8.65174173
_cell_length_b   8.65174246
_cell_length_c   10.27775500
_cell_angle_alpha   90.00000000
_cell_angle_beta   90.00000000
_cell_angle_gamma   107.39268558
_symmetry_Int_Tables_number   1
_chemical_formula_structural   Dy2(LuAu2)5
_chemical_formula_sum   'Dy4 Lu10 Au20'
_cell_volume   734.14277321
_cell_formula_units_Z   2
loop_
 _symmetry_equiv_pos_site_id
 _symmetry_equiv_pos_as_xyz
  1  'x, y, z'
loop_
 _atom_site_type_symbol
 _atom_site_label
 _atom_site_symmetry_multiplicity
 _atom_site_fract_x
 _atom_site_fract_y
 _atom_site_fract_z
 _atom_site_occupancy
  Dy  Dy0  1  0.311856  0.311856  0.188864  1
  Dy  Dy1  1  0.688144  0.688144  0.811136  1
  Dy  Dy2  1  0.188144  0.188144  0.688864  1
  Dy  Dy3  1  0.811856  0.811856  0.311136  1
  Lu  Lu4  1  0.694307  0.305693  0.000000  1
  Lu  Lu5  1  0.305693  0.694307  0.000000  1
  Lu  Lu6  1  0.805693  0.194307  0.500000  1
  Lu  Lu7  1  0.194307  0.805693  0.500000  1
  Lu  Lu8  1  0.000000  0.000000  0.000000  1
  Lu  Lu9  1  0.500000  0.500000  0.500000  1
  Lu  Lu10  1  0.002935  0.502935  0.250000  1
  Lu  Lu11  1  0.997065  0.497065  0.750000  1
  Lu  Lu12  1  0.497065  0.997065  0.750000  1
  Lu  Lu13  1  0.502935  0.002935  0.250000  1
  Au  Au14  1  0.860078  0.150780  0.208690  1
  Au  Au15  1  0.139922  0.849220  0.791310  1
  Au  Au16  1  0.639922  0.349220  0.708690  1
  Au  Au17  1  0.650780  0.360078  0.291310  1
  Au  Au18  1  0.360078  0.650780  0.291310  1
  Au  Au19  1  0.349220  0.639922  0.708690  1
  Au  Au20  1  0.849220  0.139922  0.791310  1
  Au  Au21  1  0.150780  0.860078  0.208690  1
  Au  Au22  1  0.938377  0.644606  0.003273  1
  Au  Au23  1  0.061623  0.355394  0.996727  1
  Au  Au24  1  0.561623  0.855394  0.503273  1
  Au  Au25  1  0.144606  0.438377  0.496727  1
  Au  Au26  1  0.438377  0.144606  0.496727  1
  Au  Au27  1  0.855394  0.561623  0.503273  1
  Au  Au28  1  0.355394  0.061623  0.996727  1
  Au  Au29  1  0.644606  0.938377  0.003273  1
  Au  Au30  1  0.104111  0.104111  0.397496  1
  Au  Au31  1  0.895889  0.895889  0.602504  1
  Au  Au32  1  0.395889  0.395889  0.897496  1
  Au  Au33  1  0.604111  0.604111  0.102504  1
