# generated using pymatgen
data_RbBe2As3O10
_symmetry_space_group_name_H-M   'P 1'
_cell_length_a   8.02805110
_cell_length_b   8.02805120
_cell_length_c   9.50812117
_cell_angle_alpha   66.60299374
_cell_angle_beta   66.60299228
_cell_angle_gamma   69.72868226
_symmetry_Int_Tables_number   1
_chemical_formula_structural   RbBe2As3O10
_chemical_formula_sum   'Rb2 Be4 As6 O20'
_cell_volume   503.03381729
_cell_formula_units_Z   2
loop_
 _symmetry_equiv_pos_site_id
 _symmetry_equiv_pos_as_xyz
  1  'x, y, z'
loop_
 _atom_site_type_symbol
 _atom_site_label
 _atom_site_symmetry_multiplicity
 _atom_site_fract_x
 _atom_site_fract_y
 _atom_site_fract_z
 _atom_site_occupancy
  Rb  Rb0  1  0.690917  0.309083  0.250000  1
  Rb  Rb1  1  0.309083  0.690917  0.750000  1
  Be  Be2  1  0.701804  0.788143  0.935116  1
  Be  Be3  1  0.298196  0.211857  0.064884  1
  Be  Be4  1  0.211857  0.298196  0.564884  1
  Be  Be5  1  0.788143  0.701804  0.435116  1
  As  As6  1  0.867155  0.504325  0.750735  1
  As  As7  1  0.504325  0.867155  0.250735  1
  As  As8  1  0.132845  0.495675  0.249265  1
  As  As9  1  0.120518  0.879482  0.250000  1
  As  As10  1  0.879482  0.120518  0.750000  1
  As  As11  1  0.495675  0.132845  0.749265  1
  O  O12  1  0.613484  0.727899  0.130395  1
  O  O13  1  0.386516  0.272101  0.869605  1
  O  O14  1  0.272101  0.386516  0.369605  1
  O  O15  1  0.900437  0.540378  0.344318  1
  O  O16  1  0.722387  0.192986  0.637241  1
  O  O17  1  0.093335  0.135201  0.620213  1
  O  O18  1  0.807014  0.277613  0.862759  1
  O  O19  1  0.190230  0.413249  0.094722  1
  O  O20  1  0.727899  0.613484  0.630395  1
  O  O21  1  0.277613  0.807014  0.362759  1
  O  O22  1  0.540378  0.900437  0.844318  1
  O  O23  1  0.864799  0.906665  0.879787  1
  O  O24  1  0.459622  0.099563  0.155682  1
  O  O25  1  0.099563  0.459622  0.655682  1
  O  O26  1  0.586751  0.809770  0.405278  1
  O  O27  1  0.906665  0.864799  0.379787  1
  O  O28  1  0.192986  0.722387  0.137241  1
  O  O29  1  0.413249  0.190230  0.594722  1
  O  O30  1  0.809770  0.586751  0.905278  1
  O  O31  1  0.135201  0.093335  0.120213  1
