# generated using pymatgen
data_SmEr3Pu2O12
_symmetry_space_group_name_H-M   'P 1'
_cell_length_a   5.53644600
_cell_length_b   7.89411671
_cell_length_c   11.75832000
_cell_angle_alpha   75.38195323
_cell_angle_beta   90.00000000
_cell_angle_gamma   90.00000000
_symmetry_Int_Tables_number   1
_chemical_formula_structural   SmEr3Pu2O12
_chemical_formula_sum   'Sm2 Er6 Pu4 O24'
_cell_volume   497.26636969
_cell_formula_units_Z   2
loop_
 _symmetry_equiv_pos_site_id
 _symmetry_equiv_pos_as_xyz
  1  'x, y, z'
loop_
 _atom_site_type_symbol
 _atom_site_label
 _atom_site_symmetry_multiplicity
 _atom_site_fract_x
 _atom_site_fract_y
 _atom_site_fract_z
 _atom_site_occupancy
  Sm  Sm0  1  0.693841  0.500000  0.750000  1
  Sm  Sm1  1  0.306159  0.500000  0.250000  1
  Er  Er2  1  0.747060  0.000000  0.750000  1
  Er  Er3  1  0.252940  0.000000  0.250000  1
  Er  Er4  1  0.184223  0.794275  0.578891  1
  Er  Er5  1  0.815777  0.794275  0.078891  1
  Er  Er6  1  0.184223  0.205725  0.921109  1
  Er  Er7  1  0.815777  0.205725  0.421109  1
  Pu  Pu8  1  0.257071  0.728725  0.883662  1
  Pu  Pu9  1  0.742929  0.728725  0.383662  1
  Pu  Pu10  1  0.257071  0.271275  0.616338  1
  Pu  Pu11  1  0.742929  0.271275  0.116338  1
  O  O12  1  0.043674  0.949737  0.896006  1
  O  O13  1  0.559636  0.849798  0.931922  1
  O  O14  1  0.956326  0.949737  0.396006  1
  O  O15  1  0.452905  0.802045  0.724005  1
  O  O16  1  0.440364  0.849798  0.431922  1
  O  O17  1  0.966945  0.718283  0.765398  1
  O  O18  1  0.547095  0.802045  0.224005  1
  O  O19  1  0.866710  0.638300  0.551061  1
  O  O20  1  0.371487  0.485522  0.882015  1
  O  O21  1  0.033055  0.718283  0.265398  1
  O  O22  1  0.371487  0.514478  0.617985  1
  O  O23  1  0.866710  0.361700  0.948939  1
  O  O24  1  0.133290  0.638300  0.051061  1
  O  O25  1  0.628513  0.485522  0.382015  1
  O  O26  1  0.966945  0.281717  0.734602  1
  O  O27  1  0.628513  0.514478  0.117985  1
  O  O28  1  0.133290  0.361700  0.448939  1
  O  O29  1  0.452905  0.197955  0.775995  1
  O  O30  1  0.033055  0.281717  0.234602  1
  O  O31  1  0.559636  0.150202  0.568078  1
  O  O32  1  0.547095  0.197955  0.275995  1
  O  O33  1  0.043674  0.050263  0.603994  1
  O  O34  1  0.440364  0.150202  0.068078  1
  O  O35  1  0.956326  0.050263  0.103994  1
