# generated using pymatgen
data_Tb12Ga7Si12Ag
_symmetry_space_group_name_H-M   'P 1'
_cell_length_a   5.98087546
_cell_length_b   9.41316270
_cell_length_c   11.64499144
_cell_angle_alpha   89.76583845
_cell_angle_beta   89.85390186
_cell_angle_gamma   90.04846164
_symmetry_Int_Tables_number   1
_chemical_formula_structural   Tb12Ga7Si12Ag
_chemical_formula_sum   'Tb12 Ga7 Si12 Ag1'
_cell_volume   655.59298816
_cell_formula_units_Z   1
loop_
 _symmetry_equiv_pos_site_id
 _symmetry_equiv_pos_as_xyz
  1  'x, y, z'
loop_
 _atom_site_type_symbol
 _atom_site_label
 _atom_site_symmetry_multiplicity
 _atom_site_fract_x
 _atom_site_fract_y
 _atom_site_fract_z
 _atom_site_occupancy
  Tb  Tb0  1  0.866417  0.745814  0.079898  1
  Tb  Tb1  1  0.632893  0.749673  0.581185  1
  Tb  Tb2  1  0.135730  0.251345  0.917127  1
  Tb  Tb3  1  0.367745  0.251343  0.419962  1
  Tb  Tb4  1  0.875433  0.497840  0.349016  1
  Tb  Tb5  1  0.618884  0.998445  0.847661  1
  Tb  Tb6  1  0.123631  0.998610  0.651521  1
  Tb  Tb7  1  0.376308  0.501064  0.151880  1
  Tb  Tb8  1  0.123783  0.500823  0.651099  1
  Tb  Tb9  1  0.374841  0.997741  0.152227  1
  Tb  Tb10  1  0.877072  0.002030  0.352682  1
  Tb  Tb11  1  0.622474  0.499556  0.848093  1
  Ga  Ga12  1  0.635953  0.445690  0.589389  1
  Ga  Ga13  1  0.135023  0.555207  0.910450  1
  Ga  Ga14  1  0.365665  0.945730  0.410625  1
  Ga  Ga15  1  0.129193  0.944542  0.913163  1
  Ga  Ga16  1  0.365516  0.555970  0.411113  1
  Ga  Ga17  1  0.864974  0.441401  0.088622  1
  Ga  Ga18  1  0.635518  0.054171  0.589139  1
  Si  Si19  1  0.159712  0.749949  0.277684  1
  Si  Si20  1  0.336951  0.750547  0.777447  1
  Si  Si21  1  0.838511  0.249088  0.721655  1
  Si  Si22  1  0.663252  0.248887  0.221774  1
  Si  Si23  1  0.401426  0.750209  0.990344  1
  Si  Si24  1  0.104880  0.749891  0.491813  1
  Si  Si25  1  0.591518  0.252514  0.009084  1
  Si  Si26  1  0.896855  0.250255  0.509193  1
  Si  Si27  1  0.585802  0.751087  0.295976  1
  Si  Si28  1  0.917692  0.750069  0.797446  1
  Si  Si29  1  0.418066  0.249761  0.701474  1
  Si  Si30  1  0.084772  0.252962  0.206598  1
  Ag  Ag31  1  0.873512  0.057788  0.084661  1
