# generated using pymatgen
data_PuTh5PtCl15
_symmetry_space_group_name_H-M   'P 1'
_cell_length_a   9.91808362
_cell_length_b   9.91802547
_cell_length_c   9.91802600
_cell_angle_alpha   109.36534680
_cell_angle_beta   109.52426825
_cell_angle_gamma   109.52457127
_symmetry_Int_Tables_number   1
_chemical_formula_structural   PuTh5PtCl15
_chemical_formula_sum   'Pu1 Th5 Pt1 Cl15'
_cell_volume   751.02205181
_cell_formula_units_Z   1
loop_
 _symmetry_equiv_pos_site_id
 _symmetry_equiv_pos_as_xyz
  1  'x, y, z'
loop_
 _atom_site_type_symbol
 _atom_site_label
 _atom_site_symmetry_multiplicity
 _atom_site_fract_x
 _atom_site_fract_y
 _atom_site_fract_z
 _atom_site_occupancy
  Pu  Pu0  1  0.999516  0.252162  0.252162  1
  Th  Th1  1  0.000108  0.747712  0.747713  1
  Th  Th2  1  0.248701  0.003926  0.252504  1
  Th  Th3  1  0.751332  0.003652  0.755013  1
  Th  Th4  1  0.248701  0.252503  0.003926  1
  Th  Th5  1  0.751332  0.755014  0.003653  1
  Pt  Pt6  1  0.000016  0.995908  0.995908  1
  Cl  Cl7  1  0.487923  0.243618  0.243617  1
  Cl  Cl8  1  0.512233  0.755812  0.755814  1
  Cl  Cl9  1  0.000060  0.243425  0.755774  1
  Cl  Cl10  1  0.000059  0.755773  0.243425  1
  Cl  Cl11  1  0.246939  0.487966  0.241817  1
  Cl  Cl12  1  0.752825  0.994617  0.241007  1
  Cl  Cl13  1  0.756536  0.514288  0.757913  1
  Cl  Cl14  1  0.243561  0.001441  0.757830  1
  Cl  Cl15  1  0.246940  0.241819  0.487967  1
  Cl  Cl16  1  0.756537  0.757914  0.514288  1
  Cl  Cl17  1  0.752826  0.241009  0.994618  1
  Cl  Cl18  1  0.243563  0.757831  0.001441  1
  Cl  Cl19  1  0.000190  0.504634  0.504633  1
  Cl  Cl20  1  0.500054  0.994497  0.494478  1
  Cl  Cl21  1  0.500052  0.494477  0.994496  1
