# generated using pymatgen
data_Ta3Nb(NiB2)4
_symmetry_space_group_name_H-M   'P 1'
_cell_length_a   3.12216200
_cell_length_b   6.04233200
_cell_length_c   8.18863800
_cell_angle_alpha   90.00302853
_cell_angle_beta   90.00000000
_cell_angle_gamma   90.00000000
_symmetry_Int_Tables_number   1
_chemical_formula_structural   Ta3Nb(NiB2)4
_chemical_formula_sum   'Ta3 Nb1 Ni4 B8'
_cell_volume   154.47979695
_cell_formula_units_Z   1
loop_
 _symmetry_equiv_pos_site_id
 _symmetry_equiv_pos_as_xyz
  1  'x, y, z'
loop_
 _atom_site_type_symbol
 _atom_site_label
 _atom_site_symmetry_multiplicity
 _atom_site_fract_x
 _atom_site_fract_y
 _atom_site_fract_z
 _atom_site_occupancy
  Ta  Ta0  1  0.750000  0.867475  0.132830  1
  Ta  Ta1  1  0.250000  0.632717  0.632670  1
  Ta  Ta2  1  0.750000  0.367663  0.367515  1
  Nb  Nb3  1  0.250000  0.132103  0.867660  1
  Ni  Ni4  1  0.750000  0.499847  0.883938  1
  Ni  Ni5  1  0.750000  0.998745  0.615385  1
  Ni  Ni6  1  0.250000  0.500917  0.116171  1
  Ni  Ni7  1  0.250000  0.001170  0.383859  1
  B  B8  1  0.250000  0.172102  0.167991  1
  B  B9  1  0.750000  0.827362  0.831942  1
  B  B10  1  0.250000  0.672032  0.332367  1
  B  B11  1  0.750000  0.328264  0.667092  1
  B  B12  1  0.250000  0.242325  0.575901  1
  B  B13  1  0.750000  0.258287  0.076931  1
  B  B14  1  0.250000  0.741419  0.923919  1
  B  B15  1  0.750000  0.757571  0.423830  1
