# generated using pymatgen
data_Sc4Ga2TcOs5
_symmetry_space_group_name_H-M   'P 1'
_cell_length_a   5.24243400
_cell_length_b   5.22428705
_cell_length_c   8.57634200
_cell_angle_alpha   90.00000000
_cell_angle_beta   90.00000000
_cell_angle_gamma   120.11498429
_symmetry_Int_Tables_number   1
_chemical_formula_structural   Sc4Ga2TcOs5
_chemical_formula_sum   'Sc4 Ga2 Tc1 Os5'
_cell_volume   203.18346381
_cell_formula_units_Z   1
loop_
 _symmetry_equiv_pos_site_id
 _symmetry_equiv_pos_as_xyz
  1  'x, y, z'
loop_
 _atom_site_type_symbol
 _atom_site_label
 _atom_site_symmetry_multiplicity
 _atom_site_fract_x
 _atom_site_fract_y
 _atom_site_fract_z
 _atom_site_occupancy
  Sc  Sc0  1  0.336525  0.673051  0.427402  1
  Sc  Sc1  1  0.673534  0.347065  0.556214  1
  Sc  Sc2  1  0.673534  0.347065  0.943786  1
  Sc  Sc3  1  0.336525  0.673051  0.072598  1
  Ga  Ga4  1  0.160906  0.810836  0.750000  1
  Ga  Ga5  1  0.649933  0.810836  0.750000  1
  Tc  Tc6  1  0.160339  0.320676  0.750000  1
  Os  Os7  1  0.336221  0.166286  0.250000  1
  Os  Os8  1  0.823115  0.646232  0.250000  1
  Os  Os9  1  0.009653  0.019307  0.997620  1
  Os  Os10  1  0.830066  0.166286  0.250000  1
  Os  Os11  1  0.009653  0.019307  0.502380  1
