# generated using pymatgen
data_BeV10B3P2
_symmetry_space_group_name_H-M   'P 1'
_cell_length_a   5.77915482
_cell_length_b   5.77915428
_cell_length_c   6.71997085
_cell_angle_alpha   115.58243984
_cell_angle_beta   115.58243933
_cell_angle_gamma   89.75871522
_symmetry_Int_Tables_number   1
_chemical_formula_structural   BeV10B3P2
_chemical_formula_sum   'Be1 V10 B3 P2'
_cell_volume   177.94876469
_cell_formula_units_Z   1
loop_
 _symmetry_equiv_pos_site_id
 _symmetry_equiv_pos_as_xyz
  1  'x, y, z'
loop_
 _atom_site_type_symbol
 _atom_site_label
 _atom_site_symmetry_multiplicity
 _atom_site_fract_x
 _atom_site_fract_y
 _atom_site_fract_z
 _atom_site_occupancy
  Be  Be0  1  0.618236  0.118236  0.000000  1
  V  V1  1  0.498897  0.504104  0.000000  1
  V  V2  1  0.004104  0.998897  0.000000  1
  V  V3  1  0.030318  0.530318  0.721954  1
  V  V4  1  0.693813  0.193813  0.716033  1
  V  V5  1  0.185430  0.029000  0.718941  1
  V  V6  1  0.529000  0.685430  0.718941  1
  V  V7  1  0.977781  0.477781  0.283967  1
  V  V8  1  0.308366  0.808366  0.278046  1
  V  V9  1  0.810061  0.966491  0.281059  1
  V  V10  1  0.466491  0.310061  0.281059  1
  B  B11  1  0.381596  0.881596  0.000000  1
  B  B12  1  0.884648  0.615032  0.000000  1
  B  B13  1  0.115032  0.384648  0.000000  1
  P  P14  1  0.248114  0.248114  0.500000  1
  P  P15  1  0.748114  0.748114  0.500000  1
