# generated using pymatgen
data_HoTm9Ru3Rh
_symmetry_space_group_name_H-M   'P 1'
_cell_length_a   6.24817621
_cell_length_b   7.24432163
_cell_length_c   8.34454111
_cell_angle_alpha   96.83604368
_cell_angle_beta   111.90574913
_cell_angle_gamma   90.08177214
_symmetry_Int_Tables_number   1
_chemical_formula_structural   HoTm9Ru3Rh
_chemical_formula_sum   'Ho1 Tm9 Ru3 Rh1'
_cell_volume   347.51258550
_cell_formula_units_Z   1
loop_
 _symmetry_equiv_pos_site_id
 _symmetry_equiv_pos_as_xyz
  1  'x, y, z'
loop_
 _atom_site_type_symbol
 _atom_site_label
 _atom_site_symmetry_multiplicity
 _atom_site_fract_x
 _atom_site_fract_y
 _atom_site_fract_z
 _atom_site_occupancy
  Ho  Ho0  1  0.792244  0.081730  0.814571  1
  Tm  Tm1  1  0.979572  0.415341  0.188785  1
  Tm  Tm2  1  0.208903  0.915478  0.186294  1
  Tm  Tm3  1  0.024671  0.585745  0.814710  1
  Tm  Tm4  1  0.203079  0.182894  0.563411  1
  Tm  Tm5  1  0.642328  0.315562  0.432823  1
  Tm  Tm6  1  0.793370  0.815232  0.434655  1
  Tm  Tm7  1  0.357018  0.686072  0.563633  1
  Tm  Tm8  1  0.418735  0.249322  0.001041  1
  Tm  Tm9  1  0.580556  0.751778  0.001218  1
  Ru  Ru10  1  0.823794  0.077161  0.219714  1
  Ru  Ru11  1  0.396140  0.575870  0.220563  1
  Ru  Ru12  1  0.178252  0.923478  0.779653  1
  Rh  Rh13  1  0.601337  0.424336  0.778929  1
