# generated using pymatgen
data_Tb6Dy5HoIr4
_symmetry_space_group_name_H-M   'P 1'
_cell_length_a   6.40613145
_cell_length_b   7.25283403
_cell_length_c   9.27570203
_cell_angle_alpha   89.99604878
_cell_angle_beta   90.18341133
_cell_angle_gamma   90.00918548
_symmetry_Int_Tables_number   1
_chemical_formula_structural   Tb6Dy5HoIr4
_chemical_formula_sum   'Tb6 Dy5 Ho1 Ir4'
_cell_volume   430.97109416
_cell_formula_units_Z   1
loop_
 _symmetry_equiv_pos_site_id
 _symmetry_equiv_pos_as_xyz
  1  'x, y, z'
loop_
 _atom_site_type_symbol
 _atom_site_label
 _atom_site_symmetry_multiplicity
 _atom_site_fract_x
 _atom_site_fract_y
 _atom_site_fract_z
 _atom_site_occupancy
  Tb  Tb0  1  0.328306  0.676971  0.062431  1
  Tb  Tb1  1  0.171695  0.176978  0.437497  1
  Tb  Tb2  1  0.868674  0.534175  0.250235  1
  Tb  Tb3  1  0.631348  0.034234  0.249707  1
  Tb  Tb4  1  0.130462  0.465742  0.749931  1
  Tb  Tb5  1  0.369521  0.965770  0.750136  1
  Dy  Dy6  1  0.671306  0.323499  0.563331  1
  Dy  Dy7  1  0.828727  0.823543  0.936717  1
  Dy  Dy8  1  0.671489  0.323099  0.936815  1
  Dy  Dy9  1  0.828536  0.823118  0.563228  1
  Dy  Dy10  1  0.328890  0.676509  0.437344  1
  Ho  Ho11  1  0.171089  0.176479  0.062704  1
  Ir  Ir12  1  0.048317  0.882754  0.249901  1
  Ir  Ir13  1  0.451604  0.382608  0.249969  1
  Ir  Ir14  1  0.950772  0.117264  0.750805  1
  Ir  Ir15  1  0.549264  0.617255  0.749249  1
