# generated using pymatgen
data_KZnRhF6
_symmetry_space_group_name_H-M   'P 1'
_cell_length_a   5.47224800
_cell_length_b   5.47224769
_cell_length_c   11.24380500
_cell_angle_alpha   90.00000000
_cell_angle_beta   90.00000000
_cell_angle_gamma   119.99998980
_symmetry_Int_Tables_number   1
_chemical_formula_structural   KZnRhF6
_chemical_formula_sum   'K2 Zn2 Rh2 F12'
_cell_volume   291.59192904
_cell_formula_units_Z   2
loop_
 _symmetry_equiv_pos_site_id
 _symmetry_equiv_pos_as_xyz
  1  'x, y, z'
loop_
 _atom_site_type_symbol
 _atom_site_label
 _atom_site_symmetry_multiplicity
 _atom_site_fract_x
 _atom_site_fract_y
 _atom_site_fract_z
 _atom_site_occupancy
  K  K0  1  0.000000  0.000000  0.250000  1
  K  K1  1  0.000000  0.000000  0.750000  1
  Zn  Zn2  1  0.666667  0.333333  0.000000  1
  Zn  Zn3  1  0.333333  0.666666  0.500000  1
  Rh  Rh4  1  0.333333  0.666666  0.000000  1
  Rh  Rh5  1  0.666667  0.333333  0.500000  1
  F  F6  1  0.008523  0.372137  0.096713  1
  F  F7  1  0.627862  0.636386  0.096713  1
  F  F8  1  0.363615  0.991476  0.096713  1
  F  F9  1  0.636386  0.008524  0.403289  1
  F  F10  1  0.372138  0.363614  0.403289  1
  F  F11  1  0.991476  0.627862  0.403289  1
  F  F12  1  0.372137  0.008524  0.596712  1
  F  F13  1  0.991477  0.363614  0.596712  1
  F  F14  1  0.636386  0.627862  0.596712  1
  F  F15  1  0.363615  0.372137  0.903288  1
  F  F16  1  0.008524  0.636386  0.903288  1
  F  F17  1  0.627861  0.991476  0.903288  1
