# generated using pymatgen
data_NdEu4YTa2O12
_symmetry_space_group_name_H-M   'P 1'
_cell_length_a   5.99510065
_cell_length_b   5.82359435
_cell_length_c   10.14239647
_cell_angle_alpha   55.32758817
_cell_angle_beta   90.10095532
_cell_angle_gamma   90.02622792
_symmetry_Int_Tables_number   1
_chemical_formula_structural   NdEu4YTa2O12
_chemical_formula_sum   'Nd1 Eu4 Y1 Ta2 O12'
_cell_volume   291.21922761
_cell_formula_units_Z   1
loop_
 _symmetry_equiv_pos_site_id
 _symmetry_equiv_pos_as_xyz
  1  'x, y, z'
loop_
 _atom_site_type_symbol
 _atom_site_label
 _atom_site_symmetry_multiplicity
 _atom_site_fract_x
 _atom_site_fract_y
 _atom_site_fract_z
 _atom_site_occupancy
  Nd  Nd0  1  0.000000  0.000000  0.000000  1
  Eu  Eu1  1  0.451742  0.267375  0.747129  1
  Eu  Eu2  1  0.949904  0.739814  0.745751  1
  Eu  Eu3  1  0.050096  0.260186  0.254249  1
  Eu  Eu4  1  0.548258  0.732625  0.252871  1
  Y  Y5  1  0.500000  0.000000  0.500000  1
  Ta  Ta6  1  0.500000  0.500000  0.000000  1
  Ta  Ta7  1  0.000000  0.500000  0.500000  1
  O  O8  1  0.723703  0.633291  0.556548  1
  O  O9  1  0.221915  0.382393  0.940491  1
  O  O10  1  0.276297  0.366709  0.443452  1
  O  O11  1  0.778085  0.617607  0.059509  1
  O  O12  1  0.194710  0.727900  0.549311  1
  O  O13  1  0.682943  0.274224  0.946875  1
  O  O14  1  0.805290  0.272100  0.450689  1
  O  O15  1  0.317057  0.725776  0.053125  1
  O  O16  1  0.036335  0.168452  0.728049  1
  O  O17  1  0.535379  0.833848  0.766422  1
  O  O18  1  0.963665  0.831548  0.271951  1
  O  O19  1  0.464621  0.166152  0.233578  1
