# generated using pymatgen
data_Tb8Hf11Si16Hg
_symmetry_space_group_name_H-M   'P 1'
_cell_length_a   7.30663958
_cell_length_b   7.30663958
_cell_length_c   13.30761299
_cell_angle_alpha   89.78103184
_cell_angle_beta   90.21896816
_cell_angle_gamma   89.76571326
_symmetry_Int_Tables_number   1
_chemical_formula_structural   Tb8Hf11Si16Hg
_chemical_formula_sum   'Tb8 Hf11 Si16 Hg1'
_cell_volume   710.43693665
_cell_formula_units_Z   1
loop_
 _symmetry_equiv_pos_site_id
 _symmetry_equiv_pos_as_xyz
  1  'x, y, z'
loop_
 _atom_site_type_symbol
 _atom_site_label
 _atom_site_symmetry_multiplicity
 _atom_site_fract_x
 _atom_site_fract_y
 _atom_site_fract_z
 _atom_site_occupancy
  Tb  Tb0  1  0.997619  0.345823  0.211647  1
  Tb  Tb1  1  0.004248  0.656876  0.715977  1
  Tb  Tb2  1  0.155094  0.495883  0.465133  1
  Tb  Tb3  1  0.499289  0.846891  0.032958  1
  Tb  Tb4  1  0.846891  0.499289  0.967042  1
  Tb  Tb5  1  0.495883  0.155094  0.534867  1
  Tb  Tb6  1  0.345823  0.997619  0.788353  1
  Tb  Tb7  1  0.656876  0.004248  0.284023  1
  Hf  Hf8  1  0.824583  0.824583  0.500000  1
  Hf  Hf9  1  0.323534  0.676280  0.250034  1
  Hf  Hf10  1  0.676280  0.323534  0.749966  1
  Hf  Hf11  1  0.145390  0.996795  0.375112  1
  Hf  Hf12  1  0.855932  0.002762  0.877877  1
  Hf  Hf13  1  0.504695  0.647335  0.626106  1
  Hf  Hf14  1  0.355399  0.491334  0.877594  1
  Hf  Hf15  1  0.491334  0.355399  0.122406  1
  Hf  Hf16  1  0.647335  0.504695  0.373894  1
  Hf  Hf17  1  0.996795  0.145390  0.624888  1
  Hf  Hf18  1  0.002762  0.855932  0.122123  1
  Si  Si19  1  0.360506  0.295730  0.317002  1
  Si  Si20  1  0.639497  0.703806  0.819080  1
  Si  Si21  1  0.206949  0.861265  0.568488  1
  Si  Si22  1  0.130815  0.772951  0.926827  1
  Si  Si23  1  0.772951  0.130815  0.073173  1
  Si  Si24  1  0.861265  0.206949  0.431512  1
  Si  Si25  1  0.295730  0.360506  0.682998  1
  Si  Si26  1  0.703806  0.639497  0.180920  1
  Si  Si27  1  0.298507  0.047943  0.192754  1
  Si  Si28  1  0.705083  0.950937  0.686268  1
  Si  Si29  1  0.450253  0.794756  0.436006  1
  Si  Si30  1  0.211131  0.569765  0.065157  1
  Si  Si31  1  0.569765  0.211131  0.934843  1
  Si  Si32  1  0.794756  0.450253  0.563994  1
  Si  Si33  1  0.047943  0.298507  0.807246  1
  Si  Si34  1  0.950937  0.705083  0.313732  1
  Hg  Hg35  1  0.174343  0.174343  0.000000  1
