# generated using pymatgen
data_Tb4Nd16Ir5Rh7
_symmetry_space_group_name_H-M   'P 1'
_cell_length_a   11.19075423
_cell_length_b   11.19075423
_cell_length_c   6.57458521
_cell_angle_alpha   90.02075221
_cell_angle_beta   90.02075221
_cell_angle_gamma   90.01086258
_symmetry_Int_Tables_number   1
_chemical_formula_structural   Tb4Nd16Ir5Rh7
_chemical_formula_sum   'Tb4 Nd16 Ir5 Rh7'
_cell_volume   823.35477811
_cell_formula_units_Z   1
loop_
 _symmetry_equiv_pos_site_id
 _symmetry_equiv_pos_as_xyz
  1  'x, y, z'
loop_
 _atom_site_type_symbol
 _atom_site_label
 _atom_site_symmetry_multiplicity
 _atom_site_fract_x
 _atom_site_fract_y
 _atom_site_fract_z
 _atom_site_occupancy
  Tb  Tb0  1  0.000181  0.999640  0.499980  1
  Tb  Tb1  1  0.000360  0.999819  0.000020  1
  Tb  Tb2  1  0.499930  0.499910  0.000218  1
  Tb  Tb3  1  0.500090  0.500070  0.499782  1
  Nd  Nd4  1  0.289924  0.088400  0.381281  1
  Nd  Nd5  1  0.289723  0.909539  0.882943  1
  Nd  Nd6  1  0.709599  0.089928  0.882139  1
  Nd  Nd7  1  0.709290  0.910061  0.381773  1
  Nd  Nd8  1  0.587432  0.788288  0.883412  1
  Nd  Nd9  1  0.587180  0.211624  0.383345  1
  Nd  Nd10  1  0.410950  0.788707  0.383344  1
  Nd  Nd11  1  0.412493  0.211586  0.883153  1
  Nd  Nd12  1  0.211712  0.412568  0.616588  1
  Nd  Nd13  1  0.211293  0.589050  0.116656  1
  Nd  Nd14  1  0.788376  0.412820  0.116655  1
  Nd  Nd15  1  0.788414  0.587507  0.616847  1
  Nd  Nd16  1  0.911600  0.710076  0.118719  1
  Nd  Nd17  1  0.910072  0.290401  0.617861  1
  Nd  Nd18  1  0.090461  0.710277  0.617057  1
  Nd  Nd19  1  0.089939  0.290710  0.118227  1
  Ir  Ir20  1  0.149296  0.850704  0.250000  1
  Ir  Ir21  1  0.650888  0.349112  0.750000  1
  Ir  Ir22  1  0.650932  0.650757  0.249955  1
  Ir  Ir23  1  0.349243  0.349068  0.250045  1
  Ir  Ir24  1  0.349572  0.650428  0.750000  1
  Rh  Rh25  1  0.850565  0.149435  0.250000  1
  Rh  Rh26  1  0.850302  0.850442  0.749939  1
  Rh  Rh27  1  0.149558  0.149698  0.750061  1
  Rh  Rh28  1  0.500726  0.000253  0.119312  1
  Rh  Rh29  1  0.500293  0.000142  0.619813  1
  Rh  Rh30  1  0.999858  0.499707  0.880187  1
  Rh  Rh31  1  0.999747  0.499274  0.380688  1
