# generated using pymatgen
data_YbCd2Ir4PbO14
_symmetry_space_group_name_H-M   'P 1'
_cell_length_a   7.33858438
_cell_length_b   7.23243750
_cell_length_c   7.23243868
_cell_angle_alpha   59.66415007
_cell_angle_beta   60.07354914
_cell_angle_gamma   60.07354894
_symmetry_Int_Tables_number   1
_chemical_formula_structural   YbCd2Ir4PbO14
_chemical_formula_sum   'Yb1 Cd2 Ir4 Pb1 O14'
_cell_volume   271.03898905
_cell_formula_units_Z   1
loop_
 _symmetry_equiv_pos_site_id
 _symmetry_equiv_pos_as_xyz
  1  'x, y, z'
loop_
 _atom_site_type_symbol
 _atom_site_label
 _atom_site_symmetry_multiplicity
 _atom_site_fract_x
 _atom_site_fract_y
 _atom_site_fract_z
 _atom_site_occupancy
  Yb  Yb0  1  0.625000  0.125000  0.125000  1
  Cd  Cd1  1  0.125000  0.625000  0.125000  1
  Cd  Cd2  1  0.125000  0.125000  0.625000  1
  Ir  Ir3  1  0.125000  0.625000  0.625000  1
  Ir  Ir4  1  0.625000  0.125000  0.625000  1
  Ir  Ir5  1  0.625000  0.625000  0.125000  1
  Ir  Ir6  1  0.625000  0.625000  0.625000  1
  Pb  Pb7  1  0.125000  0.125000  0.125000  1
  O  O8  1  0.699405  0.703479  0.297111  1
  O  O9  1  0.300213  0.298303  0.711060  1
  O  O10  1  0.699405  0.297111  0.703479  1
  O  O11  1  0.300213  0.711060  0.298303  1
  O  O12  1  0.302328  0.696506  0.696506  1
  O  O13  1  0.710310  0.295845  0.295845  1
  O  O14  1  0.550595  0.546521  0.952889  1
  O  O15  1  0.949787  0.951697  0.538940  1
  O  O16  1  0.550595  0.952889  0.546521  1
  O  O17  1  0.949787  0.538940  0.951697  1
  O  O18  1  0.947672  0.553494  0.553494  1
  O  O19  1  0.539690  0.954155  0.954155  1
  O  O20  1  0.242402  0.256610  0.256610  1
  O  O21  1  0.007598  0.993390  0.993390  1
