# generated using pymatgen
data_La4P3Se
_symmetry_space_group_name_H-M   'P 1'
_cell_length_a   4.28511833
_cell_length_b   9.58851457
_cell_length_c   11.34348499
_cell_angle_alpha   40.40154735
_cell_angle_beta   124.53580087
_cell_angle_gamma   132.07744647
_symmetry_Int_Tables_number   1
_chemical_formula_structural   La4P3Se
_chemical_formula_sum   'La4 P3 Se1'
_cell_volume   222.66255641
_cell_formula_units_Z   1
loop_
 _symmetry_equiv_pos_site_id
 _symmetry_equiv_pos_as_xyz
  1  'x, y, z'
loop_
 _atom_site_type_symbol
 _atom_site_label
 _atom_site_symmetry_multiplicity
 _atom_site_fract_x
 _atom_site_fract_y
 _atom_site_fract_z
 _atom_site_occupancy
  La  La0  1  0.501140  0.397663  0.283543  1
  La  La1  1  0.743405  0.659001  0.517416  1
  La  La2  1  0.230709  0.135104  0.032166  1
  La  La3  1  0.015086  0.921687  0.768827  1
  P  P4  1  0.879685  0.281259  0.652421  1
  P  P5  1  0.365717  0.775574  0.148472  1
  P  P6  1  0.622212  0.028292  0.400566  1
  Se  Se7  1  0.123115  0.528310  0.900550  1
