# generated using pymatgen
data_Zr12IrPt3
_symmetry_space_group_name_H-M   'P 1'
_cell_length_a   8.20614991
_cell_length_b   8.23055818
_cell_length_c   8.23055820
_cell_angle_alpha   97.27101946
_cell_angle_beta   96.78604352
_cell_angle_gamma   139.27703339
_symmetry_Int_Tables_number   1
_chemical_formula_structural   Zr12IrPt3
_chemical_formula_sum   'Zr12 Ir1 Pt3'
_cell_volume   339.50096300
_cell_formula_units_Z   1
loop_
 _symmetry_equiv_pos_site_id
 _symmetry_equiv_pos_as_xyz
  1  'x, y, z'
loop_
 _atom_site_type_symbol
 _atom_site_label
 _atom_site_symmetry_multiplicity
 _atom_site_fract_x
 _atom_site_fract_y
 _atom_site_fract_z
 _atom_site_occupancy
  Zr  Zr0  1  0.539727  0.953464  0.002475  1
  Zr  Zr1  1  0.460273  0.462747  0.413737  1
  Zr  Zr2  1  0.048917  0.049669  0.585306  1
  Zr  Zr3  1  0.951083  0.536389  0.000752  1
  Zr  Zr4  1  0.500000  0.854460  0.354460  1
  Zr  Zr5  1  0.854003  0.495235  0.352323  1
  Zr  Zr6  1  0.145997  0.498320  0.641232  1
  Zr  Zr7  1  0.500000  0.144695  0.644695  1
  Zr  Zr8  1  0.179276  0.369879  0.004090  1
  Zr  Zr9  1  0.820724  0.824814  0.190603  1
  Zr  Zr10  1  0.630647  0.629727  0.810440  1
  Zr  Zr11  1  0.369353  0.179793  0.999080  1
  Ir  Ir12  1  0.000000  0.291848  0.291848  1
  Pt  Pt13  1  0.000000  0.708514  0.708514  1
  Pt  Pt14  1  0.707949  0.998734  0.709662  1
  Pt  Pt15  1  0.292051  0.001713  0.290785  1
