# generated using pymatgen
data_RbCuS4
_symmetry_space_group_name_H-M   'P 1'
_cell_length_a   5.25816300
_cell_length_b   8.79913500
_cell_length_c   13.30915200
_cell_angle_alpha   90.00000000
_cell_angle_beta   90.00000000
_cell_angle_gamma   90.00000000
_symmetry_Int_Tables_number   1
_chemical_formula_structural   RbCuS4
_chemical_formula_sum   'Rb4 Cu4 S16'
_cell_volume   615.77834319
_cell_formula_units_Z   4
loop_
 _symmetry_equiv_pos_site_id
 _symmetry_equiv_pos_as_xyz
  1  'x, y, z'
loop_
 _atom_site_type_symbol
 _atom_site_label
 _atom_site_symmetry_multiplicity
 _atom_site_fract_x
 _atom_site_fract_y
 _atom_site_fract_z
 _atom_site_occupancy
  Rb  Rb0  1  0.317961  0.581268  0.161154  1
  Rb  Rb1  1  0.817961  0.918732  0.838846  1
  Rb  Rb2  1  0.682039  0.081268  0.338846  1
  Rb  Rb3  1  0.182039  0.418732  0.661154  1
  Cu  Cu4  1  0.467721  0.644486  0.434672  1
  Cu  Cu5  1  0.967721  0.855514  0.565328  1
  Cu  Cu6  1  0.532279  0.144486  0.065328  1
  Cu  Cu7  1  0.032279  0.355514  0.934672  1
  S  S8  1  0.060821  0.932748  0.075578  1
  S  S9  1  0.560821  0.567252  0.924422  1
  S  S10  1  0.939179  0.432748  0.424422  1
  S  S11  1  0.439179  0.067252  0.575578  1
  S  S12  1  0.116408  0.795258  0.405977  1
  S  S13  1  0.616408  0.704742  0.594023  1
  S  S14  1  0.883592  0.295258  0.094023  1
  S  S15  1  0.383592  0.204742  0.905977  1
  S  S16  1  0.351979  0.861187  0.652682  1
  S  S17  1  0.851979  0.638813  0.347318  1
  S  S18  1  0.648021  0.361187  0.847318  1
  S  S19  1  0.148021  0.138813  0.152682  1
  S  S20  1  0.177723  0.595755  0.897948  1
  S  S21  1  0.677723  0.904245  0.102052  1
  S  S22  1  0.822277  0.095755  0.602052  1
  S  S23  1  0.322277  0.404245  0.397948  1
