# generated using pymatgen
data_Tm11Sc(Si3Au)4
_symmetry_space_group_name_H-M   'P 1'
_cell_length_a   4.19067700
_cell_length_b   10.84697252
_cell_length_c   12.19751049
_cell_angle_alpha   90.00477413
_cell_angle_beta   90.00000000
_cell_angle_gamma   90.00000000
_symmetry_Int_Tables_number   1
_chemical_formula_structural   Tm11Sc(Si3Au)4
_chemical_formula_sum   'Tm11 Sc1 Si12 Au4'
_cell_volume   554.45196509
_cell_formula_units_Z   1
loop_
 _symmetry_equiv_pos_site_id
 _symmetry_equiv_pos_as_xyz
  1  'x, y, z'
loop_
 _atom_site_type_symbol
 _atom_site_label
 _atom_site_symmetry_multiplicity
 _atom_site_fract_x
 _atom_site_fract_y
 _atom_site_fract_z
 _atom_site_occupancy
  Tm  Tm0  1  0.250000  0.875837  0.019756  1
  Tm  Tm1  1  0.250000  0.624793  0.520121  1
  Tm  Tm2  1  0.750000  0.124784  0.976733  1
  Tm  Tm3  1  0.750000  0.374073  0.481121  1
  Tm  Tm4  1  0.250000  0.923941  0.601331  1
  Tm  Tm5  1  0.250000  0.576844  0.100545  1
  Tm  Tm6  1  0.750000  0.077228  0.402214  1
  Tm  Tm7  1  0.750000  0.422436  0.897855  1
  Tm  Tm8  1  0.250000  0.663676  0.801957  1
  Tm  Tm9  1  0.250000  0.837321  0.302123  1
  Tm  Tm10  1  0.750000  0.334812  0.198201  1
  Sc  Sc11  1  0.750000  0.163842  0.699198  1
  Si  Si12  1  0.250000  0.028210  0.823974  1
  Si  Si13  1  0.250000  0.472222  0.326394  1
  Si  Si14  1  0.750000  0.974265  0.173640  1
  Si  Si15  1  0.750000  0.527197  0.673521  1
  Si  Si16  1  0.250000  0.246540  0.844198  1
  Si  Si17  1  0.250000  0.251618  0.350404  1
  Si  Si18  1  0.750000  0.753034  0.152198  1
  Si  Si19  1  0.750000  0.747436  0.651966  1
  Si  Si20  1  0.250000  0.182806  0.543126  1
  Si  Si21  1  0.250000  0.316989  0.035158  1
  Si  Si22  1  0.750000  0.817467  0.463390  1
  Si  Si23  1  0.750000  0.682013  0.963220  1
  Au  Au24  1  0.250000  0.387851  0.680558  1
  Au  Au25  1  0.250000  0.111630  0.181458  1
  Au  Au26  1  0.750000  0.610818  0.318699  1
  Au  Au27  1  0.750000  0.890318  0.816941  1
