# generated using pymatgen
data_Y7Ho9MgHg3Rh4
_symmetry_space_group_name_H-M   'P 1'
_cell_length_a   9.61950538
_cell_length_b   9.59590384
_cell_length_c   9.61180000
_cell_angle_alpha   59.94519329
_cell_angle_beta   60.02650075
_cell_angle_gamma   60.06563706
_symmetry_Int_Tables_number   1
_chemical_formula_structural   Y7Ho9MgHg3Rh4
_chemical_formula_sum   'Y7 Ho9 Mg1 Hg3 Rh4'
_cell_volume   627.55220421
_cell_formula_units_Z   1
loop_
 _symmetry_equiv_pos_site_id
 _symmetry_equiv_pos_as_xyz
  1  'x, y, z'
loop_
 _atom_site_type_symbol
 _atom_site_label
 _atom_site_symmetry_multiplicity
 _atom_site_fract_x
 _atom_site_fract_y
 _atom_site_fract_z
 _atom_site_occupancy
  Y  Y0  1  0.059287  0.060068  0.440323  1
  Y  Y1  1  0.186344  0.812607  0.813379  1
  Y  Y2  1  0.811745  0.187698  0.186359  1
  Y  Y3  1  0.811745  0.187698  0.814197  1
  Y  Y4  1  0.186344  0.812607  0.187670  1
  Y  Y5  1  0.811959  0.813609  0.187216  1
  Y  Y6  1  0.185684  0.188512  0.812902  1
  Ho  Ho7  1  0.600740  0.598304  0.597664  1
  Ho  Ho8  1  0.600740  0.598304  0.203294  1
  Ho  Ho9  1  0.601225  0.202907  0.597935  1
  Ho  Ho10  1  0.191887  0.602911  0.602602  1
  Ho  Ho11  1  0.059274  0.439874  0.440234  1
  Ho  Ho12  1  0.436172  0.062317  0.063243  1
  Ho  Ho13  1  0.436172  0.062317  0.438266  1
  Ho  Ho14  1  0.059274  0.439874  0.060619  1
  Ho  Ho15  1  0.436337  0.437831  0.062916  1
  Mg  Mg16  1  0.533907  0.821696  0.822198  1
  Hg  Hg17  1  0.831794  0.836038  0.836137  1
  Hg  Hg18  1  0.831794  0.836038  0.496030  1
  Hg  Hg19  1  0.831845  0.495365  0.836394  1
  Rh  Rh20  1  0.390498  0.394123  0.393569  1
  Rh  Rh21  1  0.390498  0.394123  0.821810  1
  Rh  Rh22  1  0.392820  0.820534  0.393323  1
  Rh  Rh23  1  0.821916  0.394646  0.391720  1
