# generated using pymatgen
data_Ca2TbYSb6Rh7
_symmetry_space_group_name_H-M   'P 1'
_cell_length_a   7.62272902
_cell_length_b   7.64133479
_cell_length_c   7.64349139
_cell_angle_alpha   109.56708673
_cell_angle_beta   109.48123173
_cell_angle_gamma   109.46975915
_symmetry_Int_Tables_number   1
_chemical_formula_structural   Ca2TbYSb6Rh7
_chemical_formula_sum   'Ca2 Tb1 Y1 Sb6 Rh7'
_cell_volume   342.28542713
_cell_formula_units_Z   1
loop_
 _symmetry_equiv_pos_site_id
 _symmetry_equiv_pos_as_xyz
  1  'x, y, z'
loop_
 _atom_site_type_symbol
 _atom_site_label
 _atom_site_symmetry_multiplicity
 _atom_site_fract_x
 _atom_site_fract_y
 _atom_site_fract_z
 _atom_site_occupancy
  Ca  Ca0  1  0.500000  0.000000  0.000000  1
  Ca  Ca1  1  0.500000  0.500000  0.500000  1
  Tb  Tb2  1  0.000000  0.000000  0.500000  1
  Y  Y3  1  0.000000  0.500000  0.000000  1
  Sb  Sb4  1  0.000000  0.319141  0.319034  1
  Sb  Sb5  1  0.678517  0.997216  0.681400  1
  Sb  Sb6  1  0.678517  0.681301  0.997117  1
  Sb  Sb7  1  0.000000  0.680859  0.680966  1
  Sb  Sb8  1  0.321483  0.002784  0.318600  1
  Sb  Sb9  1  0.321483  0.318699  0.002883  1
  Rh  Rh10  1  0.000000  0.000000  0.000000  1
  Rh  Rh11  1  0.499936  0.749968  0.249968  1
  Rh  Rh12  1  0.754929  0.505190  0.249666  1
  Rh  Rh13  1  0.245071  0.750261  0.494737  1
  Rh  Rh14  1  0.245071  0.494810  0.750334  1
  Rh  Rh15  1  0.500064  0.250032  0.750032  1
  Rh  Rh16  1  0.754929  0.249739  0.505263  1
