# generated using pymatgen
data_TbDyB6Ru
_symmetry_space_group_name_H-M   'P 1'
_cell_length_a   3.66841400
_cell_length_b   9.16383300
_cell_length_c   11.54004600
_cell_angle_alpha   90.00000000
_cell_angle_beta   90.00000000
_cell_angle_gamma   90.00000000
_symmetry_Int_Tables_number   1
_chemical_formula_structural   TbDyB6Ru
_chemical_formula_sum   'Tb4 Dy4 B24 Ru4'
_cell_volume   387.93864832
_cell_formula_units_Z   4
loop_
 _symmetry_equiv_pos_site_id
 _symmetry_equiv_pos_as_xyz
  1  'x, y, z'
loop_
 _atom_site_type_symbol
 _atom_site_label
 _atom_site_symmetry_multiplicity
 _atom_site_fract_x
 _atom_site_fract_y
 _atom_site_fract_z
 _atom_site_occupancy
  Tb  Tb0  1  0.000000  0.323432  0.413964  1
  Tb  Tb1  1  0.000000  0.676568  0.586036  1
  Tb  Tb2  1  0.000000  0.823432  0.086036  1
  Tb  Tb3  1  0.000000  0.176568  0.913964  1
  Dy  Dy4  1  0.000000  0.944072  0.372132  1
  Dy  Dy5  1  0.000000  0.055928  0.627868  1
  Dy  Dy6  1  0.000000  0.444072  0.127868  1
  Dy  Dy7  1  0.000000  0.555928  0.872132  1
  B  B8  1  0.500000  0.554638  0.432725  1
  B  B9  1  0.500000  0.445362  0.567275  1
  B  B10  1  0.500000  0.054638  0.067275  1
  B  B11  1  0.500000  0.945362  0.932725  1
  B  B12  1  0.500000  0.747934  0.419536  1
  B  B13  1  0.500000  0.252066  0.580464  1
  B  B14  1  0.500000  0.247934  0.080464  1
  B  B15  1  0.500000  0.752066  0.919536  1
  B  B16  1  0.500000  0.791363  0.266509  1
  B  B17  1  0.500000  0.208637  0.733491  1
  B  B18  1  0.500000  0.291363  0.233491  1
  B  B19  1  0.500000  0.708637  0.766509  1
  B  B20  1  0.500000  0.632497  0.185524  1
  B  B21  1  0.500000  0.367503  0.814476  1
  B  B22  1  0.500000  0.132497  0.314476  1
  B  B23  1  0.500000  0.867503  0.685524  1
  B  B24  1  0.500000  0.984623  0.212923  1
  B  B25  1  0.500000  0.015377  0.787077  1
  B  B26  1  0.500000  0.484623  0.287077  1
  B  B27  1  0.500000  0.515377  0.712923  1
  B  B28  1  0.500000  0.608647  0.030019  1
  B  B29  1  0.500000  0.391353  0.969981  1
  B  B30  1  0.500000  0.108647  0.469981  1
  B  B31  1  0.500000  0.891353  0.530019  1
  Ru  Ru32  1  0.000000  0.638312  0.321189  1
  Ru  Ru33  1  0.000000  0.361688  0.678811  1
  Ru  Ru34  1  0.000000  0.138312  0.178811  1
  Ru  Ru35  1  0.000000  0.861688  0.821189  1
