# generated using pymatgen
data_Th4Al24Pd8Ru
_symmetry_space_group_name_H-M   'P 1'
_cell_length_a   7.62086080
_cell_length_b   7.62261339
_cell_length_c   13.30646169
_cell_angle_alpha   84.58176049
_cell_angle_beta   100.92893427
_cell_angle_gamma   119.80066287
_symmetry_Int_Tables_number   1
_chemical_formula_structural   Th4Al24Pd8Ru
_chemical_formula_sum   'Th4 Al24 Pd8 Ru1'
_cell_volume   658.59876722
_cell_formula_units_Z   1
loop_
 _symmetry_equiv_pos_site_id
 _symmetry_equiv_pos_as_xyz
  1  'x, y, z'
loop_
 _atom_site_type_symbol
 _atom_site_label
 _atom_site_symmetry_multiplicity
 _atom_site_fract_x
 _atom_site_fract_y
 _atom_site_fract_z
 _atom_site_occupancy
  Th  Th0  1  0.437385  0.831254  0.807672  1
  Th  Th1  1  0.562615  0.168746  0.192328  1
  Th  Th2  1  0.767968  0.502479  0.807559  1
  Th  Th3  1  0.232032  0.497521  0.192441  1
  Al  Al4  1  0.479277  0.170009  0.947633  1
  Al  Al5  1  0.520723  0.829991  0.052367  1
  Al  Al6  1  0.020779  0.165518  0.559753  1
  Al  Al7  1  0.979221  0.834482  0.440247  1
  Al  Al8  1  0.352830  0.834088  0.558106  1
  Al  Al9  1  0.647170  0.165912  0.441894  1
  Al  Al10  1  0.622315  0.834780  0.335037  1
  Al  Al11  1  0.377685  0.165220  0.664963  1
  Al  Al12  1  0.055332  0.489289  0.664774  1
  Al  Al13  1  0.944668  0.510711  0.335226  1
  Al  Al14  1  0.733213  0.844332  0.662969  1
  Al  Al15  1  0.266787  0.155668  0.337031  1
  Al  Al16  1  0.152419  0.496729  0.948071  1
  Al  Al17  1  0.847581  0.503271  0.051929  1
  Al  Al18  1  0.817115  0.831333  0.958839  1
  Al  Al19  1  0.182885  0.168667  0.041161  1
  Al  Al20  1  0.311336  0.498648  0.441944  1
  Al  Al21  1  0.688664  0.501352  0.558056  1
  Al  Al22  1  0.099723  0.837049  0.183931  1
  Al  Al23  1  0.900277  0.162951  0.816069  1
  Al  Al24  1  0.305070  0.366473  0.817909  1
  Al  Al25  1  0.694930  0.633527  0.182091  1
  Al  Al26  1  0.101016  0.962887  0.815802  1
  Al  Al27  1  0.898984  0.037113  0.184198  1
  Pd  Pd28  1  0.387281  0.507065  0.637624  1
  Pd  Pd29  1  0.612719  0.492935  0.362376  1
  Pd  Pd30  1  0.172149  0.828933  0.999485  1
  Pd  Pd31  1  0.827851  0.171067  0.000515  1
  Pd  Pd32  1  0.294116  0.832905  0.363148  1
  Pd  Pd33  1  0.705884  0.167095  0.636852  1
  Pd  Pd34  1  0.047181  0.825747  0.637387  1
  Pd  Pd35  1  0.952819  0.174253  0.362613  1
  Ru  Ru36  1  0.500000  0.500000  0.000000  1
