# generated using pymatgen
data_Li2Pa2Zn15
_symmetry_space_group_name_H-M   'P 1'
_cell_length_a   6.76469629
_cell_length_b   6.75201704
_cell_length_c   6.75201625
_cell_angle_alpha   82.94230049
_cell_angle_beta   82.20085459
_cell_angle_gamma   82.20086721
_symmetry_Int_Tables_number   1
_chemical_formula_structural   Li2Pa2Zn15
_chemical_formula_sum   'Li2 Pa2 Zn15'
_cell_volume   301.00269959
_cell_formula_units_Z   1
loop_
 _symmetry_equiv_pos_site_id
 _symmetry_equiv_pos_as_xyz
  1  'x, y, z'
loop_
 _atom_site_type_symbol
 _atom_site_label
 _atom_site_symmetry_multiplicity
 _atom_site_fract_x
 _atom_site_fract_y
 _atom_site_fract_z
 _atom_site_occupancy
  Li  Li0  1  0.000000  0.000000  0.500000  1
  Li  Li1  1  0.000000  0.500000  0.000000  1
  Pa  Pa2  1  0.656864  0.658567  0.658567  1
  Pa  Pa3  1  0.343136  0.341433  0.341433  1
  Zn  Zn4  1  0.349356  0.354692  0.842893  1
  Zn  Zn5  1  0.853410  0.349392  0.349392  1
  Zn  Zn6  1  0.100641  0.107139  0.107139  1
  Zn  Zn7  1  0.899359  0.892861  0.892861  1
  Zn  Zn8  1  0.500000  0.000000  0.000000  1
  Zn  Zn9  1  0.291502  0.702413  0.001456  1
  Zn  Zn10  1  0.708498  0.998544  0.297587  1
  Zn  Zn11  1  0.000000  0.294228  0.705772  1
  Zn  Zn12  1  0.708498  0.297587  0.998544  1
  Zn  Zn13  1  0.291502  0.001456  0.702413  1
  Zn  Zn14  1  0.000000  0.705772  0.294228  1
  Zn  Zn15  1  0.146590  0.650608  0.650608  1
  Zn  Zn16  1  0.650644  0.645308  0.157107  1
  Zn  Zn17  1  0.650644  0.157107  0.645308  1
  Zn  Zn18  1  0.349356  0.842893  0.354692  1
