# generated using pymatgen
data_AgRuF6
_symmetry_space_group_name_H-M   'P 1'
_cell_length_a   5.92512898
_cell_length_b   5.92514012
_cell_length_c   5.92513178
_cell_angle_alpha   54.27620218
_cell_angle_beta   54.27624332
_cell_angle_gamma   54.27632481
_symmetry_Int_Tables_number   1
_chemical_formula_structural   AgRuF6
_chemical_formula_sum   'Ag1 Ru1 F6'
_cell_volume   127.44435024
_cell_formula_units_Z   1
loop_
 _symmetry_equiv_pos_site_id
 _symmetry_equiv_pos_as_xyz
  1  'x, y, z'
loop_
 _atom_site_type_symbol
 _atom_site_label
 _atom_site_symmetry_multiplicity
 _atom_site_fract_x
 _atom_site_fract_y
 _atom_site_fract_z
 _atom_site_occupancy
  Ag  Ag0  1  0.000000  0.000000  0.000000  1
  Ru  Ru1  1  0.500000  0.500000  0.500000  1
  F  F2  1  0.571371  0.285992  0.862166  1
  F  F3  1  0.862170  0.571371  0.285988  1
  F  F4  1  0.714011  0.137831  0.428629  1
  F  F5  1  0.137830  0.428629  0.714012  1
  F  F6  1  0.428629  0.714008  0.137834  1
  F  F7  1  0.285989  0.862169  0.571371  1
