# generated using pymatgen
data_YbEu3Si10NiPt5
_symmetry_space_group_name_H-M   'P 1'
_cell_length_a   8.27587473
_cell_length_b   8.25102539
_cell_length_c   8.25254543
_cell_angle_alpha   137.99032195
_cell_angle_beta   104.84019584
_cell_angle_gamma   90.01372098
_symmetry_Int_Tables_number   1
_chemical_formula_structural   YbEu3Si10NiPt5
_chemical_formula_sum   'Yb1 Eu3 Si10 Ni1 Pt5'
_cell_volume   348.38746478
_cell_formula_units_Z   1
loop_
 _symmetry_equiv_pos_site_id
 _symmetry_equiv_pos_as_xyz
  1  'x, y, z'
loop_
 _atom_site_type_symbol
 _atom_site_label
 _atom_site_symmetry_multiplicity
 _atom_site_fract_x
 _atom_site_fract_y
 _atom_site_fract_z
 _atom_site_occupancy
  Yb  Yb0  1  0.103792  0.874196  0.237927  1
  Eu  Eu1  1  0.896503  0.133548  0.769276  1
  Eu  Eu2  1  0.636580  0.366932  0.262815  1
  Eu  Eu3  1  0.363745  0.625887  0.730745  1
  Si  Si4  1  0.000588  0.749623  0.749054  1
  Si  Si5  1  0.000529  0.251091  0.250780  1
  Si  Si6  1  0.274034  0.024519  0.749838  1
  Si  Si7  1  0.726336  0.474644  0.749849  1
  Si  Si8  1  0.726721  0.977090  0.251549  1
  Si  Si9  1  0.273805  0.523846  0.249555  1
  Si  Si10  1  0.754208  0.619918  0.159032  1
  Si  Si11  1  0.245012  0.405946  0.865924  1
  Si  Si12  1  0.458642  0.093400  0.339225  1
  Si  Si13  1  0.540621  0.879891  0.635252  1
  Ni  Ni14  1  0.497867  0.749941  0.250225  1
  Pt  Pt15  1  0.498002  0.247944  0.747838  1
  Pt  Pt16  1  0.024086  0.640283  0.386695  1
  Pt  Pt17  1  0.978483  0.365880  0.616095  1
  Pt  Pt18  1  0.249096  0.133804  0.112046  1
  Pt  Pt19  1  0.751349  0.861615  0.886278  1
