# generated using pymatgen
data_Hf4UN5
_symmetry_space_group_name_H-M   'P 1'
_cell_length_a   13.66446163
_cell_length_b   13.66446261
_cell_length_c   13.66446221
_cell_angle_alpha   13.53835028
_cell_angle_beta   13.53835156
_cell_angle_gamma   13.53835161
_symmetry_Int_Tables_number   1
_chemical_formula_structural   Hf4UN5
_chemical_formula_sum   'Hf4 U1 N5'
_cell_volume   121.65016969
_cell_formula_units_Z   1
loop_
 _symmetry_equiv_pos_site_id
 _symmetry_equiv_pos_as_xyz
  1  'x, y, z'
loop_
 _atom_site_type_symbol
 _atom_site_label
 _atom_site_symmetry_multiplicity
 _atom_site_fract_x
 _atom_site_fract_y
 _atom_site_fract_z
 _atom_site_occupancy
  Hf  Hf0  1  0.597359  0.597359  0.597359  1
  Hf  Hf1  1  0.198405  0.198405  0.198405  1
  Hf  Hf2  1  0.801595  0.801595  0.801595  1
  Hf  Hf3  1  0.402641  0.402641  0.402641  1
  U  U4  1  0.000000  0.000000  0.000000  1
  N  N5  1  0.500000  0.500000  0.500000  1
  N  N6  1  0.706294  0.706294  0.706294  1
  N  N7  1  0.102615  0.102615  0.102615  1
  N  N8  1  0.293706  0.293706  0.293706  1
  N  N9  1  0.897385  0.897385  0.897385  1
