# generated using pymatgen
data_Y3ThGe6Rh7
_symmetry_space_group_name_H-M   'P 1'
_cell_length_a   7.33321265
_cell_length_b   7.33321404
_cell_length_c   7.33321234
_cell_angle_alpha   109.42538090
_cell_angle_beta   109.42538041
_cell_angle_gamma   109.42538582
_symmetry_Int_Tables_number   1
_chemical_formula_structural   Y3ThGe6Rh7
_chemical_formula_sum   'Y3 Th1 Ge6 Rh7'
_cell_volume   304.08561445
_cell_formula_units_Z   1
loop_
 _symmetry_equiv_pos_site_id
 _symmetry_equiv_pos_as_xyz
  1  'x, y, z'
loop_
 _atom_site_type_symbol
 _atom_site_label
 _atom_site_symmetry_multiplicity
 _atom_site_fract_x
 _atom_site_fract_y
 _atom_site_fract_z
 _atom_site_occupancy
  Y  Y0  1  0.000000  0.000000  0.500000  1
  Y  Y1  1  0.000000  0.500000  0.000000  1
  Y  Y2  1  0.500000  0.000000  0.000000  1
  Th  Th3  1  0.500000  0.500000  0.500000  1
  Ge  Ge4  1  0.681077  0.681077  0.006399  1
  Ge  Ge5  1  0.318923  0.993601  0.318923  1
  Ge  Ge6  1  0.993601  0.318923  0.318923  1
  Ge  Ge7  1  0.318923  0.318923  0.993601  1
  Ge  Ge8  1  0.681077  0.006399  0.681077  1
  Ge  Ge9  1  0.006399  0.681077  0.681077  1
  Rh  Rh10  1  0.750287  0.249713  0.500000  1
  Rh  Rh11  1  0.750287  0.500000  0.249713  1
  Rh  Rh12  1  0.500000  0.249713  0.750287  1
  Rh  Rh13  1  0.249713  0.500000  0.750287  1
  Rh  Rh14  1  0.249713  0.750287  0.500000  1
  Rh  Rh15  1  0.500000  0.750287  0.249713  1
  Rh  Rh16  1  0.000000  0.000000  0.000000  1
