# generated using pymatgen
data_WI16
_symmetry_space_group_name_H-M   'P 1'
_cell_length_a   8.69924210
_cell_length_b   12.08493773
_cell_length_c   11.10789269
_cell_angle_alpha   105.56153173
_cell_angle_beta   118.00464698
_cell_angle_gamma   100.82054734
_symmetry_Int_Tables_number   1
_chemical_formula_structural   WI16
_chemical_formula_sum   'W1 I16'
_cell_volume   923.21757904
_cell_formula_units_Z   1
loop_
 _symmetry_equiv_pos_site_id
 _symmetry_equiv_pos_as_xyz
  1  'x, y, z'
loop_
 _atom_site_type_symbol
 _atom_site_label
 _atom_site_symmetry_multiplicity
 _atom_site_fract_x
 _atom_site_fract_y
 _atom_site_fract_z
 _atom_site_occupancy
  W  W0  1  0.000000  0.000000  0.000000  1
  I  I1  1  0.669131  0.808335  0.813543  1
  I  I2  1  0.330869  0.191665  0.186457  1
  I  I3  1  0.038106  0.980338  0.760439  1
  I  I4  1  0.961894  0.019662  0.239561  1
  I  I5  1  0.170723  0.830276  0.057629  1
  I  I6  1  0.829277  0.169724  0.942371  1
  I  I7  1  0.543391  0.679996  0.473054  1
  I  I8  1  0.456609  0.320004  0.526946  1
  I  I9  1  0.065446  0.634357  0.513366  1
  I  I10  1  0.934554  0.365643  0.486634  1
  I  I11  1  0.438274  0.080537  0.853868  1
  I  I12  1  0.561726  0.919463  0.146132  1
  I  I13  1  0.405967  0.550663  0.174465  1
  I  I14  1  0.594033  0.449337  0.825535  1
  I  I15  1  0.030766  0.796033  0.373331  1
  I  I16  1  0.969234  0.203967  0.626669  1
