# generated using pymatgen
data_LiPr4Ho4ScSi8
_symmetry_space_group_name_H-M   'P 1'
_cell_length_a   7.31375500
_cell_length_b   7.76482500
_cell_length_c   14.78882400
_cell_angle_alpha   90.00000000
_cell_angle_beta   90.00000000
_cell_angle_gamma   90.00000000
_symmetry_Int_Tables_number   1
_chemical_formula_structural   LiPr4Ho4ScSi8
_chemical_formula_sum   'Li2 Pr8 Ho8 Sc2 Si16'
_cell_volume   839.85772414
_cell_formula_units_Z   2
loop_
 _symmetry_equiv_pos_site_id
 _symmetry_equiv_pos_as_xyz
  1  'x, y, z'
loop_
 _atom_site_type_symbol
 _atom_site_label
 _atom_site_symmetry_multiplicity
 _atom_site_fract_x
 _atom_site_fract_y
 _atom_site_fract_z
 _atom_site_occupancy
  Li  Li0  1  0.655464  0.993879  0.750000  1
  Li  Li1  1  0.844536  0.493879  0.250000  1
  Pr  Pr2  1  0.013377  0.186799  0.398379  1
  Pr  Pr3  1  0.523000  0.323731  0.397394  1
  Pr  Pr4  1  0.486623  0.686799  0.898379  1
  Pr  Pr5  1  0.486623  0.686799  0.601621  1
  Pr  Pr6  1  0.977000  0.823731  0.602606  1
  Pr  Pr7  1  0.977000  0.823731  0.897394  1
  Pr  Pr8  1  0.523000  0.323731  0.102606  1
  Pr  Pr9  1  0.013377  0.186799  0.101621  1
  Ho  Ho10  1  0.332223  0.174504  0.624583  1
  Ho  Ho11  1  0.677361  0.811882  0.373615  1
  Ho  Ho12  1  0.167777  0.674504  0.375417  1
  Ho  Ho13  1  0.822639  0.311882  0.873615  1
  Ho  Ho14  1  0.822639  0.311882  0.626385  1
  Ho  Ho15  1  0.332223  0.174504  0.875417  1
  Ho  Ho16  1  0.167777  0.674504  0.124583  1
  Ho  Ho17  1  0.677361  0.811882  0.126385  1
  Sc  Sc18  1  0.343613  0.005938  0.250000  1
  Sc  Sc19  1  0.156387  0.505938  0.750000  1
  Si  Si20  1  0.273450  0.877149  0.750000  1
  Si  Si21  1  0.464115  0.607405  0.250000  1
  Si  Si22  1  0.035885  0.107405  0.750000  1
  Si  Si23  1  0.523076  0.401773  0.750000  1
  Si  Si24  1  0.149681  0.469095  0.542345  1
  Si  Si25  1  0.976924  0.901773  0.250000  1
  Si  Si26  1  0.713911  0.108326  0.250000  1
  Si  Si27  1  0.848789  0.536753  0.028879  1
  Si  Si28  1  0.350319  0.969095  0.042345  1
  Si  Si29  1  0.149681  0.469095  0.957655  1
  Si  Si30  1  0.651211  0.036753  0.528879  1
  Si  Si31  1  0.350319  0.969095  0.457655  1
  Si  Si32  1  0.848789  0.536753  0.471121  1
  Si  Si33  1  0.786089  0.608326  0.750000  1
  Si  Si34  1  0.226550  0.377149  0.250000  1
  Si  Si35  1  0.651211  0.036753  0.971121  1
