# generated using pymatgen
data_Zr10Cu2(BiPb)3
_symmetry_space_group_name_H-M   'P 1'
_cell_length_a   8.80978200
_cell_length_b   8.80978285
_cell_length_c   5.95500000
_cell_angle_alpha   90.00000000
_cell_angle_beta   90.00000000
_cell_angle_gamma   119.99999679
_symmetry_Int_Tables_number   1
_chemical_formula_structural   Zr10Cu2(BiPb)3
_chemical_formula_sum   'Zr10 Cu2 Bi3 Pb3'
_cell_volume   400.26054034
_cell_formula_units_Z   1
loop_
 _symmetry_equiv_pos_site_id
 _symmetry_equiv_pos_as_xyz
  1  'x, y, z'
loop_
 _atom_site_type_symbol
 _atom_site_label
 _atom_site_symmetry_multiplicity
 _atom_site_fract_x
 _atom_site_fract_y
 _atom_site_fract_z
 _atom_site_occupancy
  Zr  Zr0  1  0.666667  0.333333  0.501866  1
  Zr  Zr1  1  0.333333  0.666667  0.501866  1
  Zr  Zr2  1  0.333333  0.666667  0.998134  1
  Zr  Zr3  1  0.666667  0.333333  0.998134  1
  Zr  Zr4  1  0.741827  0.741827  0.250000  1
  Zr  Zr5  1  0.258173  0.000000  0.250000  1
  Zr  Zr6  1  0.000000  0.258173  0.250000  1
  Zr  Zr7  1  0.258563  0.258563  0.750000  1
  Zr  Zr8  1  0.741437  0.000000  0.750000  1
  Zr  Zr9  1  0.000000  0.741437  0.750000  1
  Cu  Cu10  1  0.000000  0.000000  0.501262  1
  Cu  Cu11  1  0.000000  0.000000  0.998738  1
  Bi  Bi12  1  0.387254  0.387254  0.250000  1
  Bi  Bi13  1  0.612746  0.000000  0.250000  1
  Bi  Bi14  1  0.000000  0.612746  0.250000  1
  Pb  Pb15  1  0.613578  0.613578  0.750000  1
  Pb  Pb16  1  0.386422  0.000000  0.750000  1
  Pb  Pb17  1  0.000000  0.386422  0.750000  1
