# generated using pymatgen
data_Pr2FeSiI
_symmetry_space_group_name_H-M   'P 1'
_cell_length_a   4.13112000
_cell_length_b   4.13112012
_cell_length_c   17.58909400
_cell_angle_alpha   90.00000000
_cell_angle_beta   90.00000000
_cell_angle_gamma   119.99999907
_symmetry_Int_Tables_number   1
_chemical_formula_structural   Pr2FeSiI
_chemical_formula_sum   'Pr4 Fe2 Si2 I2'
_cell_volume   259.96192173
_cell_formula_units_Z   2
loop_
 _symmetry_equiv_pos_site_id
 _symmetry_equiv_pos_as_xyz
  1  'x, y, z'
loop_
 _atom_site_type_symbol
 _atom_site_label
 _atom_site_symmetry_multiplicity
 _atom_site_fract_x
 _atom_site_fract_y
 _atom_site_fract_z
 _atom_site_occupancy
  Pr  Pr0  1  0.000000  0.000000  0.605549  1
  Pr  Pr1  1  0.000000  0.000000  0.395189  1
  Pr  Pr2  1  0.000000  0.000000  0.105549  1
  Pr  Pr3  1  0.000000  0.000000  0.895189  1
  Fe  Fe4  1  0.666667  0.333333  0.998956  1
  Fe  Fe5  1  0.333333  0.666667  0.498956  1
  Si  Si6  1  0.666667  0.333333  0.500842  1
  Si  Si7  1  0.333333  0.666667  0.000842  1
  I  I8  1  0.666667  0.333333  0.249464  1
  I  I9  1  0.333333  0.666667  0.749464  1
