# generated using pymatgen
data_Fe7Re4MoW
_symmetry_space_group_name_H-M   'P 1'
_cell_length_a   8.99193664
_cell_length_b   8.99193657
_cell_length_c   8.99193520
_cell_angle_alpha   30.33683431
_cell_angle_beta   30.33683576
_cell_angle_gamma   30.33684067
_symmetry_Int_Tables_number   1
_chemical_formula_structural   Fe7Re4MoW
_chemical_formula_sum   'Fe7 Re4 Mo1 W1'
_cell_volume   164.37256006
_cell_formula_units_Z   1
loop_
 _symmetry_equiv_pos_site_id
 _symmetry_equiv_pos_as_xyz
  1  'x, y, z'
loop_
 _atom_site_type_symbol
 _atom_site_label
 _atom_site_symmetry_multiplicity
 _atom_site_fract_x
 _atom_site_fract_y
 _atom_site_fract_z
 _atom_site_occupancy
  Fe  Fe0  1  0.587793  0.092270  0.092270  1
  Fe  Fe1  1  0.092270  0.092270  0.587793  1
  Fe  Fe2  1  0.908526  0.908526  0.409752  1
  Fe  Fe3  1  0.908526  0.409752  0.908526  1
  Fe  Fe4  1  0.999515  0.999515  0.999515  1
  Fe  Fe5  1  0.092270  0.587793  0.092270  1
  Fe  Fe6  1  0.409752  0.908526  0.908526  1
  Re  Re7  1  0.347151  0.347151  0.347151  1
  Re  Re8  1  0.166284  0.166284  0.166284  1
  Re  Re9  1  0.549440  0.549440  0.549440  1
  Re  Re10  1  0.653249  0.653249  0.653249  1
  Mo  Mo11  1  0.834068  0.834068  0.834068  1
  W  W12  1  0.451156  0.451156  0.451156  1
