# generated using pymatgen
data_PrPa(AlAu)4
_symmetry_space_group_name_H-M   'P 1'
_cell_length_a   4.39080000
_cell_length_b   4.39075700
_cell_length_c   10.46648700
_cell_angle_alpha   90.00000000
_cell_angle_beta   90.00000000
_cell_angle_gamma   90.00000000
_symmetry_Int_Tables_number   1
_chemical_formula_structural   PrPa(AlAu)4
_chemical_formula_sum   'Pr1 Pa1 Al4 Au4'
_cell_volume   201.78273130
_cell_formula_units_Z   1
loop_
 _symmetry_equiv_pos_site_id
 _symmetry_equiv_pos_as_xyz
  1  'x, y, z'
loop_
 _atom_site_type_symbol
 _atom_site_label
 _atom_site_symmetry_multiplicity
 _atom_site_fract_x
 _atom_site_fract_y
 _atom_site_fract_z
 _atom_site_occupancy
  Pr  Pr0  1  0.500000  0.000000  0.754360  1
  Pa  Pa1  1  0.000000  0.500000  0.247806  1
  Al  Al2  1  0.000000  0.000000  0.495369  1
  Al  Al3  1  0.500000  0.500000  0.495369  1
  Al  Al4  1  0.000000  0.500000  0.867384  1
  Al  Al5  1  0.500000  0.000000  0.133008  1
  Au  Au6  1  0.000000  0.000000  0.006482  1
  Au  Au7  1  0.500000  0.500000  0.006486  1
  Au  Au8  1  0.000000  0.500000  0.626539  1
  Au  Au9  1  0.500000  0.000000  0.367197  1
