# generated using pymatgen
data_Tb4Zn4In3Pb
_symmetry_space_group_name_H-M   'P 1'
_cell_length_a   4.69479300
_cell_length_b   4.69479448
_cell_length_c   14.78154300
_cell_angle_alpha   90.00000000
_cell_angle_beta   90.00000000
_cell_angle_gamma   119.99998253
_symmetry_Int_Tables_number   1
_chemical_formula_structural   Tb4Zn4In3Pb
_chemical_formula_sum   'Tb4 Zn4 In3 Pb1'
_cell_volume   282.15224670
_cell_formula_units_Z   1
loop_
 _symmetry_equiv_pos_site_id
 _symmetry_equiv_pos_as_xyz
  1  'x, y, z'
loop_
 _atom_site_type_symbol
 _atom_site_label
 _atom_site_symmetry_multiplicity
 _atom_site_fract_x
 _atom_site_fract_y
 _atom_site_fract_z
 _atom_site_occupancy
  Tb  Tb0  1  0.000000  0.000000  0.756028  1
  Tb  Tb1  1  0.000000  0.000000  0.246664  1
  Tb  Tb2  1  0.000000  0.000000  0.493547  1
  Tb  Tb3  1  0.000000  0.000000  0.000920  1
  Zn  Zn4  1  0.666667  0.333333  0.856357  1
  Zn  Zn5  1  0.666667  0.333333  0.667361  1
  Zn  Zn6  1  0.333333  0.666667  0.099890  1
  Zn  Zn7  1  0.333333  0.666667  0.383840  1
  In  In8  1  0.666667  0.333333  0.134242  1
  In  In9  1  0.666667  0.333333  0.361088  1
  In  In10  1  0.333333  0.666667  0.890505  1
  Pb  Pb11  1  0.333333  0.666667  0.609555  1
