# generated using pymatgen
data_U5(Se4Cl)2
_symmetry_space_group_name_H-M   'P 1'
_cell_length_a   10.73340682
_cell_length_b   10.77267425
_cell_length_c   6.57875018
_cell_angle_alpha   90.33281146
_cell_angle_beta   90.07858420
_cell_angle_gamma   90.52606571
_symmetry_Int_Tables_number   1
_chemical_formula_structural   U5(Se4Cl)2
_chemical_formula_sum   'U10 Se16 Cl4'
_cell_volume   760.63873794
_cell_formula_units_Z   2
loop_
 _symmetry_equiv_pos_site_id
 _symmetry_equiv_pos_as_xyz
  1  'x, y, z'
loop_
 _atom_site_type_symbol
 _atom_site_label
 _atom_site_symmetry_multiplicity
 _atom_site_fract_x
 _atom_site_fract_y
 _atom_site_fract_z
 _atom_site_occupancy
  U  U0  1  0.841016  0.161176  0.251086  1
  U  U1  1  0.659410  0.667524  0.250757  1
  U  U2  1  0.341307  0.335090  0.248647  1
  U  U3  1  0.158626  0.843253  0.257471  1
  U  U4  1  0.496502  0.998880  0.865917  1
  U  U5  1  0.336837  0.659702  0.750154  1
  U  U6  1  0.156746  0.158802  0.743634  1
  U  U7  1  0.853058  0.823459  0.755925  1
  U  U8  1  0.660511  0.344943  0.750498  1
  U  U9  1  0.001002  0.496646  0.139442  1
  Se  Se10  1  0.591962  0.792791  0.620136  1
  Se  Se11  1  0.413869  0.213771  0.620813  1
  Se  Se12  1  0.291400  0.913600  0.619319  1
  Se  Se13  1  0.715083  0.917910  0.102956  1
  Se  Se14  1  0.586964  0.212560  0.110071  1
  Se  Se15  1  0.414072  0.789281  0.112897  1
  Se  Se16  1  0.287758  0.085672  0.113426  1
  Se  Se17  1  0.211090  0.412687  0.888954  1
  Se  Se18  1  0.087896  0.709204  0.887989  1
  Se  Se19  1  0.911980  0.283437  0.883436  1
  Se  Se20  1  0.787952  0.580791  0.887974  1
  Se  Se21  1  0.991125  0.998999  0.504529  1
  Se  Se22  1  0.212366  0.587126  0.380570  1
  Se  Se23  1  0.086243  0.289422  0.378986  1
  Se  Se24  1  0.915175  0.707519  0.376818  1
  Se  Se25  1  0.787099  0.414423  0.380614  1
  Cl  Cl26  1  0.701397  0.098900  0.613261  1
  Cl  Cl27  1  0.499163  0.501197  0.001066  1
  Cl  Cl28  1  0.002540  0.998192  0.002513  1
  Cl  Cl29  1  0.499849  0.503044  0.500140  1
