# generated using pymatgen
data_Er7RhO12
_symmetry_space_group_name_H-M   'P 1'
_cell_length_a   6.58240771
_cell_length_b   6.58240882
_cell_length_c   6.58240800
_cell_angle_alpha   94.78596495
_cell_angle_beta   94.78596576
_cell_angle_gamma   94.78597114
_symmetry_Int_Tables_number   1
_chemical_formula_structural   Er7RhO12
_chemical_formula_sum   'Er7 Rh1 O12'
_cell_volume   282.04202405
_cell_formula_units_Z   1
loop_
 _symmetry_equiv_pos_site_id
 _symmetry_equiv_pos_as_xyz
  1  'x, y, z'
loop_
 _atom_site_type_symbol
 _atom_site_label
 _atom_site_symmetry_multiplicity
 _atom_site_fract_x
 _atom_site_fract_y
 _atom_site_fract_z
 _atom_site_occupancy
  Er  Er0  1  0.000000  0.000000  0.000000  1
  Er  Er1  1  0.737160  0.915272  0.429612  1
  Er  Er2  1  0.429612  0.737160  0.915272  1
  Er  Er3  1  0.084728  0.570388  0.262840  1
  Er  Er4  1  0.915272  0.429612  0.737160  1
  Er  Er5  1  0.570388  0.262840  0.084728  1
  Er  Er6  1  0.262840  0.084728  0.570388  1
  Rh  Rh7  1  0.500000  0.500000  0.500000  1
  O  O8  1  0.067781  0.910357  0.319706  1
  O  O9  1  0.680294  0.932219  0.089643  1
  O  O10  1  0.460156  0.806375  0.589241  1
  O  O11  1  0.089643  0.680294  0.932219  1
  O  O12  1  0.806375  0.589241  0.460156  1
  O  O13  1  0.410759  0.539844  0.193625  1
  O  O14  1  0.589241  0.460156  0.806375  1
  O  O15  1  0.193625  0.410759  0.539844  1
  O  O16  1  0.910357  0.319706  0.067781  1
  O  O17  1  0.539844  0.193625  0.410759  1
  O  O18  1  0.319706  0.067781  0.910357  1
  O  O19  1  0.932219  0.089643  0.680294  1
