# generated using pymatgen
data_Hf18VRe7Au2
_symmetry_space_group_name_H-M   'P 1'
_cell_length_a   8.73359900
_cell_length_b   8.73359736
_cell_length_c   8.55188100
_cell_angle_alpha   90.00000000
_cell_angle_beta   90.00000000
_cell_angle_gamma   120.00000241
_symmetry_Int_Tables_number   1
_chemical_formula_structural   Hf18VRe7Au2
_chemical_formula_sum   'Hf18 V1 Re7 Au2'
_cell_volume   564.90924724
_cell_formula_units_Z   1
loop_
 _symmetry_equiv_pos_site_id
 _symmetry_equiv_pos_as_xyz
  1  'x, y, z'
loop_
 _atom_site_type_symbol
 _atom_site_label
 _atom_site_symmetry_multiplicity
 _atom_site_fract_x
 _atom_site_fract_y
 _atom_site_fract_z
 _atom_site_occupancy
  Hf  Hf0  1  0.191849  0.808151  0.451181  1
  Hf  Hf1  1  0.191849  0.383698  0.451181  1
  Hf  Hf2  1  0.616302  0.808151  0.451181  1
  Hf  Hf3  1  0.808151  0.191849  0.548819  1
  Hf  Hf4  1  0.808151  0.616302  0.548819  1
  Hf  Hf5  1  0.383698  0.191849  0.548819  1
  Hf  Hf6  1  0.808363  0.191637  0.950160  1
  Hf  Hf7  1  0.808363  0.616725  0.950160  1
  Hf  Hf8  1  0.383275  0.191637  0.950160  1
  Hf  Hf9  1  0.191637  0.808363  0.049840  1
  Hf  Hf10  1  0.191637  0.383275  0.049840  1
  Hf  Hf11  1  0.616725  0.808363  0.049840  1
  Hf  Hf12  1  0.541925  0.458075  0.249272  1
  Hf  Hf13  1  0.541925  0.083848  0.249272  1
  Hf  Hf14  1  0.916152  0.458075  0.249272  1
  Hf  Hf15  1  0.458075  0.541925  0.750728  1
  Hf  Hf16  1  0.458075  0.916152  0.750728  1
  Hf  Hf17  1  0.083848  0.541925  0.750728  1
  V  V18  1  0.000000  0.000000  0.500000  1
  Re  Re19  1  0.890958  0.109042  0.253398  1
  Re  Re20  1  0.890958  0.781916  0.253398  1
  Re  Re21  1  0.218084  0.109042  0.253398  1
  Re  Re22  1  0.109042  0.890958  0.746602  1
  Re  Re23  1  0.109042  0.218084  0.746602  1
  Re  Re24  1  0.781916  0.890958  0.746602  1
  Re  Re25  1  0.000000  0.000000  0.000000  1
  Au  Au26  1  0.333333  0.666667  0.249345  1
  Au  Au27  1  0.666667  0.333333  0.750655  1
