# generated using pymatgen
data_Lu2ZrPd9
_symmetry_space_group_name_H-M   'P 1'
_cell_length_a   4.07223200
_cell_length_b   4.07223200
_cell_length_c   12.21164700
_cell_angle_alpha   90.00000000
_cell_angle_beta   90.00000000
_cell_angle_gamma   90.00000000
_symmetry_Int_Tables_number   1
_chemical_formula_structural   Lu2ZrPd9
_chemical_formula_sum   'Lu2 Zr1 Pd9'
_cell_volume   202.50663929
_cell_formula_units_Z   1
loop_
 _symmetry_equiv_pos_site_id
 _symmetry_equiv_pos_as_xyz
  1  'x, y, z'
loop_
 _atom_site_type_symbol
 _atom_site_label
 _atom_site_symmetry_multiplicity
 _atom_site_fract_x
 _atom_site_fract_y
 _atom_site_fract_z
 _atom_site_occupancy
  Lu  Lu0  1  0.000000  0.000000  0.334264  1
  Lu  Lu1  1  0.000000  0.000000  0.665736  1
  Zr  Zr2  1  0.000000  0.000000  0.000000  1
  Pd  Pd3  1  0.500000  0.500000  0.000000  1
  Pd  Pd4  1  0.500000  0.500000  0.330850  1
  Pd  Pd5  1  0.500000  0.500000  0.669150  1
  Pd  Pd6  1  0.500000  0.000000  0.161903  1
  Pd  Pd7  1  0.500000  0.000000  0.500000  1
  Pd  Pd8  1  0.500000  0.000000  0.838097  1
  Pd  Pd9  1  0.000000  0.500000  0.161903  1
  Pd  Pd10  1  0.000000  0.500000  0.500000  1
  Pd  Pd11  1  0.000000  0.500000  0.838097  1
