# generated using pymatgen
data_BaAc6(PO5)4
_symmetry_space_group_name_H-M   'P 1'
_cell_length_a   7.44297481
_cell_length_b   7.90126569
_cell_length_c   9.45928555
_cell_angle_alpha   105.74446739
_cell_angle_beta   94.79560251
_cell_angle_gamma   111.09851493
_symmetry_Int_Tables_number   1
_chemical_formula_structural   BaAc6(PO5)4
_chemical_formula_sum   'Ba1 Ac6 P4 O20'
_cell_volume   489.24120580
_cell_formula_units_Z   1
loop_
 _symmetry_equiv_pos_site_id
 _symmetry_equiv_pos_as_xyz
  1  'x, y, z'
loop_
 _atom_site_type_symbol
 _atom_site_label
 _atom_site_symmetry_multiplicity
 _atom_site_fract_x
 _atom_site_fract_y
 _atom_site_fract_z
 _atom_site_occupancy
  Ba  Ba0  1  0.000000  0.500000  0.000000  1
  Ac  Ac1  1  0.438097  0.282594  0.092187  1
  Ac  Ac2  1  0.561903  0.717406  0.907813  1
  Ac  Ac3  1  0.817731  0.794990  0.327813  1
  Ac  Ac4  1  0.182269  0.205010  0.672187  1
  Ac  Ac5  1  0.680957  0.374349  0.520139  1
  Ac  Ac6  1  0.319043  0.625651  0.479861  1
  P  P7  1  0.642573  0.088986  0.739071  1
  P  P8  1  0.940938  0.225919  0.254110  1
  P  P9  1  0.059062  0.774081  0.745890  1
  P  P10  1  0.357427  0.911014  0.260929  1
  O  O11  1  0.642135  0.150405  0.908775  1
  O  O12  1  0.870373  0.660695  0.795953  1
  O  O13  1  0.998893  0.751532  0.574499  1
  O  O14  1  0.204157  0.673514  0.750041  1
  O  O15  1  0.357865  0.849595  0.091225  1
  O  O16  1  0.523379  0.885398  0.353659  1
  O  O17  1  0.795843  0.326486  0.249959  1
  O  O18  1  0.848008  0.011291  0.160363  1
  O  O19  1  0.439152  0.468610  0.637408  1
  O  O20  1  0.696649  0.588472  0.085106  1
  O  O21  1  0.617620  0.876981  0.683370  1
  O  O22  1  0.841546  0.221437  0.710271  1
  O  O23  1  0.001107  0.248468  0.425501  1
  O  O24  1  0.129627  0.339305  0.204047  1
  O  O25  1  0.151992  0.988709  0.839637  1
  O  O26  1  0.158454  0.778563  0.289729  1
  O  O27  1  0.303351  0.411528  0.914894  1
  O  O28  1  0.382380  0.123019  0.316630  1
  O  O29  1  0.476621  0.114602  0.646341  1
  O  O30  1  0.560848  0.531390  0.362592  1
