# generated using pymatgen
data_TbNd2Ho3Ta2O14
_symmetry_space_group_name_H-M   'P 1'
_cell_length_a   6.49787801
_cell_length_b   6.49570125
_cell_length_c   7.60479600
_cell_angle_alpha   90.00000000
_cell_angle_beta   90.00000000
_cell_angle_gamma   109.30998489
_symmetry_Int_Tables_number   1
_chemical_formula_structural   TbNd2Ho3Ta2O14
_chemical_formula_sum   'Tb1 Nd2 Ho3 Ta2 O14'
_cell_volume   302.92775359
_cell_formula_units_Z   1
loop_
 _symmetry_equiv_pos_site_id
 _symmetry_equiv_pos_as_xyz
  1  'x, y, z'
loop_
 _atom_site_type_symbol
 _atom_site_label
 _atom_site_symmetry_multiplicity
 _atom_site_fract_x
 _atom_site_fract_y
 _atom_site_fract_z
 _atom_site_occupancy
  Tb  Tb0  1  0.465528  0.999590  0.250000  1
  Nd  Nd1  1  0.500210  0.500446  0.500388  1
  Nd  Nd2  1  0.500210  0.500446  0.999612  1
  Ho  Ho3  1  0.000917  0.533199  0.250000  1
  Ho  Ho4  1  0.998960  0.466654  0.750000  1
  Ho  Ho5  1  0.533691  0.000939  0.750000  1
  Ta  Ta6  1  0.000045  0.999996  0.500435  1
  Ta  Ta7  1  0.000045  0.999996  0.999565  1
  O  O8  1  0.936190  0.064367  0.750000  1
  O  O9  1  0.063136  0.935963  0.250000  1
  O  O10  1  0.356279  0.640489  0.250000  1
  O  O11  1  0.643633  0.356475  0.750000  1
  O  O12  1  0.363115  0.636890  0.750000  1
  O  O13  1  0.638294  0.366470  0.250000  1
  O  O14  1  0.320359  0.069085  0.966672  1
  O  O15  1  0.679387  0.930252  0.469646  1
  O  O16  1  0.320359  0.069085  0.533328  1
  O  O17  1  0.679387  0.930252  0.030354  1
  O  O18  1  0.068398  0.320367  0.467949  1
  O  O19  1  0.931729  0.679336  0.967884  1
  O  O20  1  0.931729  0.679336  0.532116  1
  O  O21  1  0.068398  0.320367  0.032051  1
