# generated using pymatgen
data_Ti12Fe6IrOs5
_symmetry_space_group_name_H-M   'P 1'
_cell_length_a   4.28609500
_cell_length_b   6.09200600
_cell_length_c   12.88667000
_cell_angle_alpha   89.99956138
_cell_angle_beta   90.00056528
_cell_angle_gamma   90.00003218
_symmetry_Int_Tables_number   1
_chemical_formula_structural   Ti12Fe6IrOs5
_chemical_formula_sum   'Ti12 Fe6 Ir1 Os5'
_cell_volume   336.48276376
_cell_formula_units_Z   1
loop_
 _symmetry_equiv_pos_site_id
 _symmetry_equiv_pos_as_xyz
  1  'x, y, z'
loop_
 _atom_site_type_symbol
 _atom_site_label
 _atom_site_symmetry_multiplicity
 _atom_site_fract_x
 _atom_site_fract_y
 _atom_site_fract_z
 _atom_site_occupancy
  Ti  Ti0  1  0.499991  0.251241  0.001009  1
  Ti  Ti1  1  0.499991  0.748760  0.001007  1
  Ti  Ti2  1  0.999617  0.249771  0.166858  1
  Ti  Ti3  1  0.999617  0.750229  0.166860  1
  Ti  Ti4  1  0.499618  0.249792  0.333315  1
  Ti  Ti5  1  0.499618  0.750208  0.333320  1
  Ti  Ti6  1  0.000000  0.249668  0.499850  1
  Ti  Ti7  1  0.000000  0.750335  0.499851  1
  Ti  Ti8  1  0.500368  0.251067  0.665678  1
  Ti  Ti9  1  0.500368  0.748934  0.665674  1
  Ti  Ti10  1  0.000374  0.252443  0.833287  1
  Ti  Ti11  1  0.000373  0.747558  0.833282  1
  Fe  Fe12  1  0.999981  0.000012  0.999328  1
  Fe  Fe13  1  0.499471  0.499987  0.166262  1
  Fe  Fe14  1  0.999483  0.000004  0.333341  1
  Fe  Fe15  1  0.500002  0.500009  0.500373  1
  Fe  Fe16  1  0.000555  0.999997  0.667350  1
  Fe  Fe17  1  0.500553  0.499992  0.833361  1
  Ir  Ir18  1  0.500423  0.000002  0.833315  1
  Os  Os19  1  0.000000  0.499993  0.999778  1
  Os  Os20  1  0.499590  0.000006  0.166531  1
  Os  Os21  1  0.999599  0.499999  0.333319  1
  Os  Os22  1  0.500002  0.999997  0.500150  1
  Os  Os23  1  0.000407  0.500003  0.666901  1
