# generated using pymatgen
data_Er12Tm8GaBi11
_symmetry_space_group_name_H-M   'P 1'
_cell_length_a   8.14631071
_cell_length_b   9.40946300
_cell_length_c   11.92260900
_cell_angle_alpha   90.00000000
_cell_angle_beta   89.67706486
_cell_angle_gamma   90.00000000
_symmetry_Int_Tables_number   1
_chemical_formula_structural   Er12Tm8GaBi11
_chemical_formula_sum   'Er12 Tm8 Ga1 Bi11'
_cell_volume   913.88218742
_cell_formula_units_Z   1
loop_
 _symmetry_equiv_pos_site_id
 _symmetry_equiv_pos_as_xyz
  1  'x, y, z'
loop_
 _atom_site_type_symbol
 _atom_site_label
 _atom_site_symmetry_multiplicity
 _atom_site_fract_x
 _atom_site_fract_y
 _atom_site_fract_z
 _atom_site_occupancy
  Er  Er0  1  0.037822  0.250000  0.510124  1
  Er  Er1  1  0.978485  0.750000  0.489819  1
  Er  Er2  1  0.475260  0.750000  0.010963  1
  Er  Er3  1  0.525639  0.250000  0.988804  1
  Er  Er4  1  0.356272  0.250000  0.293857  1
  Er  Er5  1  0.646756  0.750000  0.716442  1
  Er  Er6  1  0.147712  0.750000  0.782730  1
  Er  Er7  1  0.853798  0.250000  0.216077  1
  Er  Er8  1  0.192403  0.250000  0.777298  1
  Er  Er9  1  0.810628  0.750000  0.218092  1
  Er  Er10  1  0.312886  0.750000  0.281180  1
  Er  Er11  1  0.674497  0.250000  0.710656  1
  Tm  Tm12  1  0.193570  0.065723  0.060463  1
  Tm  Tm13  1  0.806660  0.934813  0.940650  1
  Tm  Tm14  1  0.308908  0.949450  0.559186  1
  Tm  Tm15  1  0.806660  0.565187  0.940650  1
  Tm  Tm16  1  0.684336  0.072286  0.444916  1
  Tm  Tm17  1  0.193570  0.434277  0.060463  1
  Tm  Tm18  1  0.684336  0.427714  0.444916  1
  Tm  Tm19  1  0.308908  0.550550  0.559186  1
  Ga  Ga20  1  0.408535  0.250000  0.539860  1
  Bi  Bi21  1  0.593363  0.750000  0.457403  1
  Bi  Bi22  1  0.093670  0.750000  0.042615  1
  Bi  Bi23  1  0.907954  0.250000  0.954858  1
  Bi  Bi24  1  0.064068  0.002873  0.324602  1
  Bi  Bi25  1  0.934536  0.997585  0.674962  1
  Bi  Bi26  1  0.434931  0.996201  0.825288  1
  Bi  Bi27  1  0.934536  0.502415  0.674962  1
  Bi  Bi28  1  0.565152  0.004391  0.174543  1
  Bi  Bi29  1  0.064068  0.497127  0.324602  1
  Bi  Bi30  1  0.565152  0.495609  0.174543  1
  Bi  Bi31  1  0.434931  0.503799  0.825288  1
