# generated using pymatgen
data_RbMn2Cl9
_symmetry_space_group_name_H-M   'P 1'
_cell_length_a   6.54540400
_cell_length_b   9.54891754
_cell_length_c   12.14140183
_cell_angle_alpha   65.14979030
_cell_angle_beta   90.00000000
_cell_angle_gamma   90.00000000
_symmetry_Int_Tables_number   1
_chemical_formula_structural   RbMn2Cl9
_chemical_formula_sum   'Rb2 Mn4 Cl18'
_cell_volume   688.59328146
_cell_formula_units_Z   2
loop_
 _symmetry_equiv_pos_site_id
 _symmetry_equiv_pos_as_xyz
  1  'x, y, z'
loop_
 _atom_site_type_symbol
 _atom_site_label
 _atom_site_symmetry_multiplicity
 _atom_site_fract_x
 _atom_site_fract_y
 _atom_site_fract_z
 _atom_site_occupancy
  Rb  Rb0  1  0.587689  0.500000  0.750000  1
  Rb  Rb1  1  0.412311  0.500000  0.250000  1
  Mn  Mn2  1  0.260716  0.835016  0.857319  1
  Mn  Mn3  1  0.739284  0.164984  0.142681  1
  Mn  Mn4  1  0.260716  0.164984  0.642681  1
  Mn  Mn5  1  0.739284  0.835016  0.357319  1
  Cl  Cl6  1  0.117759  0.788713  0.032285  1
  Cl  Cl7  1  0.882241  0.211287  0.967715  1
  Cl  Cl8  1  0.117759  0.211287  0.467715  1
  Cl  Cl9  1  0.882241  0.788713  0.532285  1
  Cl  Cl10  1  0.125543  0.632579  0.841759  1
  Cl  Cl11  1  0.874457  0.367421  0.158241  1
  Cl  Cl12  1  0.125543  0.367421  0.658241  1
  Cl  Cl13  1  0.874457  0.632579  0.341759  1
  Cl  Cl14  1  0.989638  0.000000  0.750000  1
  Cl  Cl15  1  0.010362  0.000000  0.250000  1
  Cl  Cl16  1  0.397159  0.073698  0.841509  1
  Cl  Cl17  1  0.602841  0.926302  0.158491  1
  Cl  Cl18  1  0.397159  0.926302  0.658491  1
  Cl  Cl19  1  0.602841  0.073698  0.341509  1
  Cl  Cl20  1  0.550354  0.715447  0.936365  1
  Cl  Cl21  1  0.449646  0.284553  0.063635  1
  Cl  Cl22  1  0.550354  0.284553  0.563635  1
  Cl  Cl23  1  0.449646  0.715447  0.436365  1
