# generated using pymatgen
data_Tb2YEr5(B6Os)4
_symmetry_space_group_name_H-M   'P 1'
_cell_length_a   3.64332400
_cell_length_b   9.12595707
_cell_length_c   11.51395601
_cell_angle_alpha   90.00876489
_cell_angle_beta   90.00000000
_cell_angle_gamma   90.00000000
_symmetry_Int_Tables_number   1
_chemical_formula_structural   Tb2YEr5(B6Os)4
_chemical_formula_sum   'Tb2 Y1 Er5 B24 Os4'
_cell_volume   382.82542787
_cell_formula_units_Z   1
loop_
 _symmetry_equiv_pos_site_id
 _symmetry_equiv_pos_as_xyz
  1  'x, y, z'
loop_
 _atom_site_type_symbol
 _atom_site_label
 _atom_site_symmetry_multiplicity
 _atom_site_fract_x
 _atom_site_fract_y
 _atom_site_fract_z
 _atom_site_occupancy
  Tb  Tb0  1  0.000000  0.321904  0.413936  1
  Tb  Tb1  1  0.000000  0.678097  0.586153  1
  Y  Y2  1  0.000000  0.821700  0.085862  1
  Er  Er3  1  0.000000  0.178290  0.914160  1
  Er  Er4  1  0.000000  0.943824  0.372658  1
  Er  Er5  1  0.000000  0.056317  0.627325  1
  Er  Er6  1  0.000000  0.443628  0.126725  1
  Er  Er7  1  0.000000  0.556066  0.873081  1
  B  B8  1  0.500000  0.554067  0.432709  1
  B  B9  1  0.500000  0.445747  0.567520  1
  B  B10  1  0.500000  0.054280  0.066483  1
  B  B11  1  0.500000  0.946665  0.932969  1
  B  B12  1  0.500000  0.748683  0.419333  1
  B  B13  1  0.500000  0.251318  0.580924  1
  B  B14  1  0.500000  0.248266  0.079660  1
  B  B15  1  0.500000  0.751804  0.919563  1
  B  B16  1  0.500000  0.791002  0.266153  1
  B  B17  1  0.500000  0.208692  0.734389  1
  B  B18  1  0.500000  0.290820  0.233136  1
  B  B19  1  0.500000  0.709266  0.766669  1
  B  B20  1  0.500000  0.631024  0.184913  1
  B  B21  1  0.500000  0.368333  0.815468  1
  B  B22  1  0.500000  0.131031  0.314639  1
  B  B23  1  0.500000  0.869273  0.685377  1
  B  B24  1  0.500000  0.983001  0.212929  1
  B  B25  1  0.500000  0.017845  0.787218  1
  B  B26  1  0.500000  0.482911  0.286386  1
  B  B27  1  0.500000  0.516747  0.713700  1
  B  B28  1  0.500000  0.606349  0.029359  1
  B  B29  1  0.500000  0.392724  0.970344  1
  B  B30  1  0.500000  0.105435  0.470855  1
  B  B31  1  0.500000  0.894673  0.529198  1
  Os  Os32  1  0.000000  0.637394  0.320902  1
  Os  Os33  1  0.000000  0.362103  0.679585  1
  Os  Os34  1  0.000000  0.137517  0.178590  1
  Os  Os35  1  0.000000  0.863206  0.821126  1
