# generated using pymatgen
data_TbTi3(BiO4)3
_symmetry_space_group_name_H-M   'P 1'
_cell_length_a   5.40218000
_cell_length_b   5.48157346
_cell_length_c   17.12846317
_cell_angle_alpha   81.02776810
_cell_angle_beta   90.00000000
_cell_angle_gamma   90.00000000
_symmetry_Int_Tables_number   1
_chemical_formula_structural   TbTi3(BiO4)3
_chemical_formula_sum   'Tb2 Ti6 Bi6 O24'
_cell_volume   501.00942804
_cell_formula_units_Z   2
loop_
 _symmetry_equiv_pos_site_id
 _symmetry_equiv_pos_as_xyz
  1  'x, y, z'
loop_
 _atom_site_type_symbol
 _atom_site_label
 _atom_site_symmetry_multiplicity
 _atom_site_fract_x
 _atom_site_fract_y
 _atom_site_fract_z
 _atom_site_occupancy
  Tb  Tb0  1  0.264619  0.085386  0.869417  1
  Tb  Tb1  1  0.735381  0.585386  0.869417  1
  Ti  Ti2  1  0.763093  0.060656  0.987454  1
  Ti  Ti3  1  0.236907  0.560656  0.987454  1
  Ti  Ti4  1  0.759986  0.181324  0.749179  1
  Ti  Ti5  1  0.240014  0.681324  0.749179  1
  Ti  Ti6  1  0.756227  0.921339  0.257820  1
  Ti  Ti7  1  0.243773  0.421339  0.257820  1
  Bi  Bi8  1  0.273673  0.184486  0.587824  1
  Bi  Bi9  1  0.726327  0.684486  0.587824  1
  Bi  Bi10  1  0.261748  0.935446  0.132350  1
  Bi  Bi11  1  0.738252  0.435446  0.132350  1
  Bi  Bi12  1  0.232975  0.777090  0.433399  1
  Bi  Bi13  1  0.767025  0.277090  0.433399  1
  O  O14  1  0.452080  0.318075  0.960547  1
  O  O15  1  0.547920  0.818075  0.960547  1
  O  O16  1  0.506453  0.004069  0.505076  1
  O  O17  1  0.493547  0.504069  0.505076  1
  O  O18  1  0.846878  0.172423  0.876593  1
  O  O19  1  0.153122  0.672423  0.876593  1
  O  O20  1  0.676230  0.248764  0.644539  1
  O  O21  1  0.323770  0.748764  0.644539  1
  O  O22  1  0.458241  0.406967  0.787015  1
  O  O23  1  0.541759  0.906967  0.787015  1
  O  O24  1  0.943177  0.507987  0.747730  1
  O  O25  1  0.056823  0.007987  0.747730  1
  O  O26  1  0.936500  0.394846  0.003481  1
  O  O27  1  0.063500  0.894846  0.003481  1
  O  O28  1  0.993538  0.503853  0.506470  1
  O  O29  1  0.006462  0.003853  0.506470  1
  O  O30  1  0.678043  0.047131  0.100364  1
  O  O31  1  0.321957  0.547131  0.100364  1
  O  O32  1  0.797685  0.871462  0.359839  1
  O  O33  1  0.202315  0.371462  0.359839  1
  O  O34  1  0.014387  0.185835  0.219081  1
  O  O35  1  0.985613  0.685835  0.219081  1
  O  O36  1  0.528032  0.221261  0.237620  1
  O  O37  1  0.471968  0.721261  0.237620  1
