# generated using pymatgen
data_Rb4ZnPt7
_symmetry_space_group_name_H-M   'P 1'
_cell_length_a   5.35839838
_cell_length_b   12.09836553
_cell_length_c   4.62504900
_cell_angle_alpha   90.00000000
_cell_angle_beta   90.00000000
_cell_angle_gamma   89.58700604
_symmetry_Int_Tables_number   1
_chemical_formula_structural   Rb4ZnPt7
_chemical_formula_sum   'Rb4 Zn1 Pt7'
_cell_volume   299.82425037
_cell_formula_units_Z   1
loop_
 _symmetry_equiv_pos_site_id
 _symmetry_equiv_pos_as_xyz
  1  'x, y, z'
loop_
 _atom_site_type_symbol
 _atom_site_label
 _atom_site_symmetry_multiplicity
 _atom_site_fract_x
 _atom_site_fract_y
 _atom_site_fract_z
 _atom_site_occupancy
  Rb  Rb0  1  0.923629  0.003806  0.000000  1
  Rb  Rb1  1  0.419054  0.498732  0.000000  1
  Rb  Rb2  1  0.412027  0.004070  0.500001  1
  Rb  Rb3  1  0.915397  0.496519  0.500001  1
  Zn  Zn4  1  0.789649  0.757660  0.500001  1
  Pt  Pt5  1  0.541665  0.238809  0.000000  1
  Pt  Pt6  1  0.041326  0.261661  0.000000  1
  Pt  Pt7  1  0.041072  0.737510  0.000000  1
  Pt  Pt8  1  0.542337  0.760675  0.000000  1
  Pt  Pt9  1  0.792248  0.237825  0.500001  1
  Pt  Pt10  1  0.291780  0.261150  0.500001  1
  Pt  Pt11  1  0.289766  0.741582  0.500001  1
