# generated using pymatgen
data_Dy3ErAl8
_symmetry_space_group_name_H-M   'P 1'
_cell_length_a   9.63437076
_cell_length_b   9.63437050
_cell_length_c   9.63437058
_cell_angle_alpha   33.52173629
_cell_angle_beta   33.52173689
_cell_angle_gamma   33.52174345
_symmetry_Int_Tables_number   1
_chemical_formula_structural   Dy3ErAl8
_chemical_formula_sum   'Dy3 Er1 Al8'
_cell_volume   242.92056280
_cell_formula_units_Z   1
loop_
 _symmetry_equiv_pos_site_id
 _symmetry_equiv_pos_as_xyz
  1  'x, y, z'
loop_
 _atom_site_type_symbol
 _atom_site_label
 _atom_site_symmetry_multiplicity
 _atom_site_fract_x
 _atom_site_fract_y
 _atom_site_fract_z
 _atom_site_occupancy
  Dy  Dy0  1  0.312539  0.312539  0.312539  1
  Dy  Dy1  1  0.687440  0.687440  0.687440  1
  Dy  Dy2  1  0.187496  0.187496  0.187496  1
  Er  Er3  1  0.812565  0.812565  0.812565  1
  Al  Al4  1  0.499920  0.499920  0.499920  1
  Al  Al5  1  0.999976  0.999976  0.999976  1
  Al  Al6  1  0.250297  0.250297  0.749651  1
  Al  Al7  1  0.749978  0.749978  0.249863  1
  Al  Al8  1  0.250297  0.749651  0.250297  1
  Al  Al9  1  0.749978  0.249863  0.749978  1
  Al  Al10  1  0.749651  0.250297  0.250297  1
  Al  Al11  1  0.249863  0.749978  0.749978  1
