# generated using pymatgen
data_Pr2SmHg5
_symmetry_space_group_name_H-M   'P 1'
_cell_length_a   6.56158810
_cell_length_b   6.56158780
_cell_length_c   10.56599700
_cell_angle_alpha   90.00000000
_cell_angle_beta   90.00000000
_cell_angle_gamma   105.85916406
_symmetry_Int_Tables_number   1
_chemical_formula_structural   Pr2SmHg5
_chemical_formula_sum   'Pr4 Sm2 Hg10'
_cell_volume   437.59738261
_cell_formula_units_Z   2
loop_
 _symmetry_equiv_pos_site_id
 _symmetry_equiv_pos_as_xyz
  1  'x, y, z'
loop_
 _atom_site_type_symbol
 _atom_site_label
 _atom_site_symmetry_multiplicity
 _atom_site_fract_x
 _atom_site_fract_y
 _atom_site_fract_z
 _atom_site_occupancy
  Pr  Pr0  1  0.205926  0.794074  0.500000  1
  Pr  Pr1  1  0.205926  0.794074  0.000000  1
  Pr  Pr2  1  0.794074  0.205926  0.500000  1
  Pr  Pr3  1  0.794074  0.205926  0.000000  1
  Sm  Sm4  1  0.579876  0.579876  0.250000  1
  Sm  Sm5  1  0.420124  0.420124  0.750000  1
  Hg  Hg6  1  0.981331  0.981331  0.250000  1
  Hg  Hg7  1  0.018669  0.018669  0.750000  1
  Hg  Hg8  1  0.301141  0.301141  0.030486  1
  Hg  Hg9  1  0.698859  0.698859  0.969514  1
  Hg  Hg10  1  0.301141  0.301141  0.469514  1
  Hg  Hg11  1  0.698859  0.698859  0.530486  1
  Hg  Hg12  1  0.479663  0.045222  0.250000  1
  Hg  Hg13  1  0.954778  0.520337  0.750000  1
  Hg  Hg14  1  0.520337  0.954778  0.750000  1
  Hg  Hg15  1  0.045222  0.479663  0.250000  1
