# generated using pymatgen
data_Nd4GeBr6
_symmetry_space_group_name_H-M   'P 1'
_cell_length_a   4.22687300
_cell_length_b   13.74534400
_cell_length_c   14.56075800
_cell_angle_alpha   90.00000000
_cell_angle_beta   90.00000000
_cell_angle_gamma   90.00000000
_symmetry_Int_Tables_number   1
_chemical_formula_structural   Nd4GeBr6
_chemical_formula_sum   'Nd8 Ge2 Br12'
_cell_volume   845.97746880
_cell_formula_units_Z   2
loop_
 _symmetry_equiv_pos_site_id
 _symmetry_equiv_pos_as_xyz
  1  'x, y, z'
loop_
 _atom_site_type_symbol
 _atom_site_label
 _atom_site_symmetry_multiplicity
 _atom_site_fract_x
 _atom_site_fract_y
 _atom_site_fract_z
 _atom_site_occupancy
  Nd  Nd0  1  0.500000  0.119529  0.339343  1
  Nd  Nd1  1  0.500000  0.880471  0.660657  1
  Nd  Nd2  1  0.500000  0.619529  0.160657  1
  Nd  Nd3  1  0.500000  0.380471  0.839343  1
  Nd  Nd4  1  0.000000  0.120256  0.579682  1
  Nd  Nd5  1  0.000000  0.879744  0.420318  1
  Nd  Nd6  1  0.000000  0.620256  0.920318  1
  Nd  Nd7  1  0.000000  0.379744  0.079682  1
  Ge  Ge8  1  0.500000  0.000000  0.500000  1
  Ge  Ge9  1  0.500000  0.500000  0.000000  1
  Br  Br10  1  0.500000  0.243957  0.162309  1
  Br  Br11  1  0.500000  0.756043  0.837691  1
  Br  Br12  1  0.500000  0.743957  0.337691  1
  Br  Br13  1  0.500000  0.256043  0.662309  1
  Br  Br14  1  0.000000  0.254296  0.411425  1
  Br  Br15  1  0.000000  0.745704  0.588575  1
  Br  Br16  1  0.000000  0.754296  0.088575  1
  Br  Br17  1  0.000000  0.245704  0.911425  1
  Br  Br18  1  0.000000  0.001671  0.244275  1
  Br  Br19  1  0.000000  0.998329  0.755725  1
  Br  Br20  1  0.000000  0.501671  0.255725  1
  Br  Br21  1  0.000000  0.498329  0.744275  1
