# generated using pymatgen
data_TbY5Cd23Si
_symmetry_space_group_name_H-M   'P 1'
_cell_length_a   9.99858673
_cell_length_b   9.96884695
_cell_length_c   9.96884600
_cell_angle_alpha   60.19747884
_cell_angle_beta   59.90126246
_cell_angle_gamma   59.90126623
_symmetry_Int_Tables_number   1
_chemical_formula_structural   TbY5Cd23Si
_chemical_formula_sum   'Tb1 Y5 Cd23 Si1'
_cell_volume   702.59605421
_cell_formula_units_Z   1
loop_
 _symmetry_equiv_pos_site_id
 _symmetry_equiv_pos_as_xyz
  1  'x, y, z'
loop_
 _atom_site_type_symbol
 _atom_site_label
 _atom_site_symmetry_multiplicity
 _atom_site_fract_x
 _atom_site_fract_y
 _atom_site_fract_z
 _atom_site_occupancy
  Tb  Tb0  1  0.203227  0.796773  0.796773  1
  Y  Y1  1  0.798786  0.798515  0.201214  1
  Y  Y2  1  0.201485  0.798515  0.201214  1
  Y  Y3  1  0.797317  0.202683  0.202683  1
  Y  Y4  1  0.201485  0.201214  0.798515  1
  Y  Y5  1  0.798786  0.201214  0.798515  1
  Cd  Cd6  1  0.837600  0.839182  0.485617  1
  Cd  Cd7  1  0.837600  0.485617  0.839182  1
  Cd  Cd8  1  0.487036  0.837345  0.837345  1
  Cd  Cd9  1  0.838273  0.837345  0.837345  1
  Cd  Cd10  1  0.162655  0.161727  0.512964  1
  Cd  Cd11  1  0.162655  0.512964  0.161727  1
  Cd  Cd12  1  0.514383  0.162400  0.162400  1
  Cd  Cd13  1  0.160818  0.162400  0.162400  1
  Cd  Cd14  1  0.621495  0.622827  0.134184  1
  Cd  Cd15  1  0.621495  0.134184  0.622827  1
  Cd  Cd16  1  0.132958  0.621588  0.621588  1
  Cd  Cd17  1  0.623867  0.621588  0.621588  1
  Cd  Cd18  1  0.378412  0.376133  0.867042  1
  Cd  Cd19  1  0.378412  0.867042  0.376133  1
  Cd  Cd20  1  0.865816  0.378505  0.378505  1
  Cd  Cd21  1  0.377173  0.378505  0.378505  1
  Cd  Cd22  1  0.000116  0.999884  0.500288  1
  Cd  Cd23  1  0.499712  0.999884  0.500288  1
  Cd  Cd24  1  0.999883  0.500117  0.500117  1
  Cd  Cd25  1  0.499712  0.500288  0.999884  1
  Cd  Cd26  1  0.000116  0.500288  0.999884  1
  Cd  Cd27  1  0.499883  0.000117  0.000117  1
  Cd  Cd28  1  0.499056  0.500944  0.500944  1
  Si  Si29  1  0.999790  0.000210  0.000210  1
