# generated using pymatgen
data_Nd2In7Ni2Ag
_symmetry_space_group_name_H-M   'P 1'
_cell_length_a   8.70713775
_cell_length_b   8.70713777
_cell_length_c   7.05581209
_cell_angle_alpha   91.57838753
_cell_angle_beta   88.42161053
_cell_angle_gamma   150.01979192
_symmetry_Int_Tables_number   1
_chemical_formula_structural   Nd2In7Ni2Ag
_chemical_formula_sum   'Nd2 In7 Ni2 Ag1'
_cell_volume   267.19680501
_cell_formula_units_Z   1
loop_
 _symmetry_equiv_pos_site_id
 _symmetry_equiv_pos_as_xyz
  1  'x, y, z'
loop_
 _atom_site_type_symbol
 _atom_site_label
 _atom_site_symmetry_multiplicity
 _atom_site_fract_x
 _atom_site_fract_y
 _atom_site_fract_z
 _atom_site_occupancy
  Nd  Nd0  1  0.877096  0.122904  0.737156  1
  Nd  Nd1  1  0.122904  0.877096  0.262844  1
  In  In2  1  0.500000  0.500000  0.500000  1
  In  In3  1  0.068862  0.931138  0.774505  1
  In  In4  1  0.931138  0.068862  0.225495  1
  In  In5  1  0.683949  0.316051  0.962146  1
  In  In6  1  0.316051  0.683949  0.037854  1
  In  In7  1  0.687194  0.312806  0.550214  1
  In  In8  1  0.312806  0.687194  0.449786  1
  Ni  Ni9  1  0.221087  0.778913  0.752135  1
  Ni  Ni10  1  0.778913  0.221087  0.247865  1
  Ag  Ag11  1  0.500000  0.500000  0.000000  1
