# generated using pymatgen
data_Sc20Si12C
_symmetry_space_group_name_H-M   'P 1'
_cell_length_a   5.83459396
_cell_length_b   7.90122685
_cell_length_c   13.71477400
_cell_angle_alpha   90.00000725
_cell_angle_beta   90.00000000
_cell_angle_gamma   89.92950413
_symmetry_Int_Tables_number   1
_chemical_formula_structural   Sc20Si12C
_chemical_formula_sum   'Sc20 Si12 C1'
_cell_volume   632.25678055
_cell_formula_units_Z   1
loop_
 _symmetry_equiv_pos_site_id
 _symmetry_equiv_pos_as_xyz
  1  'x, y, z'
loop_
 _atom_site_type_symbol
 _atom_site_label
 _atom_site_symmetry_multiplicity
 _atom_site_fract_x
 _atom_site_fract_y
 _atom_site_fract_z
 _atom_site_occupancy
  Sc  Sc0  1  0.500001  0.999996  0.334730  1
  Sc  Sc1  1  0.499998  0.500002  0.830492  1
  Sc  Sc2  1  0.499998  0.500002  0.169508  1
  Sc  Sc3  1  0.500001  0.999996  0.665270  1
  Sc  Sc4  1  0.000000  0.500001  0.163657  1
  Sc  Sc5  1  0.000003  0.000003  0.668618  1
  Sc  Sc6  1  0.000003  0.000003  0.331382  1
  Sc  Sc7  1  0.000000  0.500001  0.836343  1
  Sc  Sc8  1  0.726041  0.234820  0.000000  1
  Sc  Sc9  1  0.751222  0.743499  0.500000  1
  Sc  Sc10  1  0.751610  0.379196  0.379237  1
  Sc  Sc11  1  0.728581  0.881090  0.882223  1
  Sc  Sc12  1  0.728581  0.881090  0.117777  1
  Sc  Sc13  1  0.751610  0.379196  0.620763  1
  Sc  Sc14  1  0.273954  0.765179  0.000000  1
  Sc  Sc15  1  0.248779  0.256500  0.500000  1
  Sc  Sc16  1  0.271422  0.118907  0.117777  1
  Sc  Sc17  1  0.248391  0.620809  0.620764  1
  Sc  Sc18  1  0.248391  0.620809  0.379236  1
  Sc  Sc19  1  0.271422  0.118907  0.882223  1
  Si  Si20  1  0.739736  0.599688  0.000000  1
  Si  Si21  1  0.753091  0.104971  0.500000  1
  Si  Si22  1  0.747055  0.199300  0.199695  1
  Si  Si23  1  0.752385  0.696971  0.697525  1
  Si  Si24  1  0.752385  0.696971  0.302475  1
  Si  Si25  1  0.747055  0.199300  0.800305  1
  Si  Si26  1  0.260252  0.400309  0.000000  1
  Si  Si27  1  0.246905  0.895021  0.500000  1
  Si  Si28  1  0.247625  0.303031  0.302473  1
  Si  Si29  1  0.252941  0.800701  0.800305  1
  Si  Si30  1  0.252941  0.800701  0.199695  1
  Si  Si31  1  0.247625  0.303031  0.697527  1
  C  C32  1  0.500000  0.000000  0.000000  1
