# generated using pymatgen
data_Hf3Mo3AsP2
_symmetry_space_group_name_H-M   'P 1'
_cell_length_a   6.99938300
_cell_length_b   6.99938369
_cell_length_c   3.43087100
_cell_angle_alpha   90.00000000
_cell_angle_beta   90.00000000
_cell_angle_gamma   120.00000145
_symmetry_Int_Tables_number   1
_chemical_formula_structural   Hf3Mo3AsP2
_chemical_formula_sum   'Hf3 Mo3 As1 P2'
_cell_volume   145.56419871
_cell_formula_units_Z   1
loop_
 _symmetry_equiv_pos_site_id
 _symmetry_equiv_pos_as_xyz
  1  'x, y, z'
loop_
 _atom_site_type_symbol
 _atom_site_label
 _atom_site_symmetry_multiplicity
 _atom_site_fract_x
 _atom_site_fract_y
 _atom_site_fract_z
 _atom_site_occupancy
  Hf  Hf0  1  0.010077  0.603831  0.500000  1
  Hf  Hf1  1  0.396169  0.406246  0.500000  1
  Hf  Hf2  1  0.593754  0.989923  0.500000  1
  Mo  Mo3  1  0.248850  0.995383  0.000000  1
  Mo  Mo4  1  0.746533  0.751150  0.000000  1
  Mo  Mo5  1  0.004617  0.253467  0.000000  1
  As  As6  1  0.666667  0.333333  0.000000  1
  P  P7  1  0.333333  0.666667  0.000000  1
  P  P8  1  0.000000  0.000000  0.500000  1
