# generated using pymatgen
data_Dy3Y3Os2
_symmetry_space_group_name_H-M   'P 1'
_cell_length_a   6.32671263
_cell_length_b   7.42916423
_cell_length_c   9.09500067
_cell_angle_alpha   89.96245198
_cell_angle_beta   89.90544399
_cell_angle_gamma   90.09094421
_symmetry_Int_Tables_number   1
_chemical_formula_structural   Dy3Y3Os2
_chemical_formula_sum   'Dy6 Y6 Os4'
_cell_volume   427.48371036
_cell_formula_units_Z   2
loop_
 _symmetry_equiv_pos_site_id
 _symmetry_equiv_pos_as_xyz
  1  'x, y, z'
loop_
 _atom_site_type_symbol
 _atom_site_label
 _atom_site_symmetry_multiplicity
 _atom_site_fract_x
 _atom_site_fract_y
 _atom_site_fract_z
 _atom_site_occupancy
  Dy  Dy0  1  0.167825  0.174860  0.063212  1
  Dy  Dy1  1  0.832175  0.825140  0.936788  1
  Dy  Dy2  1  0.667785  0.325151  0.936709  1
  Dy  Dy3  1  0.831616  0.825512  0.563636  1
  Dy  Dy4  1  0.332215  0.674849  0.063291  1
  Dy  Dy5  1  0.168384  0.174488  0.436364  1
  Y  Y6  1  0.630301  0.039967  0.249617  1
  Y  Y7  1  0.369699  0.960033  0.750383  1
  Y  Y8  1  0.130931  0.459692  0.750389  1
  Y  Y9  1  0.869069  0.540308  0.249611  1
  Y  Y10  1  0.331912  0.675033  0.437012  1
  Y  Y11  1  0.668088  0.324967  0.562988  1
  Os  Os12  1  0.457310  0.383082  0.248506  1
  Os  Os13  1  0.542690  0.616918  0.751494  1
  Os  Os14  1  0.957781  0.115699  0.750605  1
  Os  Os15  1  0.042219  0.884301  0.249395  1
