# generated using pymatgen
data_TbHo(PuS2)2
_symmetry_space_group_name_H-M   'P 1'
_cell_length_a   6.81042467
_cell_length_b   6.81042507
_cell_length_c   6.81034732
_cell_angle_alpha   131.84209105
_cell_angle_beta   131.84385503
_cell_angle_gamma   70.47806798
_symmetry_Int_Tables_number   1
_chemical_formula_structural   TbHo(PuS2)2
_chemical_formula_sum   'Tb1 Ho1 Pu2 S4'
_cell_volume   171.77615770
_cell_formula_units_Z   1
loop_
 _symmetry_equiv_pos_site_id
 _symmetry_equiv_pos_as_xyz
  1  'x, y, z'
loop_
 _atom_site_type_symbol
 _atom_site_label
 _atom_site_symmetry_multiplicity
 _atom_site_fract_x
 _atom_site_fract_y
 _atom_site_fract_z
 _atom_site_occupancy
  Tb  Tb0  1  0.509931  0.009931  0.500000  1
  Ho  Ho1  1  0.759911  0.759911  0.000000  1
  Pu  Pu2  1  0.260028  0.260028  0.000000  1
  Pu  Pu3  1  0.010052  0.510052  0.500000  1
  S  S4  1  0.009676  0.009676  0.000000  1
  S  S5  1  0.760646  0.260646  0.500000  1
  S  S6  1  0.510351  0.510351  0.000000  1
  S  S7  1  0.259404  0.759404  0.500000  1
