# generated using pymatgen
data_Tb4ScGaNiBi
_symmetry_space_group_name_H-M   'P 1'
_cell_length_a   8.48605040
_cell_length_b   8.48605058
_cell_length_c   8.71305190
_cell_angle_alpha   124.85945710
_cell_angle_beta   124.85945590
_cell_angle_gamma   79.99643650
_symmetry_Int_Tables_number   1
_chemical_formula_structural   Tb4ScGaNiBi
_chemical_formula_sum   'Tb8 Sc2 Ga2 Ni2 Bi2'
_cell_volume   411.42401493
_cell_formula_units_Z   2
loop_
 _symmetry_equiv_pos_site_id
 _symmetry_equiv_pos_as_xyz
  1  'x, y, z'
loop_
 _atom_site_type_symbol
 _atom_site_label
 _atom_site_symmetry_multiplicity
 _atom_site_fract_x
 _atom_site_fract_y
 _atom_site_fract_z
 _atom_site_occupancy
  Tb  Tb0  1  0.782159  0.282159  0.793887  1
  Tb  Tb1  1  0.217841  0.717841  0.206113  1
  Tb  Tb2  1  0.488272  0.988272  0.206113  1
  Tb  Tb3  1  0.304038  0.459969  0.500000  1
  Tb  Tb4  1  0.040031  0.195962  0.500000  1
  Tb  Tb5  1  0.511728  0.011728  0.793887  1
  Tb  Tb6  1  0.695962  0.540031  0.500000  1
  Tb  Tb7  1  0.959969  0.804038  0.500000  1
  Sc  Sc8  1  0.000000  0.000000  0.000000  1
  Sc  Sc9  1  0.500000  0.500000  0.000000  1
  Ga  Ga10  1  0.146091  0.646091  0.792181  1
  Ga  Ga11  1  0.853909  0.353909  0.207819  1
  Ni  Ni12  1  0.629138  0.870862  0.500000  1
  Ni  Ni13  1  0.370862  0.129138  0.500000  1
  Bi  Bi14  1  0.250000  0.250000  0.000000  1
  Bi  Bi15  1  0.750000  0.750000  0.000000  1
