# generated using pymatgen
data_ScNi2BiO6
_symmetry_space_group_name_H-M   'P 1'
_cell_length_a   5.32250939
_cell_length_b   5.32241212
_cell_length_c   5.69125276
_cell_angle_alpha   62.12177922
_cell_angle_beta   62.12090396
_cell_angle_gamma   59.99665200
_symmetry_Int_Tables_number   1
_chemical_formula_structural   ScNi2BiO6
_chemical_formula_sum   'Sc1 Ni2 Bi1 O6'
_cell_volume   117.51989221
_cell_formula_units_Z   1
loop_
 _symmetry_equiv_pos_site_id
 _symmetry_equiv_pos_as_xyz
  1  'x, y, z'
loop_
 _atom_site_type_symbol
 _atom_site_label
 _atom_site_symmetry_multiplicity
 _atom_site_fract_x
 _atom_site_fract_y
 _atom_site_fract_z
 _atom_site_occupancy
  Sc  Sc0  1  0.809565  0.809535  0.571294  1
  Ni  Ni1  1  0.518022  0.518142  0.446007  1
  Ni  Ni2  1  0.016694  0.016854  0.949843  1
  Bi  Bi3  1  0.314032  0.313963  0.057950  1
  O  O4  1  0.221068  0.906115  0.248921  1
  O  O5  1  0.906148  0.623868  0.248895  1
  O  O6  1  0.623863  0.221069  0.248848  1
  O  O7  1  0.724873  0.118326  0.747773  1
  O  O8  1  0.118372  0.408904  0.747829  1
  O  O9  1  0.408963  0.724824  0.747840  1
