# generated using pymatgen
data_Tm3LuAl18(OsRh2)2
_symmetry_space_group_name_H-M   'P 1'
_cell_length_a   7.49552416
_cell_length_b   7.49644954
_cell_length_c   9.43970600
_cell_angle_alpha   90.00000000
_cell_angle_beta   90.00000000
_cell_angle_gamma   118.42574210
_symmetry_Int_Tables_number   1
_chemical_formula_structural   Tm3LuAl18(OsRh2)2
_chemical_formula_sum   'Tm3 Lu1 Al18 Os2 Rh4'
_cell_volume   466.46572955
_cell_formula_units_Z   1
loop_
 _symmetry_equiv_pos_site_id
 _symmetry_equiv_pos_as_xyz
  1  'x, y, z'
loop_
 _atom_site_type_symbol
 _atom_site_label
 _atom_site_symmetry_multiplicity
 _atom_site_fract_x
 _atom_site_fract_y
 _atom_site_fract_z
 _atom_site_occupancy
  Tm  Tm0  1  0.993604  0.682302  0.250000  1
  Tm  Tm1  1  0.007102  0.317979  0.750000  1
  Tm  Tm2  1  0.682274  0.993580  0.250000  1
  Lu  Lu3  1  0.317740  0.007095  0.750000  1
  Al  Al4  1  0.134648  0.134574  0.250000  1
  Al  Al5  1  0.865505  0.865396  0.750000  1
  Al  Al6  1  0.002560  0.338721  0.075878  1
  Al  Al7  1  0.997598  0.661370  0.924063  1
  Al  Al8  1  0.997598  0.661370  0.575937  1
  Al  Al9  1  0.338706  0.002456  0.424440  1
  Al  Al10  1  0.002560  0.338721  0.424122  1
  Al  Al11  1  0.660869  0.997314  0.576047  1
  Al  Al12  1  0.660869  0.997314  0.923953  1
  Al  Al13  1  0.338706  0.002456  0.075560  1
  Al  Al14  1  0.331468  0.331218  0.547147  1
  Al  Al15  1  0.668525  0.668556  0.453366  1
  Al  Al16  1  0.668525  0.668556  0.046634  1
  Al  Al17  1  0.331468  0.331218  0.952853  1
  Al  Al18  1  0.341472  0.556144  0.250000  1
  Al  Al19  1  0.658192  0.443674  0.750000  1
  Al  Al20  1  0.555996  0.341376  0.250000  1
  Al  Al21  1  0.443951  0.658766  0.750000  1
  Os  Os22  1  0.000193  0.000073  0.999803  1
  Os  Os23  1  0.000193  0.000073  0.500197  1
  Rh  Rh24  1  0.672042  0.327775  0.999967  1
  Rh  Rh25  1  0.327796  0.672074  0.999989  1
  Rh  Rh26  1  0.327796  0.672074  0.500011  1
  Rh  Rh27  1  0.672042  0.327775  0.500033  1
