# generated using pymatgen
data_ScTa2(Ni10B3)2
_symmetry_space_group_name_H-M   'P 1'
_cell_length_a   7.48213303
_cell_length_b   7.48213384
_cell_length_c   7.48213300
_cell_angle_alpha   59.99999929
_cell_angle_beta   59.99999572
_cell_angle_gamma   60.00000582
_symmetry_Int_Tables_number   1
_chemical_formula_structural   ScTa2(Ni10B3)2
_chemical_formula_sum   'Sc1 Ta2 Ni20 B6'
_cell_volume   296.18381781
_cell_formula_units_Z   1
loop_
 _symmetry_equiv_pos_site_id
 _symmetry_equiv_pos_as_xyz
  1  'x, y, z'
loop_
 _atom_site_type_symbol
 _atom_site_label
 _atom_site_symmetry_multiplicity
 _atom_site_fract_x
 _atom_site_fract_y
 _atom_site_fract_z
 _atom_site_occupancy
  Sc  Sc0  1  0.750000  0.750000  0.750000  1
  Ta  Ta1  1  0.000000  0.000000  0.000000  1
  Ta  Ta2  1  0.250000  0.250000  0.250000  1
  Ni  Ni3  1  0.613471  0.613471  0.159586  1
  Ni  Ni4  1  0.613471  0.159586  0.613471  1
  Ni  Ni5  1  0.159586  0.613471  0.613471  1
  Ni  Ni6  1  0.613471  0.613471  0.613471  1
  Ni  Ni7  1  0.383737  0.383737  0.848789  1
  Ni  Ni8  1  0.383737  0.848789  0.383737  1
  Ni  Ni9  1  0.848789  0.383737  0.383737  1
  Ni  Ni10  1  0.383737  0.383737  0.383737  1
  Ni  Ni11  1  0.002173  0.002173  0.340378  1
  Ni  Ni12  1  0.655276  0.002173  0.340378  1
  Ni  Ni13  1  0.002173  0.655276  0.340378  1
  Ni  Ni14  1  0.655276  0.340378  0.002173  1
  Ni  Ni15  1  0.002173  0.340378  0.002173  1
  Ni  Ni16  1  0.002173  0.340378  0.655276  1
  Ni  Ni17  1  0.340378  0.655276  0.002173  1
  Ni  Ni18  1  0.340378  0.002173  0.655276  1
  Ni  Ni19  1  0.340378  0.002173  0.002173  1
  Ni  Ni20  1  0.002173  0.002173  0.655276  1
  Ni  Ni21  1  0.002173  0.655276  0.002173  1
  Ni  Ni22  1  0.655276  0.002173  0.002173  1
  B  B23  1  0.731512  0.731512  0.268488  1
  B  B24  1  0.268488  0.731512  0.268488  1
  B  B25  1  0.731512  0.268488  0.268488  1
  B  B26  1  0.268488  0.268488  0.731512  1
  B  B27  1  0.731512  0.268488  0.731512  1
  B  B28  1  0.268488  0.731512  0.731512  1
