# generated using pymatgen
data_Dy11Ho6Er3Pb16
_symmetry_space_group_name_H-M   'P 1'
_cell_length_a   8.18980201
_cell_length_b   8.26884954
_cell_length_c   15.61842500
_cell_angle_alpha   90.00231296
_cell_angle_beta   89.99872866
_cell_angle_gamma   90.02368569
_symmetry_Int_Tables_number   1
_chemical_formula_structural   Dy11Ho6Er3Pb16
_chemical_formula_sum   'Dy11 Ho6 Er3 Pb16'
_cell_volume   1057.68340701
_cell_formula_units_Z   1
loop_
 _symmetry_equiv_pos_site_id
 _symmetry_equiv_pos_as_xyz
  1  'x, y, z'
loop_
 _atom_site_type_symbol
 _atom_site_label
 _atom_site_symmetry_multiplicity
 _atom_site_fract_x
 _atom_site_fract_y
 _atom_site_fract_z
 _atom_site_occupancy
  Dy  Dy0  1  0.122499  0.340685  0.379320  1
  Dy  Dy1  1  0.377599  0.840738  0.620570  1
  Dy  Dy2  1  0.877350  0.659408  0.879464  1
  Dy  Dy3  1  0.534891  0.323185  0.900011  1
  Dy  Dy4  1  0.034739  0.176606  0.600051  1
  Dy  Dy5  1  0.465186  0.676731  0.399891  1
  Dy  Dy6  1  0.965159  0.823319  0.100051  1
  Dy  Dy7  1  0.465145  0.676699  0.100054  1
  Dy  Dy8  1  0.965145  0.823356  0.399984  1
  Dy  Dy9  1  0.534898  0.323262  0.600001  1
  Dy  Dy10  1  0.034786  0.176574  0.899983  1
  Ho  Ho11  1  0.377513  0.840774  0.879425  1
  Ho  Ho12  1  0.877297  0.659346  0.620548  1
  Ho  Ho13  1  0.622568  0.159240  0.379391  1
  Ho  Ho14  1  0.122546  0.340768  0.120652  1
  Ho  Ho15  1  0.622537  0.159275  0.120630  1
  Ho  Ho16  1  0.208784  0.503835  0.750010  1
  Er  Er17  1  0.708886  0.996055  0.749961  1
  Er  Er18  1  0.791162  0.495978  0.250009  1
  Er  Er19  1  0.291272  0.003942  0.249974  1
  Pb  Pb20  1  0.281059  0.033062  0.042875  1
  Pb  Pb21  1  0.780876  0.467045  0.457147  1
  Pb  Pb22  1  0.719087  0.967007  0.542780  1
  Pb  Pb23  1  0.219090  0.533097  0.957475  1
  Pb  Pb24  1  0.718826  0.967118  0.957215  1
  Pb  Pb25  1  0.218877  0.533083  0.542638  1
  Pb  Pb26  1  0.281097  0.033007  0.457045  1
  Pb  Pb27  1  0.781015  0.466869  0.042985  1
  Pb  Pb28  1  0.572860  0.626631  0.750015  1
  Pb  Pb29  1  0.072241  0.873909  0.749992  1
  Pb  Pb30  1  0.427736  0.373568  0.249954  1
  Pb  Pb31  1  0.927561  0.126327  0.249944  1
  Pb  Pb32  1  0.346714  0.152369  0.750034  1
  Pb  Pb33  1  0.846259  0.346878  0.749967  1
  Pb  Pb34  1  0.653408  0.847084  0.249994  1
  Pb  Pb35  1  0.153331  0.653171  0.249961  1
