# generated using pymatgen
data_Hf8Zr2Al2(SnSb)3
_symmetry_space_group_name_H-M   'P 1'
_cell_length_a   8.67159610
_cell_length_b   8.67159565
_cell_length_c   5.82645100
_cell_angle_alpha   90.00000000
_cell_angle_beta   90.00000000
_cell_angle_gamma   120.01744379
_symmetry_Int_Tables_number   1
_chemical_formula_structural   Hf8Zr2Al2(SnSb)3
_chemical_formula_sum   'Hf8 Zr2 Al2 Sn3 Sb3'
_cell_volume   379.36427050
_cell_formula_units_Z   1
loop_
 _symmetry_equiv_pos_site_id
 _symmetry_equiv_pos_as_xyz
  1  'x, y, z'
loop_
 _atom_site_type_symbol
 _atom_site_label
 _atom_site_symmetry_multiplicity
 _atom_site_fract_x
 _atom_site_fract_y
 _atom_site_fract_z
 _atom_site_occupancy
  Hf  Hf0  1  0.720905  0.720905  0.750000  1
  Hf  Hf1  1  0.279504  0.000770  0.750000  1
  Hf  Hf2  1  0.000770  0.279504  0.750000  1
  Hf  Hf3  1  0.266188  0.266188  0.250000  1
  Hf  Hf4  1  0.666245  0.333136  0.997293  1
  Hf  Hf5  1  0.333136  0.666245  0.997293  1
  Hf  Hf6  1  0.333136  0.666245  0.502707  1
  Hf  Hf7  1  0.666245  0.333136  0.502707  1
  Zr  Zr8  1  0.734026  0.999825  0.250000  1
  Zr  Zr9  1  0.999825  0.734026  0.250000  1
  Al  Al10  1  0.000269  0.000269  0.985991  1
  Al  Al11  1  0.000269  0.000269  0.514009  1
  Sn  Sn12  1  0.380857  0.380857  0.750000  1
  Sn  Sn13  1  0.619478  0.999995  0.750000  1
  Sn  Sn14  1  0.999995  0.619478  0.750000  1
  Sb  Sb15  1  0.607980  0.607980  0.250000  1
  Sb  Sb16  1  0.390977  0.000196  0.250000  1
  Sb  Sb17  1  0.000196  0.390977  0.250000  1
