# generated using pymatgen
data_Ce2PrY(AlRh)4
_symmetry_space_group_name_H-M   'P 1'
_cell_length_a   4.23355300
_cell_length_b   7.07070989
_cell_length_c   16.04942329
_cell_angle_alpha   90.54222471
_cell_angle_beta   90.00000000
_cell_angle_gamma   90.00000000
_symmetry_Int_Tables_number   1
_chemical_formula_structural   Ce2PrY(AlRh)4
_chemical_formula_sum   'Ce4 Pr2 Y2 Al8 Rh8'
_cell_volume   480.40553528
_cell_formula_units_Z   2
loop_
 _symmetry_equiv_pos_site_id
 _symmetry_equiv_pos_as_xyz
  1  'x, y, z'
loop_
 _atom_site_type_symbol
 _atom_site_label
 _atom_site_symmetry_multiplicity
 _atom_site_fract_x
 _atom_site_fract_y
 _atom_site_fract_z
 _atom_site_occupancy
  Ce  Ce0  1  0.250000  0.032044  0.782008  1
  Ce  Ce1  1  0.750000  0.967956  0.217992  1
  Ce  Ce2  1  0.250000  0.530663  0.722364  1
  Ce  Ce3  1  0.750000  0.469337  0.277636  1
  Pr  Pr4  1  0.250000  0.156813  0.561101  1
  Pr  Pr5  1  0.750000  0.843187  0.438899  1
  Y  Y6  1  0.250000  0.658372  0.941294  1
  Y  Y7  1  0.750000  0.341628  0.058706  1
  Al  Al8  1  0.250000  0.144516  0.348888  1
  Al  Al9  1  0.750000  0.855484  0.651112  1
  Al  Al10  1  0.250000  0.638897  0.145357  1
  Al  Al11  1  0.750000  0.361103  0.854643  1
  Al  Al12  1  0.250000  0.008073  0.060464  1
  Al  Al13  1  0.750000  0.991927  0.939536  1
  Al  Al14  1  0.250000  0.505303  0.437372  1
  Al  Al15  1  0.750000  0.494697  0.562628  1
  Rh  Rh16  1  0.750000  0.287320  0.422703  1
  Rh  Rh17  1  0.250000  0.712680  0.577297  1
  Rh  Rh18  1  0.750000  0.777063  0.072013  1
  Rh  Rh19  1  0.250000  0.222937  0.927987  1
  Rh  Rh20  1  0.750000  0.743154  0.813992  1
  Rh  Rh21  1  0.250000  0.256846  0.186008  1
  Rh  Rh22  1  0.750000  0.246586  0.690537  1
  Rh  Rh23  1  0.250000  0.753414  0.309463  1
