# generated using pymatgen
data_Pr2PtI
_symmetry_space_group_name_H-M   'P 1'
_cell_length_a   8.52717575
_cell_length_b   8.52717551
_cell_length_c   8.52717530
_cell_angle_alpha   29.29850434
_cell_angle_beta   29.29850885
_cell_angle_gamma   29.29850106
_symmetry_Int_Tables_number   1
_chemical_formula_structural   Pr2PtI
_chemical_formula_sum   'Pr2 Pt1 I1'
_cell_volume   131.38692797
_cell_formula_units_Z   1
loop_
 _symmetry_equiv_pos_site_id
 _symmetry_equiv_pos_as_xyz
  1  'x, y, z'
loop_
 _atom_site_type_symbol
 _atom_site_label
 _atom_site_symmetry_multiplicity
 _atom_site_fract_x
 _atom_site_fract_y
 _atom_site_fract_z
 _atom_site_occupancy
  Pr  Pr0  1  0.228447  0.228447  0.228447  1
  Pr  Pr1  1  0.771553  0.771553  0.771553  1
  Pt  Pt2  1  0.500000  0.500000  0.500000  1
  I  I3  1  0.000000  0.000000  0.000000  1
