# generated using pymatgen
data_Th14Re4IrPt
_symmetry_space_group_name_H-M   'P 1'
_cell_length_a   10.09278664
_cell_length_b   10.05407729
_cell_length_c   6.32670221
_cell_angle_alpha   90.08957547
_cell_angle_beta   89.62915006
_cell_angle_gamma   119.72961287
_symmetry_Int_Tables_number   1
_chemical_formula_structural   Th14Re4IrPt
_chemical_formula_sum   'Th14 Re4 Ir1 Pt1'
_cell_volume   557.47872976
_cell_formula_units_Z   1
loop_
 _symmetry_equiv_pos_site_id
 _symmetry_equiv_pos_as_xyz
  1  'x, y, z'
loop_
 _atom_site_type_symbol
 _atom_site_label
 _atom_site_symmetry_multiplicity
 _atom_site_fract_x
 _atom_site_fract_y
 _atom_site_fract_z
 _atom_site_occupancy
  Th  Th0  1  0.465844  0.541206  0.293270  1
  Th  Th1  1  0.071095  0.539340  0.289145  1
  Th  Th2  1  0.917795  0.459624  0.796564  1
  Th  Th3  1  0.260885  0.126186  0.505025  1
  Th  Th4  1  0.543196  0.079849  0.797815  1
  Th  Th5  1  0.751647  0.876322  0.005733  1
  Th  Th6  1  0.665768  0.333333  0.281457  1
  Th  Th7  1  0.126353  0.875134  0.003754  1
  Th  Th8  1  0.459551  0.919659  0.294088  1
  Th  Th9  1  0.544508  0.464238  0.797290  1
  Th  Th10  1  0.866341  0.120823  0.506073  1
  Th  Th11  1  0.124861  0.247584  0.008351  1
  Th  Th12  1  0.872123  0.748748  0.505367  1
  Th  Th13  1  0.336107  0.670113  0.794153  1
  Re  Re14  1  0.816971  0.629696  0.052039  1
  Re  Re15  1  0.819188  0.188463  0.050721  1
  Re  Re16  1  0.619630  0.809101  0.555085  1
  Re  Re17  1  0.370151  0.187392  0.047353  1
  Ir  Ir18  1  0.183616  0.807432  0.548664  1
  Pt  Pt19  1  0.184368  0.375757  0.552055  1
