# generated using pymatgen
data_Th2Mn2V2Ni8P7
_symmetry_space_group_name_H-M   'P 1'
_cell_length_a   9.21214025
_cell_length_b   9.19421318
_cell_length_c   3.75150500
_cell_angle_alpha   90.00000000
_cell_angle_beta   90.00000000
_cell_angle_gamma   119.92359026
_symmetry_Int_Tables_number   1
_chemical_formula_structural   Th2Mn2V2Ni8P7
_chemical_formula_sum   'Th2 Mn2 V2 Ni8 P7'
_cell_volume   275.38808402
_cell_formula_units_Z   1
loop_
 _symmetry_equiv_pos_site_id
 _symmetry_equiv_pos_as_xyz
  1  'x, y, z'
loop_
 _atom_site_type_symbol
 _atom_site_label
 _atom_site_symmetry_multiplicity
 _atom_site_fract_x
 _atom_site_fract_y
 _atom_site_fract_z
 _atom_site_occupancy
  Th  Th0  1  0.335027  0.668316  0.000000  1
  Th  Th1  1  0.000220  0.998451  0.500000  1
  Mn  Mn2  1  0.514351  0.456145  0.000000  1
  Mn  Mn3  1  0.451756  0.221052  0.500000  1
  V  V4  1  0.778089  0.234860  0.500000  1
  V  V5  1  0.766915  0.544098  0.500000  1
  Ni  Ni6  1  0.034780  0.268997  0.000000  1
  Ni  Ni7  1  0.732445  0.765843  0.000000  1
  Ni  Ni8  1  0.235623  0.967555  0.000000  1
  Ni  Ni9  1  0.540699  0.058292  0.000000  1
  Ni  Ni10  1  0.946481  0.483300  0.000000  1
  Ni  Ni11  1  0.613976  0.898175  0.500000  1
  Ni  Ni12  1  0.100717  0.714540  0.500000  1
  Ni  Ni13  1  0.281834  0.383723  0.500000  1
  P  P14  1  0.771451  0.035892  0.000000  1
  P  P15  1  0.965635  0.735507  0.000000  1
  P  P16  1  0.264837  0.229946  0.000000  1
  P  P17  1  0.374846  0.937089  0.500000  1
  P  P18  1  0.063376  0.440302  0.500000  1
  P  P19  1  0.559454  0.622001  0.500000  1
  P  P20  1  0.667490  0.335911  0.000000  1
