# generated using pymatgen
data_Yb19Pr(SiSb2)4
_symmetry_space_group_name_H-M   'P 1'
_cell_length_a   7.95169118
_cell_length_b   9.47776960
_cell_length_c   12.54477100
_cell_angle_alpha   90.02109803
_cell_angle_beta   89.57653709
_cell_angle_gamma   89.89837426
_symmetry_Int_Tables_number   1
_chemical_formula_structural   Yb19Pr(SiSb2)4
_chemical_formula_sum   'Yb19 Pr1 Si4 Sb8'
_cell_volume   945.40046860
_cell_formula_units_Z   1
loop_
 _symmetry_equiv_pos_site_id
 _symmetry_equiv_pos_as_xyz
  1  'x, y, z'
loop_
 _atom_site_type_symbol
 _atom_site_label
 _atom_site_symmetry_multiplicity
 _atom_site_fract_x
 _atom_site_fract_y
 _atom_site_fract_z
 _atom_site_occupancy
  Yb  Yb0  1  0.447742  0.749863  0.000567  1
  Yb  Yb1  1  0.948168  0.247658  0.499202  1
  Yb  Yb2  1  0.552608  0.249651  0.999907  1
  Yb  Yb3  1  0.046348  0.754043  0.500518  1
  Yb  Yb4  1  0.651920  0.751680  0.298005  1
  Yb  Yb5  1  0.148674  0.247857  0.200083  1
  Yb  Yb6  1  0.351560  0.248070  0.701415  1
  Yb  Yb7  1  0.851542  0.750785  0.800662  1
  Yb  Yb8  1  0.323688  0.749860  0.720846  1
  Yb  Yb9  1  0.827544  0.249212  0.782193  1
  Yb  Yb10  1  0.677529  0.247755  0.278317  1
  Yb  Yb11  1  0.172719  0.752160  0.217833  1
  Yb  Yb12  1  0.822234  0.529279  0.073982  1
  Yb  Yb13  1  0.677349  0.972653  0.575306  1
  Yb  Yb14  1  0.177272  0.028407  0.925630  1
  Yb  Yb15  1  0.682699  0.528585  0.576388  1
  Yb  Yb16  1  0.177648  0.470785  0.925504  1
  Yb  Yb17  1  0.320934  0.030649  0.424186  1
  Yb  Yb18  1  0.822354  0.970619  0.073956  1
  Pr  Pr19  1  0.320951  0.473155  0.429036  1
  Si  Si20  1  0.062254  0.749453  0.989168  1
  Si  Si21  1  0.558919  0.251617  0.508812  1
  Si  Si22  1  0.938603  0.249986  0.010299  1
  Si  Si23  1  0.437955  0.748383  0.488697  1
  Sb  Sb24  1  0.441785  0.006680  0.169531  1
  Sb  Sb25  1  0.938665  0.992019  0.331984  1
  Sb  Sb26  1  0.559908  0.507211  0.830855  1
  Sb  Sb27  1  0.062841  0.491347  0.666104  1
  Sb  Sb28  1  0.558411  0.992796  0.829845  1
  Sb  Sb29  1  0.059730  0.006821  0.668568  1
  Sb  Sb30  1  0.440873  0.492641  0.171552  1
  Sb  Sb31  1  0.938572  0.508327  0.331049  1
