# generated using pymatgen
data_Zr2TaB2Os5
_symmetry_space_group_name_H-M   'P 1'
_cell_length_a   9.58101500
_cell_length_b   9.58101500
_cell_length_c   3.11967300
_cell_angle_alpha   90.00000000
_cell_angle_beta   90.00000000
_cell_angle_gamma   90.00000000
_symmetry_Int_Tables_number   1
_chemical_formula_structural   Zr2TaB2Os5
_chemical_formula_sum   'Zr4 Ta2 B4 Os10'
_cell_volume   286.37302986
_cell_formula_units_Z   2
loop_
 _symmetry_equiv_pos_site_id
 _symmetry_equiv_pos_as_xyz
  1  'x, y, z'
loop_
 _atom_site_type_symbol
 _atom_site_label
 _atom_site_symmetry_multiplicity
 _atom_site_fract_x
 _atom_site_fract_y
 _atom_site_fract_z
 _atom_site_occupancy
  Zr  Zr0  1  0.823804  0.676196  0.000000  1
  Zr  Zr1  1  0.176196  0.323804  0.000000  1
  Zr  Zr2  1  0.323804  0.823804  0.000000  1
  Zr  Zr3  1  0.676196  0.176196  0.000000  1
  Ta  Ta4  1  0.500000  0.500000  0.000000  1
  Ta  Ta5  1  0.000000  0.000000  0.000000  1
  B  B6  1  0.621009  0.878991  0.000000  1
  B  B7  1  0.378991  0.121009  0.000000  1
  B  B8  1  0.121009  0.621009  0.000000  1
  B  B9  1  0.878991  0.378991  0.000000  1
  Os  Os10  1  0.570183  0.718472  0.500000  1
  Os  Os11  1  0.429817  0.281528  0.500000  1
  Os  Os12  1  0.070183  0.781528  0.500000  1
  Os  Os13  1  0.929817  0.218472  0.500000  1
  Os  Os14  1  0.281528  0.570183  0.500000  1
  Os  Os15  1  0.718472  0.429817  0.500000  1
  Os  Os16  1  0.218472  0.070183  0.500000  1
  Os  Os17  1  0.781528  0.929817  0.500000  1
  Os  Os18  1  0.500000  0.000000  0.500000  1
  Os  Os19  1  0.000000  0.500000  0.500000  1
