# generated using pymatgen
data_SmErTmRh9
_symmetry_space_group_name_H-M   'P 1'
_cell_length_a   5.26939106
_cell_length_b   5.27193106
_cell_length_c   17.53958900
_cell_angle_alpha   89.99986714
_cell_angle_beta   89.99991076
_cell_angle_gamma   119.99706587
_symmetry_Int_Tables_number   1
_chemical_formula_structural   SmErTmRh9
_chemical_formula_sum   'Sm2 Er2 Tm2 Rh18'
_cell_volume   421.98113525
_cell_formula_units_Z   2
loop_
 _symmetry_equiv_pos_site_id
 _symmetry_equiv_pos_as_xyz
  1  'x, y, z'
loop_
 _atom_site_type_symbol
 _atom_site_label
 _atom_site_symmetry_multiplicity
 _atom_site_fract_x
 _atom_site_fract_y
 _atom_site_fract_z
 _atom_site_occupancy
  Sm  Sm0  1  0.333336  0.666667  0.750030  1
  Sm  Sm1  1  0.666664  0.333333  0.249970  1
  Er  Er2  1  0.666646  0.333316  0.458389  1
  Er  Er3  1  0.333354  0.666684  0.541611  1
  Tm  Tm4  1  0.333357  0.666696  0.958369  1
  Tm  Tm5  1  0.666643  0.333304  0.041631  1
  Rh  Rh6  1  0.167400  0.832563  0.375093  1
  Rh  Rh7  1  0.167397  0.334811  0.375085  1
  Rh  Rh8  1  0.665143  0.832562  0.375104  1
  Rh  Rh9  1  0.832600  0.167437  0.624907  1
  Rh  Rh10  1  0.832603  0.665189  0.624915  1
  Rh  Rh11  1  0.334857  0.167438  0.624896  1
  Rh  Rh12  1  0.832571  0.167456  0.875191  1
  Rh  Rh13  1  0.832582  0.665145  0.875179  1
  Rh  Rh14  1  0.334899  0.167456  0.875198  1
  Rh  Rh15  1  0.167429  0.832544  0.124809  1
  Rh  Rh16  1  0.167418  0.334855  0.124821  1
  Rh  Rh17  1  0.665101  0.832544  0.124802  1
  Rh  Rh18  1  0.333218  0.666540  0.250010  1
  Rh  Rh19  1  0.666782  0.333460  0.749990  1
  Rh  Rh20  1  0.000121  0.000131  0.249983  1
  Rh  Rh21  1  0.999879  0.999869  0.750017  1
  Rh  Rh22  1  0.000000  0.000000  0.500000  1
  Rh  Rh23  1  0.000000  0.000000  0.000000  1
