# generated using pymatgen
data_Er2Ga4Pt3
_symmetry_space_group_name_H-M   'P 1'
_cell_length_a   6.61419800
_cell_length_b   6.61419756
_cell_length_c   4.15620300
_cell_angle_alpha   90.00000000
_cell_angle_beta   90.00000000
_cell_angle_gamma   114.56152141
_symmetry_Int_Tables_number   1
_chemical_formula_structural   Er2Ga4Pt3
_chemical_formula_sum   'Er2 Ga4 Pt3'
_cell_volume   165.37170198
_cell_formula_units_Z   1
loop_
 _symmetry_equiv_pos_site_id
 _symmetry_equiv_pos_as_xyz
  1  'x, y, z'
loop_
 _atom_site_type_symbol
 _atom_site_label
 _atom_site_symmetry_multiplicity
 _atom_site_fract_x
 _atom_site_fract_y
 _atom_site_fract_z
 _atom_site_occupancy
  Er  Er0  1  0.423552  0.004268  0.500000  1
  Er  Er1  1  0.004268  0.423552  0.500000  1
  Ga  Ga2  1  0.599931  0.599931  0.500000  1
  Ga  Ga3  1  0.750223  0.020920  0.000000  1
  Ga  Ga4  1  0.020920  0.750223  0.000000  1
  Ga  Ga5  1  0.215777  0.215777  0.000000  1
  Pt  Pt6  1  0.367367  0.646902  0.000000  1
  Pt  Pt7  1  0.646902  0.367367  0.000000  1
  Pt  Pt8  1  0.971062  0.971062  0.500000  1
