# generated using pymatgen
data_K3CaTa4O12
_symmetry_space_group_name_H-M   'P 1'
_cell_length_a   8.04882300
_cell_length_b   5.69191259
_cell_length_c   5.70479010
_cell_angle_alpha   89.96318209
_cell_angle_beta   90.00000000
_cell_angle_gamma   90.00000000
_symmetry_Int_Tables_number   1
_chemical_formula_structural   K3CaTa4O12
_chemical_formula_sum   'K3 Ca1 Ta4 O12'
_cell_volume   261.35461855
_cell_formula_units_Z   1
loop_
 _symmetry_equiv_pos_site_id
 _symmetry_equiv_pos_as_xyz
  1  'x, y, z'
loop_
 _atom_site_type_symbol
 _atom_site_label
 _atom_site_symmetry_multiplicity
 _atom_site_fract_x
 _atom_site_fract_y
 _atom_site_fract_z
 _atom_site_occupancy
  K  K0  1  0.000000  0.001172  0.001390  1
  K  K1  1  0.500000  0.499360  0.500179  1
  K  K2  1  0.500000  0.998608  0.997712  1
  Ca  Ca3  1  0.000000  0.515741  0.521261  1
  Ta  Ta4  1  0.249984  0.000383  0.499282  1
  Ta  Ta5  1  0.749979  0.499585  0.000810  1
  Ta  Ta6  1  0.750016  0.000383  0.499282  1
  Ta  Ta7  1  0.250021  0.499585  0.000810  1
  O  O8  1  0.244977  0.747708  0.250587  1
  O  O9  1  0.754124  0.741615  0.741605  1
  O  O10  1  0.758849  0.251901  0.746330  1
  O  O11  1  0.237211  0.256988  0.256908  1
  O  O12  1  0.241151  0.251901  0.746330  1
  O  O13  1  0.762789  0.256988  0.256908  1
  O  O14  1  0.755023  0.747708  0.250587  1
  O  O15  1  0.245876  0.741615  0.741605  1
  O  O16  1  0.000000  0.985109  0.502066  1
  O  O17  1  0.000000  0.504752  0.987350  1
  O  O18  1  0.500000  0.004949  0.497179  1
  O  O19  1  0.500000  0.493947  0.001820  1
