# generated using pymatgen
data_VGaNi2Pt3Rh
_symmetry_space_group_name_H-M   'P 1'
_cell_length_a   3.84458700
_cell_length_b   3.90305100
_cell_length_c   7.33525400
_cell_angle_alpha   90.00000000
_cell_angle_beta   90.00000000
_cell_angle_gamma   90.00000000
_symmetry_Int_Tables_number   1
_chemical_formula_structural   VGaNi2Pt3Rh
_chemical_formula_sum   'V1 Ga1 Ni2 Pt3 Rh1'
_cell_volume   110.07002778
_cell_formula_units_Z   1
loop_
 _symmetry_equiv_pos_site_id
 _symmetry_equiv_pos_as_xyz
  1  'x, y, z'
loop_
 _atom_site_type_symbol
 _atom_site_label
 _atom_site_symmetry_multiplicity
 _atom_site_fract_x
 _atom_site_fract_y
 _atom_site_fract_z
 _atom_site_occupancy
  V  V0  1  0.000000  0.000000  0.492814  1
  Ga  Ga1  1  0.000000  0.000000  0.003670  1
  Ni  Ni2  1  0.500000  0.500000  0.001806  1
  Ni  Ni3  1  0.500000  0.500000  0.497804  1
  Pt  Pt4  1  0.500000  0.000000  0.745503  1
  Pt  Pt5  1  0.000000  0.500000  0.255938  1
  Pt  Pt6  1  0.000000  0.500000  0.742952  1
  Rh  Rh7  1  0.500000  0.000000  0.259513  1
