# generated using pymatgen
data_Rb16HfSnAs8
_symmetry_space_group_name_H-M   'P 1'
_cell_length_a   11.51105024
_cell_length_b   11.51105058
_cell_length_c   11.51105100
_cell_angle_alpha   60.00000167
_cell_angle_beta   60.00000069
_cell_angle_gamma   60.00000642
_symmetry_Int_Tables_number   1
_chemical_formula_structural   Rb16HfSnAs8
_chemical_formula_sum   'Rb16 Hf1 Sn1 As8'
_cell_volume   1078.52426547
_cell_formula_units_Z   1
loop_
 _symmetry_equiv_pos_site_id
 _symmetry_equiv_pos_as_xyz
  1  'x, y, z'
loop_
 _atom_site_type_symbol
 _atom_site_label
 _atom_site_symmetry_multiplicity
 _atom_site_fract_x
 _atom_site_fract_y
 _atom_site_fract_z
 _atom_site_occupancy
  Rb  Rb0  1  0.622669  0.131992  0.622669  1
  Rb  Rb1  1  0.622669  0.622669  0.131992  1
  Rb  Rb2  1  0.131992  0.622669  0.622669  1
  Rb  Rb3  1  0.622669  0.622669  0.622669  1
  Rb  Rb4  1  0.023316  0.023316  0.476684  1
  Rb  Rb5  1  0.779820  0.220180  0.220180  1
  Rb  Rb6  1  0.220180  0.779820  0.779820  1
  Rb  Rb7  1  0.779820  0.779820  0.220180  1
  Rb  Rb8  1  0.779820  0.220180  0.779820  1
  Rb  Rb9  1  0.220180  0.779820  0.220180  1
  Rb  Rb10  1  0.476684  0.023316  0.476684  1
  Rb  Rb11  1  0.476684  0.023316  0.023316  1
  Rb  Rb12  1  0.023316  0.476684  0.476684  1
  Rb  Rb13  1  0.023316  0.476684  0.023316  1
  Rb  Rb14  1  0.220180  0.220180  0.779820  1
  Rb  Rb15  1  0.476684  0.476684  0.023316  1
  Hf  Hf16  1  0.750000  0.750000  0.750000  1
  Sn  Sn17  1  0.500000  0.500000  0.500000  1
  As  As18  1  0.401244  0.796269  0.401244  1
  As  As19  1  0.845164  0.845164  0.464508  1
  As  As20  1  0.464508  0.845164  0.845164  1
  As  As21  1  0.845164  0.845164  0.845164  1
  As  As22  1  0.796269  0.401244  0.401244  1
  As  As23  1  0.401244  0.401244  0.401244  1
  As  As24  1  0.401244  0.401244  0.796269  1
  As  As25  1  0.845164  0.464508  0.845164  1
