# generated using pymatgen
data_PrNd(Hg2O)2
_symmetry_space_group_name_H-M   'P 1'
_cell_length_a   5.95757533
_cell_length_b   5.86317512
_cell_length_c   10.93876900
_cell_angle_alpha   90.04616360
_cell_angle_beta   98.04717075
_cell_angle_gamma   89.97819163
_symmetry_Int_Tables_number   1
_chemical_formula_structural   PrNd(Hg2O)2
_chemical_formula_sum   'Pr2 Nd2 Hg8 O4'
_cell_volume   378.33200096
_cell_formula_units_Z   2
loop_
 _symmetry_equiv_pos_site_id
 _symmetry_equiv_pos_as_xyz
  1  'x, y, z'
loop_
 _atom_site_type_symbol
 _atom_site_label
 _atom_site_symmetry_multiplicity
 _atom_site_fract_x
 _atom_site_fract_y
 _atom_site_fract_z
 _atom_site_occupancy
  Pr  Pr0  1  0.973666  0.181944  0.895724  1
  Pr  Pr1  1  0.473932  0.681682  0.895684  1
  Nd  Nd2  1  0.526316  0.181981  0.104000  1
  Nd  Nd3  1  0.026593  0.682319  0.103968  1
  Hg  Hg4  1  0.531207  0.167918  0.415541  1
  Hg  Hg5  1  0.028125  0.659542  0.415507  1
  Hg  Hg6  1  0.970792  0.159164  0.582641  1
  Hg  Hg7  1  0.467616  0.667712  0.582552  1
  Hg  Hg8  1  0.548270  0.675188  0.291494  1
  Hg  Hg9  1  0.051038  0.169285  0.291272  1
  Hg  Hg10  1  0.948677  0.668843  0.707338  1
  Hg  Hg11  1  0.451447  0.174676  0.707020  1
  O  O12  1  0.750519  0.931273  0.001741  1
  O  O13  1  0.250516  0.933576  0.001551  1
  O  O14  1  0.750583  0.433569  0.002065  1
  O  O15  1  0.250714  0.431289  0.001903  1
