# generated using pymatgen
data_BaCaTiO4
_symmetry_space_group_name_H-M   'P 1'
_cell_length_a   5.50029400
_cell_length_b   7.29352900
_cell_length_c   12.71833100
_cell_angle_alpha   90.00000000
_cell_angle_beta   90.00000000
_cell_angle_gamma   90.00000000
_symmetry_Int_Tables_number   1
_chemical_formula_structural   BaCaTiO4
_chemical_formula_sum   'Ba4 Ca4 Ti4 O16'
_cell_volume   510.21560978
_cell_formula_units_Z   4
loop_
 _symmetry_equiv_pos_site_id
 _symmetry_equiv_pos_as_xyz
  1  'x, y, z'
loop_
 _atom_site_type_symbol
 _atom_site_label
 _atom_site_symmetry_multiplicity
 _atom_site_fract_x
 _atom_site_fract_y
 _atom_site_fract_z
 _atom_site_occupancy
  Ba  Ba0  1  0.023127  0.750000  0.721586  1
  Ba  Ba1  1  0.976873  0.250000  0.278414  1
  Ba  Ba2  1  0.523127  0.250000  0.778414  1
  Ba  Ba3  1  0.476873  0.750000  0.221586  1
  Ca  Ca4  1  0.500000  0.500000  0.500000  1
  Ca  Ca5  1  0.000000  0.000000  0.000000  1
  Ca  Ca6  1  0.000000  0.500000  0.000000  1
  Ca  Ca7  1  0.500000  0.000000  0.500000  1
  Ti  Ti8  1  0.420218  0.250000  0.079064  1
  Ti  Ti9  1  0.920218  0.750000  0.420936  1
  Ti  Ti10  1  0.579782  0.750000  0.920936  1
  Ti  Ti11  1  0.079782  0.250000  0.579064  1
  O  O12  1  0.755004  0.750000  0.547396  1
  O  O13  1  0.777952  0.553322  0.355725  1
  O  O14  1  0.722048  0.553322  0.855725  1
  O  O15  1  0.743662  0.250000  0.573175  1
  O  O16  1  0.744996  0.750000  0.047396  1
  O  O17  1  0.277952  0.446678  0.144275  1
  O  O18  1  0.222048  0.446678  0.644275  1
  O  O19  1  0.256338  0.750000  0.426825  1
  O  O20  1  0.777952  0.946678  0.355725  1
  O  O21  1  0.243662  0.750000  0.926825  1
  O  O22  1  0.244996  0.250000  0.452604  1
  O  O23  1  0.722048  0.946678  0.855725  1
  O  O24  1  0.222048  0.053322  0.644275  1
  O  O25  1  0.255004  0.250000  0.952604  1
  O  O26  1  0.277952  0.053322  0.144275  1
  O  O27  1  0.756338  0.250000  0.073175  1
