# generated using pymatgen
data_Nd6GaCoRu
_symmetry_space_group_name_H-M   'P 1'
_cell_length_a   8.60140030
_cell_length_b   8.60139976
_cell_length_c   8.60139995
_cell_angle_alpha   106.06480967
_cell_angle_beta   110.16807428
_cell_angle_gamma   112.24082005
_symmetry_Int_Tables_number   1
_chemical_formula_structural   Nd6GaCoRu
_chemical_formula_sum   'Nd12 Ga2 Co2 Ru2'
_cell_volume   488.41604513
_cell_formula_units_Z   2
loop_
 _symmetry_equiv_pos_site_id
 _symmetry_equiv_pos_as_xyz
  1  'x, y, z'
loop_
 _atom_site_type_symbol
 _atom_site_label
 _atom_site_symmetry_multiplicity
 _atom_site_fract_x
 _atom_site_fract_y
 _atom_site_fract_z
 _atom_site_occupancy
  Nd  Nd0  1  0.693195  0.256997  0.950192  1
  Nd  Nd1  1  0.306805  0.743003  0.049808  1
  Nd  Nd2  1  0.693195  0.743003  0.436200  1
  Nd  Nd3  1  0.306805  0.256997  0.563800  1
  Nd  Nd4  1  0.814793  0.139637  0.324843  1
  Nd  Nd5  1  0.814793  0.489950  0.675157  1
  Nd  Nd6  1  0.185207  0.860363  0.675157  1
  Nd  Nd7  1  0.185207  0.510050  0.324843  1
  Nd  Nd8  1  0.599463  0.779677  0.819787  1
  Nd  Nd9  1  0.959889  0.779677  0.180213  1
  Nd  Nd10  1  0.040111  0.220323  0.819787  1
  Nd  Nd11  1  0.400537  0.220323  0.180213  1
  Ga  Ga12  1  0.500000  0.500000  0.000000  1
  Ga  Ga13  1  0.500000  0.000000  0.500000  1
  Co  Co14  1  0.000000  0.109558  0.109558  1
  Co  Co15  1  0.000000  0.890442  0.890442  1
  Ru  Ru16  1  0.825684  0.500000  0.325684  1
  Ru  Ru17  1  0.174316  0.500000  0.674316  1
