# generated using pymatgen
data_Pr16ZnCo4Hg3
_symmetry_space_group_name_H-M   'P 1'
_cell_length_a   9.85054040
_cell_length_b   9.85053944
_cell_length_c   9.85054006
_cell_angle_alpha   60.10098808
_cell_angle_beta   60.10099177
_cell_angle_gamma   60.10098573
_symmetry_Int_Tables_number   1
_chemical_formula_structural   Pr16ZnCo4Hg3
_chemical_formula_sum   'Pr16 Zn1 Co4 Hg3'
_cell_volume   677.41955918
_cell_formula_units_Z   1
loop_
 _symmetry_equiv_pos_site_id
 _symmetry_equiv_pos_as_xyz
  1  'x, y, z'
loop_
 _atom_site_type_symbol
 _atom_site_label
 _atom_site_symmetry_multiplicity
 _atom_site_fract_x
 _atom_site_fract_y
 _atom_site_fract_z
 _atom_site_occupancy
  Pr  Pr0  1  0.293215  0.901565  0.901565  1
  Pr  Pr1  1  0.688509  0.688509  0.314026  1
  Pr  Pr2  1  0.901565  0.901565  0.293215  1
  Pr  Pr3  1  0.310246  0.690738  0.310246  1
  Pr  Pr4  1  0.690738  0.310246  0.310246  1
  Pr  Pr5  1  0.060183  0.441140  0.441140  1
  Pr  Pr6  1  0.440970  0.059929  0.059929  1
  Pr  Pr7  1  0.059929  0.059929  0.440970  1
  Pr  Pr8  1  0.310246  0.310246  0.690738  1
  Pr  Pr9  1  0.441140  0.060183  0.441140  1
  Pr  Pr10  1  0.902753  0.902753  0.902753  1
  Pr  Pr11  1  0.441140  0.441140  0.060183  1
  Pr  Pr12  1  0.314026  0.688509  0.688509  1
  Pr  Pr13  1  0.688509  0.314026  0.688509  1
  Pr  Pr14  1  0.059929  0.440970  0.059929  1
  Pr  Pr15  1  0.901565  0.293215  0.901565  1
  Zn  Zn16  1  0.670926  0.670926  0.670926  1
  Co  Co17  1  0.108793  0.108793  0.108793  1
  Co  Co18  1  0.108053  0.108053  0.671633  1
  Co  Co19  1  0.671633  0.108053  0.108053  1
  Co  Co20  1  0.108053  0.671633  0.108053  1
  Hg  Hg21  1  0.666057  0.666057  0.995766  1
  Hg  Hg22  1  0.995766  0.666057  0.666057  1
  Hg  Hg23  1  0.666057  0.995766  0.666057  1
