# generated using pymatgen
data_Cs2Dy2FeCuSe6
_symmetry_space_group_name_H-M   'P 1'
_cell_length_a   8.39259718
_cell_length_b   8.39259822
_cell_length_c   10.82357000
_cell_angle_alpha   90.00000000
_cell_angle_beta   90.00000000
_cell_angle_gamma   151.29241946
_symmetry_Int_Tables_number   1
_chemical_formula_structural   Cs2Dy2FeCuSe6
_chemical_formula_sum   'Cs2 Dy2 Fe1 Cu1 Se6'
_cell_volume   366.19438715
_cell_formula_units_Z   1
loop_
 _symmetry_equiv_pos_site_id
 _symmetry_equiv_pos_as_xyz
  1  'x, y, z'
loop_
 _atom_site_type_symbol
 _atom_site_label
 _atom_site_symmetry_multiplicity
 _atom_site_fract_x
 _atom_site_fract_y
 _atom_site_fract_z
 _atom_site_occupancy
  Cs  Cs0  1  0.261447  0.738554  0.250000  1
  Cs  Cs1  1  0.744034  0.255967  0.750000  1
  Dy  Dy2  1  0.994809  0.005191  0.985690  1
  Dy  Dy3  1  0.994809  0.005191  0.514310  1
  Fe  Fe4  1  0.535767  0.464234  0.250000  1
  Cu  Cu5  1  0.466041  0.533960  0.750000  1
  Se  Se6  1  0.613868  0.386133  0.065708  1
  Se  Se7  1  0.949695  0.050306  0.250000  1
  Se  Se8  1  0.613868  0.386133  0.434292  1
  Se  Se9  1  0.382867  0.617134  0.559573  1
  Se  Se10  1  0.059933  0.940068  0.750000  1
  Se  Se11  1  0.382867  0.617134  0.940427  1
