# generated using pymatgen
data_CaPr9Si5Hg
_symmetry_space_group_name_H-M   'P 1'
_cell_length_a   7.83216836
_cell_length_b   7.83216855
_cell_length_c   9.16259687
_cell_angle_alpha   115.30259988
_cell_angle_beta   115.30260106
_cell_angle_gamma   90.00000598
_symmetry_Int_Tables_number   1
_chemical_formula_structural   CaPr9Si5Hg
_chemical_formula_sum   'Ca1 Pr9 Si5 Hg1'
_cell_volume   447.76824911
_cell_formula_units_Z   1
loop_
 _symmetry_equiv_pos_site_id
 _symmetry_equiv_pos_as_xyz
  1  'x, y, z'
loop_
 _atom_site_type_symbol
 _atom_site_label
 _atom_site_symmetry_multiplicity
 _atom_site_fract_x
 _atom_site_fract_y
 _atom_site_fract_z
 _atom_site_occupancy
  Ca  Ca0  1  0.511220  0.511220  0.022440  1
  Pr  Pr1  1  0.974658  0.974658  0.949316  1
  Pr  Pr2  1  0.974035  0.828381  0.285457  1
  Pr  Pr3  1  0.311422  0.457075  0.285457  1
  Pr  Pr4  1  0.828381  0.311422  0.285457  1
  Pr  Pr5  1  0.457075  0.974035  0.285457  1
  Pr  Pr6  1  0.045604  0.195044  0.717168  1
  Pr  Pr7  1  0.671565  0.522125  0.717168  1
  Pr  Pr8  1  0.195044  0.671565  0.717168  1
  Pr  Pr9  1  0.522125  0.045604  0.717168  1
  Si  Si10  1  0.252133  0.252133  0.504266  1
  Si  Si11  1  0.617037  0.888796  0.004250  1
  Si  Si12  1  0.387213  0.115453  0.004250  1
  Si  Si13  1  0.888796  0.387213  0.004250  1
  Si  Si14  1  0.115453  0.617037  0.004250  1
  Hg  Hg15  1  0.748239  0.748239  0.496477  1
