# generated using pymatgen
data_Li3Pr4ZnPt4
_symmetry_space_group_name_H-M   'P 1'
_cell_length_a   4.13992900
_cell_length_b   7.27654319
_cell_length_c   8.60649808
_cell_angle_alpha   89.86950740
_cell_angle_beta   90.00000000
_cell_angle_gamma   90.00000000
_symmetry_Int_Tables_number   1
_chemical_formula_structural   Li3Pr4ZnPt4
_chemical_formula_sum   'Li3 Pr4 Zn1 Pt4'
_cell_volume   259.26467869
_cell_formula_units_Z   1
loop_
 _symmetry_equiv_pos_site_id
 _symmetry_equiv_pos_as_xyz
  1  'x, y, z'
loop_
 _atom_site_type_symbol
 _atom_site_label
 _atom_site_symmetry_multiplicity
 _atom_site_fract_x
 _atom_site_fract_y
 _atom_site_fract_z
 _atom_site_occupancy
  Li  Li0  1  0.250000  0.628995  0.558958  1
  Li  Li1  1  0.250000  0.125390  0.944335  1
  Li  Li2  1  0.750000  0.372129  0.442247  1
  Pr  Pr3  1  0.250000  0.041689  0.311523  1
  Pr  Pr4  1  0.250000  0.548190  0.185074  1
  Pr  Pr5  1  0.750000  0.954922  0.688773  1
  Pr  Pr6  1  0.750000  0.455297  0.813571  1
  Zn  Zn7  1  0.750000  0.872355  0.058191  1
  Pt  Pt8  1  0.250000  0.249975  0.617387  1
  Pt  Pt9  1  0.250000  0.754918  0.885227  1
  Pt  Pt10  1  0.750000  0.750613  0.378683  1
  Pt  Pt11  1  0.750000  0.245528  0.116030  1
