# generated using pymatgen
data_Ta6V5IrN2
_symmetry_space_group_name_H-M   'P 1'
_cell_length_a   8.25238058
_cell_length_b   8.25238124
_cell_length_c   8.22977100
_cell_angle_alpha   60.09060402
_cell_angle_beta   60.09060139
_cell_angle_gamma   60.26856127
_symmetry_Int_Tables_number   1
_chemical_formula_structural   Ta6V5IrN2
_chemical_formula_sum   'Ta12 V10 Ir2 N4'
_cell_volume   397.64984374
_cell_formula_units_Z   2
loop_
 _symmetry_equiv_pos_site_id
 _symmetry_equiv_pos_as_xyz
  1  'x, y, z'
loop_
 _atom_site_type_symbol
 _atom_site_label
 _atom_site_symmetry_multiplicity
 _atom_site_fract_x
 _atom_site_fract_y
 _atom_site_fract_z
 _atom_site_occupancy
  Ta  Ta0  1  0.809159  0.809159  0.190841  1
  Ta  Ta1  1  0.193051  0.193051  0.806949  1
  Ta  Ta2  1  0.808918  0.189699  0.810399  1
  Ta  Ta3  1  0.189699  0.808918  0.190985  1
  Ta  Ta4  1  0.189699  0.808918  0.810399  1
  Ta  Ta5  1  0.808918  0.189699  0.190985  1
  Ta  Ta6  1  0.440315  0.440315  0.059685  1
  Ta  Ta7  1  0.056876  0.056876  0.443124  1
  Ta  Ta8  1  0.439257  0.065579  0.440611  1
  Ta  Ta9  1  0.065579  0.439257  0.054551  1
  Ta  Ta10  1  0.065579  0.439257  0.440611  1
  Ta  Ta11  1  0.439257  0.065579  0.054551  1
  V  V12  1  0.123085  0.623559  0.626679  1
  V  V13  1  0.623559  0.123085  0.626679  1
  V  V14  1  0.625703  0.625703  0.124551  1
  V  V15  1  0.625703  0.625703  0.624042  1
  V  V16  1  0.420360  0.420360  0.743350  1
  V  V17  1  0.420360  0.420360  0.415928  1
  V  V18  1  0.503771  0.828906  0.833661  1
  V  V19  1  0.828906  0.503771  0.833661  1
  V  V20  1  0.829554  0.829554  0.507305  1
  V  V21  1  0.829554  0.829554  0.833588  1
  Ir  Ir22  1  0.750294  0.415998  0.416854  1
  Ir  Ir23  1  0.415998  0.750294  0.416854  1
  N  N24  1  0.628328  0.121603  0.125035  1
  N  N25  1  0.121603  0.628328  0.125035  1
  N  N26  1  0.123456  0.123456  0.626639  1
  N  N27  1  0.123456  0.123456  0.126451  1
