# generated using pymatgen
data_LiCaLaCdBi4
_symmetry_space_group_name_H-M   'P 1'
_cell_length_a   4.59303000
_cell_length_b   4.60614300
_cell_length_c   11.11160000
_cell_angle_alpha   90.00000000
_cell_angle_beta   90.00000000
_cell_angle_gamma   90.00000000
_symmetry_Int_Tables_number   1
_chemical_formula_structural   LiCaLaCdBi4
_chemical_formula_sum   'Li1 Ca1 La1 Cd1 Bi4'
_cell_volume   235.07870949
_cell_formula_units_Z   1
loop_
 _symmetry_equiv_pos_site_id
 _symmetry_equiv_pos_as_xyz
  1  'x, y, z'
loop_
 _atom_site_type_symbol
 _atom_site_label
 _atom_site_symmetry_multiplicity
 _atom_site_fract_x
 _atom_site_fract_y
 _atom_site_fract_z
 _atom_site_occupancy
  Li  Li0  1  0.500000  0.500000  0.003023  1
  Ca  Ca1  1  0.000000  0.500000  0.263610  1
  La  La2  1  0.500000  0.000000  0.735557  1
  Cd  Cd3  1  0.000000  0.000000  0.002802  1
  Bi  Bi4  1  0.000000  0.500000  0.819596  1
  Bi  Bi5  1  0.500000  0.000000  0.174520  1
  Bi  Bi6  1  0.000000  0.000000  0.500252  1
  Bi  Bi7  1  0.500000  0.500000  0.500641  1
