# generated using pymatgen
data_NdTh(Co3Si2)2
_symmetry_space_group_name_H-M   'P 1'
_cell_length_a   6.36058768
_cell_length_b   6.36058887
_cell_length_c   6.36079366
_cell_angle_alpha   130.21690504
_cell_angle_beta   114.51062823
_cell_angle_gamma   86.52691342
_symmetry_Int_Tables_number   1
_chemical_formula_structural   NdTh(Co3Si2)2
_chemical_formula_sum   'Nd1 Th1 Co6 Si4'
_cell_volume   170.65446260
_cell_formula_units_Z   1
loop_
 _symmetry_equiv_pos_site_id
 _symmetry_equiv_pos_as_xyz
  1  'x, y, z'
loop_
 _atom_site_type_symbol
 _atom_site_label
 _atom_site_symmetry_multiplicity
 _atom_site_fract_x
 _atom_site_fract_y
 _atom_site_fract_z
 _atom_site_occupancy
  Nd  Nd0  1  0.250530  0.964689  0.715219  1
  Th  Th1  1  0.750415  0.037656  0.288071  1
  Co  Co2  1  0.219271  0.495756  0.718403  1
  Co  Co3  1  0.722647  0.999133  0.718403  1
  Co  Co4  1  0.777104  0.495715  0.276339  1
  Co  Co5  1  0.280625  0.999237  0.276339  1
  Co  Co6  1  0.511963  0.499295  0.511259  1
  Co  Co7  1  0.987889  0.499578  0.987467  1
  Si  Si8  1  0.573416  0.371576  0.797909  1
  Si  Si9  1  0.411925  0.618457  0.206341  1
  Si  Si10  1  0.087883  0.294415  0.206341  1
  Si  Si11  1  0.926333  0.724494  0.797909  1
