# generated using pymatgen
data_Nd4HgPd(PtPb)2
_symmetry_space_group_name_H-M   'P 1'
_cell_length_a   3.74002900
_cell_length_b   8.29296579
_cell_length_c   8.29296649
_cell_angle_alpha   89.50616619
_cell_angle_beta   90.00000000
_cell_angle_gamma   90.00000000
_symmetry_Int_Tables_number   1
_chemical_formula_structural   Nd4HgPd(PtPb)2
_chemical_formula_sum   'Nd4 Hg1 Pd1 Pt2 Pb2'
_cell_volume   257.20453557
_cell_formula_units_Z   1
loop_
 _symmetry_equiv_pos_site_id
 _symmetry_equiv_pos_as_xyz
  1  'x, y, z'
loop_
 _atom_site_type_symbol
 _atom_site_label
 _atom_site_symmetry_multiplicity
 _atom_site_fract_x
 _atom_site_fract_y
 _atom_site_fract_z
 _atom_site_occupancy
  Nd  Nd0  1  0.500000  0.169440  0.669440  1
  Nd  Nd1  1  0.500000  0.847216  0.347216  1
  Nd  Nd2  1  0.500000  0.307577  0.170271  1
  Nd  Nd3  1  0.500000  0.670271  0.807577  1
  Hg  Hg4  1  0.000000  0.623108  0.123108  1
  Pd  Pd5  1  0.000000  0.376589  0.876589  1
  Pt  Pt6  1  0.000000  0.879758  0.629586  1
  Pt  Pt7  1  0.000000  0.129586  0.379758  1
  Pb  Pb8  1  0.000000  0.002672  0.993784  1
  Pb  Pb9  1  0.000000  0.493784  0.502672  1
