# generated using pymatgen
data_Yb2Lu2Pt3RhO14
_symmetry_space_group_name_H-M   'P 1'
_cell_length_a   7.16546058
_cell_length_b   7.19844488
_cell_length_c   7.19844379
_cell_angle_alpha   60.18626127
_cell_angle_beta   60.25751680
_cell_angle_gamma   60.25751320
_symmetry_Int_Tables_number   1
_chemical_formula_structural   Yb2Lu2Pt3RhO14
_chemical_formula_sum   'Yb2 Lu2 Pt3 Rh1 O14'
_cell_volume   263.93577337
_cell_formula_units_Z   1
loop_
 _symmetry_equiv_pos_site_id
 _symmetry_equiv_pos_as_xyz
  1  'x, y, z'
loop_
 _atom_site_type_symbol
 _atom_site_label
 _atom_site_symmetry_multiplicity
 _atom_site_fract_x
 _atom_site_fract_y
 _atom_site_fract_z
 _atom_site_occupancy
  Yb  Yb0  1  0.625000  0.625000  0.125000  1
  Yb  Yb1  1  0.625000  0.125000  0.625000  1
  Lu  Lu2  1  0.625000  0.625000  0.625000  1
  Lu  Lu3  1  0.125000  0.625000  0.625000  1
  Pt  Pt4  1  0.125000  0.125000  0.125000  1
  Pt  Pt5  1  0.125000  0.125000  0.625000  1
  Pt  Pt6  1  0.125000  0.625000  0.125000  1
  Rh  Rh7  1  0.625000  0.125000  0.125000  1
  O  O8  1  0.034043  0.465384  0.465384  1
  O  O9  1  0.791385  0.790977  0.219614  1
  O  O10  1  0.791780  0.207234  0.207234  1
  O  O11  1  0.458615  0.030386  0.459023  1
  O  O12  1  0.758174  0.741371  0.741371  1
  O  O13  1  0.044557  0.463627  0.028798  1
  O  O14  1  0.044557  0.028798  0.463627  1
  O  O15  1  0.205443  0.786373  0.221202  1
  O  O16  1  0.205443  0.221202  0.786373  1
  O  O17  1  0.791385  0.219614  0.790977  1
  O  O18  1  0.491826  0.508629  0.508629  1
  O  O19  1  0.458220  0.042766  0.042766  1
  O  O20  1  0.458615  0.459023  0.030386  1
  O  O21  1  0.215957  0.784616  0.784616  1
