# generated using pymatgen
data_YbSmFe4(CoB2)4
_symmetry_space_group_name_H-M   'P 1'
_cell_length_a   6.95945950
_cell_length_b   6.96906950
_cell_length_c   3.81236000
_cell_angle_alpha   90.00000000
_cell_angle_beta   90.00000000
_cell_angle_gamma   90.07518764
_symmetry_Int_Tables_number   1
_chemical_formula_structural   YbSmFe4(CoB2)4
_chemical_formula_sum   'Yb1 Sm1 Fe4 Co4 B8'
_cell_volume   184.90294894
_cell_formula_units_Z   1
loop_
 _symmetry_equiv_pos_site_id
 _symmetry_equiv_pos_as_xyz
  1  'x, y, z'
loop_
 _atom_site_type_symbol
 _atom_site_label
 _atom_site_symmetry_multiplicity
 _atom_site_fract_x
 _atom_site_fract_y
 _atom_site_fract_z
 _atom_site_occupancy
  Yb  Yb0  1  0.000000  0.000000  0.002176  1
  Sm  Sm1  1  0.500000  0.500000  0.502101  1
  Fe  Fe2  1  0.382045  0.131738  0.891804  1
  Fe  Fe3  1  0.617955  0.868262  0.891804  1
  Fe  Fe4  1  0.368015  0.883872  0.391941  1
  Fe  Fe5  1  0.631985  0.116128  0.391941  1
  Co  Co6  1  0.115612  0.365113  0.610173  1
  Co  Co7  1  0.884388  0.634887  0.610173  1
  Co  Co8  1  0.134377  0.617977  0.109453  1
  Co  Co9  1  0.865623  0.382023  0.109453  1
  B  B10  1  0.801977  0.666557  0.104325  1
  B  B11  1  0.198023  0.333443  0.104325  1
  B  B12  1  0.835712  0.295430  0.604934  1
  B  B13  1  0.164288  0.704570  0.604934  1
  B  B14  1  0.699168  0.835602  0.392044  1
  B  B15  1  0.300832  0.164398  0.392044  1
  B  B16  1  0.666637  0.193586  0.893189  1
  B  B17  1  0.333363  0.806414  0.893189  1
