# generated using pymatgen
data_CaCo3P2
_symmetry_space_group_name_H-M   'P 1'
_cell_length_a   3.70331700
_cell_length_b   10.55828100
_cell_length_c   12.14781600
_cell_angle_alpha   90.00000000
_cell_angle_beta   90.00000000
_cell_angle_gamma   90.00000000
_symmetry_Int_Tables_number   1
_chemical_formula_structural   CaCo3P2
_chemical_formula_sum   'Ca6 Co18 P12'
_cell_volume   474.98764160
_cell_formula_units_Z   6
loop_
 _symmetry_equiv_pos_site_id
 _symmetry_equiv_pos_as_xyz
  1  'x, y, z'
loop_
 _atom_site_type_symbol
 _atom_site_label
 _atom_site_symmetry_multiplicity
 _atom_site_fract_x
 _atom_site_fract_y
 _atom_site_fract_z
 _atom_site_occupancy
  Ca  Ca0  1  0.000000  0.500000  0.524764  1
  Ca  Ca1  1  0.500000  0.000000  0.475236  1
  Ca  Ca2  1  0.500000  0.819187  0.205582  1
  Ca  Ca3  1  0.500000  0.180813  0.205582  1
  Ca  Ca4  1  0.000000  0.680813  0.794418  1
  Ca  Ca5  1  0.000000  0.319187  0.794418  1
  Co  Co6  1  0.500000  0.500000  0.156909  1
  Co  Co7  1  0.000000  0.000000  0.843091  1
  Co  Co8  1  0.500000  0.500000  0.701631  1
  Co  Co9  1  0.000000  0.000000  0.298369  1
  Co  Co10  1  0.000000  0.500000  0.987501  1
  Co  Co11  1  0.500000  0.000000  0.012499  1
  Co  Co12  1  0.500000  0.332851  0.994962  1
  Co  Co13  1  0.500000  0.667149  0.994962  1
  Co  Co14  1  0.000000  0.167149  0.005038  1
  Co  Co15  1  0.000000  0.832851  0.005038  1
  Co  Co16  1  0.500000  0.297409  0.430909  1
  Co  Co17  1  0.500000  0.702591  0.430909  1
  Co  Co18  1  0.000000  0.202591  0.569091  1
  Co  Co19  1  0.000000  0.797409  0.569091  1
  Co  Co20  1  0.500000  0.880429  0.709925  1
  Co  Co21  1  0.500000  0.119571  0.709925  1
  Co  Co22  1  0.000000  0.619571  0.290075  1
  Co  Co23  1  0.000000  0.380429  0.290075  1
  P  P24  1  0.500000  0.500000  0.882840  1
  P  P25  1  0.000000  0.000000  0.117160  1
  P  P26  1  0.500000  0.500000  0.340857  1
  P  P27  1  0.000000  0.000000  0.659143  1
  P  P28  1  0.500000  0.307859  0.617188  1
  P  P29  1  0.500000  0.692141  0.617188  1
  P  P30  1  0.000000  0.192141  0.382812  1
  P  P31  1  0.000000  0.807859  0.382812  1
  P  P32  1  0.500000  0.847585  0.893883  1
  P  P33  1  0.500000  0.152415  0.893883  1
  P  P34  1  0.000000  0.652415  0.106117  1
  P  P35  1  0.000000  0.347585  0.106117  1
