# generated using pymatgen
data_Eu20Si11Sn
_symmetry_space_group_name_H-M   'P 1'
_cell_length_a   7.93513300
_cell_length_b   7.93513300
_cell_length_c   14.62978300
_cell_angle_alpha   90.00000000
_cell_angle_beta   90.00000000
_cell_angle_gamma   90.00000000
_symmetry_Int_Tables_number   1
_chemical_formula_structural   Eu20Si11Sn
_chemical_formula_sum   'Eu20 Si11 Sn1'
_cell_volume   921.18382800
_cell_formula_units_Z   1
loop_
 _symmetry_equiv_pos_site_id
 _symmetry_equiv_pos_as_xyz
  1  'x, y, z'
loop_
 _atom_site_type_symbol
 _atom_site_label
 _atom_site_symmetry_multiplicity
 _atom_site_fract_x
 _atom_site_fract_y
 _atom_site_fract_z
 _atom_site_occupancy
  Eu  Eu0  1  0.500000  0.000000  0.773435  1
  Eu  Eu1  1  0.328262  0.317282  0.103879  1
  Eu  Eu2  1  0.830809  0.816246  0.896407  1
  Eu  Eu3  1  0.000000  0.500000  0.236573  1
  Eu  Eu4  1  0.822842  0.174923  0.391044  1
  Eu  Eu5  1  0.169191  0.183754  0.896407  1
  Eu  Eu6  1  0.671738  0.682718  0.103879  1
  Eu  Eu7  1  0.000000  0.500000  0.741466  1
  Eu  Eu8  1  0.811035  0.835004  0.608265  1
  Eu  Eu9  1  0.325077  0.322842  0.391044  1
  Eu  Eu10  1  0.182718  0.828262  0.103879  1
  Eu  Eu11  1  0.188965  0.164996  0.608265  1
  Eu  Eu12  1  0.817282  0.171738  0.103879  1
  Eu  Eu13  1  0.335004  0.688965  0.608265  1
  Eu  Eu14  1  0.500000  0.000000  0.255716  1
  Eu  Eu15  1  0.683754  0.330809  0.896407  1
  Eu  Eu16  1  0.664996  0.311035  0.608265  1
  Eu  Eu17  1  0.316246  0.669191  0.896407  1
  Eu  Eu18  1  0.177158  0.825077  0.391044  1
  Eu  Eu19  1  0.674923  0.677158  0.391044  1
  Si  Si20  1  0.610227  0.390492  0.247205  1
  Si  Si21  1  0.890232  0.110231  0.752270  1
  Si  Si22  1  0.500000  0.000000  0.492732  1
  Si  Si23  1  0.890492  0.889773  0.247205  1
  Si  Si24  1  0.000000  0.500000  0.004340  1
  Si  Si25  1  0.109768  0.889769  0.752270  1
  Si  Si26  1  0.389769  0.390232  0.752270  1
  Si  Si27  1  0.109508  0.110227  0.247205  1
  Si  Si28  1  0.389773  0.609508  0.247205  1
  Si  Si29  1  0.610231  0.609768  0.752270  1
  Si  Si30  1  0.500000  0.000000  0.996789  1
  Sn  Sn31  1  0.000000  0.500000  0.502663  1
