# generated using pymatgen
data_TbEr2(P2Rh3)3
_symmetry_space_group_name_H-M   'P 1'
_cell_length_a   3.91674500
_cell_length_b   11.19217000
_cell_length_c   12.75253200
_cell_angle_alpha   90.00000000
_cell_angle_beta   90.00000000
_cell_angle_gamma   90.00000000
_symmetry_Int_Tables_number   1
_chemical_formula_structural   TbEr2(P2Rh3)3
_chemical_formula_sum   'Tb2 Er4 P12 Rh18'
_cell_volume   559.03116252
_cell_formula_units_Z   2
loop_
 _symmetry_equiv_pos_site_id
 _symmetry_equiv_pos_as_xyz
  1  'x, y, z'
loop_
 _atom_site_type_symbol
 _atom_site_label
 _atom_site_symmetry_multiplicity
 _atom_site_fract_x
 _atom_site_fract_y
 _atom_site_fract_z
 _atom_site_occupancy
  Tb  Tb0  1  0.000000  0.500000  0.521140  1
  Tb  Tb1  1  0.500000  0.000000  0.478860  1
  Er  Er2  1  0.500000  0.814332  0.205061  1
  Er  Er3  1  0.500000  0.185668  0.205061  1
  Er  Er4  1  0.000000  0.685668  0.794939  1
  Er  Er5  1  0.000000  0.314332  0.794939  1
  P  P6  1  0.500000  0.500000  0.877678  1
  P  P7  1  0.000000  0.000000  0.122322  1
  P  P8  1  0.500000  0.500000  0.351412  1
  P  P9  1  0.000000  0.000000  0.648588  1
  P  P10  1  0.500000  0.315162  0.619061  1
  P  P11  1  0.500000  0.684838  0.619061  1
  P  P12  1  0.000000  0.184838  0.380939  1
  P  P13  1  0.000000  0.815162  0.380939  1
  P  P14  1  0.500000  0.846469  0.892411  1
  P  P15  1  0.500000  0.153531  0.892411  1
  P  P16  1  0.000000  0.653531  0.107589  1
  P  P17  1  0.000000  0.346469  0.107589  1
  Rh  Rh18  1  0.500000  0.500000  0.169628  1
  Rh  Rh19  1  0.000000  0.000000  0.830372  1
  Rh  Rh20  1  0.500000  0.500000  0.701380  1
  Rh  Rh21  1  0.000000  0.000000  0.298620  1
  Rh  Rh22  1  0.000000  0.500000  0.978358  1
  Rh  Rh23  1  0.500000  0.000000  0.021642  1
  Rh  Rh24  1  0.500000  0.334051  0.993736  1
  Rh  Rh25  1  0.500000  0.665949  0.993736  1
  Rh  Rh26  1  0.000000  0.165949  0.006264  1
  Rh  Rh27  1  0.000000  0.834051  0.006264  1
  Rh  Rh28  1  0.500000  0.294710  0.431019  1
  Rh  Rh29  1  0.500000  0.705290  0.431019  1
  Rh  Rh30  1  0.000000  0.205290  0.568981  1
  Rh  Rh31  1  0.000000  0.794710  0.568981  1
  Rh  Rh32  1  0.500000  0.872536  0.711076  1
  Rh  Rh33  1  0.500000  0.127464  0.711076  1
  Rh  Rh34  1  0.000000  0.627464  0.288924  1
  Rh  Rh35  1  0.000000  0.372536  0.288924  1
