# generated using pymatgen
data_Tm12Al2Si3Ni
_symmetry_space_group_name_H-M   'P 1'
_cell_length_a   8.31824058
_cell_length_b   8.31820924
_cell_length_c   8.31824046
_cell_angle_alpha   112.81912800
_cell_angle_beta   111.90598668
_cell_angle_gamma   103.83308555
_symmetry_Int_Tables_number   1
_chemical_formula_structural   Tm12Al2Si3Ni
_chemical_formula_sum   'Tm12 Al2 Si3 Ni1'
_cell_volume   439.86159670
_cell_formula_units_Z   1
loop_
 _symmetry_equiv_pos_site_id
 _symmetry_equiv_pos_as_xyz
  1  'x, y, z'
loop_
 _atom_site_type_symbol
 _atom_site_label
 _atom_site_symmetry_multiplicity
 _atom_site_fract_x
 _atom_site_fract_y
 _atom_site_fract_z
 _atom_site_occupancy
  Tm  Tm0  1  0.438428  0.241316  0.197104  1
  Tm  Tm1  1  0.559136  0.755675  0.803466  1
  Tm  Tm2  1  0.044213  0.241316  0.802888  1
  Tm  Tm3  1  0.952208  0.755675  0.196539  1
  Tm  Tm4  1  0.177731  0.280992  0.465846  1
  Tm  Tm5  1  0.815164  0.711881  0.534157  1
  Tm  Tm6  1  0.177725  0.711881  0.896716  1
  Tm  Tm7  1  0.815144  0.280992  0.103262  1
  Tm  Tm8  1  0.325288  0.623198  0.297911  1
  Tm  Tm9  1  0.682963  0.373748  0.690784  1
  Tm  Tm10  1  0.325278  0.027368  0.702090  1
  Tm  Tm11  1  0.682972  0.992188  0.309216  1
  Al  Al12  1  0.499634  0.499625  0.999991  1
  Al  Al13  1  0.000389  0.000385  0.999996  1
  Si  Si14  1  0.343523  0.997930  0.345618  1
  Si  Si15  1  0.652312  0.997930  0.654407  1
  Si  Si16  1  0.122118  0.622127  0.500009  1
  Ni  Ni17  1  0.885773  0.385774  0.500001  1
