# generated using pymatgen
data_Er2Si3Sn(AsRh4)3
_symmetry_space_group_name_H-M   'P 1'
_cell_length_a   9.97807600
_cell_length_b   9.97807524
_cell_length_c   3.89408200
_cell_angle_alpha   90.00000000
_cell_angle_beta   90.00000000
_cell_angle_gamma   119.99999588
_symmetry_Int_Tables_number   1
_chemical_formula_structural   Er2Si3Sn(AsRh4)3
_chemical_formula_sum   'Er2 Si3 Sn1 As3 Rh12'
_cell_volume   335.76028455
_cell_formula_units_Z   1
loop_
 _symmetry_equiv_pos_site_id
 _symmetry_equiv_pos_as_xyz
  1  'x, y, z'
loop_
 _atom_site_type_symbol
 _atom_site_label
 _atom_site_symmetry_multiplicity
 _atom_site_fract_x
 _atom_site_fract_y
 _atom_site_fract_z
 _atom_site_occupancy
  Er  Er0  1  0.666667  0.333333  0.753158  1
  Er  Er1  1  0.333333  0.666667  0.245816  1
  Si  Si2  1  0.290920  0.884750  0.747263  1
  Si  Si3  1  0.115250  0.406170  0.747263  1
  Si  Si4  1  0.593830  0.709080  0.747263  1
  Sn  Sn5  1  0.000000  0.000000  0.611328  1
  As  As6  1  0.709518  0.115460  0.251420  1
  As  As7  1  0.884540  0.594056  0.251420  1
  As  As8  1  0.405944  0.290482  0.251420  1
  Rh  Rh9  1  0.074889  0.622535  0.749558  1
  Rh  Rh10  1  0.377465  0.452354  0.749558  1
  Rh  Rh11  1  0.547646  0.925111  0.749558  1
  Rh  Rh12  1  0.946540  0.389918  0.249777  1
  Rh  Rh13  1  0.610082  0.556622  0.249777  1
  Rh  Rh14  1  0.443378  0.053460  0.249777  1
  Rh  Rh15  1  0.288272  0.124517  0.753890  1
  Rh  Rh16  1  0.875483  0.163755  0.753890  1
  Rh  Rh17  1  0.836245  0.711728  0.753890  1
  Rh  Rh18  1  0.726952  0.874769  0.245867  1
  Rh  Rh19  1  0.125231  0.852184  0.245867  1
  Rh  Rh20  1  0.147816  0.273048  0.245867  1
