# generated using pymatgen
data_Yb5Pr15(SnBi)8
_symmetry_space_group_name_H-M   'P 1'
_cell_length_a   8.41533018
_cell_length_b   8.43922138
_cell_length_c   16.36099401
_cell_angle_alpha   89.94100538
_cell_angle_beta   90.03797133
_cell_angle_gamma   90.37438799
_symmetry_Int_Tables_number   1
_chemical_formula_structural   Yb5Pr15(SnBi)8
_chemical_formula_sum   'Yb5 Pr15 Sn8 Bi8'
_cell_volume   1161.91305110
_cell_formula_units_Z   1
loop_
 _symmetry_equiv_pos_site_id
 _symmetry_equiv_pos_as_xyz
  1  'x, y, z'
loop_
 _atom_site_type_symbol
 _atom_site_label
 _atom_site_symmetry_multiplicity
 _atom_site_fract_x
 _atom_site_fract_y
 _atom_site_fract_z
 _atom_site_occupancy
  Yb  Yb0  1  0.391564  0.838096  0.879082  1
  Yb  Yb1  1  0.225903  0.501907  0.751333  1
  Yb  Yb2  1  0.722154  0.996801  0.751754  1
  Yb  Yb3  1  0.776507  0.500294  0.249839  1
  Yb  Yb4  1  0.276720  0.000546  0.249152  1
  Pr  Pr5  1  0.894539  0.666143  0.620775  1
  Pr  Pr6  1  0.606244  0.164583  0.379593  1
  Pr  Pr7  1  0.106950  0.334923  0.119089  1
  Pr  Pr8  1  0.606291  0.165102  0.120517  1
  Pr  Pr9  1  0.105870  0.335535  0.379730  1
  Pr  Pr10  1  0.394300  0.834487  0.619336  1
  Pr  Pr11  1  0.894526  0.665136  0.880130  1
  Pr  Pr12  1  0.548975  0.323688  0.889713  1
  Pr  Pr13  1  0.049332  0.175943  0.611162  1
  Pr  Pr14  1  0.450951  0.675951  0.390038  1
  Pr  Pr15  1  0.950287  0.825518  0.110754  1
  Pr  Pr16  1  0.449897  0.676348  0.108235  1
  Pr  Pr17  1  0.950157  0.824034  0.389031  1
  Pr  Pr18  1  0.549155  0.323459  0.610964  1
  Pr  Pr19  1  0.049175  0.175352  0.888543  1
  Sn  Sn20  1  0.593541  0.621117  0.751684  1
  Sn  Sn21  1  0.094896  0.879692  0.750184  1
  Sn  Sn22  1  0.406867  0.379845  0.249832  1
  Sn  Sn23  1  0.907117  0.120881  0.249959  1
  Sn  Sn24  1  0.347570  0.135004  0.750179  1
  Sn  Sn25  1  0.848385  0.362542  0.749910  1
  Sn  Sn26  1  0.650883  0.862819  0.249802  1
  Sn  Sn27  1  0.151895  0.636418  0.249847  1
  Bi  Bi28  1  0.269585  0.018310  0.043295  1
  Bi  Bi29  1  0.768611  0.480872  0.456268  1
  Bi  Bi30  1  0.731827  0.980396  0.543986  1
  Bi  Bi31  1  0.232361  0.519949  0.954668  1
  Bi  Bi32  1  0.729279  0.978630  0.956606  1
  Bi  Bi33  1  0.230967  0.518075  0.544706  1
  Bi  Bi34  1  0.268214  0.020256  0.455954  1
  Bi  Bi35  1  0.768503  0.481346  0.044350  1
