# generated using pymatgen
data_YSc2SbO7
_symmetry_space_group_name_H-M   'P 1'
_cell_length_a   6.23885900
_cell_length_b   6.23885911
_cell_length_c   7.33836500
_cell_angle_alpha   90.00000000
_cell_angle_beta   90.00000000
_cell_angle_gamma   109.42288725
_symmetry_Int_Tables_number   1
_chemical_formula_structural   YSc2SbO7
_chemical_formula_sum   'Y2 Sc4 Sb2 O14'
_cell_volume   269.37838862
_cell_formula_units_Z   2
loop_
 _symmetry_equiv_pos_site_id
 _symmetry_equiv_pos_as_xyz
  1  'x, y, z'
loop_
 _atom_site_type_symbol
 _atom_site_label
 _atom_site_symmetry_multiplicity
 _atom_site_fract_x
 _atom_site_fract_y
 _atom_site_fract_z
 _atom_site_occupancy
  Y  Y0  1  0.500404  0.500404  0.500000  1
  Y  Y1  1  0.499596  0.499596  0.000000  1
  Sc  Sc2  1  0.995289  0.472521  0.749495  1
  Sc  Sc3  1  0.004711  0.527479  0.249495  1
  Sc  Sc4  1  0.527479  0.004711  0.750505  1
  Sc  Sc5  1  0.472521  0.995289  0.250505  1
  Sb  Sb6  1  0.000122  0.000122  0.500000  1
  Sb  Sb7  1  0.999878  0.999878  0.000000  1
  O  O8  1  0.648047  0.351953  0.750000  1
  O  O9  1  0.351953  0.648047  0.250000  1
  O  O10  1  0.920630  0.079370  0.750000  1
  O  O11  1  0.079370  0.920630  0.250000  1
  O  O12  1  0.925183  0.668451  0.534998  1
  O  O13  1  0.074817  0.331549  0.034998  1
  O  O14  1  0.331549  0.074817  0.965002  1
  O  O15  1  0.668451  0.925183  0.465002  1
  O  O16  1  0.359460  0.640540  0.750000  1
  O  O17  1  0.640540  0.359460  0.250000  1
  O  O18  1  0.925564  0.668722  0.964513  1
  O  O19  1  0.074436  0.331278  0.464513  1
  O  O20  1  0.331278  0.074436  0.535487  1
  O  O21  1  0.668722  0.925564  0.035487  1
