# generated using pymatgen
data_YbLu3(Ir2O7)2
_symmetry_space_group_name_H-M   'P 1'
_cell_length_a   7.15401995
_cell_length_b   7.18970853
_cell_length_c   7.15402000
_cell_angle_alpha   60.16406697
_cell_angle_beta   59.99999976
_cell_angle_gamma   60.16406440
_symmetry_Int_Tables_number   1
_chemical_formula_structural   YbLu3(Ir2O7)2
_chemical_formula_sum   'Yb1 Lu3 Ir4 O14'
_cell_volume   260.83695960
_cell_formula_units_Z   1
loop_
 _symmetry_equiv_pos_site_id
 _symmetry_equiv_pos_as_xyz
  1  'x, y, z'
loop_
 _atom_site_type_symbol
 _atom_site_label
 _atom_site_symmetry_multiplicity
 _atom_site_fract_x
 _atom_site_fract_y
 _atom_site_fract_z
 _atom_site_occupancy
  Yb  Yb0  1  0.125000  0.625000  0.125000  1
  Lu  Lu1  1  0.625000  0.125000  0.125000  1
  Lu  Lu2  1  0.125000  0.125000  0.625000  1
  Lu  Lu3  1  0.125000  0.125000  0.125000  1
  Ir  Ir4  1  0.125000  0.625000  0.625000  1
  Ir  Ir5  1  0.625000  0.125000  0.625000  1
  Ir  Ir6  1  0.625000  0.625000  0.125000  1
  Ir  Ir7  1  0.625000  0.625000  0.625000  1
  O  O8  1  0.700473  0.721879  0.288824  1
  O  O9  1  0.288091  0.286558  0.712676  1
  O  O10  1  0.712676  0.286558  0.712676  1
  O  O11  1  0.288824  0.721879  0.288824  1
  O  O12  1  0.288824  0.721879  0.700473  1
  O  O13  1  0.712676  0.286558  0.288091  1
  O  O14  1  0.549527  0.528121  0.961176  1
  O  O15  1  0.961909  0.963442  0.537324  1
  O  O16  1  0.537324  0.963442  0.537324  1
  O  O17  1  0.961176  0.528121  0.961176  1
  O  O18  1  0.961176  0.528121  0.549527  1
  O  O19  1  0.537324  0.963442  0.961909  1
  O  O20  1  0.254180  0.237460  0.254180  1
  O  O21  1  0.995820  0.012540  0.995820  1
