# generated using pymatgen
data_LaDy3(Si5Pt3)2
_symmetry_space_group_name_H-M   'P 1'
_cell_length_a   8.19778685
_cell_length_b   8.20553366
_cell_length_c   8.20553314
_cell_angle_alpha   136.35372413
_cell_angle_beta   104.95813108
_cell_angle_gamma   91.06194766
_symmetry_Int_Tables_number   1
_chemical_formula_structural   LaDy3(Si5Pt3)2
_chemical_formula_sum   'La1 Dy3 Si10 Pt6'
_cell_volume   350.17838448
_cell_formula_units_Z   1
loop_
 _symmetry_equiv_pos_site_id
 _symmetry_equiv_pos_as_xyz
  1  'x, y, z'
loop_
 _atom_site_type_symbol
 _atom_site_label
 _atom_site_symmetry_multiplicity
 _atom_site_fract_x
 _atom_site_fract_y
 _atom_site_fract_z
 _atom_site_occupancy
  La  La0  1  0.897598  0.129537  0.768061  1
  Dy  Dy1  1  0.642064  0.370319  0.271745  1
  Dy  Dy2  1  0.358501  0.629565  0.728936  1
  Dy  Dy3  1  0.099742  0.870711  0.229031  1
  Si  Si4  1  0.273194  0.521669  0.250263  1
  Si  Si5  1  0.728283  0.479090  0.750079  1
  Si  Si6  1  0.728283  0.978204  0.249194  1
  Si  Si7  1  0.273194  0.022931  0.751525  1
  Si  Si8  1  0.461457  0.111557  0.349900  1
  Si  Si9  1  0.534613  0.884772  0.649841  1
  Si  Si10  1  0.762538  0.611514  0.151024  1
  Si  Si11  1  0.239244  0.390362  0.848881  1
  Si  Si12  1  0.000151  0.248588  0.249455  1
  Si  Si13  1  0.000151  0.750696  0.751562  1
  Pt  Pt14  1  0.251301  0.137608  0.113692  1
  Pt  Pt15  1  0.748425  0.860573  0.887853  1
  Pt  Pt16  1  0.027477  0.637619  0.389858  1
  Pt  Pt17  1  0.976474  0.365591  0.610882  1
  Pt  Pt18  1  0.498654  0.249728  0.749289  1
  Pt  Pt19  1  0.498654  0.749365  0.248926  1
