# generated using pymatgen
data_Sr14Sn2GeAs12
_symmetry_space_group_name_H-M   'P 1'
_cell_length_a   9.55805456
_cell_length_b   9.55779557
_cell_length_c   9.55786991
_cell_angle_alpha   87.03078298
_cell_angle_beta   87.03004372
_cell_angle_gamma   87.02910036
_symmetry_Int_Tables_number   1
_chemical_formula_structural   Sr14Sn2GeAs12
_chemical_formula_sum   'Sr14 Sn2 Ge1 As12'
_cell_volume   869.74769111
_cell_formula_units_Z   1
loop_
 _symmetry_equiv_pos_site_id
 _symmetry_equiv_pos_as_xyz
  1  'x, y, z'
loop_
 _atom_site_type_symbol
 _atom_site_label
 _atom_site_symmetry_multiplicity
 _atom_site_fract_x
 _atom_site_fract_y
 _atom_site_fract_z
 _atom_site_occupancy
  Sr  Sr0  1  0.413043  0.269799  0.774693  1
  Sr  Sr1  1  0.774703  0.413037  0.269800  1
  Sr  Sr2  1  0.269803  0.774691  0.413030  1
  Sr  Sr3  1  0.984212  0.542723  0.651481  1
  Sr  Sr4  1  0.651489  0.984219  0.542720  1
  Sr  Sr5  1  0.542731  0.651485  0.984217  1
  Sr  Sr6  1  0.176990  0.535998  0.022334  1
  Sr  Sr7  1  0.022341  0.176977  0.536008  1
  Sr  Sr8  1  0.536013  0.022336  0.176981  1
  Sr  Sr9  1  0.768117  0.259368  0.909348  1
  Sr  Sr10  1  0.909355  0.768110  0.259370  1
  Sr  Sr11  1  0.259375  0.909353  0.768111  1
  Sr  Sr12  1  0.184692  0.184686  0.184693  1
  Sr  Sr13  1  0.400263  0.400256  0.400254  1
  Sn  Sn14  1  0.845270  0.845263  0.845229  1
  Sn  Sn15  1  0.608174  0.608359  0.608392  1
  Ge  Ge16  1  0.003779  0.003770  0.003769  1
  As  As17  1  0.702551  0.326963  0.586347  1
  As  As18  1  0.586355  0.702545  0.326967  1
  As  As19  1  0.326960  0.586345  0.702551  1
  As  As20  1  0.587439  0.967050  0.863273  1
  As  As21  1  0.863284  0.587438  0.967048  1
  As  As22  1  0.967061  0.863272  0.587426  1
  As  As23  1  0.474418  0.342536  0.084126  1
  As  As24  1  0.084134  0.474414  0.342535  1
  As  As25  1  0.342541  0.084127  0.474412  1
  As  As26  1  0.096631  0.213157  0.859835  1
  As  As27  1  0.859838  0.096623  0.213156  1
  As  As28  1  0.213164  0.859833  0.096621  1
