# generated using pymatgen
data_Dy7Y(Tm3Sn4)4
_symmetry_space_group_name_H-M   'P 1'
_cell_length_a   7.97767002
_cell_length_b   8.10851502
_cell_length_c   15.32443901
_cell_angle_alpha   90.00358953
_cell_angle_beta   89.99731087
_cell_angle_gamma   90.00702391
_symmetry_Int_Tables_number   1
_chemical_formula_structural   Dy7Y(Tm3Sn4)4
_chemical_formula_sum   'Dy7 Y1 Tm12 Sn16'
_cell_volume   991.29285170
_cell_formula_units_Z   1
loop_
 _symmetry_equiv_pos_site_id
 _symmetry_equiv_pos_as_xyz
  1  'x, y, z'
loop_
 _atom_site_type_symbol
 _atom_site_label
 _atom_site_symmetry_multiplicity
 _atom_site_fract_x
 _atom_site_fract_y
 _atom_site_fract_z
 _atom_site_occupancy
  Dy  Dy0  1  0.021462  0.179344  0.597135  1
  Dy  Dy1  1  0.478547  0.679341  0.402862  1
  Dy  Dy2  1  0.978539  0.820664  0.097151  1
  Dy  Dy3  1  0.478556  0.679363  0.097141  1
  Dy  Dy4  1  0.978547  0.820656  0.402852  1
  Dy  Dy5  1  0.521447  0.320659  0.597118  1
  Dy  Dy6  1  0.021432  0.179353  0.902865  1
  Y  Y7  1  0.521545  0.320725  0.902900  1
  Tm  Tm8  1  0.367435  0.836689  0.877345  1
  Tm  Tm9  1  0.867447  0.663304  0.622646  1
  Tm  Tm10  1  0.632583  0.163290  0.377344  1
  Tm  Tm11  1  0.132631  0.336700  0.122655  1
  Tm  Tm12  1  0.632654  0.163222  0.122725  1
  Tm  Tm13  1  0.132588  0.336697  0.377349  1
  Tm  Tm14  1  0.367403  0.836706  0.622648  1
  Tm  Tm15  1  0.867448  0.663294  0.877339  1
  Tm  Tm16  1  0.198145  0.504042  0.749990  1
  Tm  Tm17  1  0.698257  0.995902  0.749967  1
  Tm  Tm18  1  0.801764  0.495992  0.250010  1
  Tm  Tm19  1  0.301759  0.004020  0.249997  1
  Sn  Sn20  1  0.293874  0.036953  0.041699  1
  Sn  Sn21  1  0.793912  0.462960  0.458336  1
  Sn  Sn22  1  0.706075  0.962947  0.541680  1
  Sn  Sn23  1  0.205878  0.537208  0.958343  1
  Sn  Sn24  1  0.706123  0.962815  0.958356  1
  Sn  Sn25  1  0.206059  0.537053  0.541680  1
  Sn  Sn26  1  0.293921  0.037041  0.458342  1
  Sn  Sn27  1  0.793968  0.463009  0.041729  1
  Sn  Sn28  1  0.564552  0.620271  0.749926  1
  Sn  Sn29  1  0.064536  0.879843  0.749994  1
  Sn  Sn30  1  0.435461  0.379827  0.249993  1
  Sn  Sn31  1  0.935462  0.120164  0.249999  1
  Sn  Sn32  1  0.330408  0.147772  0.749925  1
  Sn  Sn33  1  0.830617  0.352172  0.749960  1
  Sn  Sn34  1  0.669487  0.852148  0.250003  1
  Sn  Sn35  1  0.169477  0.647855  0.249999  1
