# generated using pymatgen
data_Sm2MnFe11P7
_symmetry_space_group_name_H-M   'P 1'
_cell_length_a   9.03733505
_cell_length_b   9.03321695
_cell_length_c   3.65900300
_cell_angle_alpha   90.00000000
_cell_angle_beta   90.00000000
_cell_angle_gamma   120.02764933
_symmetry_Int_Tables_number   1
_chemical_formula_structural   Sm2MnFe11P7
_chemical_formula_sum   'Sm2 Mn1 Fe11 P7'
_cell_volume   258.61585957
_cell_formula_units_Z   1
loop_
 _symmetry_equiv_pos_site_id
 _symmetry_equiv_pos_as_xyz
  1  'x, y, z'
loop_
 _atom_site_type_symbol
 _atom_site_label
 _atom_site_symmetry_multiplicity
 _atom_site_fract_x
 _atom_site_fract_y
 _atom_site_fract_z
 _atom_site_occupancy
  Sm  Sm0  1  0.665325  0.332065  0.000000  1
  Sm  Sm1  1  0.332156  0.666794  0.500000  1
  Mn  Mn2  1  0.887383  0.785395  0.000000  1
  Fe  Fe3  1  0.424200  0.055483  0.500000  1
  Fe  Fe4  1  0.943954  0.367476  0.500000  1
  Fe  Fe5  1  0.631138  0.575399  0.500000  1
  Fe  Fe6  1  0.153636  0.274097  0.500000  1
  Fe  Fe7  1  0.730543  0.881703  0.500000  1
  Fe  Fe8  1  0.118923  0.848799  0.500000  1
  Fe  Fe9  1  0.382340  0.432648  0.000000  1
  Fe  Fe10  1  0.567058  0.950581  0.000000  1
  Fe  Fe11  1  0.047713  0.615188  0.000000  1
  Fe  Fe12  1  0.217957  0.099511  0.000000  1
  Fe  Fe13  1  0.901905  0.115314  0.000000  1
  P  P14  1  0.108364  0.397392  0.000000  1
  P  P15  1  0.596078  0.709293  0.000000  1
  P  P16  1  0.289001  0.891937  0.000000  1
  P  P17  1  0.003515  0.005014  0.500000  1
  P  P18  1  0.408260  0.300035  0.500000  1
  P  P19  1  0.698751  0.106712  0.500000  1
  P  P20  1  0.891800  0.589163  0.500000  1
