# generated using pymatgen
data_Tb3DyNp6O20
_symmetry_space_group_name_H-M   'P 1'
_cell_length_a   6.56659502
_cell_length_b   7.60436969
_cell_length_c   8.49419000
_cell_angle_alpha   103.11698679
_cell_angle_beta   97.40831493
_cell_angle_gamma   106.77720043
_symmetry_Int_Tables_number   1
_chemical_formula_structural   Tb3DyNp6O20
_chemical_formula_sum   'Tb3 Dy1 Np6 O20'
_cell_volume   386.81075059
_cell_formula_units_Z   1
loop_
 _symmetry_equiv_pos_site_id
 _symmetry_equiv_pos_as_xyz
  1  'x, y, z'
loop_
 _atom_site_type_symbol
 _atom_site_label
 _atom_site_symmetry_multiplicity
 _atom_site_fract_x
 _atom_site_fract_y
 _atom_site_fract_z
 _atom_site_occupancy
  Tb  Tb0  1  0.002819  0.501343  0.999499  1
  Tb  Tb1  1  0.199674  0.900433  0.398616  1
  Tb  Tb2  1  0.395750  0.800458  0.800025  1
  Dy  Dy3  1  0.997343  0.997913  0.999141  1
  Np  Np4  1  0.804186  0.603473  0.604158  1
  Np  Np5  1  0.600491  0.199193  0.199745  1
  Np  Np6  1  0.797983  0.098824  0.602901  1
  Np  Np7  1  0.605906  0.701349  0.197970  1
  Np  Np8  1  0.201309  0.399579  0.398932  1
  Np  Np9  1  0.397808  0.296415  0.801405  1
  O  O10  1  0.844394  0.322798  0.455605  1
  O  O11  1  0.641654  0.927507  0.058410  1
  O  O12  1  0.935844  0.771564  0.153824  1
  O  O13  1  0.842712  0.828533  0.455921  1
  O  O14  1  0.449911  0.513862  0.638188  1
  O  O15  1  0.644224  0.416770  0.050523  1
  O  O16  1  0.741154  0.371419  0.747559  1
  O  O17  1  0.263261  0.137977  0.254584  1
  O  O18  1  0.448546  0.036147  0.653423  1
  O  O19  1  0.948960  0.280036  0.163034  1
  O  O20  1  0.562349  0.982191  0.353370  1
  O  O21  1  0.040200  0.720738  0.842165  1
  O  O22  1  0.275042  0.625735  0.248872  1
  O  O23  1  0.745832  0.874216  0.742675  1
  O  O24  1  0.364000  0.565383  0.944541  1
  O  O25  1  0.047679  0.221287  0.841222  1
  O  O26  1  0.567032  0.478505  0.349560  1
  O  O27  1  0.140551  0.180316  0.549860  1
  O  O28  1  0.354584  0.084753  0.954452  1
  O  O29  1  0.138803  0.661282  0.539821  1
