# generated using pymatgen
data_NaSmH6Rh
_symmetry_space_group_name_H-M   'P 1'
_cell_length_a   5.04719741
_cell_length_b   5.04719738
_cell_length_c   5.04719600
_cell_angle_alpha   59.99999596
_cell_angle_beta   59.99999611
_cell_angle_gamma   59.99998969
_symmetry_Int_Tables_number   1
_chemical_formula_structural   NaSmH6Rh
_chemical_formula_sum   'Na1 Sm1 H6 Rh1'
_cell_volume   90.91503137
_cell_formula_units_Z   1
loop_
 _symmetry_equiv_pos_site_id
 _symmetry_equiv_pos_as_xyz
  1  'x, y, z'
loop_
 _atom_site_type_symbol
 _atom_site_label
 _atom_site_symmetry_multiplicity
 _atom_site_fract_x
 _atom_site_fract_y
 _atom_site_fract_z
 _atom_site_occupancy
  Na  Na0  1  0.750000  0.750000  0.750000  1
  Sm  Sm1  1  0.250000  0.250000  0.250000  1
  H  H2  1  0.760035  0.760035  0.239965  1
  H  H3  1  0.239965  0.760035  0.239965  1
  H  H4  1  0.760035  0.239965  0.239965  1
  H  H5  1  0.239965  0.239965  0.760035  1
  H  H6  1  0.760035  0.239965  0.760035  1
  H  H7  1  0.239965  0.760035  0.760035  1
  Rh  Rh8  1  0.000000  0.000000  0.000000  1
