# generated using pymatgen
data_Zr10CdSn(BiPb)3
_symmetry_space_group_name_H-M   'P 1'
_cell_length_a   8.98264700
_cell_length_b   8.98264682
_cell_length_c   6.01255700
_cell_angle_alpha   90.00000000
_cell_angle_beta   90.00000000
_cell_angle_gamma   120.00000434
_symmetry_Int_Tables_number   1
_chemical_formula_structural   Zr10CdSn(BiPb)3
_chemical_formula_sum   'Zr10 Cd1 Sn1 Bi3 Pb3'
_cell_volume   420.14430088
_cell_formula_units_Z   1
loop_
 _symmetry_equiv_pos_site_id
 _symmetry_equiv_pos_as_xyz
  1  'x, y, z'
loop_
 _atom_site_type_symbol
 _atom_site_label
 _atom_site_symmetry_multiplicity
 _atom_site_fract_x
 _atom_site_fract_y
 _atom_site_fract_z
 _atom_site_occupancy
  Zr  Zr0  1  0.666667  0.333333  0.002275  1
  Zr  Zr1  1  0.333333  0.666667  0.002275  1
  Zr  Zr2  1  0.333333  0.666667  0.498135  1
  Zr  Zr3  1  0.666667  0.333333  0.498135  1
  Zr  Zr4  1  0.719846  0.719846  0.751889  1
  Zr  Zr5  1  0.280154  0.000000  0.751889  1
  Zr  Zr6  1  0.000000  0.280154  0.751889  1
  Zr  Zr7  1  0.281039  0.281039  0.248060  1
  Zr  Zr8  1  0.718961  0.000000  0.248060  1
  Zr  Zr9  1  0.000000  0.718961  0.248060  1
  Cd  Cd10  1  0.000000  0.000000  0.499093  1
  Sn  Sn11  1  0.000000  0.000000  0.000682  1
  Bi  Bi12  1  0.383719  0.383719  0.747142  1
  Bi  Bi13  1  0.616281  0.000000  0.747142  1
  Bi  Bi14  1  0.000000  0.616281  0.747142  1
  Pb  Pb15  1  0.618135  0.618135  0.252711  1
  Pb  Pb16  1  0.381865  0.000000  0.252711  1
  Pb  Pb17  1  0.000000  0.381865  0.252711  1
