# generated using pymatgen
data_LiPr2Si4Pt
_symmetry_space_group_name_H-M   'P 1'
_cell_length_a   3.94398000
_cell_length_b   7.49373200
_cell_length_c   10.44419100
_cell_angle_alpha   90.00000000
_cell_angle_beta   90.00000000
_cell_angle_gamma   90.00000000
_symmetry_Int_Tables_number   1
_chemical_formula_structural   LiPr2Si4Pt
_chemical_formula_sum   'Li2 Pr4 Si8 Pt2'
_cell_volume   308.67941370
_cell_formula_units_Z   2
loop_
 _symmetry_equiv_pos_site_id
 _symmetry_equiv_pos_as_xyz
  1  'x, y, z'
loop_
 _atom_site_type_symbol
 _atom_site_label
 _atom_site_symmetry_multiplicity
 _atom_site_fract_x
 _atom_site_fract_y
 _atom_site_fract_z
 _atom_site_occupancy
  Li  Li0  1  0.750000  0.998907  0.606943  1
  Li  Li1  1  0.750000  0.498907  0.893057  1
  Pr  Pr2  1  0.250000  0.145773  0.872827  1
  Pr  Pr3  1  0.250000  0.645773  0.627173  1
  Pr  Pr4  1  0.750000  0.866183  0.132542  1
  Pr  Pr5  1  0.750000  0.366183  0.367458  1
  Si  Si6  1  0.250000  0.210468  0.569157  1
  Si  Si7  1  0.250000  0.710468  0.930843  1
  Si  Si8  1  0.750000  0.783380  0.424641  1
  Si  Si9  1  0.750000  0.283380  0.075359  1
  Si  Si10  1  0.250000  0.667756  0.315265  1
  Si  Si11  1  0.250000  0.167756  0.184735  1
  Si  Si12  1  0.750000  0.330658  0.673334  1
  Si  Si13  1  0.750000  0.830658  0.826666  1
  Pt  Pt14  1  0.250000  0.996873  0.386553  1
  Pt  Pt15  1  0.250000  0.496873  0.113447  1
