# generated using pymatgen
data_Y3Tm7(TlSb)3
_symmetry_space_group_name_H-M   'P 1'
_cell_length_a   6.47953400
_cell_length_b   8.88791448
_cell_length_c   8.88801300
_cell_angle_alpha   59.99256519
_cell_angle_beta   90.00128217
_cell_angle_gamma   89.99901027
_symmetry_Int_Tables_number   1
_chemical_formula_structural   Y3Tm7(TlSb)3
_chemical_formula_sum   'Y3 Tm7 Tl3 Sb3'
_cell_volume   443.24761903
_cell_formula_units_Z   1
loop_
 _symmetry_equiv_pos_site_id
 _symmetry_equiv_pos_as_xyz
  1  'x, y, z'
loop_
 _atom_site_type_symbol
 _atom_site_label
 _atom_site_symmetry_multiplicity
 _atom_site_fract_x
 _atom_site_fract_y
 _atom_site_fract_z
 _atom_site_occupancy
  Y  Y0  1  0.250041  0.760668  0.239346  1
  Y  Y1  1  0.250002  0.239434  0.999959  1
  Y  Y2  1  0.250001  0.000054  0.760566  1
  Tm  Tm3  1  0.503097  0.333346  0.333279  1
  Tm  Tm4  1  0.503096  0.666713  0.666662  1
  Tm  Tm5  1  0.996886  0.666583  0.666681  1
  Tm  Tm6  1  0.996887  0.333324  0.333409  1
  Tm  Tm7  1  0.749993  0.237870  0.762136  1
  Tm  Tm8  1  0.750032  0.762139  0.000036  1
  Tm  Tm9  1  0.750032  0.999970  0.237839  1
  Tl  Tl10  1  0.749969  0.606467  0.393531  1
  Tl  Tl11  1  0.749999  0.393520  0.000035  1
  Tl  Tl12  1  0.749998  0.999965  0.606475  1
  Sb  Sb13  1  0.250061  0.396814  0.603176  1
  Sb  Sb14  1  0.249953  0.603200  0.000058  1
  Sb  Sb15  1  0.249953  0.999932  0.396811  1
