# generated using pymatgen
data_ErPa(Al5Os)4
_symmetry_space_group_name_H-M   'P 1'
_cell_length_a   6.86039855
_cell_length_b   6.86039841
_cell_length_c   9.15168100
_cell_angle_alpha   90.00000000
_cell_angle_beta   90.00000000
_cell_angle_gamma   97.14385091
_symmetry_Int_Tables_number   1
_chemical_formula_structural   ErPa(Al5Os)4
_chemical_formula_sum   'Er1 Pa1 Al20 Os4'
_cell_volume   427.38078946
_cell_formula_units_Z   1
loop_
 _symmetry_equiv_pos_site_id
 _symmetry_equiv_pos_as_xyz
  1  'x, y, z'
loop_
 _atom_site_type_symbol
 _atom_site_label
 _atom_site_symmetry_multiplicity
 _atom_site_fract_x
 _atom_site_fract_y
 _atom_site_fract_z
 _atom_site_occupancy
  Er  Er0  1  0.132629  0.867371  0.250000  1
  Pa  Pa1  1  0.872773  0.127227  0.750000  1
  Al  Al2  1  0.516590  0.781205  0.750000  1
  Al  Al3  1  0.782287  0.518764  0.250000  1
  Al  Al4  1  0.481236  0.217713  0.250000  1
  Al  Al5  1  0.218795  0.483410  0.750000  1
  Al  Al6  1  0.622589  0.377411  0.953906  1
  Al  Al7  1  0.374938  0.625062  0.046976  1
  Al  Al8  1  0.622589  0.377411  0.546094  1
  Al  Al9  1  0.374938  0.625062  0.453024  1
  Al  Al10  1  0.411013  0.146708  0.750000  1
  Al  Al11  1  0.149333  0.419341  0.250000  1
  Al  Al12  1  0.580659  0.850667  0.250000  1
  Al  Al13  1  0.853292  0.588987  0.750000  1
  Al  Al14  1  0.844931  0.155069  0.396722  1
  Al  Al15  1  0.153499  0.846501  0.600721  1
  Al  Al16  1  0.844931  0.155069  0.103278  1
  Al  Al17  1  0.153499  0.846501  0.899279  1
  Al  Al18  1  0.778805  0.776444  0.001661  1
  Al  Al19  1  0.778805  0.776444  0.498339  1
  Al  Al20  1  0.223556  0.221195  0.001661  1
  Al  Al21  1  0.223556  0.221195  0.498339  1
  Os  Os22  1  0.503084  0.000706  0.998610  1
  Os  Os23  1  0.999294  0.496916  0.998610  1
  Os  Os24  1  0.503084  0.000706  0.501390  1
  Os  Os25  1  0.999294  0.496916  0.501390  1
