# generated using pymatgen
data_Ho6FeCo7(P6Ru5)2
_symmetry_space_group_name_H-M   'P 1'
_cell_length_a   3.85007000
_cell_length_b   10.66455700
_cell_length_c   12.53476400
_cell_angle_alpha   90.00000000
_cell_angle_beta   90.00000000
_cell_angle_gamma   90.00000000
_symmetry_Int_Tables_number   1
_chemical_formula_structural   Ho6FeCo7(P6Ru5)2
_chemical_formula_sum   'Ho6 Fe1 Co7 P12 Ru10'
_cell_volume   514.66852230
_cell_formula_units_Z   1
loop_
 _symmetry_equiv_pos_site_id
 _symmetry_equiv_pos_as_xyz
  1  'x, y, z'
loop_
 _atom_site_type_symbol
 _atom_site_label
 _atom_site_symmetry_multiplicity
 _atom_site_fract_x
 _atom_site_fract_y
 _atom_site_fract_z
 _atom_site_occupancy
  Ho  Ho0  1  0.000000  0.500000  0.527367  1
  Ho  Ho1  1  0.500000  0.000000  0.472599  1
  Ho  Ho2  1  0.500000  0.821121  0.200554  1
  Ho  Ho3  1  0.500000  0.178879  0.200554  1
  Ho  Ho4  1  0.000000  0.677751  0.799939  1
  Ho  Ho5  1  0.000000  0.322249  0.799939  1
  Fe  Fe6  1  0.000000  0.500000  0.984260  1
  Co  Co7  1  0.500000  0.000000  0.016119  1
  Co  Co8  1  0.500000  0.331422  0.989156  1
  Co  Co9  1  0.500000  0.668578  0.989156  1
  Co  Co10  1  0.000000  0.167526  0.010998  1
  Co  Co11  1  0.000000  0.832474  0.010998  1
  Co  Co12  1  0.500000  0.500000  0.701285  1
  Co  Co13  1  0.000000  0.000000  0.297564  1
  P  P14  1  0.500000  0.314559  0.618293  1
  P  P15  1  0.500000  0.685441  0.618293  1
  P  P16  1  0.000000  0.185329  0.381959  1
  P  P17  1  0.000000  0.814671  0.381959  1
  P  P18  1  0.500000  0.500000  0.882255  1
  P  P19  1  0.000000  0.000000  0.118627  1
  P  P20  1  0.500000  0.845767  0.900827  1
  P  P21  1  0.500000  0.154233  0.900827  1
  P  P22  1  0.000000  0.653066  0.098443  1
  P  P23  1  0.000000  0.346934  0.098443  1
  P  P24  1  0.500000  0.500000  0.335855  1
  P  P25  1  0.000000  0.000000  0.663868  1
  Ru  Ru26  1  0.500000  0.297909  0.427665  1
  Ru  Ru27  1  0.500000  0.702091  0.427665  1
  Ru  Ru28  1  0.000000  0.201915  0.572459  1
  Ru  Ru29  1  0.000000  0.798085  0.572459  1
  Ru  Ru30  1  0.500000  0.874847  0.718930  1
  Ru  Ru31  1  0.500000  0.125153  0.718930  1
  Ru  Ru32  1  0.000000  0.625463  0.281063  1
  Ru  Ru33  1  0.000000  0.374537  0.281063  1
  Ru  Ru34  1  0.500000  0.500000  0.146168  1
  Ru  Ru35  1  0.000000  0.000000  0.853462  1
