# generated using pymatgen
data_Dy6Y2Cu3Si12Rh
_symmetry_space_group_name_H-M   'P 1'
_cell_length_a   8.03426800
_cell_length_b   8.03426820
_cell_length_c   8.11664300
_cell_angle_alpha   90.00000000
_cell_angle_beta   90.00000000
_cell_angle_gamma   119.99999093
_symmetry_Int_Tables_number   1
_chemical_formula_structural   Dy6Y2Cu3Si12Rh
_chemical_formula_sum   'Dy6 Y2 Cu3 Si12 Rh1'
_cell_volume   453.73236174
_cell_formula_units_Z   1
loop_
 _symmetry_equiv_pos_site_id
 _symmetry_equiv_pos_as_xyz
  1  'x, y, z'
loop_
 _atom_site_type_symbol
 _atom_site_label
 _atom_site_symmetry_multiplicity
 _atom_site_fract_x
 _atom_site_fract_y
 _atom_site_fract_z
 _atom_site_occupancy
  Dy  Dy0  1  0.000267  0.500133  0.251738  1
  Dy  Dy1  1  0.499867  0.500133  0.251738  1
  Dy  Dy2  1  0.501564  0.003128  0.748221  1
  Dy  Dy3  1  0.499867  0.999733  0.251738  1
  Dy  Dy4  1  0.501564  0.498436  0.748221  1
  Dy  Dy5  1  0.996872  0.498436  0.748221  1
  Y  Y6  1  0.000000  0.000000  0.249981  1
  Y  Y7  1  0.000000  0.000000  0.749764  1
  Cu  Cu8  1  0.333333  0.666667  0.996018  1
  Cu  Cu9  1  0.333333  0.666667  0.503253  1
  Cu  Cu10  1  0.666667  0.333333  0.003827  1
  Si  Si11  1  0.169066  0.338131  0.999964  1
  Si  Si12  1  0.661869  0.830934  0.999964  1
  Si  Si13  1  0.168006  0.336010  0.500650  1
  Si  Si14  1  0.337899  0.168950  0.999948  1
  Si  Si15  1  0.169066  0.830934  0.999964  1
  Si  Si16  1  0.663990  0.831994  0.500650  1
  Si  Si17  1  0.831050  0.662101  0.999948  1
  Si  Si18  1  0.335673  0.167837  0.499109  1
  Si  Si19  1  0.168006  0.831994  0.500650  1
  Si  Si20  1  0.832163  0.664327  0.499109  1
  Si  Si21  1  0.831050  0.168950  0.999948  1
  Si  Si22  1  0.832163  0.167837  0.499109  1
  Rh  Rh23  1  0.666667  0.333333  0.498265  1
