# generated using pymatgen
data_La2SmGd3(RuO7)2
_symmetry_space_group_name_H-M   'P 1'
_cell_length_a   6.56040149
_cell_length_b   6.56061253
_cell_length_c   7.59924000
_cell_angle_alpha   90.00000000
_cell_angle_beta   90.00000000
_cell_angle_gamma   110.49876818
_symmetry_Int_Tables_number   1
_chemical_formula_structural   La2SmGd3(RuO7)2
_chemical_formula_sum   'La2 Sm1 Gd3 Ru2 O14'
_cell_volume   306.36283842
_cell_formula_units_Z   1
loop_
 _symmetry_equiv_pos_site_id
 _symmetry_equiv_pos_as_xyz
  1  'x, y, z'
loop_
 _atom_site_type_symbol
 _atom_site_label
 _atom_site_symmetry_multiplicity
 _atom_site_fract_x
 _atom_site_fract_y
 _atom_site_fract_z
 _atom_site_occupancy
  La  La0  1  0.999962  0.000384  0.499925  1
  La  La1  1  0.999962  0.000384  0.000075  1
  Sm  Sm2  1  0.477906  0.922555  0.750000  1
  Gd  Gd3  1  0.521127  0.073301  0.250000  1
  Gd  Gd4  1  0.925945  0.478581  0.750000  1
  Gd  Gd5  1  0.073329  0.521157  0.250000  1
  Ru  Ru6  1  0.500293  0.499821  0.499581  1
  Ru  Ru7  1  0.500293  0.499821  0.000419  1
  O  O8  1  0.585643  0.585383  0.750000  1
  O  O9  1  0.413947  0.414292  0.250000  1
  O  O10  1  0.841104  0.115378  0.750000  1
  O  O11  1  0.162568  0.886494  0.250000  1
  O  O12  1  0.109252  0.837421  0.750000  1
  O  O13  1  0.886552  0.162684  0.250000  1
  O  O14  1  0.441894  0.185576  0.963287  1
  O  O15  1  0.558531  0.814571  0.461225  1
  O  O16  1  0.186340  0.443584  0.962438  1
  O  O17  1  0.814294  0.557440  0.462359  1
  O  O18  1  0.441894  0.185576  0.536713  1
  O  O19  1  0.558531  0.814571  0.038775  1
  O  O20  1  0.814294  0.557440  0.037641  1
  O  O21  1  0.186340  0.443584  0.537562  1
