# generated using pymatgen
data_Ho2Er3Pb4
_symmetry_space_group_name_H-M   'P 1'
_cell_length_a   8.16235000
_cell_length_b   15.55357900
_cell_length_c   8.23701400
_cell_angle_alpha   90.00000000
_cell_angle_beta   90.00000000
_cell_angle_gamma   90.00000000
_symmetry_Int_Tables_number   1
_chemical_formula_structural   Ho2Er3Pb4
_chemical_formula_sum   'Ho8 Er12 Pb16'
_cell_volume   1045.71986182
_cell_formula_units_Z   4
loop_
 _symmetry_equiv_pos_site_id
 _symmetry_equiv_pos_as_xyz
  1  'x, y, z'
loop_
 _atom_site_type_symbol
 _atom_site_label
 _atom_site_symmetry_multiplicity
 _atom_site_fract_x
 _atom_site_fract_y
 _atom_site_fract_z
 _atom_site_occupancy
  Ho  Ho0  1  0.465901  0.600019  0.677073  1
  Ho  Ho1  1  0.965901  0.899981  0.822927  1
  Ho  Ho2  1  0.534099  0.100019  0.322927  1
  Ho  Ho3  1  0.034099  0.399981  0.177073  1
  Ho  Ho4  1  0.534099  0.399981  0.322927  1
  Ho  Ho5  1  0.034099  0.100019  0.177073  1
  Ho  Ho6  1  0.465901  0.899981  0.677073  1
  Ho  Ho7  1  0.965901  0.600019  0.822927  1
  Er  Er8  1  0.622837  0.620352  0.159475  1
  Er  Er9  1  0.122837  0.879648  0.340525  1
  Er  Er10  1  0.377163  0.120352  0.840525  1
  Er  Er11  1  0.877163  0.379648  0.659475  1
  Er  Er12  1  0.377163  0.379648  0.840525  1
  Er  Er13  1  0.877163  0.120352  0.659475  1
  Er  Er14  1  0.622837  0.879648  0.159475  1
  Er  Er15  1  0.122837  0.620352  0.340525  1
  Er  Er16  1  0.791461  0.750000  0.496235  1
  Er  Er17  1  0.291461  0.750000  0.003765  1
  Er  Er18  1  0.208539  0.250000  0.503765  1
  Er  Er19  1  0.708539  0.250000  0.996235  1
  Pb  Pb20  1  0.718789  0.457454  0.966790  1
  Pb  Pb21  1  0.218789  0.042546  0.533210  1
  Pb  Pb22  1  0.281211  0.957454  0.033210  1
  Pb  Pb23  1  0.781211  0.542546  0.466790  1
  Pb  Pb24  1  0.281211  0.542546  0.033210  1
  Pb  Pb25  1  0.781211  0.957454  0.466790  1
  Pb  Pb26  1  0.718789  0.042546  0.966790  1
  Pb  Pb27  1  0.218789  0.457454  0.533210  1
  Pb  Pb28  1  0.428236  0.750000  0.372267  1
  Pb  Pb29  1  0.928236  0.750000  0.127733  1
  Pb  Pb30  1  0.571764  0.250000  0.627733  1
  Pb  Pb31  1  0.071764  0.250000  0.872267  1
  Pb  Pb32  1  0.653701  0.750000  0.847778  1
  Pb  Pb33  1  0.153701  0.750000  0.652222  1
  Pb  Pb34  1  0.346299  0.250000  0.152222  1
  Pb  Pb35  1  0.846299  0.250000  0.347778  1
