# generated using pymatgen
data_DyHo4Tc5(P6Ir7)2
_symmetry_space_group_name_H-M   'P 1'
_cell_length_a   12.62710103
_cell_length_b   12.72514273
_cell_length_c   3.97790900
_cell_angle_alpha   90.00000000
_cell_angle_beta   90.00000000
_cell_angle_gamma   120.14716174
_symmetry_Int_Tables_number   1
_chemical_formula_structural   DyHo4Tc5(P6Ir7)2
_chemical_formula_sum   'Dy1 Ho4 Tc5 P12 Ir14'
_cell_volume   552.72087340
_cell_formula_units_Z   1
loop_
 _symmetry_equiv_pos_site_id
 _symmetry_equiv_pos_as_xyz
  1  'x, y, z'
loop_
 _atom_site_type_symbol
 _atom_site_label
 _atom_site_symmetry_multiplicity
 _atom_site_fract_x
 _atom_site_fract_y
 _atom_site_fract_z
 _atom_site_occupancy
  Dy  Dy0  1  0.810525  0.998311  0.000000  1
  Ho  Ho1  1  0.334353  0.668116  0.500000  1
  Ho  Ho2  1  0.666568  0.333367  0.500000  1
  Ho  Ho3  1  0.999508  0.810800  0.000000  1
  Ho  Ho4  1  0.186574  0.184991  0.000000  1
  Tc  Tc5  1  0.996367  0.449947  0.500000  1
  Tc  Tc6  1  0.548668  0.544788  0.500000  1
  Tc  Tc7  1  0.457024  0.009723  0.500000  1
  Tc  Tc8  1  0.620337  0.798885  0.500000  1
  Tc  Tc9  1  0.201118  0.821878  0.500000  1
  P  P10  1  0.006542  0.640080  0.500000  1
  P  P11  1  0.363278  0.364683  0.500000  1
  P  P12  1  0.633033  0.993484  0.500000  1
  P  P13  1  0.519863  0.693935  0.000000  1
  P  P14  1  0.308202  0.829777  0.000000  1
  P  P15  1  0.170081  0.483494  0.000000  1
  P  P16  1  0.483536  0.169728  0.000000  1
  P  P17  1  0.685806  0.516228  0.000000  1
  P  P18  1  0.832495  0.315010  0.000000  1
  P  P19  1  0.999130  0.176171  0.500000  1
  P  P20  1  0.817324  0.820338  0.500000  1
  P  P21  1  0.177059  0.993660  0.500000  1
  Ir  Ir22  1  0.507754  0.874759  0.000000  1
  Ir  Ir23  1  0.127865  0.635937  0.000000  1
  Ir  Ir24  1  0.361887  0.494342  0.000000  1
  Ir  Ir25  1  0.490965  0.358870  0.000000  1
  Ir  Ir26  1  0.865538  0.506096  0.000000  1
  Ir  Ir27  1  0.643526  0.137209  0.000000  1
  Ir  Ir28  1  0.000441  0.285153  0.000000  1
  Ir  Ir29  1  0.716783  0.711094  0.000000  1
  Ir  Ir30  1  0.286990  0.005431  0.000000  1
  Ir  Ir31  1  0.180201  0.375089  0.500000  1
  Ir  Ir32  1  0.373295  0.183888  0.500000  1
  Ir  Ir33  1  0.808211  0.623196  0.500000  1
  Ir  Ir34  1  0.819243  0.192390  0.500000  1
  Ir  Ir35  1  0.999909  0.999146  0.500000  1
