# generated using pymatgen
data_Y13Ho7(Ir2Ru)4
_symmetry_space_group_name_H-M   'P 1'
_cell_length_a   10.83781605
_cell_length_b   10.83475938
_cell_length_c   6.42657621
_cell_angle_alpha   90.02867962
_cell_angle_beta   89.99620713
_cell_angle_gamma   90.01005711
_symmetry_Int_Tables_number   1
_chemical_formula_structural   Y13Ho7(Ir2Ru)4
_chemical_formula_sum   'Y13 Ho7 Ir8 Ru4'
_cell_volume   754.64143266
_cell_formula_units_Z   1
loop_
 _symmetry_equiv_pos_site_id
 _symmetry_equiv_pos_as_xyz
  1  'x, y, z'
loop_
 _atom_site_type_symbol
 _atom_site_label
 _atom_site_symmetry_multiplicity
 _atom_site_fract_x
 _atom_site_fract_y
 _atom_site_fract_z
 _atom_site_occupancy
  Y  Y0  1  0.292946  0.086985  0.377579  1
  Y  Y1  1  0.292890  0.913086  0.877611  1
  Y  Y2  1  0.707118  0.086934  0.877615  1
  Y  Y3  1  0.706872  0.913235  0.377594  1
  Y  Y4  1  0.586798  0.793155  0.877672  1
  Y  Y5  1  0.586779  0.206866  0.377625  1
  Y  Y6  1  0.413169  0.793153  0.377624  1
  Y  Y7  1  0.413171  0.206883  0.877658  1
  Y  Y8  1  0.206625  0.413211  0.622320  1
  Y  Y9  1  0.206685  0.586676  0.122300  1
  Y  Y10  1  0.793425  0.413029  0.122309  1
  Y  Y11  1  0.793443  0.586672  0.622180  1
  Y  Y12  1  0.913400  0.706823  0.122350  1
  Ho  Ho13  1  0.913461  0.293766  0.621826  1
  Ho  Ho14  1  0.086565  0.706219  0.621698  1
  Ho  Ho15  1  0.086498  0.293783  0.121780  1
  Ho  Ho16  1  0.000027  0.999996  0.500178  1
  Ho  Ho17  1  0.000084  0.000151  0.000167  1
  Ho  Ho18  1  0.500022  0.499970  0.999933  1
  Ho  Ho19  1  0.499958  0.499949  0.499930  1
  Ir  Ir20  1  0.849270  0.152192  0.251051  1
  Ir  Ir21  1  0.849003  0.848330  0.749709  1
  Ir  Ir22  1  0.150778  0.152192  0.750994  1
  Ir  Ir23  1  0.151274  0.848222  0.251288  1
  Ir  Ir24  1  0.652221  0.348408  0.749582  1
  Ir  Ir25  1  0.651483  0.651459  0.250058  1
  Ir  Ir26  1  0.347759  0.348455  0.249631  1
  Ir  Ir27  1  0.347782  0.651564  0.749587  1
  Ru  Ru28  1  0.499935  0.000054  0.122215  1
  Ru  Ru29  1  0.499969  0.000067  0.622215  1
  Ru  Ru30  1  0.000319  0.499226  0.877097  1
  Ru  Ru31  1  0.000272  0.499292  0.378624  1
