# generated using pymatgen
data_Li2Pr3MgSi2Ag
_symmetry_space_group_name_H-M   'P 1'
_cell_length_a   7.45686505
_cell_length_b   7.51773792
_cell_length_c   4.36228700
_cell_angle_alpha   90.00000000
_cell_angle_beta   90.00000000
_cell_angle_gamma   120.27041127
_symmetry_Int_Tables_number   1
_chemical_formula_structural   Li2Pr3MgSi2Ag
_chemical_formula_sum   'Li2 Pr3 Mg1 Si2 Ag1'
_cell_volume   211.20222374
_cell_formula_units_Z   1
loop_
 _symmetry_equiv_pos_site_id
 _symmetry_equiv_pos_as_xyz
  1  'x, y, z'
loop_
 _atom_site_type_symbol
 _atom_site_label
 _atom_site_symmetry_multiplicity
 _atom_site_fract_x
 _atom_site_fract_y
 _atom_site_fract_z
 _atom_site_occupancy
  Li  Li0  1  0.751863  0.752117  0.000000  1
  Li  Li1  1  0.248137  0.000253  0.000000  1
  Pr  Pr2  1  0.427948  0.423371  0.500000  1
  Pr  Pr3  1  0.572052  0.995423  0.500000  1
  Pr  Pr4  1  0.000000  0.583053  0.500000  1
  Mg  Mg5  1  0.000000  0.244498  0.000000  1
  Si  Si6  1  0.667197  0.333328  0.000000  1
  Si  Si7  1  0.332803  0.666133  0.000000  1
  Ag  Ag8  1  0.000000  0.001823  0.500000  1
