# generated using pymatgen
data_Sc10Si5As
_symmetry_space_group_name_H-M   'P 1'
_cell_length_a   7.90873500
_cell_length_b   7.90401278
_cell_length_c   5.81645500
_cell_angle_alpha   90.00000000
_cell_angle_beta   90.00000000
_cell_angle_gamma   120.01975275
_symmetry_Int_Tables_number   1
_chemical_formula_structural   Sc10Si5As
_chemical_formula_sum   'Sc10 Si5 As1'
_cell_volume   314.81628142
_cell_formula_units_Z   1
loop_
 _symmetry_equiv_pos_site_id
 _symmetry_equiv_pos_as_xyz
  1  'x, y, z'
loop_
 _atom_site_type_symbol
 _atom_site_label
 _atom_site_symmetry_multiplicity
 _atom_site_fract_x
 _atom_site_fract_y
 _atom_site_fract_z
 _atom_site_occupancy
  Sc  Sc0  1  0.996164  0.754489  0.750000  1
  Sc  Sc1  1  0.000520  0.242727  0.250000  1
  Sc  Sc2  1  0.757793  0.757273  0.250000  1
  Sc  Sc3  1  0.759672  0.000000  0.750000  1
  Sc  Sc4  1  0.241676  0.245511  0.750000  1
  Sc  Sc5  1  0.242390  0.000000  0.250000  1
  Sc  Sc6  1  0.332963  0.664391  0.498846  1
  Sc  Sc7  1  0.668573  0.335609  0.001154  1
  Sc  Sc8  1  0.668573  0.335609  0.498846  1
  Sc  Sc9  1  0.332963  0.664391  0.001154  1
  Si  Si10  1  0.394328  0.393252  0.250000  1
  Si  Si11  1  0.001076  0.606748  0.250000  1
  Si  Si12  1  0.999725  0.394647  0.750000  1
  Si  Si13  1  0.605077  0.605353  0.750000  1
  Si  Si14  1  0.608061  0.000000  0.250000  1
  As  As15  1  0.390448  0.000000  0.750000  1
