# generated using pymatgen
data_Ho3NbFe6(CoP3)2
_symmetry_space_group_name_H-M   'P 1'
_cell_length_a   3.72548300
_cell_length_b   10.73669100
_cell_length_c   12.26969100
_cell_angle_alpha   90.00000000
_cell_angle_beta   90.00000000
_cell_angle_gamma   90.00000000
_symmetry_Int_Tables_number   1
_chemical_formula_structural   Ho3NbFe6(CoP3)2
_chemical_formula_sum   'Ho6 Nb2 Fe12 Co4 P12'
_cell_volume   490.77978490
_cell_formula_units_Z   2
loop_
 _symmetry_equiv_pos_site_id
 _symmetry_equiv_pos_as_xyz
  1  'x, y, z'
loop_
 _atom_site_type_symbol
 _atom_site_label
 _atom_site_symmetry_multiplicity
 _atom_site_fract_x
 _atom_site_fract_y
 _atom_site_fract_z
 _atom_site_occupancy
  Ho  Ho0  1  0.000000  0.500000  0.533387  1
  Ho  Ho1  1  0.500000  0.000000  0.466613  1
  Ho  Ho2  1  0.500000  0.822945  0.203705  1
  Ho  Ho3  1  0.500000  0.177055  0.203705  1
  Ho  Ho4  1  0.000000  0.677055  0.796295  1
  Ho  Ho5  1  0.000000  0.322945  0.796295  1
  Nb  Nb6  1  0.500000  0.500000  0.156729  1
  Nb  Nb7  1  0.000000  0.000000  0.843271  1
  Fe  Fe8  1  0.500000  0.297282  0.429993  1
  Fe  Fe9  1  0.500000  0.702718  0.429993  1
  Fe  Fe10  1  0.000000  0.202718  0.570007  1
  Fe  Fe11  1  0.000000  0.797282  0.570007  1
  Fe  Fe12  1  0.500000  0.882322  0.701867  1
  Fe  Fe13  1  0.500000  0.117678  0.701867  1
  Fe  Fe14  1  0.000000  0.617678  0.298133  1
  Fe  Fe15  1  0.000000  0.382322  0.298133  1
  Fe  Fe16  1  0.500000  0.332362  0.996283  1
  Fe  Fe17  1  0.500000  0.667638  0.996283  1
  Fe  Fe18  1  0.000000  0.167638  0.003717  1
  Fe  Fe19  1  0.000000  0.832362  0.003717  1
  Co  Co20  1  0.000000  0.500000  0.986490  1
  Co  Co21  1  0.500000  0.000000  0.013510  1
  Co  Co22  1  0.500000  0.500000  0.704799  1
  Co  Co23  1  0.000000  0.000000  0.295201  1
  P  P24  1  0.500000  0.310942  0.614625  1
  P  P25  1  0.500000  0.689058  0.614625  1
  P  P26  1  0.000000  0.189058  0.385375  1
  P  P27  1  0.000000  0.810942  0.385375  1
  P  P28  1  0.500000  0.500000  0.887144  1
  P  P29  1  0.000000  0.000000  0.112856  1
  P  P30  1  0.500000  0.839572  0.896819  1
  P  P31  1  0.500000  0.160428  0.896819  1
  P  P32  1  0.000000  0.660428  0.103181  1
  P  P33  1  0.000000  0.339572  0.103181  1
  P  P34  1  0.500000  0.500000  0.362207  1
  P  P35  1  0.000000  0.000000  0.637793  1
