# generated using pymatgen
data_Er9Tm(SnPb)4
_symmetry_space_group_name_H-M   'P 1'
_cell_length_a   8.07754700
_cell_length_b   8.14130200
_cell_length_c   15.44835300
_cell_angle_alpha   90.00000000
_cell_angle_beta   90.00000000
_cell_angle_gamma   90.00000000
_symmetry_Int_Tables_number   1
_chemical_formula_structural   Er9Tm(SnPb)4
_chemical_formula_sum   'Er18 Tm2 Sn8 Pb8'
_cell_volume   1015.91072089
_cell_formula_units_Z   2
loop_
 _symmetry_equiv_pos_site_id
 _symmetry_equiv_pos_as_xyz
  1  'x, y, z'
loop_
 _atom_site_type_symbol
 _atom_site_label
 _atom_site_symmetry_multiplicity
 _atom_site_fract_x
 _atom_site_fract_y
 _atom_site_fract_z
 _atom_site_occupancy
  Er  Er0  1  0.378342  0.839770  0.876819  1
  Er  Er1  1  0.878342  0.660230  0.623181  1
  Er  Er2  1  0.621715  0.160236  0.376860  1
  Er  Er3  1  0.121715  0.339764  0.123140  1
  Er  Er4  1  0.621715  0.160236  0.123140  1
  Er  Er5  1  0.121715  0.339764  0.376860  1
  Er  Er6  1  0.378342  0.839770  0.623181  1
  Er  Er7  1  0.878342  0.660230  0.876819  1
  Er  Er8  1  0.535365  0.323572  0.897239  1
  Er  Er9  1  0.035365  0.176428  0.602761  1
  Er  Er10  1  0.464610  0.676400  0.397262  1
  Er  Er11  1  0.964610  0.823600  0.102738  1
  Er  Er12  1  0.464610  0.676400  0.102738  1
  Er  Er13  1  0.964610  0.823600  0.397262  1
  Er  Er14  1  0.535365  0.323572  0.602761  1
  Er  Er15  1  0.035365  0.176428  0.897239  1
  Er  Er16  1  0.790706  0.496123  0.250000  1
  Er  Er17  1  0.290706  0.003877  0.250000  1
  Tm  Tm18  1  0.209296  0.503927  0.750000  1
  Tm  Tm19  1  0.709296  0.996073  0.750000  1
  Sn  Sn20  1  0.574227  0.623259  0.750000  1
  Sn  Sn21  1  0.074227  0.876741  0.750000  1
  Sn  Sn22  1  0.425619  0.376800  0.250000  1
  Sn  Sn23  1  0.925619  0.123200  0.250000  1
  Sn  Sn24  1  0.343857  0.149649  0.750000  1
  Sn  Sn25  1  0.843857  0.350351  0.750000  1
  Sn  Sn26  1  0.656227  0.850517  0.250000  1
  Sn  Sn27  1  0.156227  0.649483  0.250000  1
  Pb  Pb28  1  0.281736  0.033309  0.041762  1
  Pb  Pb29  1  0.781736  0.466691  0.458238  1
  Pb  Pb30  1  0.718266  0.966692  0.541807  1
  Pb  Pb31  1  0.218266  0.533308  0.958193  1
  Pb  Pb32  1  0.718266  0.966692  0.958193  1
  Pb  Pb33  1  0.218266  0.533308  0.541807  1
  Pb  Pb34  1  0.281736  0.033309  0.458238  1
  Pb  Pb35  1  0.781736  0.466691  0.041762  1
