# generated using pymatgen
data_Ca2Ho(B3Rh4)2
_symmetry_space_group_name_H-M   'P 1'
_cell_length_a   9.92595703
_cell_length_b   9.08105264
_cell_length_c   5.59455811
_cell_angle_alpha   81.37384543
_cell_angle_beta   64.76009325
_cell_angle_gamma   33.86605698
_symmetry_Int_Tables_number   1
_chemical_formula_structural   Ca2Ho(B3Rh4)2
_chemical_formula_sum   'Ca2 Ho1 B6 Rh8'
_cell_volume   232.41955841
_cell_formula_units_Z   1
loop_
 _symmetry_equiv_pos_site_id
 _symmetry_equiv_pos_as_xyz
  1  'x, y, z'
loop_
 _atom_site_type_symbol
 _atom_site_label
 _atom_site_symmetry_multiplicity
 _atom_site_fract_x
 _atom_site_fract_y
 _atom_site_fract_z
 _atom_site_occupancy
  Ca  Ca0  1  0.316287  0.316287  0.683713  1
  Ca  Ca1  1  0.683713  0.683713  0.316287  1
  Ho  Ho2  1  0.500000  0.500000  0.500000  1
  B  B3  1  0.670063  0.985848  0.014152  1
  B  B4  1  0.985848  0.670063  0.329937  1
  B  B5  1  0.329937  0.014152  0.985848  1
  B  B6  1  0.014152  0.329937  0.670063  1
  B  B7  1  0.167135  0.832865  0.167135  1
  B  B8  1  0.832865  0.167135  0.832865  1
  Rh  Rh9  1  0.585036  0.585036  0.914964  1
  Rh  Rh10  1  0.914165  0.914165  0.085835  1
  Rh  Rh11  1  0.414964  0.414964  0.085036  1
  Rh  Rh12  1  0.085036  0.085036  0.414964  1
  Rh  Rh13  1  0.914964  0.914964  0.585036  1
  Rh  Rh14  1  0.250000  0.250000  0.250000  1
  Rh  Rh15  1  0.085835  0.085835  0.914165  1
  Rh  Rh16  1  0.750000  0.750000  0.750000  1
