# generated using pymatgen
data_CoSi3Ni3PRh4
_symmetry_space_group_name_H-M   'P 1'
_cell_length_a   3.66316900
_cell_length_b   5.75753943
_cell_length_c   6.95874087
_cell_angle_alpha   88.81540866
_cell_angle_beta   90.00000000
_cell_angle_gamma   90.00000000
_symmetry_Int_Tables_number   1
_chemical_formula_structural   CoSi3Ni3PRh4
_chemical_formula_sum   'Co1 Si3 Ni3 P1 Rh4'
_cell_volume   146.73432294
_cell_formula_units_Z   1
loop_
 _symmetry_equiv_pos_site_id
 _symmetry_equiv_pos_as_xyz
  1  'x, y, z'
loop_
 _atom_site_type_symbol
 _atom_site_label
 _atom_site_symmetry_multiplicity
 _atom_site_fract_x
 _atom_site_fract_y
 _atom_site_fract_z
 _atom_site_occupancy
  Co  Co0  1  0.000000  0.647579  0.048072  1
  Si  Si1  1  0.000000  0.260714  0.127818  1
  Si  Si2  1  0.000000  0.751744  0.367944  1
  Si  Si3  1  0.500000  0.243419  0.625097  1
  Ni  Ni4  1  0.000000  0.136183  0.440841  1
  Ni  Ni5  1  0.500000  0.366687  0.939028  1
  Ni  Ni6  1  0.500000  0.850134  0.571248  1
  P  P7  1  0.500000  0.748448  0.883160  1
  Rh  Rh8  1  0.000000  0.523798  0.668763  1
  Rh  Rh9  1  0.000000  0.041367  0.828441  1
  Rh  Rh10  1  0.500000  0.466097  0.323727  1
  Rh  Rh11  1  0.500000  0.963832  0.175862  1
