# generated using pymatgen
data_NiBr28
_symmetry_space_group_name_H-M   'P 1'
_cell_length_a   11.08100058
_cell_length_b   14.26806845
_cell_length_c   12.72108000
_cell_angle_alpha   123.45192622
_cell_angle_beta   99.87943871
_cell_angle_gamma   107.91255287
_symmetry_Int_Tables_number   1
_chemical_formula_structural   NiBr28
_chemical_formula_sum   'Ni1 Br28'
_cell_volume   1441.84298122
_cell_formula_units_Z   1
loop_
 _symmetry_equiv_pos_site_id
 _symmetry_equiv_pos_as_xyz
  1  'x, y, z'
loop_
 _atom_site_type_symbol
 _atom_site_label
 _atom_site_symmetry_multiplicity
 _atom_site_fract_x
 _atom_site_fract_y
 _atom_site_fract_z
 _atom_site_occupancy
  Ni  Ni0  1  0.500000  0.000000  0.000000  1
  Br  Br1  1  0.092602  0.121531  0.387233  1
  Br  Br2  1  0.552321  0.106226  0.389979  1
  Br  Br3  1  0.284487  0.363346  0.872088  1
  Br  Br4  1  0.780709  0.290521  0.819907  1
  Br  Br5  1  0.257422  0.587616  0.767842  1
  Br  Br6  1  0.751296  0.542927  0.683546  1
  Br  Br7  1  0.447679  0.893774  0.610021  1
  Br  Br8  1  0.907398  0.878469  0.612767  1
  Br  Br9  1  0.219291  0.709479  0.180093  1
  Br  Br10  1  0.715513  0.636654  0.127912  1
  Br  Br11  1  0.248704  0.457073  0.316454  1
  Br  Br12  1  0.742578  0.412384  0.232158  1
  Br  Br13  1  0.934038  0.084517  0.804391  1
  Br  Br14  1  0.507761  0.070339  0.873762  1
  Br  Br15  1  0.045623  0.684764  0.002311  1
  Br  Br16  1  0.560184  0.644384  0.981548  1
  Br  Br17  1  0.590989  0.210908  0.204302  1
  Br  Br18  1  0.176926  0.294608  0.339422  1
  Br  Br19  1  0.492239  0.929661  0.126238  1
  Br  Br20  1  0.065962  0.915483  0.195609  1
  Br  Br21  1  0.439816  0.355616  0.018452  1
  Br  Br22  1  0.954377  0.315236  0.997689  1
  Br  Br23  1  0.823074  0.705392  0.660578  1
  Br  Br24  1  0.409011  0.789092  0.795698  1
  Br  Br25  1  0.106701  0.376838  0.703876  1
  Br  Br26  1  0.586753  0.265291  0.635749  1
  Br  Br27  1  0.413247  0.734709  0.364251  1
  Br  Br28  1  0.893299  0.623162  0.296124  1
