# generated using pymatgen
data_Dy4IrAu3
_symmetry_space_group_name_H-M   'P 1'
_cell_length_a   4.67006900
_cell_length_b   5.63042544
_cell_length_c   7.09218573
_cell_angle_alpha   90.71992487
_cell_angle_beta   90.00000000
_cell_angle_gamma   90.00000000
_symmetry_Int_Tables_number   1
_chemical_formula_structural   Dy4IrAu3
_chemical_formula_sum   'Dy4 Ir1 Au3'
_cell_volume   186.47058142
_cell_formula_units_Z   1
loop_
 _symmetry_equiv_pos_site_id
 _symmetry_equiv_pos_as_xyz
  1  'x, y, z'
loop_
 _atom_site_type_symbol
 _atom_site_label
 _atom_site_symmetry_multiplicity
 _atom_site_fract_x
 _atom_site_fract_y
 _atom_site_fract_z
 _atom_site_occupancy
  Dy  Dy0  1  0.250000  0.635549  0.177290  1
  Dy  Dy1  1  0.750000  0.347875  0.829658  1
  Dy  Dy2  1  0.750000  0.147521  0.301624  1
  Dy  Dy3  1  0.250000  0.863178  0.691331  1
  Ir  Ir4  1  0.250000  0.161434  0.037709  1
  Au  Au5  1  0.750000  0.842805  0.957455  1
  Au  Au6  1  0.750000  0.655010  0.463821  1
  Au  Au7  1  0.250000  0.346629  0.541113  1
