# generated using pymatgen
data_CeEr11InCo4Os
_symmetry_space_group_name_H-M   'P 1'
_cell_length_a   8.19448679
_cell_length_b   8.21316597
_cell_length_c   8.19448788
_cell_angle_alpha   111.85868342
_cell_angle_beta   110.07814222
_cell_angle_gamma   106.43254453
_symmetry_Int_Tables_number   1
_chemical_formula_structural   CeEr11InCo4Os
_chemical_formula_sum   'Ce1 Er11 In1 Co4 Os1'
_cell_volume   424.04800742
_cell_formula_units_Z   1
loop_
 _symmetry_equiv_pos_site_id
 _symmetry_equiv_pos_as_xyz
  1  'x, y, z'
loop_
 _atom_site_type_symbol
 _atom_site_label
 _atom_site_symmetry_multiplicity
 _atom_site_fract_x
 _atom_site_fract_y
 _atom_site_fract_z
 _atom_site_occupancy
  Ce  Ce0  1  0.682667  0.013035  0.330367  1
  Er  Er1  1  0.415805  0.227120  0.188972  1
  Er  Er2  1  0.591242  0.784456  0.813594  1
  Er  Er3  1  0.038149  0.227120  0.811317  1
  Er  Er4  1  0.970862  0.784456  0.193213  1
  Er  Er5  1  0.186126  0.282944  0.459709  1
  Er  Er6  1  0.820878  0.720664  0.539532  1
  Er  Er7  1  0.181133  0.720664  0.899786  1
  Er  Er8  1  0.823234  0.282944  0.096818  1
  Er  Er9  1  0.314292  0.625999  0.311708  1
  Er  Er10  1  0.675788  0.377183  0.701396  1
  Er  Er11  1  0.319238  0.005454  0.686216  1
  In  In12  1  0.501858  0.503563  0.001706  1
  Co  Co13  1  0.362691  0.996919  0.352203  1
  Co  Co14  1  0.644714  0.996919  0.634228  1
  Co  Co15  1  0.099188  0.600217  0.501029  1
  Co  Co16  1  0.868128  0.350933  0.482807  1
  Os  Os17  1  0.004009  0.999410  0.995401  1
