# generated using pymatgen
data_La8Pr8MgAg(HgIr2)2
_symmetry_space_group_name_H-M   'P 1'
_cell_length_a   10.04109072
_cell_length_b   10.09306206
_cell_length_c   10.14993300
_cell_angle_alpha   59.81343463
_cell_angle_beta   59.64077684
_cell_angle_gamma   60.25613060
_symmetry_Int_Tables_number   1
_chemical_formula_structural   La8Pr8MgAg(HgIr2)2
_chemical_formula_sum   'La8 Pr8 Mg1 Ag1 Hg2 Ir4'
_cell_volume   725.72633326
_cell_formula_units_Z   1
loop_
 _symmetry_equiv_pos_site_id
 _symmetry_equiv_pos_as_xyz
  1  'x, y, z'
loop_
 _atom_site_type_symbol
 _atom_site_label
 _atom_site_symmetry_multiplicity
 _atom_site_fract_x
 _atom_site_fract_y
 _atom_site_fract_z
 _atom_site_occupancy
  La  La0  1  0.346208  0.345586  0.348022  1
  La  La1  1  0.346167  0.345598  0.960304  1
  La  La2  1  0.349342  0.958986  0.345792  1
  La  La3  1  0.951285  0.351466  0.348603  1
  La  La4  1  0.807666  0.191747  0.192314  1
  La  La5  1  0.186395  0.811610  0.812413  1
  La  La6  1  0.186539  0.811543  0.189936  1
  La  La7  1  0.807704  0.191592  0.808690  1
  Pr  Pr8  1  0.190311  0.191462  0.809136  1
  Pr  Pr9  1  0.802478  0.804417  0.196719  1
  Pr  Pr10  1  0.937036  0.563586  0.564557  1
  Pr  Pr11  1  0.561249  0.937781  0.936515  1
  Pr  Pr12  1  0.561536  0.936893  0.564332  1
  Pr  Pr13  1  0.937737  0.563168  0.934283  1
  Pr  Pr14  1  0.560312  0.562530  0.937973  1
  Pr  Pr15  1  0.938663  0.938201  0.561178  1
  Mg  Mg16  1  0.287197  0.569707  0.571922  1
  Ag  Ag17  1  0.581171  0.587734  0.585588  1
  Hg  Hg18  1  0.581489  0.587897  0.245819  1
  Hg  Hg19  1  0.580136  0.245642  0.587600  1
  Ir  Ir20  1  0.138228  0.139225  0.146015  1
  Ir  Ir21  1  0.137940  0.139059  0.576639  1
  Ir  Ir22  1  0.146386  0.577595  0.137794  1
  Ir  Ir23  1  0.576830  0.146977  0.137857  1
