# generated using pymatgen
data_Ho8Tm2Si5Ge
_symmetry_space_group_name_H-M   'P 1'
_cell_length_a   8.39825803
_cell_length_b   8.39825792
_cell_length_c   6.30725600
_cell_angle_alpha   89.99816041
_cell_angle_beta   89.99816845
_cell_angle_gamma   120.02165961
_symmetry_Int_Tables_number   1
_chemical_formula_structural   Ho8Tm2Si5Ge
_chemical_formula_sum   'Ho8 Tm2 Si5 Ge1'
_cell_volume   385.17197726
_cell_formula_units_Z   1
loop_
 _symmetry_equiv_pos_site_id
 _symmetry_equiv_pos_as_xyz
  1  'x, y, z'
loop_
 _atom_site_type_symbol
 _atom_site_label
 _atom_site_symmetry_multiplicity
 _atom_site_fract_x
 _atom_site_fract_y
 _atom_site_fract_z
 _atom_site_occupancy
  Ho  Ho0  1  0.667904  0.333091  0.500767  1
  Ho  Ho1  1  0.333091  0.667904  0.500767  1
  Ho  Ho2  1  0.758025  0.758025  0.249213  1
  Ho  Ho3  1  0.242843  0.998467  0.249185  1
  Ho  Ho4  1  0.998467  0.242843  0.249185  1
  Ho  Ho5  1  0.242683  0.242683  0.750816  1
  Ho  Ho6  1  0.756838  0.999789  0.750857  1
  Ho  Ho7  1  0.999789  0.756838  0.750857  1
  Tm  Tm8  1  0.333083  0.667993  0.999234  1
  Tm  Tm9  1  0.667993  0.333083  0.999234  1
  Si  Si10  1  0.605413  0.999815  0.247324  1
  Si  Si11  1  0.999815  0.605413  0.247324  1
  Si  Si12  1  0.605718  0.605718  0.752693  1
  Si  Si13  1  0.394411  0.000260  0.752831  1
  Si  Si14  1  0.000260  0.394411  0.752831  1
  Ge  Ge15  1  0.393665  0.393665  0.246882  1
