# generated using pymatgen
data_CaVSiO4
_symmetry_space_group_name_H-M   'P 1'
_cell_length_a   4.93196500
_cell_length_b   6.56754000
_cell_length_c   11.22711400
_cell_angle_alpha   90.00000000
_cell_angle_beta   90.00000000
_cell_angle_gamma   90.00000000
_symmetry_Int_Tables_number   1
_chemical_formula_structural   CaVSiO4
_chemical_formula_sum   'Ca4 V4 Si4 O16'
_cell_volume   363.65607331
_cell_formula_units_Z   4
loop_
 _symmetry_equiv_pos_site_id
 _symmetry_equiv_pos_as_xyz
  1  'x, y, z'
loop_
 _atom_site_type_symbol
 _atom_site_label
 _atom_site_symmetry_multiplicity
 _atom_site_fract_x
 _atom_site_fract_y
 _atom_site_fract_z
 _atom_site_occupancy
  Ca  Ca0  1  0.020310  0.750000  0.277021  1
  Ca  Ca1  1  0.979690  0.250000  0.722979  1
  Ca  Ca2  1  0.479690  0.750000  0.777021  1
  Ca  Ca3  1  0.520310  0.250000  0.222979  1
  V  V4  1  0.000000  0.000000  0.000000  1
  V  V5  1  0.000000  0.500000  0.000000  1
  V  V6  1  0.500000  0.000000  0.500000  1
  V  V7  1  0.500000  0.500000  0.500000  1
  Si  Si8  1  0.081912  0.250000  0.415279  1
  Si  Si9  1  0.418088  0.250000  0.915279  1
  Si  Si10  1  0.918088  0.750000  0.584721  1
  Si  Si11  1  0.581912  0.750000  0.084721  1
  O  O12  1  0.216149  0.451310  0.348686  1
  O  O13  1  0.716149  0.548690  0.151314  1
  O  O14  1  0.783851  0.951310  0.651314  1
  O  O15  1  0.283851  0.048690  0.848686  1
  O  O16  1  0.783851  0.548690  0.651314  1
  O  O17  1  0.283851  0.451310  0.848686  1
  O  O18  1  0.216149  0.048690  0.348686  1
  O  O19  1  0.716149  0.951310  0.151314  1
  O  O20  1  0.731670  0.750000  0.951101  1
  O  O21  1  0.231670  0.250000  0.548899  1
  O  O22  1  0.268330  0.250000  0.048899  1
  O  O23  1  0.768330  0.750000  0.451101  1
  O  O24  1  0.249540  0.750000  0.080943  1
  O  O25  1  0.749540  0.250000  0.419057  1
  O  O26  1  0.750460  0.250000  0.919057  1
  O  O27  1  0.250460  0.750000  0.580943  1
