# generated using pymatgen
data_PrSm3Mn4F28
_symmetry_space_group_name_H-M   'P 1'
_cell_length_a   5.52450454
_cell_length_b   8.93446983
_cell_length_c   11.95150543
_cell_angle_alpha   62.06733028
_cell_angle_beta   89.95131630
_cell_angle_gamma   89.96471718
_symmetry_Int_Tables_number   1
_chemical_formula_structural   PrSm3Mn4F28
_chemical_formula_sum   'Pr1 Sm3 Mn4 F28'
_cell_volume   521.18327159
_cell_formula_units_Z   1
loop_
 _symmetry_equiv_pos_site_id
 _symmetry_equiv_pos_as_xyz
  1  'x, y, z'
loop_
 _atom_site_type_symbol
 _atom_site_label
 _atom_site_symmetry_multiplicity
 _atom_site_fract_x
 _atom_site_fract_y
 _atom_site_fract_z
 _atom_site_occupancy
  Pr  Pr0  1  0.760143  0.809772  0.764389  1
  Sm  Sm1  1  0.260973  0.193918  0.735483  1
  Sm  Sm2  1  0.238940  0.190925  0.235965  1
  Sm  Sm3  1  0.739093  0.809757  0.264120  1
  Mn  Mn4  1  0.757340  0.271369  0.958602  1
  Mn  Mn5  1  0.256540  0.725800  0.540382  1
  Mn  Mn6  1  0.242703  0.725200  0.045113  1
  Mn  Mn7  1  0.741817  0.276010  0.455987  1
  F  F8  1  0.424870  0.706474  0.923663  1
  F  F9  1  0.927157  0.293156  0.577105  1
  F  F10  1  0.571720  0.290621  0.078889  1
  F  F11  1  0.072542  0.707522  0.419443  1
  F  F12  1  0.459847  0.282150  0.537893  1
  F  F13  1  0.960456  0.717300  0.965336  1
  F  F14  1  0.540614  0.719078  0.460332  1
  F  F15  1  0.039536  0.279117  0.039667  1
  F  F16  1  0.770154  0.503936  0.865486  1
  F  F17  1  0.269509  0.492286  0.634013  1
  F  F18  1  0.231752  0.491291  0.137687  1
  F  F19  1  0.730250  0.509240  0.363325  1
  F  F20  1  0.758387  0.039274  0.047673  1
  F  F21  1  0.257930  0.958079  0.452153  1
  F  F22  1  0.241422  0.957040  0.954530  1
  F  F23  1  0.741669  0.043950  0.544474  1
  F  F24  1  0.979397  0.726761  0.625519  1
  F  F25  1  0.480845  0.270857  0.872210  1
  F  F26  1  0.018013  0.272887  0.370006  1
  F  F27  1  0.520074  0.728035  0.130028  1
  F  F28  1  0.060366  0.741018  0.169375  1
  F  F29  1  0.558177  0.260118  0.331848  1
  F  F30  1  0.941069  0.256900  0.833886  1
  F  F31  1  0.435215  0.739508  0.666075  1
  F  F32  1  0.403396  0.968334  0.227867  1
  F  F33  1  0.903528  0.032160  0.272311  1
  F  F34  1  0.598269  0.039460  0.772915  1
  F  F35  1  0.106289  0.970697  0.726252  1
