# generated using pymatgen
data_CsAlTeBr2
_symmetry_space_group_name_H-M   'P 1'
_cell_length_a   6.97629000
_cell_length_b   7.72670837
_cell_length_c   8.96914500
_cell_angle_alpha   110.12280403
_cell_angle_beta   90.00000000
_cell_angle_gamma   90.00000000
_symmetry_Int_Tables_number   1
_chemical_formula_structural   CsAlTeBr2
_chemical_formula_sum   'Cs2 Al2 Te2 Br4'
_cell_volume   453.95832050
_cell_formula_units_Z   2
loop_
 _symmetry_equiv_pos_site_id
 _symmetry_equiv_pos_as_xyz
  1  'x, y, z'
loop_
 _atom_site_type_symbol
 _atom_site_label
 _atom_site_symmetry_multiplicity
 _atom_site_fract_x
 _atom_site_fract_y
 _atom_site_fract_z
 _atom_site_occupancy
  Cs  Cs0  1  0.562333  0.657200  0.801153  1
  Cs  Cs1  1  0.062333  0.342800  0.198847  1
  Al  Al2  1  0.466908  0.929978  0.365977  1
  Al  Al3  1  0.966908  0.070022  0.634023  1
  Te  Te4  1  0.092679  0.907143  0.348098  1
  Te  Te5  1  0.592679  0.092857  0.651902  1
  Br  Br6  1  0.057828  0.920783  0.816576  1
  Br  Br7  1  0.557828  0.079217  0.183424  1
  Br  Br8  1  0.070251  0.383477  0.754075  1
  Br  Br9  1  0.570251  0.616523  0.245925  1
