# generated using pymatgen
data_Rb3(TcO4)2
_symmetry_space_group_name_H-M   'P 1'
_cell_length_a   8.39304400
_cell_length_b   8.39304359
_cell_length_c   8.39304344
_cell_angle_alpha   44.12895645
_cell_angle_beta   44.12895934
_cell_angle_gamma   44.12895923
_symmetry_Int_Tables_number   1
_chemical_formula_structural   Rb3(TcO4)2
_chemical_formula_sum   'Rb3 Tc2 O8'
_cell_volume   260.40730628
_cell_formula_units_Z   1
loop_
 _symmetry_equiv_pos_site_id
 _symmetry_equiv_pos_as_xyz
  1  'x, y, z'
loop_
 _atom_site_type_symbol
 _atom_site_label
 _atom_site_symmetry_multiplicity
 _atom_site_fract_x
 _atom_site_fract_y
 _atom_site_fract_z
 _atom_site_occupancy
  Rb  Rb0  1  0.000000  0.000000  0.000000  1
  Rb  Rb1  1  0.798291  0.798291  0.798291  1
  Rb  Rb2  1  0.201709  0.201709  0.201709  1
  Tc  Tc3  1  0.593150  0.593150  0.593150  1
  Tc  Tc4  1  0.406850  0.406850  0.406850  1
  O  O5  1  0.280395  0.738434  0.280395  1
  O  O6  1  0.280395  0.280395  0.738434  1
  O  O7  1  0.738434  0.280395  0.280395  1
  O  O8  1  0.719605  0.261566  0.719605  1
  O  O9  1  0.719605  0.719605  0.261566  1
  O  O10  1  0.261566  0.719605  0.719605  1
  O  O11  1  0.670761  0.670761  0.670761  1
  O  O12  1  0.329239  0.329239  0.329239  1
