# generated using pymatgen
data_Lu12CdCo4Ru
_symmetry_space_group_name_H-M   'P 1'
_cell_length_a   8.09578464
_cell_length_b   8.09578514
_cell_length_c   8.09578516
_cell_angle_alpha   111.35051854
_cell_angle_beta   111.20333575
_cell_angle_gamma   105.91724333
_symmetry_Int_Tables_number   1
_chemical_formula_structural   Lu12CdCo4Ru
_chemical_formula_sum   'Lu12 Cd1 Co4 Ru1'
_cell_volume   407.29512844
_cell_formula_units_Z   1
loop_
 _symmetry_equiv_pos_site_id
 _symmetry_equiv_pos_as_xyz
  1  'x, y, z'
loop_
 _atom_site_type_symbol
 _atom_site_label
 _atom_site_symmetry_multiplicity
 _atom_site_fract_x
 _atom_site_fract_y
 _atom_site_fract_z
 _atom_site_occupancy
  Lu  Lu0  1  0.416965  0.222612  0.194353  1
  Lu  Lu1  1  0.583035  0.777388  0.805647  1
  Lu  Lu2  1  0.028257  0.222612  0.805647  1
  Lu  Lu3  1  0.971743  0.777388  0.194353  1
  Lu  Lu4  1  0.183125  0.279672  0.462797  1
  Lu  Lu5  1  0.816875  0.720328  0.537203  1
  Lu  Lu6  1  0.183125  0.720328  0.903453  1
  Lu  Lu7  1  0.816875  0.279672  0.096547  1
  Lu  Lu8  1  0.314106  0.620255  0.306149  1
  Lu  Lu9  1  0.685894  0.379745  0.693851  1
  Lu  Lu10  1  0.314106  0.007957  0.693851  1
  Lu  Lu11  1  0.685894  0.992043  0.306149  1
  Cd  Cd12  1  0.500000  0.500000  0.000000  1
  Co  Co13  1  0.373229  0.000000  0.373229  1
  Co  Co14  1  0.626771  0.000000  0.626771  1
  Co  Co15  1  0.113048  0.613048  0.500000  1
  Co  Co16  1  0.886952  0.386952  0.500000  1
  Ru  Ru17  1  0.000000  0.000000  0.000000  1
