# generated using pymatgen
data_DyEr3TmBi3
_symmetry_space_group_name_H-M   'P 1'
_cell_length_a   8.20813800
_cell_length_b   9.46778300
_cell_length_c   11.95154600
_cell_angle_alpha   90.00000000
_cell_angle_beta   90.00000000
_cell_angle_gamma   90.00000000
_symmetry_Int_Tables_number   1
_chemical_formula_structural   DyEr3TmBi3
_chemical_formula_sum   'Dy4 Er12 Tm4 Bi12'
_cell_volume   928.78893364
_cell_formula_units_Z   4
loop_
 _symmetry_equiv_pos_site_id
 _symmetry_equiv_pos_as_xyz
  1  'x, y, z'
loop_
 _atom_site_type_symbol
 _atom_site_label
 _atom_site_symmetry_multiplicity
 _atom_site_fract_x
 _atom_site_fract_y
 _atom_site_fract_z
 _atom_site_occupancy
  Dy  Dy0  1  0.312333  0.250000  0.218420  1
  Dy  Dy1  1  0.812333  0.250000  0.281580  1
  Dy  Dy2  1  0.687667  0.750000  0.781580  1
  Dy  Dy3  1  0.187667  0.750000  0.718420  1
  Er  Er4  1  0.352614  0.750000  0.216884  1
  Er  Er5  1  0.852614  0.750000  0.283116  1
  Er  Er6  1  0.647386  0.250000  0.783116  1
  Er  Er7  1  0.147386  0.250000  0.716884  1
  Er  Er8  1  0.692759  0.565397  0.059178  1
  Er  Er9  1  0.192759  0.934603  0.440822  1
  Er  Er10  1  0.307241  0.065397  0.940822  1
  Er  Er11  1  0.807241  0.434603  0.559178  1
  Er  Er12  1  0.307241  0.434603  0.940822  1
  Er  Er13  1  0.807241  0.065397  0.559178  1
  Er  Er14  1  0.692759  0.934603  0.059178  1
  Er  Er15  1  0.192759  0.565397  0.440822  1
  Tm  Tm16  1  0.475998  0.250000  0.488898  1
  Tm  Tm17  1  0.975998  0.250000  0.011102  1
  Tm  Tm18  1  0.524002  0.750000  0.511102  1
  Tm  Tm19  1  0.024002  0.750000  0.988898  1
  Bi  Bi20  1  0.405306  0.750000  0.958162  1
  Bi  Bi21  1  0.905306  0.750000  0.541838  1
  Bi  Bi22  1  0.594694  0.250000  0.041838  1
  Bi  Bi23  1  0.094694  0.250000  0.458162  1
  Bi  Bi24  1  0.565185  0.994880  0.325975  1
  Bi  Bi25  1  0.065185  0.505120  0.174025  1
  Bi  Bi26  1  0.434815  0.494880  0.674025  1
  Bi  Bi27  1  0.934815  0.005120  0.825975  1
  Bi  Bi28  1  0.434815  0.005120  0.674025  1
  Bi  Bi29  1  0.934815  0.494880  0.825975  1
  Bi  Bi30  1  0.565185  0.505120  0.325975  1
  Bi  Bi31  1  0.065185  0.994880  0.174025  1
