# generated using pymatgen
data_YbPr2(Si3Os)4
_symmetry_space_group_name_H-M   'P 1'
_cell_length_a   10.19577233
_cell_length_b   10.19577104
_cell_length_c   8.25278400
_cell_angle_alpha   90.00000000
_cell_angle_beta   90.00000000
_cell_angle_gamma   132.25139983
_symmetry_Int_Tables_number   1
_chemical_formula_structural   YbPr2(Si3Os)4
_chemical_formula_sum   'Yb2 Pr4 Si24 Os8'
_cell_volume   635.02490800
_cell_formula_units_Z   2
loop_
 _symmetry_equiv_pos_site_id
 _symmetry_equiv_pos_as_xyz
  1  'x, y, z'
loop_
 _atom_site_type_symbol
 _atom_site_label
 _atom_site_symmetry_multiplicity
 _atom_site_fract_x
 _atom_site_fract_y
 _atom_site_fract_z
 _atom_site_occupancy
  Yb  Yb0  1  0.000000  0.000000  0.000000  1
  Yb  Yb1  1  0.500000  0.500000  0.500000  1
  Pr  Pr2  1  0.501751  0.001751  0.750000  1
  Pr  Pr3  1  0.998249  0.498249  0.250000  1
  Pr  Pr4  1  0.498249  0.998249  0.250000  1
  Pr  Pr5  1  0.001751  0.501751  0.750000  1
  Si  Si6  1  0.797191  0.202809  0.500000  1
  Si  Si7  1  0.702809  0.297191  0.000000  1
  Si  Si8  1  0.202809  0.797191  0.500000  1
  Si  Si9  1  0.297191  0.702809  0.000000  1
  Si  Si10  1  0.667649  0.667649  0.167493  1
  Si  Si11  1  0.167649  0.167649  0.332507  1
  Si  Si12  1  0.832351  0.832351  0.667493  1
  Si  Si13  1  0.332351  0.332351  0.832507  1
  Si  Si14  1  0.846181  0.616131  0.993151  1
  Si  Si15  1  0.116131  0.346181  0.506849  1
  Si  Si16  1  0.653819  0.883869  0.493151  1
  Si  Si17  1  0.383869  0.153819  0.006849  1
  Si  Si18  1  0.153819  0.383869  0.006849  1
  Si  Si19  1  0.883869  0.653819  0.493151  1
  Si  Si20  1  0.122564  0.892144  0.730929  1
  Si  Si21  1  0.392144  0.622564  0.769071  1
  Si  Si22  1  0.377436  0.607856  0.230929  1
  Si  Si23  1  0.107856  0.877436  0.269071  1
  Si  Si24  1  0.877436  0.107856  0.269071  1
  Si  Si25  1  0.607856  0.377436  0.230929  1
  Si  Si26  1  0.622564  0.392144  0.769071  1
  Si  Si27  1  0.892144  0.122564  0.730929  1
  Si  Si28  1  0.616131  0.846181  0.993151  1
  Si  Si29  1  0.346181  0.116131  0.506849  1
  Os  Os30  1  0.625567  0.625567  0.874243  1
  Os  Os31  1  0.125567  0.125567  0.625757  1
  Os  Os32  1  0.374433  0.374433  0.125757  1
  Os  Os33  1  0.874433  0.874433  0.374243  1
  Os  Os34  1  0.169510  0.830490  0.000000  1
  Os  Os35  1  0.330490  0.669510  0.500000  1
  Os  Os36  1  0.830490  0.169510  0.000000  1
  Os  Os37  1  0.669510  0.330490  0.500000  1
