# generated using pymatgen
data_Nd2CoNi(Sb2Pd)2
_symmetry_space_group_name_H-M   'P 1'
_cell_length_a   4.54921600
_cell_length_b   4.54921600
_cell_length_c   10.19721700
_cell_angle_alpha   90.00000000
_cell_angle_beta   90.00000000
_cell_angle_gamma   90.00000000
_symmetry_Int_Tables_number   1
_chemical_formula_structural   Nd2CoNi(Sb2Pd)2
_chemical_formula_sum   'Nd2 Co1 Ni1 Sb4 Pd2'
_cell_volume   211.03514019
_cell_formula_units_Z   1
loop_
 _symmetry_equiv_pos_site_id
 _symmetry_equiv_pos_as_xyz
  1  'x, y, z'
loop_
 _atom_site_type_symbol
 _atom_site_label
 _atom_site_symmetry_multiplicity
 _atom_site_fract_x
 _atom_site_fract_y
 _atom_site_fract_z
 _atom_site_occupancy
  Nd  Nd0  1  0.000000  0.500000  0.744607  1
  Nd  Nd1  1  0.500000  0.000000  0.251791  1
  Co  Co2  1  0.000000  0.500000  0.389073  1
  Ni  Ni3  1  0.500000  0.000000  0.614669  1
  Sb  Sb4  1  0.000000  0.500000  0.145960  1
  Sb  Sb5  1  0.500000  0.000000  0.858104  1
  Sb  Sb6  1  0.500000  0.500000  0.497506  1
  Sb  Sb7  1  0.000000  0.000000  0.497506  1
  Pd  Pd8  1  0.500000  0.500000  0.000393  1
  Pd  Pd9  1  0.000000  0.000000  0.000393  1
