# generated using pymatgen
data_Tb3SnPd(PtPb)2
_symmetry_space_group_name_H-M   'P 1'
_cell_length_a   7.83669971
_cell_length_b   7.78830080
_cell_length_c   3.90874100
_cell_angle_alpha   90.00000000
_cell_angle_beta   90.00000000
_cell_angle_gamma   119.79591947
_symmetry_Int_Tables_number   1
_chemical_formula_structural   Tb3SnPd(PtPb)2
_chemical_formula_sum   'Tb3 Sn1 Pd1 Pt2 Pb2'
_cell_volume   207.02981088
_cell_formula_units_Z   1
loop_
 _symmetry_equiv_pos_site_id
 _symmetry_equiv_pos_as_xyz
  1  'x, y, z'
loop_
 _atom_site_type_symbol
 _atom_site_label
 _atom_site_symmetry_multiplicity
 _atom_site_fract_x
 _atom_site_fract_y
 _atom_site_fract_z
 _atom_site_occupancy
  Tb  Tb0  1  0.402609  0.406233  0.500000  1
  Tb  Tb1  1  0.597391  0.003625  0.500000  1
  Tb  Tb2  1  0.000000  0.591172  0.500000  1
  Sn  Sn3  1  0.000000  0.261183  0.000000  1
  Pd  Pd4  1  0.000000  0.012421  0.500000  1
  Pt  Pt5  1  0.674411  0.330091  0.000000  1
  Pt  Pt6  1  0.325589  0.655681  0.000000  1
  Pb  Pb7  1  0.738488  0.739041  0.000000  1
  Pb  Pb8  1  0.261512  0.000553  0.000000  1
