# generated using pymatgen
data_HoLu2Si3Ru2
_symmetry_space_group_name_H-M   'P 1'
_cell_length_a   5.65717733
_cell_length_b   5.65717683
_cell_length_c   13.63544700
_cell_angle_alpha   90.00000000
_cell_angle_beta   90.00000000
_cell_angle_gamma   136.98185932
_symmetry_Int_Tables_number   1
_chemical_formula_structural   HoLu2Si3Ru2
_chemical_formula_sum   'Ho2 Lu4 Si6 Ru4'
_cell_volume   297.71427904
_cell_formula_units_Z   2
loop_
 _symmetry_equiv_pos_site_id
 _symmetry_equiv_pos_as_xyz
  1  'x, y, z'
loop_
 _atom_site_type_symbol
 _atom_site_label
 _atom_site_symmetry_multiplicity
 _atom_site_fract_x
 _atom_site_fract_y
 _atom_site_fract_z
 _atom_site_occupancy
  Ho  Ho0  1  0.642419  0.357581  0.250000  1
  Ho  Ho1  1  0.357581  0.642419  0.750000  1
  Lu  Lu2  1  0.923895  0.076105  0.385922  1
  Lu  Lu3  1  0.076105  0.923895  0.614078  1
  Lu  Lu4  1  0.923895  0.076105  0.114078  1
  Lu  Lu5  1  0.076105  0.923895  0.885922  1
  Si  Si6  1  0.614782  0.385218  0.462305  1
  Si  Si7  1  0.385218  0.614782  0.537695  1
  Si  Si8  1  0.614782  0.385218  0.037695  1
  Si  Si9  1  0.385218  0.614782  0.962305  1
  Si  Si10  1  0.333899  0.666101  0.250000  1
  Si  Si11  1  0.666101  0.333899  0.750000  1
  Ru  Ru12  1  0.787465  0.212535  0.918687  1
  Ru  Ru13  1  0.212535  0.787465  0.081313  1
  Ru  Ru14  1  0.787465  0.212535  0.581313  1
  Ru  Ru15  1  0.212535  0.787465  0.418687  1
