# generated using pymatgen
data_Er4Tm6NiBi5
_symmetry_space_group_name_H-M   'P 1'
_cell_length_a   8.01142700
_cell_length_b   9.31949800
_cell_length_c   11.99602000
_cell_angle_alpha   90.00000000
_cell_angle_beta   90.00000000
_cell_angle_gamma   90.00000000
_symmetry_Int_Tables_number   1
_chemical_formula_structural   Er4Tm6NiBi5
_chemical_formula_sum   'Er8 Tm12 Ni2 Bi10'
_cell_volume   895.65257818
_cell_formula_units_Z   2
loop_
 _symmetry_equiv_pos_site_id
 _symmetry_equiv_pos_as_xyz
  1  'x, y, z'
loop_
 _atom_site_type_symbol
 _atom_site_label
 _atom_site_symmetry_multiplicity
 _atom_site_fract_x
 _atom_site_fract_y
 _atom_site_fract_z
 _atom_site_occupancy
  Er  Er0  1  0.574042  0.500000  0.773958  1
  Er  Er1  1  0.425958  0.500000  0.273958  1
  Er  Er2  1  0.260513  0.500000  0.993711  1
  Er  Er3  1  0.739487  0.500000  0.493711  1
  Er  Er4  1  0.089841  0.500000  0.717201  1
  Er  Er5  1  0.910159  0.500000  0.217201  1
  Er  Er6  1  0.377028  0.000000  0.305388  1
  Er  Er7  1  0.622972  0.000000  0.805388  1
  Tm  Tm8  1  0.431604  0.177415  0.562881  1
  Tm  Tm9  1  0.568396  0.822585  0.062881  1
  Tm  Tm10  1  0.070637  0.723977  0.436167  1
  Tm  Tm11  1  0.929363  0.276023  0.936167  1
  Tm  Tm12  1  0.070637  0.276023  0.436167  1
  Tm  Tm13  1  0.929363  0.723977  0.936167  1
  Tm  Tm14  1  0.431604  0.822585  0.562881  1
  Tm  Tm15  1  0.568396  0.177415  0.062881  1
  Tm  Tm16  1  0.907071  0.000000  0.202287  1
  Tm  Tm17  1  0.092929  0.000000  0.702287  1
  Tm  Tm18  1  0.199999  0.000000  0.998750  1
  Tm  Tm19  1  0.800001  0.000000  0.498750  1
  Ni  Ni20  1  0.168531  0.000000  0.485889  1
  Ni  Ni21  1  0.831469  0.000000  0.985889  1
  Bi  Bi22  1  0.814878  0.741805  0.672803  1
  Bi  Bi23  1  0.185122  0.258195  0.172803  1
  Bi  Bi24  1  0.681164  0.241477  0.325111  1
  Bi  Bi25  1  0.318836  0.758523  0.825111  1
  Bi  Bi26  1  0.681164  0.758523  0.325111  1
  Bi  Bi27  1  0.318836  0.241477  0.825111  1
  Bi  Bi28  1  0.814878  0.258195  0.672803  1
  Bi  Bi29  1  0.185122  0.741805  0.172803  1
  Bi  Bi30  1  0.347481  0.500000  0.528894  1
  Bi  Bi31  1  0.652519  0.500000  0.028894  1
