# generated using pymatgen
data_La2MgGa4Ni9B2
_symmetry_space_group_name_H-M   'P 1'
_cell_length_a   5.26280600
_cell_length_b   5.26280454
_cell_length_c   10.58985500
_cell_angle_alpha   90.00000000
_cell_angle_beta   90.00000000
_cell_angle_gamma   120.00000921
_symmetry_Int_Tables_number   1
_chemical_formula_structural   La2MgGa4Ni9B2
_chemical_formula_sum   'La2 Mg1 Ga4 Ni9 B2'
_cell_volume   254.01256880
_cell_formula_units_Z   1
loop_
 _symmetry_equiv_pos_site_id
 _symmetry_equiv_pos_as_xyz
  1  'x, y, z'
loop_
 _atom_site_type_symbol
 _atom_site_label
 _atom_site_symmetry_multiplicity
 _atom_site_fract_x
 _atom_site_fract_y
 _atom_site_fract_z
 _atom_site_occupancy
  La  La0  1  0.000000  0.000000  0.648612  1
  La  La1  1  0.000000  0.000000  0.002896  1
  Mg  Mg2  1  0.000000  0.000000  0.334522  1
  Ga  Ga3  1  0.333333  0.666667  0.316901  1
  Ga  Ga4  1  0.666667  0.333333  0.316901  1
  Ga  Ga5  1  0.666667  0.333333  0.686932  1
  Ga  Ga6  1  0.333333  0.666667  0.686932  1
  Ni  Ni7  1  0.000000  0.500000  0.873205  1
  Ni  Ni8  1  0.500000  0.000000  0.498638  1
  Ni  Ni9  1  0.500000  0.500000  0.498638  1
  Ni  Ni10  1  0.000000  0.500000  0.498638  1
  Ni  Ni11  1  0.500000  0.000000  0.129722  1
  Ni  Ni12  1  0.500000  0.500000  0.129722  1
  Ni  Ni13  1  0.000000  0.500000  0.129722  1
  Ni  Ni14  1  0.500000  0.000000  0.873205  1
  Ni  Ni15  1  0.500000  0.500000  0.873205  1
  B  B16  1  0.666667  0.333333  0.000803  1
  B  B17  1  0.333333  0.666667  0.000803  1
