# generated using pymatgen
data_NaY2Tm4Co6Sn23
_symmetry_space_group_name_H-M   'P 1'
_cell_length_a   9.68992718
_cell_length_b   9.68752683
_cell_length_c   9.93868711
_cell_angle_alpha   90.00000124
_cell_angle_beta   90.01505632
_cell_angle_gamma   119.99180248
_symmetry_Int_Tables_number   1
_chemical_formula_structural   NaY2Tm4Co6Sn23
_chemical_formula_sum   'Na1 Y2 Tm4 Co6 Sn23'
_cell_volume   808.03268899
_cell_formula_units_Z   1
loop_
 _symmetry_equiv_pos_site_id
 _symmetry_equiv_pos_as_xyz
  1  'x, y, z'
loop_
 _atom_site_type_symbol
 _atom_site_label
 _atom_site_symmetry_multiplicity
 _atom_site_fract_x
 _atom_site_fract_y
 _atom_site_fract_z
 _atom_site_occupancy
  Na  Na0  1  0.999936  0.999968  0.000128  1
  Y  Y1  1  0.520747  0.041765  0.694231  1
  Y  Y2  1  0.520747  0.478982  0.694231  1
  Tm  Tm3  1  0.039611  0.519806  0.304884  1
  Tm  Tm4  1  0.480187  0.960522  0.304877  1
  Tm  Tm5  1  0.480187  0.519664  0.304877  1
  Tm  Tm6  1  0.960258  0.480129  0.694889  1
  Co  Co7  1  0.169609  0.828003  0.798737  1
  Co  Co8  1  0.659218  0.829609  0.798922  1
  Co  Co9  1  0.169609  0.341607  0.798737  1
  Co  Co10  1  0.829097  0.170973  0.201706  1
  Co  Co11  1  0.341747  0.170874  0.201462  1
  Co  Co12  1  0.829097  0.658124  0.201706  1
  Sn  Sn13  1  0.999755  0.999877  0.499794  1
  Sn  Sn14  1  0.116813  0.883071  0.272069  1
  Sn  Sn15  1  0.766478  0.883240  0.272091  1
  Sn  Sn16  1  0.116813  0.233743  0.272069  1
  Sn  Sn17  1  0.884082  0.116991  0.728211  1
  Sn  Sn18  1  0.231684  0.115842  0.728420  1
  Sn  Sn19  1  0.884082  0.767090  0.728211  1
  Sn  Sn20  1  0.344024  0.999760  0.000377  1
  Sn  Sn21  1  0.655856  0.655902  0.000454  1
  Sn  Sn22  1  0.999908  0.344342  0.000221  1
  Sn  Sn23  1  0.344024  0.344263  0.000377  1
  Sn  Sn24  1  0.999908  0.655566  0.000221  1
  Sn  Sn25  1  0.655856  0.999953  0.000454  1
  Sn  Sn26  1  0.782015  0.562761  0.453913  1
  Sn  Sn27  1  0.782015  0.219254  0.453913  1
  Sn  Sn28  1  0.437070  0.218535  0.453161  1
  Sn  Sn29  1  0.217583  0.437525  0.544737  1
  Sn  Sn30  1  0.217583  0.780058  0.544737  1
  Sn  Sn31  1  0.562549  0.781274  0.544372  1
  Sn  Sn32  1  0.666666  0.333332  0.186053  1
  Sn  Sn33  1  0.332885  0.666443  0.814077  1
  Sn  Sn34  1  0.668934  0.334466  0.883837  1
  Sn  Sn35  1  0.333366  0.666683  0.118842  1
