# generated using pymatgen
data_Dy4Al17GaIr5Au
_symmetry_space_group_name_H-M   'P 1'
_cell_length_a   7.58148682
_cell_length_b   7.58149053
_cell_length_c   9.48956044
_cell_angle_alpha   89.97081613
_cell_angle_beta   89.97077650
_cell_angle_gamma   119.45730526
_symmetry_Int_Tables_number   1
_chemical_formula_structural   Dy4Al17GaIr5Au
_chemical_formula_sum   'Dy4 Al17 Ga1 Ir5 Au1'
_cell_volume   474.93542851
_cell_formula_units_Z   1
loop_
 _symmetry_equiv_pos_site_id
 _symmetry_equiv_pos_as_xyz
  1  'x, y, z'
loop_
 _atom_site_type_symbol
 _atom_site_label
 _atom_site_symmetry_multiplicity
 _atom_site_fract_x
 _atom_site_fract_y
 _atom_site_fract_z
 _atom_site_occupancy
  Dy  Dy0  1  0.995232  0.676216  0.751090  1
  Dy  Dy1  1  0.004194  0.326222  0.248970  1
  Dy  Dy2  1  0.676216  0.995233  0.751090  1
  Dy  Dy3  1  0.326222  0.004193  0.248970  1
  Al  Al4  1  0.863027  0.863027  0.243662  1
  Al  Al5  1  0.001626  0.344535  0.578579  1
  Al  Al6  1  0.997831  0.655202  0.421226  1
  Al  Al7  1  0.999721  0.664042  0.073776  1
  Al  Al8  1  0.336008  0.000235  0.926524  1
  Al  Al9  1  0.000235  0.336008  0.926524  1
  Al  Al10  1  0.664042  0.999721  0.073776  1
  Al  Al11  1  0.655202  0.997832  0.421226  1
  Al  Al12  1  0.344535  0.001625  0.578579  1
  Al  Al13  1  0.333094  0.333094  0.054531  1
  Al  Al14  1  0.666227  0.666227  0.947845  1
  Al  Al15  1  0.657208  0.657207  0.559125  1
  Al  Al16  1  0.342120  0.342121  0.439313  1
  Al  Al17  1  0.337931  0.551996  0.751201  1
  Al  Al18  1  0.660963  0.449220  0.248948  1
  Al  Al19  1  0.551996  0.337931  0.751201  1
  Al  Al20  1  0.449220  0.660963  0.248948  1
  Ga  Ga21  1  0.141010  0.141010  0.755772  1
  Ir  Ir22  1  0.670953  0.327542  0.500182  1
  Ir  Ir23  1  0.327542  0.670953  0.500182  1
  Ir  Ir24  1  0.327819  0.671097  0.999941  1
  Ir  Ir25  1  0.671098  0.327820  0.999941  1
  Ir  Ir26  1  0.999338  0.999338  0.002346  1
  Au  Au27  1  0.999392  0.999392  0.496535  1
