# generated using pymatgen
data_YbSmCo4(B2Ru)4
_symmetry_space_group_name_H-M   'P 1'
_cell_length_a   7.21170618
_cell_length_b   7.21473518
_cell_length_c   3.91992500
_cell_angle_alpha   90.00000000
_cell_angle_beta   90.00000000
_cell_angle_gamma   90.02575967
_symmetry_Int_Tables_number   1
_chemical_formula_structural   YbSmCo4(B2Ru)4
_chemical_formula_sum   'Yb1 Sm1 Co4 B8 Ru4'
_cell_volume   203.95583434
_cell_formula_units_Z   1
loop_
 _symmetry_equiv_pos_site_id
 _symmetry_equiv_pos_as_xyz
  1  'x, y, z'
loop_
 _atom_site_type_symbol
 _atom_site_label
 _atom_site_symmetry_multiplicity
 _atom_site_fract_x
 _atom_site_fract_y
 _atom_site_fract_z
 _atom_site_occupancy
  Yb  Yb0  1  0.000000  0.000000  0.915040  1
  Sm  Sm1  1  0.500000  0.500000  0.413298  1
  Co  Co2  1  0.117826  0.379386  0.623945  1
  Co  Co3  1  0.882174  0.620614  0.623945  1
  Co  Co4  1  0.120439  0.618054  0.122669  1
  Co  Co5  1  0.879561  0.381946  0.122669  1
  B  B6  1  0.820222  0.659710  0.119501  1
  B  B7  1  0.179778  0.340290  0.119501  1
  B  B8  1  0.842455  0.316727  0.619882  1
  B  B9  1  0.157545  0.683273  0.619882  1
  B  B10  1  0.728019  0.826949  0.401605  1
  B  B11  1  0.271981  0.173051  0.401605  1
  B  B12  1  0.674636  0.225063  0.901888  1
  B  B13  1  0.325364  0.774937  0.901888  1
  Ru  Ru14  1  0.387226  0.157458  0.897947  1
  Ru  Ru15  1  0.612774  0.842542  0.897947  1
  Ru  Ru16  1  0.341975  0.887839  0.398396  1
  Ru  Ru17  1  0.658025  0.112161  0.398396  1
