# generated using pymatgen
data_Er10FeCuSb4
_symmetry_space_group_name_H-M   'P 1'
_cell_length_a   7.81794700
_cell_length_b   8.79652100
_cell_length_c   12.04995900
_cell_angle_alpha   90.00000000
_cell_angle_beta   90.00000000
_cell_angle_gamma   90.00000000
_symmetry_Int_Tables_number   1
_chemical_formula_structural   Er10FeCuSb4
_chemical_formula_sum   'Er20 Fe2 Cu2 Sb8'
_cell_volume   828.68453670
_cell_formula_units_Z   2
loop_
 _symmetry_equiv_pos_site_id
 _symmetry_equiv_pos_as_xyz
  1  'x, y, z'
loop_
 _atom_site_type_symbol
 _atom_site_label
 _atom_site_symmetry_multiplicity
 _atom_site_fract_x
 _atom_site_fract_y
 _atom_site_fract_z
 _atom_site_occupancy
  Er  Er0  1  0.155339  0.750000  0.204246  1
  Er  Er1  1  0.655339  0.250000  0.295754  1
  Er  Er2  1  0.836045  0.250000  0.785363  1
  Er  Er3  1  0.336045  0.750000  0.714637  1
  Er  Er4  1  0.453807  0.750000  0.999430  1
  Er  Er5  1  0.953807  0.250000  0.500570  1
  Er  Er6  1  0.539744  0.250000  0.002104  1
  Er  Er7  1  0.039744  0.750000  0.497896  1
  Er  Er8  1  0.632076  0.750000  0.299997  1
  Er  Er9  1  0.132076  0.250000  0.200003  1
  Er  Er10  1  0.375743  0.250000  0.693207  1
  Er  Er11  1  0.875743  0.750000  0.806793  1
  Er  Er12  1  0.822053  0.950058  0.064659  1
  Er  Er13  1  0.322053  0.049942  0.435341  1
  Er  Er14  1  0.179844  0.471767  0.933615  1
  Er  Er15  1  0.679844  0.528233  0.566385  1
  Er  Er16  1  0.179844  0.028233  0.933615  1
  Er  Er17  1  0.679844  0.971767  0.566385  1
  Er  Er18  1  0.822053  0.549942  0.064659  1
  Er  Er19  1  0.322053  0.450058  0.435341  1
  Fe  Fe20  1  0.574090  0.250000  0.512085  1
  Fe  Fe21  1  0.074090  0.750000  0.987915  1
  Cu  Cu22  1  0.427087  0.750000  0.488592  1
  Cu  Cu23  1  0.927087  0.250000  0.011408  1
  Sb  Sb24  1  0.930691  0.992655  0.326520  1
  Sb  Sb25  1  0.430691  0.007345  0.173480  1
  Sb  Sb26  1  0.070446  0.491971  0.671730  1
  Sb  Sb27  1  0.570446  0.508029  0.828270  1
  Sb  Sb28  1  0.070446  0.008029  0.671730  1
  Sb  Sb29  1  0.570446  0.991971  0.828270  1
  Sb  Sb30  1  0.930691  0.507345  0.326520  1
  Sb  Sb31  1  0.430691  0.492655  0.173480  1
