# generated using pymatgen
data_Al4Ir2OsRh
_symmetry_space_group_name_H-M   'P 1'
_cell_length_a   6.03505000
_cell_length_b   4.25045200
_cell_length_c   8.53109800
_cell_angle_alpha   90.00022197
_cell_angle_beta   89.99996202
_cell_angle_gamma   90.00000058
_symmetry_Int_Tables_number   1
_chemical_formula_structural   Al4Ir2OsRh
_chemical_formula_sum   'Al8 Ir4 Os2 Rh2'
_cell_volume   218.83708418
_cell_formula_units_Z   2
loop_
 _symmetry_equiv_pos_site_id
 _symmetry_equiv_pos_as_xyz
  1  'x, y, z'
loop_
 _atom_site_type_symbol
 _atom_site_label
 _atom_site_symmetry_multiplicity
 _atom_site_fract_x
 _atom_site_fract_y
 _atom_site_fract_z
 _atom_site_occupancy
  Al  Al0  1  0.499108  0.749997  0.127094  1
  Al  Al1  1  0.000894  0.749997  0.127093  1
  Al  Al2  1  0.500896  0.249998  0.372908  1
  Al  Al3  1  0.999107  0.249998  0.372908  1
  Al  Al4  1  0.999001  0.750007  0.623156  1
  Al  Al5  1  0.500995  0.750006  0.623156  1
  Al  Al6  1  0.000994  0.249998  0.876845  1
  Al  Al7  1  0.499004  0.249998  0.876844  1
  Ir  Ir8  1  0.749999  0.249999  0.122746  1
  Ir  Ir9  1  0.250001  0.750004  0.377246  1
  Ir  Ir10  1  0.749991  0.250008  0.628227  1
  Ir  Ir11  1  0.249995  0.750006  0.871791  1
  Os  Os12  1  0.250007  0.249997  0.123645  1
  Os  Os13  1  0.750000  0.749996  0.376359  1
  Rh  Rh14  1  0.250003  0.249986  0.625998  1
  Rh  Rh15  1  0.750002  0.749998  0.873981  1
