# generated using pymatgen
data_Eu4Ga14CuRh
_symmetry_space_group_name_H-M   'P 1'
_cell_length_a   6.19752209
_cell_length_b   6.19277335
_cell_length_c   11.48177900
_cell_angle_alpha   74.35487131
_cell_angle_beta   74.34257861
_cell_angle_gamma   90.00000007
_symmetry_Int_Tables_number   1
_chemical_formula_structural   Eu4Ga14CuRh
_chemical_formula_sum   'Eu4 Ga14 Cu1 Rh1'
_cell_volume   407.33538795
_cell_formula_units_Z   1
loop_
 _symmetry_equiv_pos_site_id
 _symmetry_equiv_pos_as_xyz
  1  'x, y, z'
loop_
 _atom_site_type_symbol
 _atom_site_label
 _atom_site_symmetry_multiplicity
 _atom_site_fract_x
 _atom_site_fract_y
 _atom_site_fract_z
 _atom_site_occupancy
  Eu  Eu0  1  0.997229  0.997229  0.005543  1
  Eu  Eu1  1  0.497730  0.497730  0.004540  1
  Eu  Eu2  1  0.750709  0.250709  0.498585  1
  Eu  Eu3  1  0.247381  0.747381  0.505240  1
  Ga  Ga4  1  0.200961  0.200961  0.598079  1
  Ga  Ga5  1  0.810620  0.810620  0.378762  1
  Ga  Ga6  1  0.614561  0.124676  0.251928  1
  Ga  Ga7  1  0.133511  0.623395  0.251928  1
  Ga  Ga8  1  0.614561  0.623395  0.251928  1
  Ga  Ga9  1  0.133511  0.124676  0.251928  1
  Ga  Ga10  1  0.868716  0.360415  0.753769  1
  Ga  Ga11  1  0.377515  0.885814  0.753769  1
  Ga  Ga12  1  0.868716  0.885814  0.753769  1
  Ga  Ga13  1  0.377515  0.360415  0.753769  1
  Ga  Ga14  1  0.691732  0.691732  0.616535  1
  Ga  Ga15  1  0.060051  0.560051  0.879897  1
  Ga  Ga16  1  0.449934  0.949934  0.100131  1
  Ga  Ga17  1  0.942546  0.442546  0.114908  1
  Cu  Cu18  1  0.562064  0.062064  0.875872  1
  Rh  Rh19  1  0.315271  0.315271  0.369458  1
