# generated using pymatgen
data_Nd2Sm4NiI10
_symmetry_space_group_name_H-M   'P 1'
_cell_length_a   7.84971652
_cell_length_b   9.84382245
_cell_length_c   9.95224946
_cell_angle_alpha   107.19157330
_cell_angle_beta   96.79732054
_cell_angle_gamma   104.71932249
_symmetry_Int_Tables_number   1
_chemical_formula_structural   Nd2Sm4NiI10
_chemical_formula_sum   'Nd2 Sm4 Ni1 I10'
_cell_volume   694.80462270
_cell_formula_units_Z   1
loop_
 _symmetry_equiv_pos_site_id
 _symmetry_equiv_pos_as_xyz
  1  'x, y, z'
loop_
 _atom_site_type_symbol
 _atom_site_label
 _atom_site_symmetry_multiplicity
 _atom_site_fract_x
 _atom_site_fract_y
 _atom_site_fract_z
 _atom_site_occupancy
  Nd  Nd0  1  0.882410  0.957516  0.239899  1
  Nd  Nd1  1  0.117590  0.042484  0.760101  1
  Sm  Sm2  1  0.031915  0.717006  0.915266  1
  Sm  Sm3  1  0.968085  0.282994  0.084734  1
  Sm  Sm4  1  0.656694  0.877190  0.838035  1
  Sm  Sm5  1  0.343306  0.122810  0.161965  1
  Ni  Ni6  1  0.000000  0.000000  0.000000  1
  I  I7  1  0.649126  0.548417  0.728596  1
  I  I8  1  0.350874  0.451583  0.271404  1
  I  I9  1  0.737979  0.913424  0.541463  1
  I  I10  1  0.262021  0.086576  0.458537  1
  I  I11  1  0.084941  0.373424  0.820538  1
  I  I12  1  0.915059  0.626576  0.179462  1
  I  I13  1  0.451517  0.813781  0.091650  1
  I  I14  1  0.548483  0.186219  0.908350  1
  I  I15  1  0.227212  0.741975  0.656727  1
  I  I16  1  0.772788  0.258025  0.343273  1
