# generated using pymatgen
data_Li4MgSn2S7
_symmetry_space_group_name_H-M   'P 1'
_cell_length_a   9.44083170
_cell_length_b   9.44083091
_cell_length_c   10.37156773
_cell_angle_alpha   86.52001228
_cell_angle_beta   86.52001294
_cell_angle_gamma   43.55375326
_symmetry_Int_Tables_number   1
_chemical_formula_structural   Li4MgSn2S7
_chemical_formula_sum   'Li8 Mg2 Sn4 S14'
_cell_volume   635.58886752
_cell_formula_units_Z   2
loop_
 _symmetry_equiv_pos_site_id
 _symmetry_equiv_pos_as_xyz
  1  'x, y, z'
loop_
 _atom_site_type_symbol
 _atom_site_label
 _atom_site_symmetry_multiplicity
 _atom_site_fract_x
 _atom_site_fract_y
 _atom_site_fract_z
 _atom_site_occupancy
  Li  Li0  1  0.525792  0.184254  0.411086  1
  Li  Li1  1  0.184254  0.525792  0.911086  1
  Li  Li2  1  0.912980  0.222309  0.335574  1
  Li  Li3  1  0.222309  0.912980  0.835574  1
  Li  Li4  1  0.680455  0.311860  0.696853  1
  Li  Li5  1  0.311860  0.680455  0.196853  1
  Li  Li6  1  0.041663  0.382395  0.614691  1
  Li  Li7  1  0.382395  0.041663  0.114691  1
  Mg  Mg8  1  0.932764  0.633122  0.258720  1
  Mg  Mg9  1  0.633122  0.932764  0.758720  1
  Sn  Sn10  1  0.470704  0.810410  0.469349  1
  Sn  Sn11  1  0.810410  0.470704  0.969349  1
  Sn  Sn12  1  0.081003  0.767144  0.538849  1
  Sn  Sn13  1  0.767144  0.081003  0.038849  1
  S  S14  1  0.367124  0.692542  0.633886  1
  S  S15  1  0.692542  0.367124  0.133886  1
  S  S16  1  0.222268  0.551171  0.353409  1
  S  S17  1  0.551171  0.222268  0.853409  1
  S  S18  1  0.002803  0.640780  0.707506  1
  S  S19  1  0.640780  0.002803  0.207506  1
  S  S20  1  0.273608  0.939009  0.280586  1
  S  S21  1  0.939009  0.273608  0.780586  1
  S  S22  1  0.413656  0.074474  0.568442  1
  S  S23  1  0.074474  0.413656  0.068442  1
  S  S24  1  0.831554  0.514762  0.421092  1
  S  S25  1  0.514762  0.831554  0.921092  1
  S  S26  1  0.797534  0.126357  0.498290  1
  S  S27  1  0.126357  0.797534  0.998290  1
