# generated using pymatgen
data_LaBeAsH2
_symmetry_space_group_name_H-M   'P 1'
_cell_length_a   3.98576500
_cell_length_b   3.98576547
_cell_length_c   9.43990700
_cell_angle_alpha   90.00000000
_cell_angle_beta   90.00000000
_cell_angle_gamma   120.00000438
_symmetry_Int_Tables_number   1
_chemical_formula_structural   LaBeAsH2
_chemical_formula_sum   'La2 Be2 As2 H4'
_cell_volume   129.87386288
_cell_formula_units_Z   2
loop_
 _symmetry_equiv_pos_site_id
 _symmetry_equiv_pos_as_xyz
  1  'x, y, z'
loop_
 _atom_site_type_symbol
 _atom_site_label
 _atom_site_symmetry_multiplicity
 _atom_site_fract_x
 _atom_site_fract_y
 _atom_site_fract_z
 _atom_site_occupancy
  La  La0  1  0.000000  0.000000  0.500000  1
  La  La1  1  0.000000  0.000000  0.000000  1
  Be  Be2  1  0.333333  0.666667  0.750000  1
  Be  Be3  1  0.666667  0.333333  0.250000  1
  As  As4  1  0.666667  0.333333  0.750000  1
  As  As5  1  0.333333  0.666667  0.250000  1
  H  H6  1  0.666667  0.333333  0.070530  1
  H  H7  1  0.333333  0.666667  0.929470  1
  H  H8  1  0.666667  0.333333  0.429470  1
  H  H9  1  0.333333  0.666667  0.570530  1
