# generated using pymatgen
data_YTmLu2(WO6)2
_symmetry_space_group_name_H-M   'P 1'
_cell_length_a   5.34365400
_cell_length_b   7.62688797
_cell_length_c   11.34711717
_cell_angle_alpha   75.36671675
_cell_angle_beta   90.00000000
_cell_angle_gamma   90.00000000
_symmetry_Int_Tables_number   1
_chemical_formula_structural   YTmLu2(WO6)2
_chemical_formula_sum   'Y2 Tm2 Lu4 W4 O24'
_cell_volume   447.45596320
_cell_formula_units_Z   2
loop_
 _symmetry_equiv_pos_site_id
 _symmetry_equiv_pos_as_xyz
  1  'x, y, z'
loop_
 _atom_site_type_symbol
 _atom_site_label
 _atom_site_symmetry_multiplicity
 _atom_site_fract_x
 _atom_site_fract_y
 _atom_site_fract_z
 _atom_site_occupancy
  Y  Y0  1  0.315443  0.500000  0.750000  1
  Y  Y1  1  0.684557  0.500000  0.250000  1
  Tm  Tm2  1  0.258398  0.000000  0.750000  1
  Tm  Tm3  1  0.741602  0.000000  0.250000  1
  Lu  Lu4  1  0.184480  0.795668  0.078509  1
  Lu  Lu5  1  0.184480  0.204332  0.421491  1
  Lu  Lu6  1  0.815520  0.204332  0.921491  1
  Lu  Lu7  1  0.815520  0.795668  0.578509  1
  W  W8  1  0.744781  0.725320  0.885462  1
  W  W9  1  0.255219  0.725320  0.385462  1
  W  W10  1  0.744781  0.274680  0.614538  1
  W  W11  1  0.255219  0.274680  0.114538  1
  O  O12  1  0.854911  0.363041  0.450530  1
  O  O13  1  0.460873  0.846691  0.931497  1
  O  O14  1  0.854911  0.636959  0.049470  1
  O  O15  1  0.019280  0.285288  0.730562  1
  O  O16  1  0.980720  0.285288  0.230562  1
  O  O17  1  0.145089  0.363041  0.950530  1
  O  O18  1  0.643604  0.487832  0.886869  1
  O  O19  1  0.539127  0.153309  0.068503  1
  O  O20  1  0.145089  0.636959  0.549470  1
  O  O21  1  0.019280  0.714712  0.769438  1
  O  O22  1  0.457420  0.205625  0.274941  1
  O  O23  1  0.042507  0.943061  0.396041  1
  O  O24  1  0.460873  0.153309  0.568503  1
  O  O25  1  0.980720  0.714712  0.269438  1
  O  O26  1  0.957493  0.056939  0.603959  1
  O  O27  1  0.542580  0.205625  0.774941  1
  O  O28  1  0.542580  0.794375  0.725059  1
  O  O29  1  0.042507  0.056939  0.103959  1
  O  O30  1  0.643604  0.512168  0.613131  1
  O  O31  1  0.356396  0.512168  0.113131  1
  O  O32  1  0.457420  0.794375  0.225059  1
  O  O33  1  0.356396  0.487832  0.386869  1
  O  O34  1  0.539127  0.846691  0.431497  1
  O  O35  1  0.957493  0.943061  0.896041  1
