# generated using pymatgen
data_Ca6NpMoO12
_symmetry_space_group_name_H-M   'P 1'
_cell_length_a   6.68077844
_cell_length_b   6.68077795
_cell_length_c   6.68077944
_cell_angle_alpha   92.00633650
_cell_angle_beta   92.00633173
_cell_angle_gamma   92.00633700
_symmetry_Int_Tables_number   1
_chemical_formula_structural   Ca6NpMoO12
_chemical_formula_sum   'Ca6 Np1 Mo1 O12'
_cell_volume   297.62032801
_cell_formula_units_Z   1
loop_
 _symmetry_equiv_pos_site_id
 _symmetry_equiv_pos_as_xyz
  1  'x, y, z'
loop_
 _atom_site_type_symbol
 _atom_site_label
 _atom_site_symmetry_multiplicity
 _atom_site_fract_x
 _atom_site_fract_y
 _atom_site_fract_z
 _atom_site_occupancy
  Ca  Ca0  1  0.932049  0.438454  0.741769  1
  Ca  Ca1  1  0.741769  0.932049  0.438454  1
  Ca  Ca2  1  0.561546  0.258231  0.067951  1
  Ca  Ca3  1  0.438454  0.741769  0.932049  1
  Ca  Ca4  1  0.258231  0.067951  0.561546  1
  Ca  Ca5  1  0.067951  0.561546  0.258231  1
  Np  Np6  1  0.000000  0.000000  0.000000  1
  Mo  Mo7  1  0.500000  0.500000  0.500000  1
  O  O8  1  0.928715  0.295105  0.065533  1
  O  O9  1  0.934467  0.071285  0.704895  1
  O  O10  1  0.780164  0.578398  0.454112  1
  O  O11  1  0.704895  0.934467  0.071285  1
  O  O12  1  0.578398  0.454112  0.780164  1
  O  O13  1  0.545888  0.219836  0.421602  1
  O  O14  1  0.454112  0.780164  0.578398  1
  O  O15  1  0.421602  0.545888  0.219836  1
  O  O16  1  0.295105  0.065533  0.928715  1
  O  O17  1  0.219836  0.421602  0.545888  1
  O  O18  1  0.065533  0.928715  0.295105  1
  O  O19  1  0.071285  0.704895  0.934467  1
