# generated using pymatgen
data_Zr18Co2Re7Mo
_symmetry_space_group_name_H-M   'P 1'
_cell_length_a   8.69432900
_cell_length_b   8.69432807
_cell_length_c   8.51826700
_cell_angle_alpha   90.00000000
_cell_angle_beta   90.00000000
_cell_angle_gamma   119.99999973
_symmetry_Int_Tables_number   1
_chemical_formula_structural   Zr18Co2Re7Mo
_chemical_formula_sum   'Zr18 Co2 Re7 Mo1'
_cell_volume   557.64007327
_cell_formula_units_Z   1
loop_
 _symmetry_equiv_pos_site_id
 _symmetry_equiv_pos_as_xyz
  1  'x, y, z'
loop_
 _atom_site_type_symbol
 _atom_site_label
 _atom_site_symmetry_multiplicity
 _atom_site_fract_x
 _atom_site_fract_y
 _atom_site_fract_z
 _atom_site_occupancy
  Zr  Zr0  1  0.541656  0.083312  0.249784  1
  Zr  Zr1  1  0.458344  0.916688  0.750216  1
  Zr  Zr2  1  0.916688  0.458344  0.249784  1
  Zr  Zr3  1  0.541656  0.458344  0.249784  1
  Zr  Zr4  1  0.458344  0.541656  0.750216  1
  Zr  Zr5  1  0.083312  0.541656  0.750216  1
  Zr  Zr6  1  0.199354  0.398708  0.058642  1
  Zr  Zr7  1  0.799879  0.599759  0.558469  1
  Zr  Zr8  1  0.601292  0.800646  0.058642  1
  Zr  Zr9  1  0.199354  0.800646  0.058642  1
  Zr  Zr10  1  0.799879  0.200121  0.558469  1
  Zr  Zr11  1  0.400241  0.200121  0.558469  1
  Zr  Zr12  1  0.800646  0.601292  0.941358  1
  Zr  Zr13  1  0.800646  0.199354  0.941358  1
  Zr  Zr14  1  0.398708  0.199354  0.941358  1
  Zr  Zr15  1  0.599759  0.799879  0.441531  1
  Zr  Zr16  1  0.200121  0.799879  0.441531  1
  Zr  Zr17  1  0.200121  0.400241  0.441531  1
  Co  Co18  1  0.333333  0.666667  0.249646  1
  Co  Co19  1  0.666667  0.333333  0.750354  1
  Re  Re20  1  0.000000  0.000000  0.000000  1
  Re  Re21  1  0.891031  0.782062  0.250082  1
  Re  Re22  1  0.108969  0.217938  0.749918  1
  Re  Re23  1  0.217938  0.108969  0.250082  1
  Re  Re24  1  0.891031  0.108969  0.250082  1
  Re  Re25  1  0.108969  0.891031  0.749918  1
  Re  Re26  1  0.782062  0.891031  0.749918  1
  Mo  Mo27  1  0.000000  0.000000  0.500000  1
