# generated using pymatgen
data_Cs4DySbCl12
_symmetry_space_group_name_H-M   'P 1'
_cell_length_a   13.19720096
_cell_length_b   13.19720148
_cell_length_c   13.19720068
_cell_angle_alpha   131.88632088
_cell_angle_beta   131.88632156
_cell_angle_gamma   70.40863176
_symmetry_Int_Tables_number   1
_chemical_formula_structural   Cs4DySbCl12
_chemical_formula_sum   'Cs8 Dy2 Sb2 Cl24'
_cell_volume   1248.36288115
_cell_formula_units_Z   2
loop_
 _symmetry_equiv_pos_site_id
 _symmetry_equiv_pos_as_xyz
  1  'x, y, z'
loop_
 _atom_site_type_symbol
 _atom_site_label
 _atom_site_symmetry_multiplicity
 _atom_site_fract_x
 _atom_site_fract_y
 _atom_site_fract_z
 _atom_site_occupancy
  Cs  Cs0  1  0.375000  0.845661  0.970661  1
  Cs  Cs1  1  0.595661  0.625000  0.470661  1
  Cs  Cs2  1  0.875000  0.845661  0.470661  1
  Cs  Cs3  1  0.595661  0.125000  0.970661  1
  Cs  Cs4  1  0.875000  0.404339  0.029339  1
  Cs  Cs5  1  0.154339  0.125000  0.529339  1
  Cs  Cs6  1  0.375000  0.404339  0.529339  1
  Cs  Cs7  1  0.154339  0.625000  0.029339  1
  Dy  Dy8  1  0.500000  0.500000  0.000000  1
  Dy  Dy9  1  0.250000  0.750000  0.500000  1
  Sb  Sb10  1  0.000000  0.000000  0.000000  1
  Sb  Sb11  1  0.750000  0.250000  0.500000  1
  Cl  Cl12  1  0.741321  0.495551  0.245770  1
  Cl  Cl13  1  0.504449  0.258679  0.754230  1
  Cl  Cl14  1  0.377405  0.377405  0.000000  1
  Cl  Cl15  1  0.127405  0.627405  0.500000  1
  Cl  Cl16  1  0.372595  0.872595  0.500000  1
  Cl  Cl17  1  0.622595  0.622595  0.000000  1
  Cl  Cl18  1  0.112126  0.112126  0.000000  1
  Cl  Cl19  1  0.862126  0.362126  0.500000  1
  Cl  Cl20  1  0.637874  0.137874  0.500000  1
  Cl  Cl21  1  0.887874  0.887874  0.000000  1
  Cl  Cl22  1  0.225719  0.000637  0.225083  1
  Cl  Cl23  1  0.750637  0.025554  0.274917  1
  Cl  Cl24  1  0.504449  0.750218  0.245770  1
  Cl  Cl25  1  0.524281  0.249363  0.274917  1
  Cl  Cl26  1  0.974446  0.249363  0.725083  1
  Cl  Cl27  1  0.999363  0.224446  0.225083  1
  Cl  Cl28  1  0.999363  0.774281  0.774917  1
  Cl  Cl29  1  0.775554  0.000637  0.774917  1
  Cl  Cl30  1  0.750637  0.475719  0.725083  1
  Cl  Cl31  1  0.245551  0.499782  0.254230  1
  Cl  Cl32  1  0.245551  0.991321  0.745770  1
  Cl  Cl33  1  0.008679  0.754449  0.254230  1
  Cl  Cl34  1  0.500218  0.754449  0.745770  1
  Cl  Cl35  1  0.249782  0.495551  0.754230  1
