# generated using pymatgen
data_Ti10Ga5BiSe
_symmetry_space_group_name_H-M   'P 1'
_cell_length_a   7.90130955
_cell_length_b   7.87019958
_cell_length_c   5.51660200
_cell_angle_alpha   89.90749183
_cell_angle_beta   90.04607558
_cell_angle_gamma   119.86983899
_symmetry_Int_Tables_number   1
_chemical_formula_structural   Ti10Ga5BiSe
_chemical_formula_sum   'Ti10 Ga5 Bi1 Se1'
_cell_volume   297.47787014
_cell_formula_units_Z   1
loop_
 _symmetry_equiv_pos_site_id
 _symmetry_equiv_pos_as_xyz
  1  'x, y, z'
loop_
 _atom_site_type_symbol
 _atom_site_label
 _atom_site_symmetry_multiplicity
 _atom_site_fract_x
 _atom_site_fract_y
 _atom_site_fract_z
 _atom_site_occupancy
  Ti  Ti0  1  0.000000  0.758352  0.216578  1
  Ti  Ti1  1  0.269893  0.252678  0.235102  1
  Ti  Ti2  1  0.730107  0.982785  0.235102  1
  Ti  Ti3  1  0.000000  0.256929  0.761019  1
  Ti  Ti4  1  0.738164  0.738723  0.770833  1
  Ti  Ti5  1  0.261836  0.000559  0.770833  1
  Ti  Ti6  1  0.350546  0.676058  0.505468  1
  Ti  Ti7  1  0.649454  0.325510  0.505468  1
  Ti  Ti8  1  0.651678  0.329896  0.993972  1
  Ti  Ti9  1  0.348322  0.678219  0.993972  1
  Ga  Ga10  1  0.607604  0.602825  0.249499  1
  Ga  Ga11  1  0.392396  0.995221  0.249499  1
  Ga  Ga12  1  0.000000  0.609455  0.749761  1
  Ga  Ga13  1  0.387972  0.393045  0.752835  1
  Ga  Ga14  1  0.612028  0.005073  0.752835  1
  Bi  Bi15  1  0.000000  0.395831  0.252483  1
  Se  Se16  1  0.000000  0.998840  0.504742  1
