# generated using pymatgen
data_Dy8Si(Pd2Pt)8
_symmetry_space_group_name_H-M   'P 1'
_cell_length_a   8.31655200
_cell_length_b   8.32200200
_cell_length_c   8.33157700
_cell_angle_alpha   90.00061275
_cell_angle_beta   89.99814676
_cell_angle_gamma   89.99922892
_symmetry_Int_Tables_number   1
_chemical_formula_structural   Dy8Si(Pd2Pt)8
_chemical_formula_sum   'Dy8 Si1 Pd16 Pt8'
_cell_volume   576.63146334
_cell_formula_units_Z   1
loop_
 _symmetry_equiv_pos_site_id
 _symmetry_equiv_pos_as_xyz
  1  'x, y, z'
loop_
 _atom_site_type_symbol
 _atom_site_label
 _atom_site_symmetry_multiplicity
 _atom_site_fract_x
 _atom_site_fract_y
 _atom_site_fract_z
 _atom_site_occupancy
  Dy  Dy0  1  0.253188  0.253300  0.253254  1
  Dy  Dy1  1  0.746288  0.746313  0.745850  1
  Dy  Dy2  1  0.746166  0.746166  0.254026  1
  Dy  Dy3  1  0.746954  0.253191  0.746565  1
  Dy  Dy4  1  0.253045  0.253193  0.746572  1
  Dy  Dy5  1  0.253831  0.746176  0.254029  1
  Dy  Dy6  1  0.253707  0.746317  0.745855  1
  Dy  Dy7  1  0.746819  0.253297  0.253253  1
  Si  Si8  1  0.000003  0.003669  0.000173  1
  Pd  Pd9  1  0.257751  0.499934  0.000069  1
  Pd  Pd10  1  0.742248  0.499932  0.000064  1
  Pd  Pd11  1  0.000000  0.257645  0.500190  1
  Pd  Pd12  1  0.500000  0.256797  0.999999  1
  Pd  Pd13  1  0.000004  0.741610  0.500151  1
  Pd  Pd14  1  0.500001  0.741794  0.000100  1
  Pd  Pd15  1  0.500004  0.999937  0.257551  1
  Pd  Pd16  1  0.257947  0.000004  0.500182  1
  Pd  Pd17  1  0.499998  0.999982  0.742306  1
  Pd  Pd18  1  0.742051  0.000002  0.500179  1
  Pd  Pd19  1  0.000003  0.500065  0.257894  1
  Pd  Pd20  1  0.000000  0.500096  0.741951  1
  Pd  Pd21  1  0.499999  0.499919  0.747901  1
  Pd  Pd22  1  0.000000  0.721258  0.999801  1
  Pd  Pd23  1  0.999999  0.999217  0.282008  1
  Pd  Pd24  1  0.999996  0.999198  0.718313  1
  Pt  Pt25  1  0.252115  0.499846  0.500121  1
  Pt  Pt26  1  0.747889  0.499851  0.500119  1
  Pt  Pt27  1  0.499997  0.252277  0.500091  1
  Pt  Pt28  1  0.499999  0.747887  0.500146  1
  Pt  Pt29  1  0.499999  0.499806  0.251875  1
  Pt  Pt30  1  0.280110  0.998557  0.999814  1
  Pt  Pt31  1  0.719893  0.998558  0.999805  1
  Pt  Pt32  1  0.999994  0.284210  0.999794  1
