# generated using pymatgen
data_Yb2Cd3O5
_symmetry_space_group_name_H-M   'P 1'
_cell_length_a   5.84291911
_cell_length_b   5.81020770
_cell_length_c   8.92576159
_cell_angle_alpha   108.97206408
_cell_angle_beta   70.69143065
_cell_angle_gamma   99.99402582
_symmetry_Int_Tables_number   1
_chemical_formula_structural   Yb2Cd3O5
_chemical_formula_sum   'Yb4 Cd6 O10'
_cell_volume   269.69625174
_cell_formula_units_Z   2
loop_
 _symmetry_equiv_pos_site_id
 _symmetry_equiv_pos_as_xyz
  1  'x, y, z'
loop_
 _atom_site_type_symbol
 _atom_site_label
 _atom_site_symmetry_multiplicity
 _atom_site_fract_x
 _atom_site_fract_y
 _atom_site_fract_z
 _atom_site_occupancy
  Yb  Yb0  1  0.000102  0.005836  0.997918  1
  Yb  Yb1  1  0.897937  0.497216  0.701148  1
  Yb  Yb2  1  0.500101  0.505837  0.497918  1
  Yb  Yb3  1  0.397936  0.997214  0.201149  1
  Cd  Cd4  1  0.699088  0.501583  0.099495  1
  Cd  Cd5  1  0.199089  0.001587  0.599497  1
  Cd  Cd6  1  0.095504  0.499445  0.298734  1
  Cd  Cd7  1  0.595505  0.999446  0.798734  1
  Cd  Cd8  1  0.302558  0.503616  0.900260  1
  Cd  Cd9  1  0.802558  0.003617  0.400260  1
  O  O10  1  0.949039  0.251494  0.849498  1
  O  O11  1  0.449039  0.751493  0.349497  1
  O  O12  1  0.346991  0.247339  0.050514  1
  O  O13  1  0.846991  0.747342  0.550515  1
  O  O14  1  0.051160  0.755695  0.148496  1
  O  O15  1  0.551160  0.255698  0.648497  1
  O  O16  1  0.243502  0.747163  0.748902  1
  O  O17  1  0.743502  0.247161  0.248901  1
  O  O18  1  0.654568  0.755803  0.950101  1
  O  O19  1  0.154569  0.255805  0.450101  1
