# generated using pymatgen
data_Y5Lu(AlCo3)2
_symmetry_space_group_name_H-M   'P 1'
_cell_length_a   5.42470677
_cell_length_b   5.42470608
_cell_length_c   12.97427700
_cell_angle_alpha   90.00000000
_cell_angle_beta   90.00000000
_cell_angle_gamma   136.44624573
_symmetry_Int_Tables_number   1
_chemical_formula_structural   Y5Lu(AlCo3)2
_chemical_formula_sum   'Y5 Lu1 Al2 Co6'
_cell_volume   263.07332230
_cell_formula_units_Z   1
loop_
 _symmetry_equiv_pos_site_id
 _symmetry_equiv_pos_as_xyz
  1  'x, y, z'
loop_
 _atom_site_type_symbol
 _atom_site_label
 _atom_site_symmetry_multiplicity
 _atom_site_fract_x
 _atom_site_fract_y
 _atom_site_fract_z
 _atom_site_occupancy
  Y  Y0  1  0.006014  0.993986  0.250000  1
  Y  Y1  1  0.706159  0.293841  0.606427  1
  Y  Y2  1  0.292708  0.707292  0.396140  1
  Y  Y3  1  0.292708  0.707292  0.103860  1
  Y  Y4  1  0.706159  0.293841  0.893573  1
  Lu  Lu5  1  0.991539  0.008461  0.750000  1
  Al  Al6  1  0.999874  0.000126  0.998773  1
  Al  Al7  1  0.999874  0.000126  0.501227  1
  Co  Co8  1  0.702851  0.297149  0.250000  1
  Co  Co9  1  0.298237  0.701763  0.750000  1
  Co  Co10  1  0.419461  0.580539  0.596487  1
  Co  Co11  1  0.582478  0.417522  0.407187  1
  Co  Co12  1  0.582478  0.417522  0.092813  1
  Co  Co13  1  0.419461  0.580539  0.903513  1
