# generated using pymatgen
data_Y2(ZnCu)5
_symmetry_space_group_name_H-M   'P 1'
_cell_length_a   4.18959300
_cell_length_b   5.15575700
_cell_length_c   8.85705400
_cell_angle_alpha   90.00000000
_cell_angle_beta   90.00000000
_cell_angle_gamma   90.00000000
_symmetry_Int_Tables_number   1
_chemical_formula_structural   Y2(ZnCu)5
_chemical_formula_sum   'Y2 Zn5 Cu5'
_cell_volume   191.31700251
_cell_formula_units_Z   1
loop_
 _symmetry_equiv_pos_site_id
 _symmetry_equiv_pos_as_xyz
  1  'x, y, z'
loop_
 _atom_site_type_symbol
 _atom_site_label
 _atom_site_symmetry_multiplicity
 _atom_site_fract_x
 _atom_site_fract_y
 _atom_site_fract_z
 _atom_site_occupancy
  Y  Y0  1  0.000000  0.000014  0.000000  1
  Y  Y1  1  0.000000  0.499960  0.500000  1
  Zn  Zn2  1  0.500000  0.499988  0.000000  1
  Zn  Zn3  1  0.500000  0.249479  0.254259  1
  Zn  Zn4  1  0.500000  0.750495  0.745742  1
  Zn  Zn5  1  0.500000  0.750495  0.254258  1
  Zn  Zn6  1  0.500000  0.249479  0.745741  1
  Cu  Cu7  1  0.000000  0.999956  0.337066  1
  Cu  Cu8  1  0.000000  0.499998  0.835656  1
  Cu  Cu9  1  0.000000  0.499998  0.164344  1
  Cu  Cu10  1  0.000000  0.999956  0.662934  1
  Cu  Cu11  1  0.500000  0.999981  0.500000  1
