# generated using pymatgen
data_PrBeCo4P3
_symmetry_space_group_name_H-M   'P 1'
_cell_length_a   5.99461021
_cell_length_b   5.99460995
_cell_length_c   11.20898900
_cell_angle_alpha   90.00000000
_cell_angle_beta   90.00000000
_cell_angle_gamma   144.95135557
_symmetry_Int_Tables_number   1
_chemical_formula_structural   PrBeCo4P3
_chemical_formula_sum   'Pr2 Be2 Co8 P6'
_cell_volume   231.31603163
_cell_formula_units_Z   2
loop_
 _symmetry_equiv_pos_site_id
 _symmetry_equiv_pos_as_xyz
  1  'x, y, z'
loop_
 _atom_site_type_symbol
 _atom_site_label
 _atom_site_symmetry_multiplicity
 _atom_site_fract_x
 _atom_site_fract_y
 _atom_site_fract_z
 _atom_site_occupancy
  Pr  Pr0  1  0.329677  0.670323  0.250000  1
  Pr  Pr1  1  0.670323  0.329677  0.750000  1
  Be  Be2  1  0.500000  0.500000  0.500000  1
  Be  Be3  1  0.500000  0.500000  0.000000  1
  Co  Co4  1  0.046086  0.953914  0.138489  1
  Co  Co5  1  0.046086  0.953914  0.361511  1
  Co  Co6  1  0.687884  0.312116  0.439098  1
  Co  Co7  1  0.312116  0.687884  0.560902  1
  Co  Co8  1  0.312116  0.687884  0.939098  1
  Co  Co9  1  0.687884  0.312116  0.060902  1
  Co  Co10  1  0.953914  0.046086  0.638489  1
  Co  Co11  1  0.953914  0.046086  0.861511  1
  P  P12  1  0.605238  0.394762  0.250000  1
  P  P13  1  0.394762  0.605238  0.750000  1
  P  P14  1  0.123021  0.876979  0.541233  1
  P  P15  1  0.876979  0.123021  0.458767  1
  P  P16  1  0.876979  0.123021  0.041233  1
  P  P17  1  0.123021  0.876979  0.958767  1
