# generated using pymatgen
data_YbMnFe(Sb6Ru)2
_symmetry_space_group_name_H-M   'P 1'
_cell_length_a   8.09632119
_cell_length_b   8.09221559
_cell_length_c   8.08585779
_cell_angle_alpha   109.37183345
_cell_angle_beta   109.36281260
_cell_angle_gamma   109.29303231
_symmetry_Int_Tables_number   1
_chemical_formula_structural   YbMnFe(Sb6Ru)2
_chemical_formula_sum   'Yb1 Mn1 Fe1 Sb12 Ru2'
_cell_volume   409.74236235
_cell_formula_units_Z   1
loop_
 _symmetry_equiv_pos_site_id
 _symmetry_equiv_pos_as_xyz
  1  'x, y, z'
loop_
 _atom_site_type_symbol
 _atom_site_label
 _atom_site_symmetry_multiplicity
 _atom_site_fract_x
 _atom_site_fract_y
 _atom_site_fract_z
 _atom_site_occupancy
  Yb  Yb0  1  0.000000  0.000000  0.000000  1
  Mn  Mn1  1  0.000000  0.000000  0.500000  1
  Fe  Fe2  1  0.500000  0.500000  0.500000  1
  Sb  Sb3  1  0.832986  0.654308  0.504331  1
  Sb  Sb4  1  0.167014  0.345692  0.495669  1
  Sb  Sb5  1  0.157807  0.661565  0.818904  1
  Sb  Sb6  1  0.842193  0.338435  0.181096  1
  Sb  Sb7  1  0.659964  0.504652  0.833959  1
  Sb  Sb8  1  0.340036  0.495348  0.166041  1
  Sb  Sb9  1  0.656787  0.814223  0.153847  1
  Sb  Sb10  1  0.343213  0.185777  0.846153  1
  Sb  Sb11  1  0.505668  0.834416  0.660702  1
  Sb  Sb12  1  0.494332  0.165584  0.339298  1
  Sb  Sb13  1  0.185448  0.842233  0.338806  1
  Sb  Sb14  1  0.814552  0.157767  0.661194  1
  Ru  Ru15  1  0.500000  0.000000  0.000000  1
  Ru  Ru16  1  0.000000  0.500000  0.000000  1
