# generated using pymatgen
data_BaSc2SeS3
_symmetry_space_group_name_H-M   'P 1'
_cell_length_a   3.90154500
_cell_length_b   12.07777500
_cell_length_c   13.82324400
_cell_angle_alpha   90.00000000
_cell_angle_beta   90.00000000
_cell_angle_gamma   90.00000000
_symmetry_Int_Tables_number   1
_chemical_formula_structural   BaSc2SeS3
_chemical_formula_sum   'Ba4 Sc8 Se4 S12'
_cell_volume   651.37866411
_cell_formula_units_Z   4
loop_
 _symmetry_equiv_pos_site_id
 _symmetry_equiv_pos_as_xyz
  1  'x, y, z'
loop_
 _atom_site_type_symbol
 _atom_site_label
 _atom_site_symmetry_multiplicity
 _atom_site_fract_x
 _atom_site_fract_y
 _atom_site_fract_z
 _atom_site_occupancy
  Ba  Ba0  1  0.250000  0.760262  0.339818  1
  Ba  Ba1  1  0.250000  0.260262  0.160182  1
  Ba  Ba2  1  0.750000  0.239738  0.660182  1
  Ba  Ba3  1  0.750000  0.739738  0.839818  1
  Sc  Sc4  1  0.250000  0.443570  0.392778  1
  Sc  Sc5  1  0.250000  0.943570  0.107222  1
  Sc  Sc6  1  0.750000  0.556430  0.607222  1
  Sc  Sc7  1  0.750000  0.056430  0.892778  1
  Sc  Sc8  1  0.250000  0.429418  0.899335  1
  Sc  Sc9  1  0.250000  0.929418  0.600665  1
  Sc  Sc10  1  0.750000  0.570582  0.100665  1
  Sc  Sc11  1  0.750000  0.070582  0.399335  1
  Se  Se12  1  0.250000  0.207352  0.851090  1
  Se  Se13  1  0.250000  0.707352  0.648910  1
  Se  Se14  1  0.750000  0.792648  0.148910  1
  Se  Se15  1  0.750000  0.292648  0.351090  1
  S  S16  1  0.250000  0.117147  0.520169  1
  S  S17  1  0.250000  0.617147  0.979831  1
  S  S18  1  0.750000  0.882853  0.479831  1
  S  S19  1  0.750000  0.382853  0.020169  1
  S  S20  1  0.250000  0.523553  0.216483  1
  S  S21  1  0.250000  0.023553  0.283517  1
  S  S22  1  0.750000  0.476447  0.783517  1
  S  S23  1  0.750000  0.976447  0.716483  1
  S  S24  1  0.250000  0.419833  0.575086  1
  S  S25  1  0.250000  0.919833  0.924914  1
  S  S26  1  0.750000  0.580167  0.424914  1
  S  S27  1  0.750000  0.080167  0.075086  1
