# generated using pymatgen
data_Tl(AuO2)2
_symmetry_space_group_name_H-M   'P 1'
_cell_length_a   6.84399194
_cell_length_b   6.32298469
_cell_length_c   6.32298500
_cell_angle_alpha   90.00000000
_cell_angle_beta   117.51216837
_cell_angle_gamma   117.51216549
_symmetry_Int_Tables_number   1
_chemical_formula_structural   Tl(AuO2)2
_chemical_formula_sum   'Tl2 Au4 O8'
_cell_volume   207.16560536
_cell_formula_units_Z   2
loop_
 _symmetry_equiv_pos_site_id
 _symmetry_equiv_pos_as_xyz
  1  'x, y, z'
loop_
 _atom_site_type_symbol
 _atom_site_label
 _atom_site_symmetry_multiplicity
 _atom_site_fract_x
 _atom_site_fract_y
 _atom_site_fract_z
 _atom_site_occupancy
  Tl  Tl0  1  0.750001  0.875000  0.125000  1
  Tl  Tl1  1  0.250000  0.125000  0.875000  1
  Au  Au2  1  0.000000  0.499999  0.000000  1
  Au  Au3  1  0.000000  0.499999  0.499999  1
  Au  Au4  1  0.500000  0.000000  0.500001  1
  Au  Au5  1  0.500000  0.500001  0.500001  1
  O  O6  1  0.343596  0.518144  0.142359  1
  O  O7  1  0.156402  0.857640  0.174547  1
  O  O8  1  0.656403  0.174548  0.298763  1
  O  O9  1  0.156402  0.298763  0.481855  1
  O  O10  1  0.843597  0.701238  0.518144  1
  O  O11  1  0.343596  0.825453  0.701236  1
  O  O12  1  0.843597  0.142359  0.825452  1
  O  O13  1  0.656403  0.481855  0.857640  1
