# generated using pymatgen
data_NdCoNi4As3
_symmetry_space_group_name_H-M   'P 1'
_cell_length_a   3.91223400
_cell_length_b   10.84276800
_cell_length_c   12.37365800
_cell_angle_alpha   90.00000000
_cell_angle_beta   90.00000000
_cell_angle_gamma   90.00000000
_symmetry_Int_Tables_number   1
_chemical_formula_structural   NdCoNi4As3
_chemical_formula_sum   'Nd4 Co4 Ni16 As12'
_cell_volume   524.88371270
_cell_formula_units_Z   4
loop_
 _symmetry_equiv_pos_site_id
 _symmetry_equiv_pos_as_xyz
  1  'x, y, z'
loop_
 _atom_site_type_symbol
 _atom_site_label
 _atom_site_symmetry_multiplicity
 _atom_site_fract_x
 _atom_site_fract_y
 _atom_site_fract_z
 _atom_site_occupancy
  Nd  Nd0  1  0.250000  0.581559  0.701707  1
  Nd  Nd1  1  0.250000  0.918441  0.201707  1
  Nd  Nd2  1  0.750000  0.418441  0.298293  1
  Nd  Nd3  1  0.750000  0.081559  0.798293  1
  Co  Co4  1  0.250000  0.472634  0.932484  1
  Co  Co5  1  0.250000  0.027366  0.432484  1
  Co  Co6  1  0.750000  0.527366  0.067516  1
  Co  Co7  1  0.750000  0.972634  0.567516  1
  Ni  Ni8  1  0.250000  0.706627  0.993849  1
  Ni  Ni9  1  0.250000  0.793373  0.493849  1
  Ni  Ni10  1  0.750000  0.293373  0.006151  1
  Ni  Ni11  1  0.750000  0.206627  0.506151  1
  Ni  Ni12  1  0.250000  0.405163  0.489984  1
  Ni  Ni13  1  0.250000  0.094837  0.989984  1
  Ni  Ni14  1  0.750000  0.594837  0.510016  1
  Ni  Ni15  1  0.750000  0.905163  0.010016  1
  Ni  Ni16  1  0.250000  0.216059  0.179755  1
  Ni  Ni17  1  0.250000  0.283941  0.679755  1
  Ni  Ni18  1  0.750000  0.783941  0.820245  1
  Ni  Ni19  1  0.750000  0.716059  0.320245  1
  Ni  Ni20  1  0.250000  0.882919  0.696319  1
  Ni  Ni21  1  0.250000  0.617081  0.196319  1
  Ni  Ni22  1  0.750000  0.117081  0.303681  1
  Ni  Ni23  1  0.750000  0.382919  0.803681  1
  As  As24  1  0.250000  0.415992  0.111401  1
  As  As25  1  0.250000  0.084008  0.611401  1
  As  As26  1  0.750000  0.584008  0.888599  1
  As  As27  1  0.750000  0.915992  0.388599  1
  As  As28  1  0.250000  0.273988  0.872297  1
  As  As29  1  0.250000  0.226012  0.372297  1
  As  As30  1  0.750000  0.726012  0.127703  1
  As  As31  1  0.750000  0.773988  0.627703  1
  As  As32  1  0.250000  0.605714  0.394312  1
  As  As33  1  0.250000  0.894286  0.894312  1
  As  As34  1  0.750000  0.394286  0.605688  1
  As  As35  1  0.750000  0.105714  0.105688  1
