# generated using pymatgen
data_NdY2Pa(TcB6)2
_symmetry_space_group_name_H-M   'P 1'
_cell_length_a   3.73493800
_cell_length_b   9.22300287
_cell_length_c   11.61333202
_cell_angle_alpha   89.62436200
_cell_angle_beta   90.00000000
_cell_angle_gamma   90.00000000
_symmetry_Int_Tables_number   1
_chemical_formula_structural   NdY2Pa(TcB6)2
_chemical_formula_sum   'Nd2 Y4 Pa2 Tc4 B24'
_cell_volume   400.03984411
_cell_formula_units_Z   2
loop_
 _symmetry_equiv_pos_site_id
 _symmetry_equiv_pos_as_xyz
  1  'x, y, z'
loop_
 _atom_site_type_symbol
 _atom_site_label
 _atom_site_symmetry_multiplicity
 _atom_site_fract_x
 _atom_site_fract_y
 _atom_site_fract_z
 _atom_site_occupancy
  Nd  Nd0  1  0.000000  0.324087  0.413812  1
  Nd  Nd1  1  0.000000  0.675913  0.586188  1
  Y  Y2  1  0.000000  0.444810  0.126559  1
  Y  Y3  1  0.000000  0.555190  0.873441  1
  Y  Y4  1  0.000000  0.943830  0.371965  1
  Y  Y5  1  0.000000  0.056170  0.628035  1
  Pa  Pa6  1  0.000000  0.822863  0.086757  1
  Pa  Pa7  1  0.000000  0.177137  0.913243  1
  Tc  Tc8  1  0.000000  0.134250  0.173517  1
  Tc  Tc9  1  0.000000  0.865750  0.826483  1
  Tc  Tc10  1  0.000000  0.642895  0.315413  1
  Tc  Tc11  1  0.000000  0.357105  0.684587  1
  B  B12  1  0.500000  0.052908  0.066452  1
  B  B13  1  0.500000  0.947092  0.933549  1
  B  B14  1  0.500000  0.555409  0.429710  1
  B  B15  1  0.500000  0.444591  0.570289  1
  B  B16  1  0.500000  0.246649  0.079352  1
  B  B17  1  0.500000  0.753351  0.920648  1
  B  B18  1  0.500000  0.748723  0.416741  1
  B  B19  1  0.500000  0.251277  0.583259  1
  B  B20  1  0.500000  0.289836  0.231554  1
  B  B21  1  0.500000  0.710164  0.768446  1
  B  B22  1  0.500000  0.792905  0.264432  1
  B  B23  1  0.500000  0.207095  0.735568  1
  B  B24  1  0.500000  0.130217  0.312215  1
  B  B25  1  0.500000  0.869783  0.687785  1
  B  B26  1  0.500000  0.634038  0.184643  1
  B  B27  1  0.500000  0.365962  0.815357  1
  B  B28  1  0.500000  0.485093  0.285412  1
  B  B29  1  0.500000  0.514907  0.714588  1
  B  B30  1  0.500000  0.983066  0.211590  1
  B  B31  1  0.500000  0.016934  0.788410  1
  B  B32  1  0.500000  0.101637  0.471399  1
  B  B33  1  0.500000  0.898363  0.528601  1
  B  B34  1  0.500000  0.615458  0.031498  1
  B  B35  1  0.500000  0.384542  0.968502  1
