# generated using pymatgen
data_La3Dy(Ge2Pt)4
_symmetry_space_group_name_H-M   'P 1'
_cell_length_a   9.72630978
_cell_length_b   9.72631014
_cell_length_c   9.72631011
_cell_angle_alpha   153.39414076
_cell_angle_beta   125.63684255
_cell_angle_gamma   61.52637544
_symmetry_Int_Tables_number   1
_chemical_formula_structural   La3Dy(Ge2Pt)4
_chemical_formula_sum   'La3 Dy1 Ge8 Pt4'
_cell_volume   332.42719067
_cell_formula_units_Z   1
loop_
 _symmetry_equiv_pos_site_id
 _symmetry_equiv_pos_as_xyz
  1  'x, y, z'
loop_
 _atom_site_type_symbol
 _atom_site_label
 _atom_site_symmetry_multiplicity
 _atom_site_fract_x
 _atom_site_fract_y
 _atom_site_fract_z
 _atom_site_occupancy
  La  La0  1  0.296431  0.796431  0.500000  1
  La  La1  1  0.740777  0.000542  0.740235  1
  La  La2  1  0.260306  0.000542  0.259765  1
  Dy  Dy3  1  0.702261  0.202261  0.500000  1
  Ge  Ge4  1  0.927446  0.427446  0.500000  1
  Ge  Ge5  1  0.075175  0.575175  0.500000  1
  Ge  Ge6  1  0.576532  0.576532  0.000000  1
  Ge  Ge7  1  0.652137  0.798852  0.853284  1
  Ge  Ge8  1  0.425841  0.425841  0.000000  1
  Ge  Ge9  1  0.945568  0.798852  0.146716  1
  Ge  Ge10  1  0.353371  0.199265  0.154106  1
  Ge  Ge11  1  0.045159  0.199265  0.845894  1
  Pt  Pt12  1  0.605786  0.349336  0.256450  1
  Pt  Pt13  1  0.399712  0.650162  0.749551  1
  Pt  Pt14  1  0.092886  0.349336  0.743550  1
  Pt  Pt15  1  0.900611  0.650162  0.250449  1
