# generated using pymatgen
data_Hf2ZrCo8ReP6
_symmetry_space_group_name_H-M   'P 1'
_cell_length_a   11.91400745
_cell_length_b   11.92731232
_cell_length_c   3.65187200
_cell_angle_alpha   90.00000000
_cell_angle_beta   90.00000000
_cell_angle_gamma   120.03695317
_symmetry_Int_Tables_number   1
_chemical_formula_structural   Hf2ZrCo8ReP6
_chemical_formula_sum   'Hf4 Zr2 Co16 Re2 P12'
_cell_volume   449.24660187
_cell_formula_units_Z   2
loop_
 _symmetry_equiv_pos_site_id
 _symmetry_equiv_pos_as_xyz
  1  'x, y, z'
loop_
 _atom_site_type_symbol
 _atom_site_label
 _atom_site_symmetry_multiplicity
 _atom_site_fract_x
 _atom_site_fract_y
 _atom_site_fract_z
 _atom_site_occupancy
  Hf  Hf0  1  0.821473  0.820169  0.500000  1
  Hf  Hf1  1  0.000000  0.174441  0.500000  1
  Hf  Hf2  1  0.000000  0.556349  0.000000  1
  Hf  Hf3  1  0.178527  0.998697  0.500000  1
  Zr  Zr4  1  0.333722  0.667301  0.000000  1
  Zr  Zr5  1  0.666278  0.333577  0.000000  1
  Co  Co6  1  0.625806  0.821827  0.000000  1
  Co  Co7  1  0.374194  0.196020  0.000000  1
  Co  Co8  1  0.000000  0.722030  0.500000  1
  Co  Co9  1  0.280923  0.280522  0.500000  1
  Co  Co10  1  0.871441  0.351572  0.500000  1
  Co  Co11  1  0.719077  0.999599  0.500000  1
  Co  Co12  1  0.816439  0.627946  0.000000  1
  Co  Co13  1  0.183561  0.811506  0.000000  1
  Co  Co14  1  0.359566  0.876268  0.500000  1
  Co  Co15  1  0.128559  0.480130  0.500000  1
  Co  Co16  1  0.640434  0.516701  0.500000  1
  Co  Co17  1  0.000000  0.999894  0.000000  1
  Co  Co18  1  0.514800  0.644902  0.500000  1
  Co  Co19  1  0.485200  0.130102  0.500000  1
  Co  Co20  1  0.195222  0.370097  0.000000  1
  Co  Co21  1  0.804778  0.174875  0.000000  1
  Re  Re22  1  0.447603  0.448837  0.000000  1
  Re  Re23  1  0.552397  0.001234  0.000000  1
  P  P24  1  0.000000  0.345480  0.000000  1
  P  P25  1  0.825343  0.517386  0.500000  1
  P  P26  1  0.685246  0.165382  0.500000  1
  P  P27  1  0.176330  0.173811  0.000000  1
  P  P28  1  0.640686  0.645075  0.000000  1
  P  P29  1  0.823670  0.997480  0.000000  1
  P  P30  1  0.519246  0.834476  0.500000  1
  P  P31  1  0.174657  0.692042  0.500000  1
  P  P32  1  0.359314  0.004390  0.000000  1
  P  P33  1  0.480754  0.315232  0.500000  1
  P  P34  1  0.000000  0.824513  0.000000  1
  P  P35  1  0.314754  0.480136  0.500000  1
