# generated using pymatgen
data_DyHo2Tm13(InRh)4
_symmetry_space_group_name_H-M   'P 1'
_cell_length_a   9.55080803
_cell_length_b   9.54740970
_cell_length_c   9.55238803
_cell_angle_alpha   60.00629254
_cell_angle_beta   59.97098399
_cell_angle_gamma   59.99744064
_symmetry_Int_Tables_number   1
_chemical_formula_structural   DyHo2Tm13(InRh)4
_chemical_formula_sum   'Dy1 Ho2 Tm13 In4 Rh4'
_cell_volume   615.79980743
_cell_formula_units_Z   1
loop_
 _symmetry_equiv_pos_site_id
 _symmetry_equiv_pos_as_xyz
  1  'x, y, z'
loop_
 _atom_site_type_symbol
 _atom_site_label
 _atom_site_symmetry_multiplicity
 _atom_site_fract_x
 _atom_site_fract_y
 _atom_site_fract_z
 _atom_site_occupancy
  Dy  Dy0  1  0.061464  0.061464  0.438536  1
  Ho  Ho1  1  0.437796  0.062522  0.437675  1
  Ho  Ho2  1  0.062522  0.437796  0.062006  1
  Tm  Tm3  1  0.049603  0.648693  0.651049  1
  Tm  Tm4  1  0.438230  0.438230  0.061770  1
  Tm  Tm5  1  0.648693  0.049603  0.650656  1
  Tm  Tm6  1  0.189650  0.810818  0.188116  1
  Tm  Tm7  1  0.188688  0.188688  0.811312  1
  Tm  Tm8  1  0.811101  0.811101  0.188899  1
  Tm  Tm9  1  0.439142  0.060994  0.060551  1
  Tm  Tm10  1  0.811047  0.189516  0.187858  1
  Tm  Tm11  1  0.060994  0.439142  0.439313  1
  Tm  Tm12  1  0.810818  0.189650  0.811416  1
  Tm  Tm13  1  0.189516  0.811047  0.811579  1
  Tm  Tm14  1  0.650408  0.649955  0.047580  1
  Tm  Tm15  1  0.649955  0.650408  0.652059  1
  In  In16  1  0.416360  0.417536  0.416251  1
  In  In17  1  0.748227  0.417826  0.417203  1
  In  In18  1  0.417826  0.748227  0.416743  1
  In  In19  1  0.417536  0.416360  0.749852  1
  Rh  Rh20  1  0.858084  0.857144  0.427200  1
  Rh  Rh21  1  0.857144  0.858084  0.857574  1
  Rh  Rh22  1  0.427570  0.857624  0.857886  1
  Rh  Rh23  1  0.857624  0.427570  0.856920  1
