# generated using pymatgen
data_Na8Sr4V4AsP7O36
_symmetry_space_group_name_H-M   'P 1'
_cell_length_a   6.72136200
_cell_length_b   10.38060400
_cell_length_c   10.80425300
_cell_angle_alpha   90.00000000
_cell_angle_beta   90.00000000
_cell_angle_gamma   90.00000000
_symmetry_Int_Tables_number   1
_chemical_formula_structural   Na8Sr4V4AsP7O36
_chemical_formula_sum   'Na8 Sr4 V4 As1 P7 O36'
_cell_volume   753.83214989
_cell_formula_units_Z   1
loop_
 _symmetry_equiv_pos_site_id
 _symmetry_equiv_pos_as_xyz
  1  'x, y, z'
loop_
 _atom_site_type_symbol
 _atom_site_label
 _atom_site_symmetry_multiplicity
 _atom_site_fract_x
 _atom_site_fract_y
 _atom_site_fract_z
 _atom_site_occupancy
  Na  Na0  1  0.002849  0.363280  0.779387  1
  Na  Na1  1  0.002176  0.133019  0.284614  1
  Na  Na2  1  0.497824  0.133019  0.284614  1
  Na  Na3  1  0.497151  0.363280  0.779387  1
  Na  Na4  1  0.497907  0.641305  0.220787  1
  Na  Na5  1  0.000595  0.863753  0.717552  1
  Na  Na6  1  0.002093  0.641305  0.220787  1
  Na  Na7  1  0.499405  0.863753  0.717552  1
  Sr  Sr8  1  0.750000  0.091055  0.938298  1
  Sr  Sr9  1  0.250000  0.595209  0.557659  1
  Sr  Sr10  1  0.750000  0.404965  0.445442  1
  Sr  Sr11  1  0.250000  0.905795  0.057391  1
  V  V12  1  0.250000  0.187753  0.528185  1
  V  V13  1  0.750000  0.691766  0.971566  1
  V  V14  1  0.250000  0.307037  0.026715  1
  V  V15  1  0.750000  0.812976  0.472052  1
  As  As16  1  0.750000  0.368282  0.089321  1
  P  P17  1  0.250000  0.414720  0.315333  1
  P  P18  1  0.750000  0.130890  0.585987  1
  P  P19  1  0.250000  0.083085  0.814640  1
  P  P20  1  0.750000  0.585665  0.685190  1
  P  P21  1  0.750000  0.917993  0.183860  1
  P  P22  1  0.250000  0.868541  0.414443  1
  P  P23  1  0.250000  0.632754  0.912748  1
  O  O24  1  0.750000  0.532254  0.102066  1
  O  O25  1  0.750000  0.570940  0.828863  1
  O  O26  1  0.250000  0.804358  0.285179  1
  O  O27  1  0.933178  0.515449  0.632657  1
  O  O28  1  0.066565  0.485321  0.367305  1
  O  O29  1  0.750000  0.730310  0.647514  1
  O  O30  1  0.946320  0.311890  0.998570  1
  O  O31  1  0.566464  0.987488  0.131411  1
  O  O32  1  0.065409  0.818865  0.492252  1
  O  O33  1  0.434591  0.818865  0.492252  1
  O  O34  1  0.553680  0.311890  0.998570  1
  O  O35  1  0.934941  0.180302  0.508295  1
  O  O36  1  0.750000  0.981794  0.594817  1
  O  O37  1  0.250000  0.327529  0.603648  1
  O  O38  1  0.250000  0.228011  0.850801  1
  O  O39  1  0.250000  0.427825  0.171465  1
  O  O40  1  0.250000  0.067609  0.671112  1
  O  O41  1  0.250000  0.270004  0.353545  1
  O  O42  1  0.434408  0.683341  0.990983  1
  O  O43  1  0.750000  0.932119  0.327707  1
  O  O44  1  0.065592  0.683341  0.990983  1
  O  O45  1  0.067393  0.012994  0.867421  1
  O  O46  1  0.250000  0.483948  0.904072  1
  O  O47  1  0.432607  0.012994  0.867421  1
  O  O48  1  0.750000  0.673365  0.396659  1
  O  O49  1  0.250000  0.697330  0.783437  1
  O  O50  1  0.750000  0.292847  0.229798  1
  O  O51  1  0.933536  0.987488  0.131411  1
  O  O52  1  0.750000  0.773468  0.146659  1
  O  O53  1  0.750000  0.195633  0.714880  1
  O  O54  1  0.750000  0.830864  0.894929  1
  O  O55  1  0.250000  0.017567  0.405715  1
  O  O56  1  0.433435  0.485321  0.367305  1
  O  O57  1  0.566822  0.515449  0.632657  1
  O  O58  1  0.250000  0.169725  0.105834  1
  O  O59  1  0.565059  0.180302  0.508295  1
