# generated using pymatgen
data_Li2NiPb3O8
_symmetry_space_group_name_H-M   'P 1'
_cell_length_a   6.32909447
_cell_length_b   6.32909367
_cell_length_c   6.32909516
_cell_angle_alpha   62.85327356
_cell_angle_beta   62.85328247
_cell_angle_gamma   62.85327137
_symmetry_Int_Tables_number   1
_chemical_formula_structural   Li2NiPb3O8
_chemical_formula_sum   'Li2 Ni1 Pb3 O8'
_cell_volume   190.63949413
_cell_formula_units_Z   1
loop_
 _symmetry_equiv_pos_site_id
 _symmetry_equiv_pos_as_xyz
  1  'x, y, z'
loop_
 _atom_site_type_symbol
 _atom_site_label
 _atom_site_symmetry_multiplicity
 _atom_site_fract_x
 _atom_site_fract_y
 _atom_site_fract_z
 _atom_site_occupancy
  Li  Li0  1  0.120643  0.120643  0.120643  1
  Li  Li1  1  0.879357  0.879357  0.879357  1
  Ni  Ni2  1  0.500000  0.500000  0.500000  1
  Pb  Pb3  1  0.500000  0.000000  0.500000  1
  Pb  Pb4  1  0.000000  0.500000  0.500000  1
  Pb  Pb5  1  0.500000  0.500000  0.000000  1
  O  O6  1  0.252906  0.252906  0.252906  1
  O  O7  1  0.265565  0.265565  0.716162  1
  O  O8  1  0.716162  0.265565  0.265565  1
  O  O9  1  0.265565  0.716162  0.265565  1
  O  O10  1  0.734435  0.283838  0.734435  1
  O  O11  1  0.283838  0.734435  0.734435  1
  O  O12  1  0.734435  0.734435  0.283838  1
  O  O13  1  0.747094  0.747094  0.747094  1
