# generated using pymatgen
data_ScZn3P6N13
_symmetry_space_group_name_H-M   'P 1'
_cell_length_a   7.04051249
_cell_length_b   7.06376307
_cell_length_c   7.04051280
_cell_angle_alpha   109.53811359
_cell_angle_beta   109.40421838
_cell_angle_gamma   109.53813859
_symmetry_Int_Tables_number   1
_chemical_formula_structural   ScZn3P6N13
_chemical_formula_sum   'Sc1 Zn3 P6 N13'
_cell_volume   269.31690182
_cell_formula_units_Z   1
loop_
 _symmetry_equiv_pos_site_id
 _symmetry_equiv_pos_as_xyz
  1  'x, y, z'
loop_
 _atom_site_type_symbol
 _atom_site_label
 _atom_site_symmetry_multiplicity
 _atom_site_fract_x
 _atom_site_fract_y
 _atom_site_fract_z
 _atom_site_occupancy
  Sc  Sc0  1  0.000000  0.709610  0.000000  1
  Zn  Zn1  1  0.714422  0.004515  0.000000  1
  Zn  Zn2  1  0.000000  0.004515  0.714422  1
  Zn  Zn3  1  0.285578  0.290093  0.285578  1
  P  P4  1  0.496489  0.246065  0.747750  1
  P  P5  1  0.503511  0.749576  0.251261  1
  P  P6  1  0.748739  0.498316  0.252250  1
  P  P7  1  0.251261  0.749576  0.503511  1
  P  P8  1  0.747750  0.246065  0.496489  1
  P  P9  1  0.252250  0.498316  0.748739  1
  N  N10  1  0.000000  0.735600  0.452715  1
  N  N11  1  0.278273  0.542627  0.542923  1
  N  N12  1  0.729364  0.454319  0.000000  1
  N  N13  1  0.270636  0.724956  0.270636  1
  N  N14  1  0.457077  0.999704  0.735351  1
  N  N15  1  0.721727  0.264353  0.264649  1
  N  N16  1  0.547285  0.282884  0.547285  1
  N  N17  1  0.735351  0.999704  0.457077  1
  N  N18  1  0.264649  0.264353  0.721727  1
  N  N19  1  0.452715  0.735600  0.000000  1
  N  N20  1  0.542923  0.542627  0.278273  1
  N  N21  1  0.000000  0.454319  0.729364  1
  N  N22  1  0.000000  0.002305  0.000000  1
