# generated using pymatgen
data_Nb6Zn3AuN2
_symmetry_space_group_name_H-M   'P 1'
_cell_length_a   7.07194174
_cell_length_b   7.07232500
_cell_length_c   7.06727370
_cell_angle_alpha   90.00000000
_cell_angle_beta   89.77108631
_cell_angle_gamma   90.00000000
_symmetry_Int_Tables_number   1
_chemical_formula_structural   Nb6Zn3AuN2
_chemical_formula_sum   'Nb12 Zn6 Au2 N4'
_cell_volume   353.46737021
_cell_formula_units_Z   2
loop_
 _symmetry_equiv_pos_site_id
 _symmetry_equiv_pos_as_xyz
  1  'x, y, z'
loop_
 _atom_site_type_symbol
 _atom_site_label
 _atom_site_symmetry_multiplicity
 _atom_site_fract_x
 _atom_site_fract_y
 _atom_site_fract_z
 _atom_site_occupancy
  Nb  Nb0  1  0.792268  0.960708  0.376048  1
  Nb  Nb1  1  0.706813  0.039586  0.871211  1
  Nb  Nb2  1  0.207732  0.460708  0.123952  1
  Nb  Nb3  1  0.293187  0.539586  0.628789  1
  Nb  Nb4  1  0.960927  0.372389  0.794152  1
  Nb  Nb5  1  0.039073  0.872389  0.705848  1
  Nb  Nb6  1  0.459785  0.124448  0.209508  1
  Nb  Nb7  1  0.540215  0.624448  0.290492  1
  Nb  Nb8  1  0.374717  0.792423  0.959434  1
  Nb  Nb9  1  0.872219  0.707483  0.038488  1
  Nb  Nb10  1  0.127781  0.207483  0.461512  1
  Nb  Nb11  1  0.625283  0.292423  0.540566  1
  Zn  Zn12  1  0.185836  0.822007  0.325333  1
  Zn  Zn13  1  0.327114  0.179969  0.817955  1
  Zn  Zn14  1  0.814164  0.322007  0.174667  1
  Zn  Zn15  1  0.672886  0.679969  0.682045  1
  Zn  Zn16  1  0.571371  0.428344  0.927569  1
  Zn  Zn17  1  0.428629  0.928344  0.572431  1
  Au  Au18  1  0.929147  0.570606  0.428971  1
  Au  Au19  1  0.070853  0.070606  0.071029  1
  N  N20  1  0.876837  0.125985  0.624564  1
  N  N21  1  0.626419  0.876051  0.125616  1
  N  N22  1  0.123163  0.625985  0.875436  1
  N  N23  1  0.373581  0.376051  0.374384  1
