# generated using pymatgen
data_NaTi2CrSe6
_symmetry_space_group_name_H-M   'P 1'
_cell_length_a   8.41267133
_cell_length_b   8.41267043
_cell_length_c   8.41266999
_cell_angle_alpha   42.58120089
_cell_angle_beta   42.58120633
_cell_angle_gamma   42.58121239
_symmetry_Int_Tables_number   1
_chemical_formula_structural   NaTi2CrSe6
_chemical_formula_sum   'Na1 Ti2 Cr1 Se6'
_cell_volume   246.86564585
_cell_formula_units_Z   1
loop_
 _symmetry_equiv_pos_site_id
 _symmetry_equiv_pos_as_xyz
  1  'x, y, z'
loop_
 _atom_site_type_symbol
 _atom_site_label
 _atom_site_symmetry_multiplicity
 _atom_site_fract_x
 _atom_site_fract_y
 _atom_site_fract_z
 _atom_site_occupancy
  Na  Na0  1  0.998979  0.998979  0.998979  1
  Ti  Ti1  1  0.500264  0.500264  0.500264  1
  Ti  Ti2  1  0.833606  0.833606  0.833606  1
  Cr  Cr3  1  0.166752  0.166752  0.166752  1
  Se  Se4  1  0.560055  0.235999  0.906182  1
  Se  Se5  1  0.906182  0.560055  0.235999  1
  Se  Se6  1  0.235999  0.906182  0.560055  1
  Se  Se7  1  0.769325  0.099310  0.429529  1
  Se  Se8  1  0.099310  0.429529  0.769325  1
  Se  Se9  1  0.429529  0.769325  0.099310  1
