# generated using pymatgen
data_Ca2PrSm(Ru2O7)2
_symmetry_space_group_name_H-M   'P 1'
_cell_length_a   7.33497527
_cell_length_b   7.32892053
_cell_length_c   7.29600700
_cell_angle_alpha   60.14843374
_cell_angle_beta   60.17557298
_cell_angle_gamma   60.43291133
_symmetry_Int_Tables_number   1
_chemical_formula_structural   Ca2PrSm(Ru2O7)2
_chemical_formula_sum   'Ca2 Pr1 Sm1 Ru4 O14'
_cell_volume   278.91747838
_cell_formula_units_Z   1
loop_
 _symmetry_equiv_pos_site_id
 _symmetry_equiv_pos_as_xyz
  1  'x, y, z'
loop_
 _atom_site_type_symbol
 _atom_site_label
 _atom_site_symmetry_multiplicity
 _atom_site_fract_x
 _atom_site_fract_y
 _atom_site_fract_z
 _atom_site_occupancy
  Ca  Ca0  1  0.625000  0.625000  0.625000  1
  Ca  Ca1  1  0.625000  0.625000  0.125000  1
  Pr  Pr2  1  0.625000  0.125000  0.625000  1
  Sm  Sm3  1  0.125000  0.625000  0.625000  1
  Ru  Ru4  1  0.125000  0.125000  0.125000  1
  Ru  Ru5  1  0.625000  0.125000  0.125000  1
  Ru  Ru6  1  0.125000  0.125000  0.625000  1
  Ru  Ru7  1  0.125000  0.625000  0.125000  1
  O  O8  1  0.496518  0.507360  0.498061  1
  O  O9  1  0.753482  0.742640  0.751939  1
  O  O10  1  0.049170  0.044122  0.453354  1
  O  O11  1  0.808047  0.808410  0.191772  1
  O  O12  1  0.447296  0.051594  0.449288  1
  O  O13  1  0.447296  0.051594  0.051822  1
  O  O14  1  0.053789  0.447628  0.449099  1
  O  O15  1  0.053789  0.447628  0.049484  1
  O  O16  1  0.441953  0.441590  0.058228  1
  O  O17  1  0.196211  0.802372  0.800901  1
  O  O18  1  0.802704  0.198406  0.198178  1
  O  O19  1  0.200830  0.205878  0.796646  1
  O  O20  1  0.196211  0.802372  0.200516  1
  O  O21  1  0.802704  0.198406  0.800712  1
