# generated using pymatgen
data_Y4Al15(ZnPt2)3
_symmetry_space_group_name_H-M   'P 1'
_cell_length_a   7.56820100
_cell_length_b   7.57525286
_cell_length_c   9.50639900
_cell_angle_alpha   90.00000000
_cell_angle_beta   90.00000000
_cell_angle_gamma   119.34236981
_symmetry_Int_Tables_number   1
_chemical_formula_structural   Y4Al15(ZnPt2)3
_chemical_formula_sum   'Y4 Al15 Zn3 Pt6'
_cell_volume   475.09059500
_cell_formula_units_Z   1
loop_
 _symmetry_equiv_pos_site_id
 _symmetry_equiv_pos_as_xyz
  1  'x, y, z'
loop_
 _atom_site_type_symbol
 _atom_site_label
 _atom_site_symmetry_multiplicity
 _atom_site_fract_x
 _atom_site_fract_y
 _atom_site_fract_z
 _atom_site_occupancy
  Y  Y0  1  0.996237  0.673387  0.250000  1
  Y  Y1  1  0.004904  0.327091  0.750000  1
  Y  Y2  1  0.671905  0.994048  0.250000  1
  Y  Y3  1  0.326625  0.004400  0.750000  1
  Al  Al4  1  0.005658  0.335804  0.081117  1
  Al  Al5  1  0.996972  0.666732  0.922011  1
  Al  Al6  1  0.996972  0.666732  0.577989  1
  Al  Al7  1  0.333092  0.001125  0.421102  1
  Al  Al8  1  0.005658  0.335804  0.418883  1
  Al  Al9  1  0.667581  0.998380  0.578334  1
  Al  Al10  1  0.667581  0.998380  0.921666  1
  Al  Al11  1  0.333092  0.001125  0.078898  1
  Al  Al12  1  0.332013  0.332362  0.554141  1
  Al  Al13  1  0.664107  0.666556  0.443039  1
  Al  Al14  1  0.664107  0.666556  0.056961  1
  Al  Al15  1  0.332013  0.332362  0.945859  1
  Al  Al16  1  0.660422  0.453760  0.750000  1
  Al  Al17  1  0.544471  0.341659  0.250000  1
  Al  Al18  1  0.455507  0.659858  0.750000  1
  Zn  Zn19  1  0.142135  0.141152  0.250000  1
  Zn  Zn20  1  0.860046  0.859316  0.750000  1
  Zn  Zn21  1  0.341994  0.542237  0.250000  1
  Pt  Pt22  1  0.672583  0.327004  0.999843  1
  Pt  Pt23  1  0.326467  0.674061  0.993841  1
  Pt  Pt24  1  0.326467  0.674061  0.506159  1
  Pt  Pt25  1  0.672583  0.327004  0.500157  1
  Pt  Pt26  1  0.999401  0.999526  0.000334  1
  Pt  Pt27  1  0.999401  0.999526  0.499666  1
