# generated using pymatgen
data_CsLiUS3
_symmetry_space_group_name_H-M   'P 1'
_cell_length_a   4.11127300
_cell_length_b   7.88021077
_cell_length_c   10.58081700
_cell_angle_alpha   90.00000000
_cell_angle_beta   90.00000000
_cell_angle_gamma   74.87886309
_symmetry_Int_Tables_number   1
_chemical_formula_structural   CsLiUS3
_chemical_formula_sum   'Cs2 Li2 U2 S6'
_cell_volume   330.92536672
_cell_formula_units_Z   2
loop_
 _symmetry_equiv_pos_site_id
 _symmetry_equiv_pos_as_xyz
  1  'x, y, z'
loop_
 _atom_site_type_symbol
 _atom_site_label
 _atom_site_symmetry_multiplicity
 _atom_site_fract_x
 _atom_site_fract_y
 _atom_site_fract_z
 _atom_site_occupancy
  Cs  Cs0  1  0.737574  0.524854  0.250000  1
  Cs  Cs1  1  0.262428  0.475146  0.750000  1
  Li  Li2  1  0.461214  0.077574  0.250000  1
  Li  Li3  1  0.538788  0.922426  0.750000  1
  U  U4  1  0.000000  0.000000  0.000000  1
  U  U5  1  0.000000  0.000000  0.500000  1
  S  S6  1  0.388271  0.223459  0.048135  1
  S  S7  1  0.043297  0.913406  0.250000  1
  S  S8  1  0.388271  0.223459  0.451865  1
  S  S9  1  0.611731  0.776541  0.548135  1
  S  S10  1  0.956704  0.086595  0.750000  1
  S  S11  1  0.611731  0.776541  0.951865  1
