# generated using pymatgen
data_U(CrB3)2
_symmetry_space_group_name_H-M   'P 1'
_cell_length_a   5.44906558
_cell_length_b   5.44906538
_cell_length_c   5.44906483
_cell_angle_alpha   147.73999189
_cell_angle_beta   108.18224280
_cell_angle_gamma   80.92801848
_symmetry_Int_Tables_number   1
_chemical_formula_structural   U(CrB3)2
_chemical_formula_sum   'U1 Cr2 B6'
_cell_volume   80.22889502
_cell_formula_units_Z   1
loop_
 _symmetry_equiv_pos_site_id
 _symmetry_equiv_pos_as_xyz
  1  'x, y, z'
loop_
 _atom_site_type_symbol
 _atom_site_label
 _atom_site_symmetry_multiplicity
 _atom_site_fract_x
 _atom_site_fract_y
 _atom_site_fract_z
 _atom_site_occupancy
  U  U0  1  0.000000  0.000000  0.000000  1
  Cr  Cr1  1  0.654696  0.154696  0.500000  1
  Cr  Cr2  1  0.345304  0.845304  0.500000  1
  B  B3  1  0.545810  0.305009  0.240800  1
  B  B4  1  0.454190  0.694991  0.759200  1
  B  B5  1  0.935791  0.694991  0.240800  1
  B  B6  1  0.353395  0.500000  0.853395  1
  B  B7  1  0.646605  0.500000  0.146605  1
  B  B8  1  0.064209  0.305009  0.759200  1
