# generated using pymatgen
data_Cs4MgZn5Te8
_symmetry_space_group_name_H-M   'P 1'
_cell_length_a   10.64437158
_cell_length_b   10.64695101
_cell_length_c   10.64437089
_cell_angle_alpha   144.11899838
_cell_angle_beta   105.34762039
_cell_angle_gamma   85.69367802
_symmetry_Int_Tables_number   1
_chemical_formula_structural   Cs4MgZn5Te8
_chemical_formula_sum   'Cs4 Mg1 Zn5 Te8'
_cell_volume   660.76810335
_cell_formula_units_Z   1
loop_
 _symmetry_equiv_pos_site_id
 _symmetry_equiv_pos_as_xyz
  1  'x, y, z'
loop_
 _atom_site_type_symbol
 _atom_site_label
 _atom_site_symmetry_multiplicity
 _atom_site_fract_x
 _atom_site_fract_y
 _atom_site_fract_z
 _atom_site_occupancy
  Cs  Cs0  1  0.123975  0.234895  0.357709  1
  Cs  Cs1  1  0.377765  0.734253  0.110201  1
  Cs  Cs2  1  0.622812  0.265105  0.889080  1
  Cs  Cs3  1  0.875948  0.765747  0.643512  1
  Mg  Mg4  1  0.015211  0.250000  0.765211  1
  Zn  Zn5  1  0.519415  0.750000  0.769415  1
  Zn  Zn6  1  0.983037  0.750000  0.233037  1
  Zn  Zn7  1  0.482083  0.250000  0.232083  1
  Zn  Zn8  1  0.750907  0.250000  0.500907  1
  Zn  Zn9  1  0.251631  0.750000  0.501631  1
  Te  Te10  1  0.221861  0.066192  0.585719  1
  Te  Te11  1  0.284656  0.878083  0.857531  1
  Te  Te12  1  0.019527  0.433808  0.155670  1
  Te  Te13  1  0.479447  0.621917  0.406572  1
  Te  Te14  1  0.776587  0.915044  0.391801  1
  Te  Te15  1  0.716639  0.122941  0.144681  1
  Te  Te16  1  0.976757  0.584956  0.861542  1
  Te  Te17  1  0.521739  0.377059  0.593698  1
