# generated using pymatgen
data_Tb6YbTm13Pt16
_symmetry_space_group_name_H-M   'P 1'
_cell_length_a   7.40713516
_cell_length_b   7.50617294
_cell_length_c   14.70582595
_cell_angle_alpha   89.93494125
_cell_angle_beta   90.13635158
_cell_angle_gamma   89.95802306
_symmetry_Int_Tables_number   1
_chemical_formula_structural   Tb6YbTm13Pt16
_chemical_formula_sum   'Tb6 Yb1 Tm13 Pt16'
_cell_volume   817.62964564
_cell_formula_units_Z   1
loop_
 _symmetry_equiv_pos_site_id
 _symmetry_equiv_pos_as_xyz
  1  'x, y, z'
loop_
 _atom_site_type_symbol
 _atom_site_label
 _atom_site_symmetry_multiplicity
 _atom_site_fract_x
 _atom_site_fract_y
 _atom_site_fract_z
 _atom_site_occupancy
  Tb  Tb0  1  0.516889  0.324555  0.094357  1
  Tb  Tb1  1  0.019063  0.174534  0.403987  1
  Tb  Tb2  1  0.517933  0.327656  0.405028  1
  Tb  Tb3  1  0.017434  0.174203  0.095449  1
  Tb  Tb4  1  0.481904  0.674768  0.904654  1
  Tb  Tb5  1  0.980705  0.825079  0.595814  1
  Yb  Yb6  1  0.982777  0.824108  0.904587  1
  Tm  Tm7  1  0.636833  0.168846  0.621491  1
  Tm  Tm8  1  0.138381  0.332296  0.877816  1
  Tm  Tm9  1  0.361374  0.830892  0.121971  1
  Tm  Tm10  1  0.862315  0.668522  0.378262  1
  Tm  Tm11  1  0.363859  0.830395  0.379148  1
  Tm  Tm12  1  0.862158  0.669614  0.120137  1
  Tm  Tm13  1  0.639969  0.166664  0.877792  1
  Tm  Tm14  1  0.138545  0.331853  0.621180  1
  Tm  Tm15  1  0.480218  0.674641  0.597449  1
  Tm  Tm16  1  0.800900  0.510303  0.750050  1
  Tm  Tm17  1  0.298915  0.989497  0.750557  1
  Tm  Tm18  1  0.199014  0.490220  0.250044  1
  Tm  Tm19  1  0.699466  0.010313  0.250194  1
  Pt  Pt20  1  0.694782  0.971458  0.457834  1
  Pt  Pt21  1  0.194927  0.527314  0.042713  1
  Pt  Pt22  1  0.312797  0.034722  0.958250  1
  Pt  Pt23  1  0.802326  0.474218  0.543319  1
  Pt  Pt24  1  0.306940  0.025026  0.543807  1
  Pt  Pt25  1  0.803829  0.466409  0.957589  1
  Pt  Pt26  1  0.688941  0.971818  0.044639  1
  Pt  Pt27  1  0.194063  0.531237  0.458957  1
  Pt  Pt28  1  0.435024  0.379442  0.749841  1
  Pt  Pt29  1  0.932623  0.121310  0.748394  1
  Pt  Pt30  1  0.567129  0.620410  0.249862  1
  Pt  Pt31  1  0.067050  0.879176  0.249914  1
  Pt  Pt32  1  0.660517  0.859391  0.747794  1
  Pt  Pt33  1  0.166019  0.638290  0.747152  1
  Pt  Pt34  1  0.336984  0.140390  0.250404  1
  Pt  Pt35  1  0.837400  0.360433  0.249563  1
