# generated using pymatgen
data_Li7Ag(PPt3)4
_symmetry_space_group_name_H-M   'P 1'
_cell_length_a   7.19523702
_cell_length_b   7.19523702
_cell_length_c   7.19523702
_cell_angle_alpha   89.80399045
_cell_angle_beta   89.80399045
_cell_angle_gamma   89.80399045
_symmetry_Int_Tables_number   1
_chemical_formula_structural   Li7Ag(PPt3)4
_chemical_formula_sum   'Li7 Ag1 P4 Pt12'
_cell_volume   372.50122618
_cell_formula_units_Z   1
loop_
 _symmetry_equiv_pos_site_id
 _symmetry_equiv_pos_as_xyz
  1  'x, y, z'
loop_
 _atom_site_type_symbol
 _atom_site_label
 _atom_site_symmetry_multiplicity
 _atom_site_fract_x
 _atom_site_fract_y
 _atom_site_fract_z
 _atom_site_occupancy
  Li  Li0  1  0.041943  0.457590  0.541493  1
  Li  Li1  1  0.541493  0.041943  0.457590  1
  Li  Li2  1  0.457590  0.541493  0.041943  1
  Li  Li3  1  0.208070  0.708523  0.792250  1
  Li  Li4  1  0.958032  0.958032  0.958032  1
  Li  Li5  1  0.792250  0.208070  0.708523  1
  Li  Li6  1  0.708523  0.792250  0.208070  1
  Ag  Ag7  1  0.291368  0.291368  0.291368  1
  P  P8  1  0.872366  0.375781  0.123076  1
  P  P9  1  0.375781  0.123076  0.872366  1
  P  P10  1  0.625472  0.625472  0.625472  1
  P  P11  1  0.123076  0.872366  0.375781  1
  Pt  Pt12  1  0.169347  0.077358  0.626752  1
  Pt  Pt13  1  0.422029  0.376285  0.673297  1
  Pt  Pt14  1  0.077358  0.626752  0.169347  1
  Pt  Pt15  1  0.921138  0.125090  0.328757  1
  Pt  Pt16  1  0.328757  0.921138  0.125090  1
  Pt  Pt17  1  0.673297  0.422029  0.376285  1
  Pt  Pt18  1  0.579854  0.874296  0.829835  1
  Pt  Pt19  1  0.626752  0.169347  0.077358  1
  Pt  Pt20  1  0.376285  0.673297  0.422029  1
  Pt  Pt21  1  0.874296  0.829835  0.579854  1
  Pt  Pt22  1  0.125090  0.328757  0.921138  1
  Pt  Pt23  1  0.829835  0.579854  0.874296  1
