# generated using pymatgen
data_Ce3(CoSi)2
_symmetry_space_group_name_H-M   'P 1'
_cell_length_a   5.51980300
_cell_length_b   7.94228600
_cell_length_c   12.19997500
_cell_angle_alpha   90.00000000
_cell_angle_beta   90.00000000
_cell_angle_gamma   90.00000000
_symmetry_Int_Tables_number   1
_chemical_formula_structural   Ce3(CoSi)2
_chemical_formula_sum   'Ce12 Co8 Si8'
_cell_volume   534.84512390
_cell_formula_units_Z   4
loop_
 _symmetry_equiv_pos_site_id
 _symmetry_equiv_pos_as_xyz
  1  'x, y, z'
loop_
 _atom_site_type_symbol
 _atom_site_label
 _atom_site_symmetry_multiplicity
 _atom_site_fract_x
 _atom_site_fract_y
 _atom_site_fract_z
 _atom_site_occupancy
  Ce  Ce0  1  0.346998  0.746324  0.750000  1
  Ce  Ce1  1  0.346998  0.753676  0.250000  1
  Ce  Ce2  1  0.653002  0.246324  0.750000  1
  Ce  Ce3  1  0.653002  0.253676  0.250000  1
  Ce  Ce4  1  0.164633  0.401351  0.407486  1
  Ce  Ce5  1  0.164633  0.098649  0.592514  1
  Ce  Ce6  1  0.835367  0.901351  0.092514  1
  Ce  Ce7  1  0.835367  0.598649  0.907486  1
  Ce  Ce8  1  0.835367  0.598649  0.592514  1
  Ce  Ce9  1  0.835367  0.901351  0.407486  1
  Ce  Ce10  1  0.164633  0.098649  0.907486  1
  Ce  Ce11  1  0.164633  0.401351  0.092514  1
  Co  Co12  1  0.380137  0.039930  0.412206  1
  Co  Co13  1  0.380137  0.460070  0.587794  1
  Co  Co14  1  0.619863  0.539930  0.087794  1
  Co  Co15  1  0.619863  0.960070  0.912206  1
  Co  Co16  1  0.380137  0.039930  0.087794  1
  Co  Co17  1  0.380137  0.460070  0.912206  1
  Co  Co18  1  0.619863  0.539930  0.412206  1
  Co  Co19  1  0.619863  0.960070  0.587794  1
  Si  Si20  1  0.648385  0.250000  0.500000  1
  Si  Si21  1  0.351615  0.750000  0.000000  1
  Si  Si22  1  0.351615  0.750000  0.500000  1
  Si  Si23  1  0.648385  0.250000  0.000000  1
  Si  Si24  1  0.843219  0.896529  0.750000  1
  Si  Si25  1  0.843219  0.603471  0.250000  1
  Si  Si26  1  0.156781  0.396529  0.750000  1
  Si  Si27  1  0.156781  0.103471  0.250000  1
