# generated using pymatgen
data_HoSb3Pb4O13
_symmetry_space_group_name_H-M   'P 1'
_cell_length_a   7.67410666
_cell_length_b   7.67410691
_cell_length_c   7.67410585
_cell_angle_alpha   59.71587360
_cell_angle_beta   59.71587360
_cell_angle_gamma   59.71586844
_symmetry_Int_Tables_number   1
_chemical_formula_structural   HoSb3Pb4O13
_chemical_formula_sum   'Ho1 Sb3 Pb4 O13'
_cell_volume   317.50951537
_cell_formula_units_Z   1
loop_
 _symmetry_equiv_pos_site_id
 _symmetry_equiv_pos_as_xyz
  1  'x, y, z'
loop_
 _atom_site_type_symbol
 _atom_site_label
 _atom_site_symmetry_multiplicity
 _atom_site_fract_x
 _atom_site_fract_y
 _atom_site_fract_z
 _atom_site_occupancy
  Ho  Ho0  1  0.500027  0.500027  0.500027  1
  Sb  Sb1  1  0.001164  0.500016  0.500016  1
  Sb  Sb2  1  0.500016  0.500016  0.001164  1
  Sb  Sb3  1  0.500016  0.001164  0.500016  1
  Pb  Pb4  1  0.998727  0.998727  0.998727  1
  Pb  Pb5  1  0.498133  0.001976  0.001976  1
  Pb  Pb6  1  0.001976  0.001976  0.498133  1
  Pb  Pb7  1  0.001976  0.498133  0.001976  1
  O  O8  1  0.853140  0.417606  0.417606  1
  O  O9  1  0.419916  0.816373  0.816373  1
  O  O10  1  0.417606  0.417606  0.853140  1
  O  O11  1  0.816373  0.816373  0.419916  1
  O  O12  1  0.816373  0.419916  0.816373  1
  O  O13  1  0.417606  0.853140  0.417606  1
  O  O14  1  0.151869  0.579503  0.579503  1
  O  O15  1  0.579765  0.184876  0.184876  1
  O  O16  1  0.579503  0.579503  0.151869  1
  O  O17  1  0.184876  0.184876  0.579765  1
  O  O18  1  0.184876  0.579765  0.184876  1
  O  O19  1  0.579503  0.151869  0.579503  1
  O  O20  1  0.121557  0.121557  0.121557  1
