# generated using pymatgen
data_Ho2CoP4Ir5
_symmetry_space_group_name_H-M   'P 1'
_cell_length_a   3.89977300
_cell_length_b   11.04414096
_cell_length_c   12.73940837
_cell_angle_alpha   89.65249813
_cell_angle_beta   90.00000000
_cell_angle_gamma   90.00000000
_symmetry_Int_Tables_number   1
_chemical_formula_structural   Ho2CoP4Ir5
_chemical_formula_sum   'Ho6 Co3 P12 Ir15'
_cell_volume   548.67167555
_cell_formula_units_Z   3
loop_
 _symmetry_equiv_pos_site_id
 _symmetry_equiv_pos_as_xyz
  1  'x, y, z'
loop_
 _atom_site_type_symbol
 _atom_site_label
 _atom_site_symmetry_multiplicity
 _atom_site_fract_x
 _atom_site_fract_y
 _atom_site_fract_z
 _atom_site_occupancy
  Ho  Ho0  1  0.000000  0.498973  0.522542  1
  Ho  Ho1  1  0.500000  0.999873  0.477312  1
  Ho  Ho2  1  0.500000  0.817583  0.199982  1
  Ho  Ho3  1  0.500000  0.181688  0.200034  1
  Ho  Ho4  1  0.000000  0.687213  0.800611  1
  Ho  Ho5  1  0.000000  0.318191  0.799755  1
  Co  Co6  1  0.000000  0.504466  0.980744  1
  Co  Co7  1  0.500000  0.996589  0.020765  1
  Co  Co8  1  0.000000  0.838754  0.007152  1
  P  P9  1  0.500000  0.314617  0.620333  1
  P  P10  1  0.500000  0.682494  0.618705  1
  P  P11  1  0.000000  0.183499  0.380238  1
  P  P12  1  0.000000  0.815925  0.379929  1
  P  P13  1  0.500000  0.503079  0.881736  1
  P  P14  1  0.000000  0.992561  0.116193  1
  P  P15  1  0.500000  0.854382  0.899401  1
  P  P16  1  0.500000  0.151609  0.896897  1
  P  P17  1  0.000000  0.658536  0.101241  1
  P  P18  1  0.000000  0.351253  0.103921  1
  P  P19  1  0.500000  0.500054  0.356558  1
  P  P20  1  0.000000  0.999584  0.643940  1
  Ir  Ir21  1  0.500000  0.292879  0.429347  1
  Ir  Ir22  1  0.500000  0.705197  0.428871  1
  Ir  Ir23  1  0.000000  0.205875  0.571682  1
  Ir  Ir24  1  0.000000  0.793762  0.569105  1
  Ir  Ir25  1  0.500000  0.867023  0.712531  1
  Ir  Ir26  1  0.500000  0.125179  0.717820  1
  Ir  Ir27  1  0.000000  0.631324  0.283763  1
  Ir  Ir28  1  0.000000  0.371527  0.284541  1
  Ir  Ir29  1  0.500000  0.340234  0.998589  1
  Ir  Ir30  1  0.500000  0.669651  0.994519  1
  Ir  Ir31  1  0.000000  0.158740  0.000021  1
  Ir  Ir32  1  0.500000  0.503882  0.174755  1
  Ir  Ir33  1  0.000000  0.984605  0.826893  1
  Ir  Ir34  1  0.500000  0.498907  0.703585  1
  Ir  Ir35  1  0.000000  0.000292  0.295990  1
