# generated using pymatgen
data_Li4DyHo3SnSb3
_symmetry_space_group_name_H-M   'P 1'
_cell_length_a   9.46961200
_cell_length_b   9.46961238
_cell_length_c   6.96259400
_cell_angle_alpha   90.00000000
_cell_angle_beta   90.00000000
_cell_angle_gamma   119.99999866
_symmetry_Int_Tables_number   1
_chemical_formula_structural   Li4DyHo3SnSb3
_chemical_formula_sum   'Li8 Dy2 Ho6 Sn2 Sb6'
_cell_volume   540.71211037
_cell_formula_units_Z   2
loop_
 _symmetry_equiv_pos_site_id
 _symmetry_equiv_pos_as_xyz
  1  'x, y, z'
loop_
 _atom_site_type_symbol
 _atom_site_label
 _atom_site_symmetry_multiplicity
 _atom_site_fract_x
 _atom_site_fract_y
 _atom_site_fract_z
 _atom_site_occupancy
  Li  Li0  1  0.167119  0.334239  0.274507  1
  Li  Li1  1  0.167119  0.832881  0.274507  1
  Li  Li2  1  0.665761  0.832881  0.274507  1
  Li  Li3  1  0.832881  0.665761  0.774507  1
  Li  Li4  1  0.832881  0.167119  0.774507  1
  Li  Li5  1  0.334239  0.167119  0.774507  1
  Li  Li6  1  0.333333  0.666667  0.692875  1
  Li  Li7  1  0.666667  0.333333  0.192875  1
  Dy  Dy8  1  0.000000  0.000000  0.501393  1
  Dy  Dy9  1  0.000000  0.000000  0.001393  1
  Ho  Ho10  1  0.508235  0.016470  0.494136  1
  Ho  Ho11  1  0.508235  0.491765  0.494136  1
  Ho  Ho12  1  0.983530  0.491765  0.494136  1
  Ho  Ho13  1  0.491765  0.983530  0.994136  1
  Ho  Ho14  1  0.491765  0.508235  0.994136  1
  Ho  Ho15  1  0.016470  0.508235  0.994136  1
  Sn  Sn16  1  0.333333  0.666667  0.258102  1
  Sn  Sn17  1  0.666667  0.333333  0.758102  1
  Sb  Sb18  1  0.166587  0.333174  0.737566  1
  Sb  Sb19  1  0.166587  0.833413  0.737566  1
  Sb  Sb20  1  0.666826  0.833413  0.737566  1
  Sb  Sb21  1  0.833413  0.666826  0.237566  1
  Sb  Sb22  1  0.833413  0.166587  0.237566  1
  Sb  Sb23  1  0.333174  0.166587  0.237566  1
