# generated using pymatgen
data_TbCoNi(PRu)3
_symmetry_space_group_name_H-M   'P 1'
_cell_length_a   3.79871200
_cell_length_b   10.68764500
_cell_length_c   12.12916700
_cell_angle_alpha   90.00000000
_cell_angle_beta   90.00000000
_cell_angle_gamma   90.00000000
_symmetry_Int_Tables_number   1
_chemical_formula_structural   TbCoNi(PRu)3
_chemical_formula_sum   'Tb4 Co4 Ni4 P12 Ru12'
_cell_volume   492.43551164
_cell_formula_units_Z   4
loop_
 _symmetry_equiv_pos_site_id
 _symmetry_equiv_pos_as_xyz
  1  'x, y, z'
loop_
 _atom_site_type_symbol
 _atom_site_label
 _atom_site_symmetry_multiplicity
 _atom_site_fract_x
 _atom_site_fract_y
 _atom_site_fract_z
 _atom_site_occupancy
  Tb  Tb0  1  0.250000  0.586066  0.707023  1
  Tb  Tb1  1  0.250000  0.913934  0.207023  1
  Tb  Tb2  1  0.750000  0.413934  0.292977  1
  Tb  Tb3  1  0.750000  0.086066  0.792977  1
  Co  Co4  1  0.250000  0.462378  0.932142  1
  Co  Co5  1  0.250000  0.037622  0.432142  1
  Co  Co6  1  0.750000  0.537622  0.067858  1
  Co  Co7  1  0.750000  0.962378  0.567858  1
  Ni  Ni8  1  0.250000  0.888594  0.697781  1
  Ni  Ni9  1  0.250000  0.611406  0.197781  1
  Ni  Ni10  1  0.750000  0.111406  0.302219  1
  Ni  Ni11  1  0.750000  0.388594  0.802219  1
  P  P12  1  0.250000  0.422951  0.109515  1
  P  P13  1  0.250000  0.077049  0.609515  1
  P  P14  1  0.750000  0.577049  0.890485  1
  P  P15  1  0.750000  0.922951  0.390485  1
  P  P16  1  0.250000  0.270279  0.873907  1
  P  P17  1  0.250000  0.229721  0.373907  1
  P  P18  1  0.750000  0.729721  0.126093  1
  P  P19  1  0.750000  0.770279  0.626093  1
  P  P20  1  0.250000  0.601793  0.389887  1
  P  P21  1  0.250000  0.898207  0.889887  1
  P  P22  1  0.750000  0.398207  0.610113  1
  P  P23  1  0.750000  0.101793  0.110113  1
  Ru  Ru24  1  0.250000  0.707387  0.987049  1
  Ru  Ru25  1  0.250000  0.792613  0.487049  1
  Ru  Ru26  1  0.750000  0.292613  0.012951  1
  Ru  Ru27  1  0.750000  0.207387  0.512951  1
  Ru  Ru28  1  0.250000  0.405850  0.486446  1
  Ru  Ru29  1  0.250000  0.094150  0.986446  1
  Ru  Ru30  1  0.750000  0.594150  0.513554  1
  Ru  Ru31  1  0.750000  0.905850  0.013554  1
  Ru  Ru32  1  0.250000  0.222863  0.181522  1
  Ru  Ru33  1  0.250000  0.277137  0.681522  1
  Ru  Ru34  1  0.750000  0.777137  0.818478  1
  Ru  Ru35  1  0.750000  0.722863  0.318478  1
