# generated using pymatgen
data_KPr5SmIrBr12
_symmetry_space_group_name_H-M   'P 1'
_cell_length_a   9.67034532
_cell_length_b   9.53649296
_cell_length_c   9.54732400
_cell_angle_alpha   105.36142842
_cell_angle_beta   105.71592383
_cell_angle_gamma   105.61406839
_symmetry_Int_Tables_number   1
_chemical_formula_structural   KPr5SmIrBr12
_chemical_formula_sum   'K1 Pr5 Sm1 Ir1 Br12'
_cell_volume   760.15493872
_cell_formula_units_Z   1
loop_
 _symmetry_equiv_pos_site_id
 _symmetry_equiv_pos_as_xyz
  1  'x, y, z'
loop_
 _atom_site_type_symbol
 _atom_site_label
 _atom_site_symmetry_multiplicity
 _atom_site_fract_x
 _atom_site_fract_y
 _atom_site_fract_z
 _atom_site_occupancy
  K  K0  1  0.500154  0.500239  0.499884  1
  Pr  Pr1  1  0.104420  0.310970  0.017709  1
  Pr  Pr2  1  0.320072  0.016799  0.110858  1
  Pr  Pr3  1  0.017275  0.103405  0.309315  1
  Pr  Pr4  1  0.982118  0.894413  0.690001  1
  Pr  Pr5  1  0.679842  0.983235  0.889527  1
  Sm  Sm6  1  0.896463  0.693152  0.981848  1
  Ir  Ir7  1  0.999661  0.999447  0.999338  1
  Br  Br8  1  0.208934  0.674727  0.072827  1
  Br  Br9  1  0.435978  0.347416  0.126680  1
  Br  Br10  1  0.679005  0.076204  0.216675  1
  Br  Br11  1  0.924095  0.777781  0.316669  1
  Br  Br12  1  0.129153  0.438371  0.349606  1
  Br  Br13  1  0.347684  0.127460  0.440109  1
  Br  Br14  1  0.652723  0.873214  0.560094  1
  Br  Br15  1  0.870509  0.561703  0.656754  1
  Br  Br16  1  0.074935  0.217892  0.676634  1
  Br  Br17  1  0.321158  0.923828  0.783422  1
  Br  Br18  1  0.570254  0.651652  0.875746  1
  Br  Br19  1  0.785571  0.328094  0.926311  1
