# generated using pymatgen
data_K3AgSn4
_symmetry_space_group_name_H-M   'P 1'
_cell_length_a   6.75116700
_cell_length_b   6.86752500
_cell_length_c   12.91578400
_cell_angle_alpha   90.00000000
_cell_angle_beta   90.00000000
_cell_angle_gamma   90.00000000
_symmetry_Int_Tables_number   1
_chemical_formula_structural   K3AgSn4
_chemical_formula_sum   'K6 Ag2 Sn8'
_cell_volume   598.82493150
_cell_formula_units_Z   2
loop_
 _symmetry_equiv_pos_site_id
 _symmetry_equiv_pos_as_xyz
  1  'x, y, z'
loop_
 _atom_site_type_symbol
 _atom_site_label
 _atom_site_symmetry_multiplicity
 _atom_site_fract_x
 _atom_site_fract_y
 _atom_site_fract_z
 _atom_site_occupancy
  K  K0  1  0.557663  0.000000  0.000000  1
  K  K1  1  0.442337  0.500000  0.500000  1
  K  K2  1  0.828198  0.500000  0.746526  1
  K  K3  1  0.828198  0.500000  0.253474  1
  K  K4  1  0.171802  0.000000  0.753474  1
  K  K5  1  0.171802  0.000000  0.246526  1
  Ag  Ag6  1  0.687949  0.500000  0.000000  1
  Ag  Ag7  1  0.312051  0.000000  0.500000  1
  Sn  Sn8  1  0.328634  0.500000  0.878988  1
  Sn  Sn9  1  0.328634  0.500000  0.121012  1
  Sn  Sn10  1  0.042302  0.263546  0.000000  1
  Sn  Sn11  1  0.042302  0.736454  0.000000  1
  Sn  Sn12  1  0.957698  0.763546  0.500000  1
  Sn  Sn13  1  0.957698  0.236454  0.500000  1
  Sn  Sn14  1  0.671366  0.000000  0.378988  1
  Sn  Sn15  1  0.671366  0.000000  0.621012  1
