# generated using pymatgen
data_SmY2WO7
_symmetry_space_group_name_H-M   'P 1'
_cell_length_a   6.50897897
_cell_length_b   6.50897875
_cell_length_c   7.57898000
_cell_angle_alpha   90.00000000
_cell_angle_beta   90.00000000
_cell_angle_gamma   109.37405153
_symmetry_Int_Tables_number   1
_chemical_formula_structural   SmY2WO7
_chemical_formula_sum   'Sm2 Y4 W2 O14'
_cell_volume   302.91440166
_cell_formula_units_Z   2
loop_
 _symmetry_equiv_pos_site_id
 _symmetry_equiv_pos_as_xyz
  1  'x, y, z'
loop_
 _atom_site_type_symbol
 _atom_site_label
 _atom_site_symmetry_multiplicity
 _atom_site_fract_x
 _atom_site_fract_y
 _atom_site_fract_z
 _atom_site_occupancy
  Sm  Sm0  1  0.500000  0.500000  0.500000  1
  Sm  Sm1  1  0.500000  0.500000  0.000000  1
  Y  Y2  1  0.532706  0.000896  0.750000  1
  Y  Y3  1  0.000896  0.532706  0.250000  1
  Y  Y4  1  0.467294  0.999104  0.250000  1
  Y  Y5  1  0.999104  0.467294  0.750000  1
  W  W6  1  0.000000  0.000000  0.500000  1
  W  W7  1  0.000000  0.000000  0.000000  1
  O  O8  1  0.678191  0.926343  0.471298  1
  O  O9  1  0.926343  0.678191  0.528702  1
  O  O10  1  0.678191  0.926343  0.028702  1
  O  O11  1  0.926343  0.678191  0.971298  1
  O  O12  1  0.321809  0.073657  0.528702  1
  O  O13  1  0.073657  0.321809  0.471298  1
  O  O14  1  0.321809  0.073657  0.971298  1
  O  O15  1  0.073657  0.321809  0.028702  1
  O  O16  1  0.928806  0.071194  0.750000  1
  O  O17  1  0.071194  0.928806  0.250000  1
  O  O18  1  0.365995  0.634004  0.750000  1
  O  O19  1  0.634004  0.365995  0.250000  1
  O  O20  1  0.639553  0.360447  0.750000  1
  O  O21  1  0.360447  0.639553  0.250000  1
