# generated using pymatgen
data_Y4Er4Ti3Si16W9
_symmetry_space_group_name_H-M   'P 1'
_cell_length_a   6.89794733
_cell_length_b   6.89803245
_cell_length_c   12.79530712
_cell_angle_alpha   89.98293886
_cell_angle_beta   90.03096363
_cell_angle_gamma   89.87869493
_symmetry_Int_Tables_number   1
_chemical_formula_structural   Y4Er4Ti3Si16W9
_chemical_formula_sum   'Y4 Er4 Ti3 Si16 W9'
_cell_volume   608.82820713
_cell_formula_units_Z   1
loop_
 _symmetry_equiv_pos_site_id
 _symmetry_equiv_pos_as_xyz
  1  'x, y, z'
loop_
 _atom_site_type_symbol
 _atom_site_label
 _atom_site_symmetry_multiplicity
 _atom_site_fract_x
 _atom_site_fract_y
 _atom_site_fract_z
 _atom_site_occupancy
  Y  Y0  1  0.339045  0.002008  0.468801  1
  Y  Y1  1  0.496915  0.837975  0.719322  1
  Y  Y2  1  0.499569  0.161788  0.217378  1
  Y  Y3  1  0.838206  0.497041  0.280821  1
  Er  Er4  1  0.161376  0.498943  0.782573  1
  Er  Er5  1  0.659921  0.999543  0.968875  1
  Er  Er6  1  0.001438  0.339681  0.531422  1
  Er  Er7  1  0.999600  0.659915  0.030859  1
  Ti  Ti8  1  0.170386  0.831568  0.248405  1
  Ti  Ti9  1  0.831764  0.170635  0.751550  1
  Ti  Ti10  1  0.669161  0.668865  0.500109  1
  Si  Si11  1  0.199827  0.130644  0.683068  1
  Si  Si12  1  0.372345  0.698432  0.933142  1
  Si  Si13  1  0.629568  0.298954  0.433721  1
  Si  Si14  1  0.699042  0.373023  0.066282  1
  Si  Si15  1  0.298125  0.628131  0.566857  1
  Si  Si16  1  0.797206  0.871337  0.183122  1
  Si  Si17  1  0.128966  0.200749  0.317023  1
  Si  Si18  1  0.871864  0.796589  0.816850  1
  Si  Si19  1  0.289225  0.962557  0.061885  1
  Si  Si20  1  0.539806  0.791460  0.313740  1
  Si  Si21  1  0.459249  0.209435  0.814461  1
  Si  Si22  1  0.792897  0.539201  0.686139  1
  Si  Si23  1  0.208987  0.459773  0.185431  1
  Si  Si24  1  0.710253  0.041378  0.563963  1
  Si  Si25  1  0.963024  0.289724  0.937644  1
  Si  Si26  1  0.040788  0.708954  0.436354  1
  W  W27  1  0.331429  0.331765  0.999733  1
  W  W28  1  0.157196  0.002388  0.873454  1
  W  W29  1  0.494903  0.665169  0.124533  1
  W  W30  1  0.505582  0.340862  0.625055  1
  W  W31  1  0.665204  0.494978  0.875235  1
  W  W32  1  0.340225  0.505504  0.375405  1
  W  W33  1  0.840363  0.993839  0.374299  1
  W  W34  1  0.002498  0.157272  0.126362  1
  W  W35  1  0.994047  0.839923  0.626127  1
