# generated using pymatgen
data_Li2Sc3Se5
_symmetry_space_group_name_H-M   'P 1'
_cell_length_a   3.85953856
_cell_length_b   6.75825380
_cell_length_c   10.24410619
_cell_angle_alpha   70.42861598
_cell_angle_beta   112.23730551
_cell_angle_gamma   73.56838222
_symmetry_Int_Tables_number   1
_chemical_formula_structural   Li2Sc3Se5
_chemical_formula_sum   'Li2 Sc3 Se5'
_cell_volume   205.73583247
_cell_formula_units_Z   1
loop_
 _symmetry_equiv_pos_site_id
 _symmetry_equiv_pos_as_xyz
  1  'x, y, z'
loop_
 _atom_site_type_symbol
 _atom_site_label
 _atom_site_symmetry_multiplicity
 _atom_site_fract_x
 _atom_site_fract_y
 _atom_site_fract_z
 _atom_site_occupancy
  Li  Li0  1  0.880248  0.224061  0.558229  1
  Li  Li1  1  0.859051  0.434877  0.171507  1
  Sc  Sc2  1  0.864077  0.830552  0.363339  1
  Sc  Sc3  1  0.866514  0.028164  0.964628  1
  Sc  Sc4  1  0.857538  0.637666  0.762360  1
  Se  Se5  1  0.363227  0.231761  0.062803  1
  Se  Se6  1  0.369783  0.026316  0.462659  1
  Se  Se7  1  0.358419  0.636505  0.263717  1
  Se  Se8  1  0.362812  0.832308  0.863872  1
  Se  Se9  1  0.362526  0.433100  0.664555  1
