# generated using pymatgen
data_Dy2Y6InAgRh2
_symmetry_space_group_name_H-M   'P 1'
_cell_length_a   9.62603685
_cell_length_b   9.64982053
_cell_length_c   9.62009134
_cell_angle_alpha   59.87447746
_cell_angle_beta   59.95213614
_cell_angle_gamma   59.99957497
_symmetry_Int_Tables_number   1
_chemical_formula_structural   Dy2Y6InAgRh2
_chemical_formula_sum   'Dy4 Y12 In2 Ag2 Rh4'
_cell_volume   631.04282576
_cell_formula_units_Z   2
loop_
 _symmetry_equiv_pos_site_id
 _symmetry_equiv_pos_as_xyz
  1  'x, y, z'
loop_
 _atom_site_type_symbol
 _atom_site_label
 _atom_site_symmetry_multiplicity
 _atom_site_fract_x
 _atom_site_fract_y
 _atom_site_fract_z
 _atom_site_occupancy
  Dy  Dy0  1  0.147794  0.550892  0.147968  1
  Dy  Dy1  1  0.312036  0.688889  0.689097  1
  Dy  Dy2  1  0.691860  0.308081  0.691416  1
  Dy  Dy3  1  0.551314  0.149708  0.147619  1
  Y  Y4  1  0.690307  0.311365  0.310079  1
  Y  Y5  1  0.689851  0.689102  0.311246  1
  Y  Y6  1  0.311317  0.689529  0.311305  1
  Y  Y7  1  0.935882  0.935756  0.559751  1
  Y  Y8  1  0.146623  0.148909  0.554904  1
  Y  Y9  1  0.562012  0.936749  0.561467  1
  Y  Y10  1  0.150347  0.152126  0.149891  1
  Y  Y11  1  0.310457  0.311789  0.689681  1
  Y  Y12  1  0.936063  0.565960  0.559021  1
  Y  Y13  1  0.558573  0.565205  0.936609  1
  Y  Y14  1  0.559932  0.935646  0.935360  1
  Y  Y15  1  0.935341  0.563152  0.934865  1
  In  In16  1  0.921990  0.242517  0.922233  1
  In  In17  1  0.920613  0.916905  0.921659  1
  Ag  Ag18  1  0.918807  0.917265  0.247508  1
  Ag  Ag19  1  0.247789  0.917064  0.919276  1
  Rh  Rh20  1  0.357259  0.358076  0.354783  1
  Rh  Rh21  1  0.927454  0.357472  0.359147  1
  Rh  Rh22  1  0.359589  0.359169  0.926812  1
  Rh  Rh23  1  0.356788  0.928674  0.358301  1
