# generated using pymatgen
data_NaTb4Si12Ir19
_symmetry_space_group_name_H-M   'P 1'
_cell_length_a   12.81480600
_cell_length_b   12.83966205
_cell_length_c   3.99912300
_cell_angle_alpha   90.00000000
_cell_angle_beta   90.00000000
_cell_angle_gamma   119.93598739
_symmetry_Int_Tables_number   1
_chemical_formula_structural   NaTb4Si12Ir19
_chemical_formula_sum   'Na1 Tb4 Si12 Ir19'
_cell_volume   570.21783319
_cell_formula_units_Z   1
loop_
 _symmetry_equiv_pos_site_id
 _symmetry_equiv_pos_as_xyz
  1  'x, y, z'
loop_
 _atom_site_type_symbol
 _atom_site_label
 _atom_site_symmetry_multiplicity
 _atom_site_fract_x
 _atom_site_fract_y
 _atom_site_fract_z
 _atom_site_occupancy
  Na  Na0  1  0.815038  0.000000  0.500000  1
  Tb  Tb1  1  0.999450  0.817176  0.500000  1
  Tb  Tb2  1  0.182274  0.182824  0.500000  1
  Tb  Tb3  1  0.332785  0.665700  0.000000  1
  Tb  Tb4  1  0.667086  0.334300  0.000000  1
  Si  Si5  1  0.997605  0.180925  0.000000  1
  Si  Si6  1  0.816681  0.819075  0.000000  1
  Si  Si7  1  0.181516  0.000000  0.000000  1
  Si  Si8  1  0.521429  0.689785  0.500000  1
  Si  Si9  1  0.311987  0.831839  0.500000  1
  Si  Si10  1  0.166907  0.479024  0.500000  1
  Si  Si11  1  0.480148  0.168161  0.500000  1
  Si  Si12  1  0.687882  0.520976  0.500000  1
  Si  Si13  1  0.831644  0.310215  0.500000  1
  Si  Si14  1  0.000324  0.631686  0.000000  1
  Si  Si15  1  0.368638  0.368314  0.000000  1
  Si  Si16  1  0.632511  0.000000  0.000000  1
  Ir  Ir17  1  0.001115  0.282306  0.500000  1
  Ir  Ir18  1  0.718810  0.717694  0.500000  1
  Ir  Ir19  1  0.282959  0.000000  0.500000  1
  Ir  Ir20  1  0.619836  0.804624  0.000000  1
  Ir  Ir21  1  0.193838  0.817599  0.000000  1
  Ir  Ir22  1  0.183653  0.376820  0.000000  1
  Ir  Ir23  1  0.376239  0.182401  0.000000  1
  Ir  Ir24  1  0.806834  0.623180  0.000000  1
  Ir  Ir25  1  0.815212  0.195376  0.000000  1
  Ir  Ir26  1  0.511735  0.874129  0.500000  1
  Ir  Ir27  1  0.127055  0.639044  0.500000  1
  Ir  Ir28  1  0.362499  0.489209  0.500000  1
  Ir  Ir29  1  0.488011  0.360956  0.500000  1
  Ir  Ir30  1  0.873289  0.510791  0.500000  1
  Ir  Ir31  1  0.637605  0.125871  0.500000  1
  Ir  Ir32  1  0.001664  0.000000  0.000000  1
  Ir  Ir33  1  0.004335  0.449839  0.000000  1
  Ir  Ir34  1  0.554496  0.550161  0.000000  1
  Ir  Ir35  1  0.446912  0.000000  0.000000  1
