# generated using pymatgen
data_Lu2MnCr2O8
_symmetry_space_group_name_H-M   'P 1'
_cell_length_a   6.15911690
_cell_length_b   6.15911513
_cell_length_c   5.07210624
_cell_angle_alpha   72.07724955
_cell_angle_beta   72.07725077
_cell_angle_gamma   58.14154235
_symmetry_Int_Tables_number   1
_chemical_formula_structural   Lu2MnCr2O8
_chemical_formula_sum   'Lu2 Mn1 Cr2 O8'
_cell_volume   152.95869498
_cell_formula_units_Z   1
loop_
 _symmetry_equiv_pos_site_id
 _symmetry_equiv_pos_as_xyz
  1  'x, y, z'
loop_
 _atom_site_type_symbol
 _atom_site_label
 _atom_site_symmetry_multiplicity
 _atom_site_fract_x
 _atom_site_fract_y
 _atom_site_fract_z
 _atom_site_occupancy
  Lu  Lu0  1  0.723402  0.723294  0.338713  1
  Lu  Lu1  1  0.276706  0.276598  0.661287  1
  Mn  Mn2  1  0.742759  0.257241  0.000000  1
  Cr  Cr3  1  0.998842  0.001158  0.500000  1
  Cr  Cr4  1  0.258546  0.741454  0.000000  1
  O  O5  1  0.406398  0.383725  0.929579  1
  O  O6  1  0.616275  0.593602  0.070421  1
  O  O7  1  0.888289  0.904311  0.919113  1
  O  O8  1  0.095689  0.111711  0.080887  1
  O  O9  1  0.342169  0.894654  0.593183  1
  O  O10  1  0.886454  0.340874  0.607146  1
  O  O11  1  0.105346  0.657831  0.406817  1
  O  O12  1  0.659126  0.113546  0.392854  1
