# generated using pymatgen
data_HoEr11(TcIr)2
_symmetry_space_group_name_H-M   'P 1'
_cell_length_a   6.27697116
_cell_length_b   7.31417319
_cell_length_c   9.07131400
_cell_angle_alpha   90.00000000
_cell_angle_beta   90.00000000
_cell_angle_gamma   89.97408168
_symmetry_Int_Tables_number   1
_chemical_formula_structural   HoEr11(TcIr)2
_chemical_formula_sum   'Ho1 Er11 Tc2 Ir2'
_cell_volume   416.47173147
_cell_formula_units_Z   1
loop_
 _symmetry_equiv_pos_site_id
 _symmetry_equiv_pos_as_xyz
  1  'x, y, z'
loop_
 _atom_site_type_symbol
 _atom_site_label
 _atom_site_symmetry_multiplicity
 _atom_site_fract_x
 _atom_site_fract_y
 _atom_site_fract_z
 _atom_site_occupancy
  Ho  Ho0  1  0.133547  0.460234  0.750000  1
  Er  Er1  1  0.330136  0.676549  0.065618  1
  Er  Er2  1  0.170022  0.176117  0.434415  1
  Er  Er3  1  0.667553  0.323598  0.560510  1
  Er  Er4  1  0.832094  0.823837  0.939337  1
  Er  Er5  1  0.667553  0.323598  0.939490  1
  Er  Er6  1  0.832094  0.823837  0.560663  1
  Er  Er7  1  0.330136  0.676549  0.434382  1
  Er  Er8  1  0.170022  0.176117  0.065585  1
  Er  Er9  1  0.873087  0.539071  0.250000  1
  Er  Er10  1  0.627082  0.039035  0.250000  1
  Er  Er11  1  0.366153  0.959650  0.750000  1
  Tc  Tc12  1  0.035859  0.885729  0.250000  1
  Tc  Tc13  1  0.464109  0.385692  0.250000  1
  Ir  Ir14  1  0.955798  0.114631  0.750000  1
  Ir  Ir15  1  0.544756  0.615753  0.750000  1
