# generated using pymatgen
data_Tm5LuTcBi2
_symmetry_space_group_name_H-M   'P 1'
_cell_length_a   8.17616600
_cell_length_b   8.17783932
_cell_length_c   4.26251900
_cell_angle_alpha   90.00000000
_cell_angle_beta   90.00000000
_cell_angle_gamma   119.99323967
_symmetry_Int_Tables_number   1
_chemical_formula_structural   Tm5LuTcBi2
_chemical_formula_sum   'Tm5 Lu1 Tc1 Bi2'
_cell_volume   246.83958851
_cell_formula_units_Z   1
loop_
 _symmetry_equiv_pos_site_id
 _symmetry_equiv_pos_as_xyz
  1  'x, y, z'
loop_
 _atom_site_type_symbol
 _atom_site_label
 _atom_site_symmetry_multiplicity
 _atom_site_fract_x
 _atom_site_fract_y
 _atom_site_fract_z
 _atom_site_occupancy
  Tm  Tm0  1  0.000071  0.231841  0.500000  1
  Tm  Tm1  1  0.768230  0.768159  0.500000  1
  Tm  Tm2  1  0.612976  0.000000  0.000000  1
  Tm  Tm3  1  0.000186  0.613476  0.000000  1
  Tm  Tm4  1  0.386710  0.386524  0.000000  1
  Lu  Lu5  1  0.231430  0.000000  0.500000  1
  Tc  Tc6  1  0.000749  0.000000  0.000000  1
  Bi  Bi7  1  0.333308  0.666970  0.500000  1
  Bi  Bi8  1  0.666339  0.333030  0.500000  1
