# generated using pymatgen
data_Ho3Er2GePb3
_symmetry_space_group_name_H-M   'P 1'
_cell_length_a   9.29421500
_cell_length_b   9.29421463
_cell_length_c   6.51265600
_cell_angle_alpha   90.00000000
_cell_angle_beta   90.00000000
_cell_angle_gamma   120.00001201
_symmetry_Int_Tables_number   1
_chemical_formula_structural   Ho3Er2GePb3
_chemical_formula_sum   'Ho6 Er4 Ge2 Pb6'
_cell_volume   487.20768516
_cell_formula_units_Z   2
loop_
 _symmetry_equiv_pos_site_id
 _symmetry_equiv_pos_as_xyz
  1  'x, y, z'
loop_
 _atom_site_type_symbol
 _atom_site_label
 _atom_site_symmetry_multiplicity
 _atom_site_fract_x
 _atom_site_fract_y
 _atom_site_fract_z
 _atom_site_occupancy
  Ho  Ho0  1  0.251554  0.000000  0.250000  1
  Ho  Ho1  1  0.748446  0.000000  0.750000  1
  Ho  Ho2  1  0.000000  0.251554  0.250000  1
  Ho  Ho3  1  0.000000  0.748446  0.750000  1
  Ho  Ho4  1  0.748446  0.748446  0.250000  1
  Ho  Ho5  1  0.251554  0.251554  0.750000  1
  Er  Er6  1  0.333333  0.666667  0.000000  1
  Er  Er7  1  0.666667  0.333333  0.000000  1
  Er  Er8  1  0.666667  0.333333  0.500000  1
  Er  Er9  1  0.333333  0.666667  0.500000  1
  Ge  Ge10  1  0.000000  0.000000  0.000000  1
  Ge  Ge11  1  0.000000  0.000000  0.500000  1
  Pb  Pb12  1  0.606874  0.000000  0.250000  1
  Pb  Pb13  1  0.393126  0.000000  0.750000  1
  Pb  Pb14  1  0.000000  0.606874  0.250000  1
  Pb  Pb15  1  0.000000  0.393126  0.750000  1
  Pb  Pb16  1  0.393126  0.393126  0.250000  1
  Pb  Pb17  1  0.606874  0.606874  0.750000  1
