# generated using pymatgen
data_Hf6SiMo2As5Ru4
_symmetry_space_group_name_H-M   'P 1'
_cell_length_a   7.69813123
_cell_length_b   7.71331056
_cell_length_c   7.69813158
_cell_angle_alpha   126.63639598
_cell_angle_beta   123.15976085
_cell_angle_gamma   81.68579007
_symmetry_Int_Tables_number   1
_chemical_formula_structural   Hf6SiMo2As5Ru4
_chemical_formula_sum   'Hf6 Si1 Mo2 As5 Ru4'
_cell_volume   295.60345943
_cell_formula_units_Z   1
loop_
 _symmetry_equiv_pos_site_id
 _symmetry_equiv_pos_as_xyz
  1  'x, y, z'
loop_
 _atom_site_type_symbol
 _atom_site_label
 _atom_site_symmetry_multiplicity
 _atom_site_fract_x
 _atom_site_fract_y
 _atom_site_fract_z
 _atom_site_occupancy
  Hf  Hf0  1  0.460242  0.682689  0.722447  1
  Hf  Hf1  1  0.535319  0.262366  0.227047  1
  Hf  Hf2  1  0.748607  0.838045  0.589439  1
  Hf  Hf3  1  0.251287  0.843831  0.092543  1
  Hf  Hf4  1  0.057313  0.264552  0.707239  1
  Hf  Hf5  1  0.944687  0.652750  0.208063  1
  Si  Si6  1  0.274906  0.259368  0.484463  1
  Mo  Mo7  1  0.496974  0.496935  0.992616  1
  Mo  Mo8  1  0.004319  0.496935  0.499961  1
  As  As9  1  0.724550  0.210299  0.985747  1
  As  As10  1  0.327602  0.589214  0.253222  1
  As  As11  1  0.672512  0.926425  0.262507  1
  As  As12  1  0.163918  0.926425  0.753913  1
  As  As13  1  0.835992  0.589214  0.761613  1
  Ru  Ru14  1  0.100594  0.253898  0.106080  1
  Ru  Ru15  1  0.909332  0.006377  0.162351  1
  Ru  Ru16  1  0.344026  0.006377  0.597045  1
  Ru  Ru17  1  0.647818  0.253898  0.653304  1
