# generated using pymatgen
data_Sc2P4PbO14
_symmetry_space_group_name_H-M   'P 1'
_cell_length_a   5.01662968
_cell_length_b   7.31420624
_cell_length_c   8.25106152
_cell_angle_alpha   89.77777373
_cell_angle_beta   92.62997166
_cell_angle_gamma   106.63910853
_symmetry_Int_Tables_number   1
_chemical_formula_structural   Sc2P4PbO14
_chemical_formula_sum   'Sc2 P4 Pb1 O14'
_cell_volume   289.75724022
_cell_formula_units_Z   1
loop_
 _symmetry_equiv_pos_site_id
 _symmetry_equiv_pos_as_xyz
  1  'x, y, z'
loop_
 _atom_site_type_symbol
 _atom_site_label
 _atom_site_symmetry_multiplicity
 _atom_site_fract_x
 _atom_site_fract_y
 _atom_site_fract_z
 _atom_site_occupancy
  Sc  Sc0  1  0.500000  0.500000  0.500000  1
  Sc  Sc1  1  0.000000  0.000000  0.000000  1
  P  P2  1  0.023211  0.614776  0.251887  1
  P  P3  1  0.976789  0.385224  0.748113  1
  P  P4  1  0.620630  0.226432  0.209046  1
  P  P5  1  0.379370  0.773568  0.790954  1
  Pb  Pb6  1  0.000000  0.000000  0.500000  1
  O  O7  1  0.799839  0.439986  0.158675  1
  O  O8  1  0.200161  0.560014  0.841325  1
  O  O9  1  0.518396  0.240019  0.382955  1
  O  O10  1  0.481604  0.759981  0.617045  1
  O  O11  1  0.284707  0.557578  0.296122  1
  O  O12  1  0.715293  0.442422  0.703878  1
  O  O13  1  0.879882  0.654852  0.406546  1
  O  O14  1  0.180032  0.900761  0.787421  1
  O  O15  1  0.819968  0.099239  0.212579  1
  O  O16  1  0.927144  0.213528  0.857535  1
  O  O17  1  0.072856  0.786472  0.142465  1
  O  O18  1  0.612312  0.828985  0.919384  1
  O  O19  1  0.387688  0.171015  0.080616  1
  O  O20  1  0.120118  0.345148  0.593454  1
