# generated using pymatgen
data_Pr16Hg4OsPt3
_symmetry_space_group_name_H-M   'P 1'
_cell_length_a   10.09074497
_cell_length_b   10.09074347
_cell_length_c   10.09074391
_cell_angle_alpha   59.68538246
_cell_angle_beta   59.68538848
_cell_angle_gamma   59.68538177
_symmetry_Int_Tables_number   1
_chemical_formula_structural   Pr16Hg4OsPt3
_chemical_formula_sum   'Pr16 Hg4 Os1 Pt3'
_cell_volume   721.33912310
_cell_formula_units_Z   1
loop_
 _symmetry_equiv_pos_site_id
 _symmetry_equiv_pos_as_xyz
  1  'x, y, z'
loop_
 _atom_site_type_symbol
 _atom_site_label
 _atom_site_symmetry_multiplicity
 _atom_site_fract_x
 _atom_site_fract_y
 _atom_site_fract_z
 _atom_site_occupancy
  Pr  Pr0  1  0.352482  0.352482  0.352482  1
  Pr  Pr1  1  0.348917  0.348917  0.948500  1
  Pr  Pr2  1  0.348917  0.948500  0.348917  1
  Pr  Pr3  1  0.948500  0.348917  0.348917  1
  Pr  Pr4  1  0.815830  0.189207  0.189207  1
  Pr  Pr5  1  0.188985  0.807731  0.807731  1
  Pr  Pr6  1  0.189207  0.815830  0.189207  1
  Pr  Pr7  1  0.807731  0.188985  0.807731  1
  Pr  Pr8  1  0.189207  0.189207  0.815830  1
  Pr  Pr9  1  0.807731  0.807731  0.188985  1
  Pr  Pr10  1  0.938153  0.563244  0.563244  1
  Pr  Pr11  1  0.556510  0.938447  0.938447  1
  Pr  Pr12  1  0.563244  0.938153  0.563244  1
  Pr  Pr13  1  0.938447  0.556510  0.938447  1
  Pr  Pr14  1  0.563244  0.563244  0.938153  1
  Pr  Pr15  1  0.938447  0.938447  0.556510  1
  Hg  Hg16  1  0.583490  0.583490  0.583490  1
  Hg  Hg17  1  0.584136  0.584136  0.247325  1
  Hg  Hg18  1  0.584136  0.247325  0.584136  1
  Hg  Hg19  1  0.247325  0.584136  0.584136  1
  Os  Os20  1  0.143130  0.143130  0.143130  1
  Pt  Pt21  1  0.145224  0.145224  0.571787  1
  Pt  Pt22  1  0.145224  0.571787  0.145224  1
  Pt  Pt23  1  0.571787  0.145224  0.145224  1
