# generated using pymatgen
data_Dy2Ho2Al15(GaIr2)3
_symmetry_space_group_name_H-M   'P 1'
_cell_length_a   7.52909121
_cell_length_b   7.52909823
_cell_length_c   9.52223100
_cell_angle_alpha   90.00000000
_cell_angle_beta   90.00000000
_cell_angle_gamma   119.46758587
_symmetry_Int_Tables_number   1
_chemical_formula_structural   Dy2Ho2Al15(GaIr2)3
_chemical_formula_sum   'Dy2 Ho2 Al15 Ga3 Ir6'
_cell_volume   469.95895099
_cell_formula_units_Z   1
loop_
 _symmetry_equiv_pos_site_id
 _symmetry_equiv_pos_as_xyz
  1  'x, y, z'
loop_
 _atom_site_type_symbol
 _atom_site_label
 _atom_site_symmetry_multiplicity
 _atom_site_fract_x
 _atom_site_fract_y
 _atom_site_fract_z
 _atom_site_occupancy
  Dy  Dy0  1  0.997767  0.674063  0.250000  1
  Dy  Dy1  1  0.669757  0.991319  0.250000  1
  Ho  Ho2  1  0.005720  0.326528  0.750000  1
  Ho  Ho3  1  0.325729  0.003794  0.750000  1
  Al  Al4  1  0.001401  0.335120  0.072221  1
  Al  Al5  1  0.998562  0.664446  0.926526  1
  Al  Al6  1  0.998562  0.664446  0.573474  1
  Al  Al7  1  0.335817  0.002944  0.427487  1
  Al  Al8  1  0.001401  0.335120  0.427779  1
  Al  Al9  1  0.664620  0.999292  0.573235  1
  Al  Al10  1  0.664620  0.999292  0.926765  1
  Al  Al11  1  0.335817  0.002944  0.072513  1
  Al  Al12  1  0.334177  0.334161  0.556703  1
  Al  Al13  1  0.666059  0.665692  0.447675  1
  Al  Al14  1  0.666059  0.665692  0.052325  1
  Al  Al15  1  0.334177  0.334161  0.943297  1
  Al  Al16  1  0.662879  0.450976  0.750000  1
  Al  Al17  1  0.549487  0.339054  0.250000  1
  Al  Al18  1  0.451414  0.662766  0.750000  1
  Ga  Ga19  1  0.130939  0.131587  0.250000  1
  Ga  Ga20  1  0.866238  0.866120  0.750000  1
  Ga  Ga21  1  0.338621  0.545563  0.250000  1
  Ir  Ir22  1  0.671396  0.329075  0.000069  1
  Ir  Ir23  1  0.328380  0.672681  0.997736  1
  Ir  Ir24  1  0.328380  0.672681  0.502264  1
  Ir  Ir25  1  0.671396  0.329075  0.499931  1
  Ir  Ir26  1  0.000314  0.000704  0.999655  1
  Ir  Ir27  1  0.000314  0.000704  0.500345  1
