# generated using pymatgen
data_CsPrTa6Cl18
_symmetry_space_group_name_H-M   'P 1'
_cell_length_a   9.42961500
_cell_length_b   9.42961550
_cell_length_c   17.58142800
_cell_angle_alpha   90.00000000
_cell_angle_beta   90.00000000
_cell_angle_gamma   119.99999475
_symmetry_Int_Tables_number   1
_chemical_formula_structural   CsPrTa6Cl18
_chemical_formula_sum   'Cs2 Pr2 Ta12 Cl36'
_cell_volume   1353.85685027
_cell_formula_units_Z   2
loop_
 _symmetry_equiv_pos_site_id
 _symmetry_equiv_pos_as_xyz
  1  'x, y, z'
loop_
 _atom_site_type_symbol
 _atom_site_label
 _atom_site_symmetry_multiplicity
 _atom_site_fract_x
 _atom_site_fract_y
 _atom_site_fract_z
 _atom_site_occupancy
  Cs  Cs0  1  0.333333  0.666667  0.750000  1
  Cs  Cs1  1  0.666667  0.333333  0.250000  1
  Pr  Pr2  1  0.666667  0.333333  0.750000  1
  Pr  Pr3  1  0.333333  0.666667  0.250000  1
  Ta  Ta4  1  0.845109  0.037376  0.566781  1
  Ta  Ta5  1  0.154891  0.962624  0.433219  1
  Ta  Ta6  1  0.962624  0.807732  0.566781  1
  Ta  Ta7  1  0.845109  0.807732  0.933219  1
  Ta  Ta8  1  0.037376  0.192268  0.433219  1
  Ta  Ta9  1  0.154891  0.192268  0.066781  1
  Ta  Ta10  1  0.192268  0.154891  0.566781  1
  Ta  Ta11  1  0.962624  0.154891  0.933219  1
  Ta  Ta12  1  0.807732  0.845109  0.433219  1
  Ta  Ta13  1  0.037376  0.845109  0.066781  1
  Ta  Ta14  1  0.192268  0.037376  0.933219  1
  Ta  Ta15  1  0.807732  0.962624  0.066781  1
  Cl  Cl16  1  0.639473  0.079728  0.658084  1
  Cl  Cl17  1  0.360527  0.920272  0.341916  1
  Cl  Cl18  1  0.920272  0.559745  0.658084  1
  Cl  Cl19  1  0.639473  0.559745  0.841916  1
  Cl  Cl20  1  0.079728  0.440255  0.341916  1
  Cl  Cl21  1  0.360527  0.440255  0.158084  1
  Cl  Cl22  1  0.440255  0.360527  0.658084  1
  Cl  Cl23  1  0.920272  0.360527  0.841916  1
  Cl  Cl24  1  0.559745  0.639473  0.341916  1
  Cl  Cl25  1  0.079728  0.639473  0.158084  1
  Cl  Cl26  1  0.440255  0.079728  0.841916  1
  Cl  Cl27  1  0.559745  0.920272  0.158084  1
  Cl  Cl28  1  0.044112  0.230662  0.659477  1
  Cl  Cl29  1  0.955888  0.769338  0.340523  1
  Cl  Cl30  1  0.769338  0.813450  0.659477  1
  Cl  Cl31  1  0.044112  0.813450  0.840523  1
  Cl  Cl32  1  0.230662  0.186550  0.340523  1
  Cl  Cl33  1  0.955888  0.186550  0.159477  1
  Cl  Cl34  1  0.186550  0.955888  0.659477  1
  Cl  Cl35  1  0.769338  0.955888  0.840523  1
  Cl  Cl36  1  0.813450  0.044112  0.340523  1
  Cl  Cl37  1  0.230662  0.044112  0.159477  1
  Cl  Cl38  1  0.186550  0.230662  0.840523  1
  Cl  Cl39  1  0.813450  0.769338  0.159477  1
  Cl  Cl40  1  0.273520  0.414585  0.500261  1
  Cl  Cl41  1  0.726480  0.585415  0.499739  1
  Cl  Cl42  1  0.585415  0.858936  0.500261  1
  Cl  Cl43  1  0.273520  0.858936  0.999739  1
  Cl  Cl44  1  0.414585  0.141064  0.499739  1
  Cl  Cl45  1  0.726480  0.141064  0.000261  1
  Cl  Cl46  1  0.141064  0.726480  0.500261  1
  Cl  Cl47  1  0.585415  0.726480  0.999739  1
  Cl  Cl48  1  0.858936  0.273520  0.499739  1
  Cl  Cl49  1  0.414585  0.273520  0.000261  1
  Cl  Cl50  1  0.141064  0.414585  0.999739  1
  Cl  Cl51  1  0.858936  0.585415  0.000261  1
