# generated using pymatgen
data_Er4Al18(CuRu)3
_symmetry_space_group_name_H-M   'P 1'
_cell_length_a   7.56213397
_cell_length_b   7.56213391
_cell_length_c   9.37805412
_cell_angle_alpha   89.85391010
_cell_angle_beta   89.85391376
_cell_angle_gamma   119.86274564
_symmetry_Int_Tables_number   1
_chemical_formula_structural   Er4Al18(CuRu)3
_chemical_formula_sum   'Er4 Al18 Cu3 Ru3'
_cell_volume   465.07765189
_cell_formula_units_Z   1
loop_
 _symmetry_equiv_pos_site_id
 _symmetry_equiv_pos_as_xyz
  1  'x, y, z'
loop_
 _atom_site_type_symbol
 _atom_site_label
 _atom_site_symmetry_multiplicity
 _atom_site_fract_x
 _atom_site_fract_y
 _atom_site_fract_z
 _atom_site_occupancy
  Er  Er0  1  0.993685  0.671134  0.250434  1
  Er  Er1  1  0.004041  0.327996  0.749512  1
  Er  Er2  1  0.672004  0.995959  0.250488  1
  Er  Er3  1  0.328866  0.006315  0.749566  1
  Al  Al4  1  0.128423  0.126417  0.251196  1
  Al  Al5  1  0.873583  0.871577  0.748804  1
  Al  Al6  1  0.003491  0.338734  0.077069  1
  Al  Al7  1  0.002329  0.665550  0.923170  1
  Al  Al8  1  0.001298  0.659563  0.573850  1
  Al  Al9  1  0.340437  0.998702  0.426150  1
  Al  Al10  1  0.999361  0.339361  0.425469  1
  Al  Al11  1  0.660639  0.000639  0.574531  1
  Al  Al12  1  0.661266  0.996509  0.922931  1
  Al  Al13  1  0.334450  0.997671  0.076830  1
  Al  Al14  1  0.336193  0.335472  0.548358  1
  Al  Al15  1  0.664528  0.663807  0.451642  1
  Al  Al16  1  0.662504  0.667015  0.056347  1
  Al  Al17  1  0.332985  0.337496  0.943653  1
  Al  Al18  1  0.338801  0.551804  0.250969  1
  Al  Al19  1  0.663430  0.451908  0.746494  1
  Al  Al20  1  0.548092  0.336570  0.253506  1
  Al  Al21  1  0.448196  0.661199  0.749031  1
  Cu  Cu22  1  0.671993  0.328007  0.000000  1
  Cu  Cu23  1  0.999623  0.000377  0.000000  1
  Cu  Cu24  1  0.000901  0.999099  0.500000  1
  Ru  Ru25  1  0.327790  0.672210  0.000000  1
  Ru  Ru26  1  0.328843  0.671157  0.500000  1
  Ru  Ru27  1  0.672248  0.327752  0.500000  1
