# generated using pymatgen
data_Er3Tm2VMoO12
_symmetry_space_group_name_H-M   'P 1'
_cell_length_a   6.74621528
_cell_length_b   6.74621530
_cell_length_c   7.23791353
_cell_angle_alpha   74.25973375
_cell_angle_beta   74.25973673
_cell_angle_gamma   51.79076684
_symmetry_Int_Tables_number   1
_chemical_formula_structural   Er3Tm2VMoO12
_chemical_formula_sum   'Er3 Tm2 V1 Mo1 O12'
_cell_volume   246.78542766
_cell_formula_units_Z   1
loop_
 _symmetry_equiv_pos_site_id
 _symmetry_equiv_pos_as_xyz
  1  'x, y, z'
loop_
 _atom_site_type_symbol
 _atom_site_label
 _atom_site_symmetry_multiplicity
 _atom_site_fract_x
 _atom_site_fract_y
 _atom_site_fract_z
 _atom_site_occupancy
  Er  Er0  1  0.311531  0.308429  0.824696  1
  Er  Er1  1  0.691571  0.688469  0.175304  1
  Er  Er2  1  0.999515  0.000485  0.500000  1
  Tm  Tm3  1  0.309914  0.296020  0.362048  1
  Tm  Tm4  1  0.703980  0.690086  0.637952  1
  V  V5  1  0.748159  0.251841  0.000000  1
  Mo  Mo6  1  0.235620  0.764380  0.000000  1
  O  O7  1  0.897766  0.426794  0.916889  1
  O  O8  1  0.433456  0.897583  0.915927  1
  O  O9  1  0.102417  0.566544  0.084073  1
  O  O10  1  0.573206  0.102234  0.083111  1
  O  O11  1  0.098740  0.594025  0.573658  1
  O  O12  1  0.596549  0.093115  0.574510  1
  O  O13  1  0.906885  0.403451  0.425490  1
  O  O14  1  0.405975  0.901260  0.426342  1
  O  O15  1  0.993637  0.007332  0.812334  1
  O  O16  1  0.992668  0.006363  0.187666  1
  O  O17  1  0.499421  0.501009  0.807472  1
  O  O18  1  0.498991  0.500579  0.192528  1
