# generated using pymatgen
data_Y2Ho8In8Pd3Rh
_symmetry_space_group_name_H-M   'P 1'
_cell_length_a   3.61429300
_cell_length_b   8.12736146
_cell_length_c   18.25364401
_cell_angle_alpha   90.01713189
_cell_angle_beta   90.00000000
_cell_angle_gamma   90.00000000
_symmetry_Int_Tables_number   1
_chemical_formula_structural   Y2Ho8In8Pd3Rh
_chemical_formula_sum   'Y2 Ho8 In8 Pd3 Rh1'
_cell_volume   536.19466514
_cell_formula_units_Z   1
loop_
 _symmetry_equiv_pos_site_id
 _symmetry_equiv_pos_as_xyz
  1  'x, y, z'
loop_
 _atom_site_type_symbol
 _atom_site_label
 _atom_site_symmetry_multiplicity
 _atom_site_fract_x
 _atom_site_fract_y
 _atom_site_fract_z
 _atom_site_occupancy
  Y  Y0  1  0.000000  0.500151  0.499826  1
  Y  Y1  1  0.000000  0.999794  0.000353  1
  Ho  Ho2  1  0.000000  0.732121  0.277889  1
  Ho  Ho3  1  0.000000  0.260604  0.719857  1
  Ho  Ho4  1  0.000000  0.759961  0.779965  1
  Ho  Ho5  1  0.000000  0.251781  0.219865  1
  Ho  Ho6  1  0.000000  0.613081  0.086526  1
  Ho  Ho7  1  0.000000  0.384143  0.917014  1
  Ho  Ho8  1  0.000000  0.884129  0.583090  1
  Ho  Ho9  1  0.000000  0.115873  0.415873  1
  In  In10  1  0.500000  0.709651  0.932120  1
  In  In11  1  0.500000  0.290234  0.068791  1
  In  In12  1  0.500000  0.790114  0.431501  1
  In  In13  1  0.500000  0.209606  0.568122  1
  In  In14  1  0.500000  0.580786  0.649681  1
  In  In15  1  0.500000  0.420906  0.350197  1
  In  In16  1  0.500000  0.919910  0.149934  1
  In  In17  1  0.500000  0.080705  0.850274  1
  Pd  Pd18  1  0.500000  0.476385  0.804145  1
  Pd  Pd19  1  0.500000  0.976522  0.696028  1
  Pd  Pd20  1  0.500000  0.021951  0.303763  1
  Rh  Rh21  1  0.500000  0.521588  0.195185  1
