# generated using pymatgen
data_Tm2Lu10RuRh3
_symmetry_space_group_name_H-M   'P 1'
_cell_length_a   6.25723721
_cell_length_b   7.11156626
_cell_length_c   9.03582300
_cell_angle_alpha   90.00000000
_cell_angle_beta   90.00000000
_cell_angle_gamma   90.03003320
_symmetry_Int_Tables_number   1
_chemical_formula_structural   Tm2Lu10RuRh3
_chemical_formula_sum   'Tm2 Lu10 Ru1 Rh3'
_cell_volume   402.08283638
_cell_formula_units_Z   1
loop_
 _symmetry_equiv_pos_site_id
 _symmetry_equiv_pos_as_xyz
  1  'x, y, z'
loop_
 _atom_site_type_symbol
 _atom_site_label
 _atom_site_symmetry_multiplicity
 _atom_site_fract_x
 _atom_site_fract_y
 _atom_site_fract_z
 _atom_site_occupancy
  Tm  Tm0  1  0.877968  0.535336  0.250000  1
  Tm  Tm1  1  0.624407  0.034927  0.250000  1
  Lu  Lu2  1  0.329334  0.678325  0.058450  1
  Lu  Lu3  1  0.173827  0.178773  0.439163  1
  Lu  Lu4  1  0.673558  0.322700  0.563162  1
  Lu  Lu5  1  0.823250  0.819430  0.936680  1
  Lu  Lu6  1  0.673558  0.322700  0.936838  1
  Lu  Lu7  1  0.823250  0.819430  0.563320  1
  Lu  Lu8  1  0.329334  0.678325  0.441550  1
  Lu  Lu9  1  0.173827  0.178773  0.060837  1
  Lu  Lu10  1  0.123269  0.465078  0.750000  1
  Lu  Lu11  1  0.376963  0.963944  0.750000  1
  Ru  Ru12  1  0.534094  0.611957  0.750000  1
  Rh  Rh13  1  0.043538  0.888977  0.250000  1
  Rh  Rh14  1  0.458254  0.388972  0.250000  1
  Rh  Rh15  1  0.961568  0.112350  0.750000  1
