# generated using pymatgen
data_YEr9(Hg2Pd)4
_symmetry_space_group_name_H-M   'P 1'
_cell_length_a   3.59704700
_cell_length_b   7.95494437
_cell_length_c   18.18718653
_cell_angle_alpha   90.04768374
_cell_angle_beta   90.00000000
_cell_angle_gamma   90.00000000
_symmetry_Int_Tables_number   1
_chemical_formula_structural   YEr9(Hg2Pd)4
_chemical_formula_sum   'Y1 Er9 Hg8 Pd4'
_cell_volume   520.41359102
_cell_formula_units_Z   1
loop_
 _symmetry_equiv_pos_site_id
 _symmetry_equiv_pos_as_xyz
  1  'x, y, z'
loop_
 _atom_site_type_symbol
 _atom_site_label
 _atom_site_symmetry_multiplicity
 _atom_site_fract_x
 _atom_site_fract_y
 _atom_site_fract_z
 _atom_site_occupancy
  Y  Y0  1  0.000000  0.500000  0.500000  1
  Er  Er1  1  0.000000  0.000000  0.000000  1
  Er  Er2  1  0.000000  0.736140  0.284095  1
  Er  Er3  1  0.000000  0.263860  0.715905  1
  Er  Er4  1  0.000000  0.763775  0.784786  1
  Er  Er5  1  0.000000  0.236225  0.215214  1
  Er  Er6  1  0.000000  0.614417  0.082889  1
  Er  Er7  1  0.000000  0.385583  0.917111  1
  Er  Er8  1  0.000000  0.885610  0.583498  1
  Er  Er9  1  0.000000  0.114390  0.416502  1
  Hg  Hg10  1  0.500000  0.712183  0.934935  1
  Hg  Hg11  1  0.500000  0.287817  0.065065  1
  Hg  Hg12  1  0.500000  0.790062  0.434077  1
  Hg  Hg13  1  0.500000  0.209938  0.565923  1
  Hg  Hg14  1  0.500000  0.582644  0.649340  1
  Hg  Hg15  1  0.500000  0.417356  0.350660  1
  Hg  Hg16  1  0.500000  0.917565  0.147909  1
  Hg  Hg17  1  0.500000  0.082435  0.852091  1
  Pd  Pd18  1  0.500000  0.526593  0.195402  1
  Pd  Pd19  1  0.500000  0.473407  0.804598  1
  Pd  Pd20  1  0.500000  0.973807  0.696267  1
  Pd  Pd21  1  0.500000  0.026193  0.303733  1
