# generated using pymatgen
data_Dy5Tm3Re3B24Ru
_symmetry_space_group_name_H-M   'P 1'
_cell_length_a   3.66071800
_cell_length_b   9.13408268
_cell_length_c   11.51921211
_cell_angle_alpha   89.91625894
_cell_angle_beta   90.00000000
_cell_angle_gamma   90.00000000
_symmetry_Int_Tables_number   1
_chemical_formula_structural   Dy5Tm3Re3B24Ru
_chemical_formula_sum   'Dy5 Tm3 Re3 B24 Ru1'
_cell_volume   385.17094971
_cell_formula_units_Z   1
loop_
 _symmetry_equiv_pos_site_id
 _symmetry_equiv_pos_as_xyz
  1  'x, y, z'
loop_
 _atom_site_type_symbol
 _atom_site_label
 _atom_site_symmetry_multiplicity
 _atom_site_fract_x
 _atom_site_fract_y
 _atom_site_fract_z
 _atom_site_occupancy
  Dy  Dy0  1  0.000000  0.322990  0.413631  1
  Dy  Dy1  1  0.000000  0.675376  0.584503  1
  Dy  Dy2  1  0.000000  0.822266  0.087375  1
  Dy  Dy3  1  0.000000  0.178516  0.914109  1
  Dy  Dy4  1  0.000000  0.943227  0.371399  1
  Tm  Tm5  1  0.000000  0.057067  0.630808  1
  Tm  Tm6  1  0.000000  0.443628  0.128952  1
  Tm  Tm7  1  0.000000  0.558159  0.869881  1
  Re  Re8  1  0.000000  0.637425  0.320317  1
  Re  Re9  1  0.000000  0.361688  0.680141  1
  Re  Re10  1  0.000000  0.138655  0.178166  1
  B  B11  1  0.500000  0.552595  0.432760  1
  B  B12  1  0.500000  0.446525  0.567068  1
  B  B13  1  0.500000  0.053160  0.066665  1
  B  B14  1  0.500000  0.945983  0.932462  1
  B  B15  1  0.500000  0.748248  0.418742  1
  B  B16  1  0.500000  0.249906  0.581628  1
  B  B17  1  0.500000  0.250339  0.081048  1
  B  B18  1  0.500000  0.750899  0.918342  1
  B  B19  1  0.500000  0.791511  0.265651  1
  B  B20  1  0.500000  0.207891  0.735016  1
  B  B21  1  0.500000  0.292699  0.233936  1
  B  B22  1  0.500000  0.708842  0.765598  1
  B  B23  1  0.500000  0.630359  0.184973  1
  B  B24  1  0.500000  0.369724  0.815284  1
  B  B25  1  0.500000  0.130909  0.313943  1
  B  B26  1  0.500000  0.869090  0.685643  1
  B  B27  1  0.500000  0.981916  0.211830  1
  B  B28  1  0.500000  0.016829  0.787860  1
  B  B29  1  0.500000  0.481649  0.287013  1
  B  B30  1  0.500000  0.518171  0.712353  1
  B  B31  1  0.500000  0.601302  0.027684  1
  B  B32  1  0.500000  0.400872  0.971748  1
  B  B33  1  0.500000  0.101319  0.473253  1
  B  B34  1  0.500000  0.898860  0.529647  1
  Ru  Ru35  1  0.000000  0.861402  0.820573  1
