# generated using pymatgen
data_ScCo2Rh3O8
_symmetry_space_group_name_H-M   'P 1'
_cell_length_a   6.21924114
_cell_length_b   6.00801822
_cell_length_c   6.21844212
_cell_angle_alpha   90.01654145
_cell_angle_beta   59.99450335
_cell_angle_gamma   121.17160075
_symmetry_Int_Tables_number   1
_chemical_formula_structural   ScCo2Rh3O8
_chemical_formula_sum   'Sc1 Co2 Rh3 O8'
_cell_volume   161.34030436
_cell_formula_units_Z   1
loop_
 _symmetry_equiv_pos_site_id
 _symmetry_equiv_pos_as_xyz
  1  'x, y, z'
loop_
 _atom_site_type_symbol
 _atom_site_label
 _atom_site_symmetry_multiplicity
 _atom_site_fract_x
 _atom_site_fract_y
 _atom_site_fract_z
 _atom_site_occupancy
  Sc  Sc0  1  0.499964  0.999962  0.499990  1
  Co  Co1  1  0.738872  0.858317  0.880564  1
  Co  Co2  1  0.261151  0.141724  0.119420  1
  Rh  Rh3  1  0.500030  0.499996  0.500014  1
  Rh  Rh4  1  0.000016  0.500017  0.000042  1
  Rh  Rh5  1  0.999970  0.500001  0.499956  1
  O  O6  1  0.481245  0.735607  0.745619  1
  O  O7  1  0.481219  0.735586  0.273157  1
  O  O8  1  0.008727  0.735562  0.745636  1
  O  O9  1  0.991284  0.264438  0.254366  1
  O  O10  1  0.518760  0.264387  0.254391  1
  O  O11  1  0.020588  0.280919  0.739689  1
  O  O12  1  0.518773  0.264409  0.726850  1
  O  O13  1  0.979403  0.719079  0.260308  1
