# generated using pymatgen
data_KZn2In7Rh2
_symmetry_space_group_name_H-M   'P 1'
_cell_length_a   8.99286074
_cell_length_b   8.79274652
_cell_length_c   4.12308600
_cell_angle_alpha   90.00000000
_cell_angle_beta   90.00000000
_cell_angle_gamma   119.26658325
_symmetry_Int_Tables_number   1
_chemical_formula_structural   KZn2In7Rh2
_chemical_formula_sum   'K1 Zn2 In7 Rh2'
_cell_volume   284.40540413
_cell_formula_units_Z   1
loop_
 _symmetry_equiv_pos_site_id
 _symmetry_equiv_pos_as_xyz
  1  'x, y, z'
loop_
 _atom_site_type_symbol
 _atom_site_label
 _atom_site_symmetry_multiplicity
 _atom_site_fract_x
 _atom_site_fract_y
 _atom_site_fract_z
 _atom_site_occupancy
  K  K0  1  0.000000  0.000000  0.000000  1
  Zn  Zn1  1  0.500000  0.000000  0.000000  1
  Zn  Zn2  1  0.500000  0.499999  0.000000  1
  In  In3  1  0.000000  0.499999  0.000000  1
  In  In4  1  0.414091  0.207046  0.499999  1
  In  In5  1  0.784880  0.197345  0.499999  1
  In  In6  1  0.215120  0.412464  0.499999  1
  In  In7  1  0.784880  0.587536  0.499999  1
  In  In8  1  0.215120  0.802655  0.499999  1
  In  In9  1  0.585909  0.792954  0.499999  1
  Rh  Rh10  1  0.662218  0.331109  0.000000  1
  Rh  Rh11  1  0.337781  0.668891  0.000000  1
