# generated using pymatgen
data_Dy2B4Ir3Rh2
_symmetry_space_group_name_H-M   'P 1'
_cell_length_a   7.52498150
_cell_length_b   6.32778210
_cell_length_c   5.61393370
_cell_angle_alpha   77.86794558
_cell_angle_beta   55.29782096
_cell_angle_gamma   46.83422045
_symmetry_Int_Tables_number   1
_chemical_formula_structural   Dy2B4Ir3Rh2
_chemical_formula_sum   'Dy2 B4 Ir3 Rh2'
_cell_volume   152.95828512
_cell_formula_units_Z   1
loop_
 _symmetry_equiv_pos_site_id
 _symmetry_equiv_pos_as_xyz
  1  'x, y, z'
loop_
 _atom_site_type_symbol
 _atom_site_label
 _atom_site_symmetry_multiplicity
 _atom_site_fract_x
 _atom_site_fract_y
 _atom_site_fract_z
 _atom_site_occupancy
  Dy  Dy0  1  0.857748  0.857748  0.142252  1
  Dy  Dy1  1  0.142252  0.142252  0.857748  1
  B  B2  1  0.787623  0.482193  0.517807  1
  B  B3  1  0.212377  0.517807  0.482193  1
  B  B4  1  0.517807  0.212377  0.787623  1
  B  B5  1  0.482193  0.787623  0.212377  1
  Ir  Ir6  1  0.750000  0.750000  0.750000  1
  Ir  Ir7  1  0.500000  0.500000  0.500000  1
  Ir  Ir8  1  0.250000  0.250000  0.250000  1
  Rh  Rh9  1  0.500000  0.500000  0.000000  1
  Rh  Rh10  1  0.000000  0.000000  0.500000  1
