# generated using pymatgen
data_SmDyMn6Co6P7
_symmetry_space_group_name_H-M   'P 1'
_cell_length_a   9.10663300
_cell_length_b   9.10663280
_cell_length_c   3.65820600
_cell_angle_alpha   90.00000000
_cell_angle_beta   90.00000000
_cell_angle_gamma   120.00000436
_symmetry_Int_Tables_number   1
_chemical_formula_structural   SmDyMn6Co6P7
_chemical_formula_sum   'Sm1 Dy1 Mn6 Co6 P7'
_cell_volume   262.73288226
_cell_formula_units_Z   1
loop_
 _symmetry_equiv_pos_site_id
 _symmetry_equiv_pos_as_xyz
  1  'x, y, z'
loop_
 _atom_site_type_symbol
 _atom_site_label
 _atom_site_symmetry_multiplicity
 _atom_site_fract_x
 _atom_site_fract_y
 _atom_site_fract_z
 _atom_site_occupancy
  Sm  Sm0  1  0.333333  0.666667  0.500000  1
  Dy  Dy1  1  0.666667  0.333333  0.000000  1
  Mn  Mn2  1  0.879255  0.723420  0.000000  1
  Mn  Mn3  1  0.276580  0.155835  0.000000  1
  Mn  Mn4  1  0.844165  0.120745  0.000000  1
  Mn  Mn5  1  0.118612  0.895960  0.500000  1
  Mn  Mn6  1  0.104040  0.222651  0.500000  1
  Mn  Mn7  1  0.777349  0.881388  0.500000  1
  Co  Co8  1  0.370022  0.942545  0.000000  1
  Co  Co9  1  0.057455  0.427477  0.000000  1
  Co  Co10  1  0.572523  0.629978  0.000000  1
  Co  Co11  1  0.947904  0.561065  0.500000  1
  Co  Co12  1  0.438935  0.386839  0.500000  1
  Co  Co13  1  0.613161  0.052096  0.500000  1
  P  P14  1  0.108390  0.698060  0.000000  1
  P  P15  1  0.301940  0.410332  0.000000  1
  P  P16  1  0.589668  0.891610  0.000000  1
  P  P17  1  0.711666  0.593537  0.500000  1
  P  P18  1  0.406463  0.118130  0.500000  1
  P  P19  1  0.881870  0.288334  0.500000  1
  P  P20  1  0.000000  0.000000  0.000000  1
