# generated using pymatgen
data_Sr3SmTi8O20
_symmetry_space_group_name_H-M   'P 1'
_cell_length_a   5.87587400
_cell_length_b   7.73544811
_cell_length_c   8.65510000
_cell_angle_alpha   90.09263828
_cell_angle_beta   90.00000000
_cell_angle_gamma   90.00000000
_symmetry_Int_Tables_number   1
_chemical_formula_structural   Sr3SmTi8O20
_chemical_formula_sum   'Sr3 Sm1 Ti8 O20'
_cell_volume   393.39557809
_cell_formula_units_Z   1
loop_
 _symmetry_equiv_pos_site_id
 _symmetry_equiv_pos_as_xyz
  1  'x, y, z'
loop_
 _atom_site_type_symbol
 _atom_site_label
 _atom_site_symmetry_multiplicity
 _atom_site_fract_x
 _atom_site_fract_y
 _atom_site_fract_z
 _atom_site_occupancy
  Sr  Sr0  1  0.000000  0.362654  0.667627  1
  Sr  Sr1  1  0.000000  0.637453  0.332738  1
  Sr  Sr2  1  0.000000  0.859651  0.832282  1
  Sm  Sm3  1  0.000000  0.139383  0.168128  1
  Ti  Ti4  1  0.500000  0.118838  0.858913  1
  Ti  Ti5  1  0.500000  0.887160  0.142731  1
  Ti  Ti6  1  0.500000  0.614727  0.638197  1
  Ti  Ti7  1  0.500000  0.381184  0.358276  1
  Ti  Ti8  1  0.243208  0.499351  0.999347  1
  Ti  Ti9  1  0.756689  0.001809  0.502075  1
  Ti  Ti10  1  0.756792  0.499351  0.999347  1
  Ti  Ti11  1  0.243311  0.001809  0.502075  1
  O  O12  1  0.259578  0.911668  0.288921  1
  O  O13  1  0.265191  0.098694  0.706292  1
  O  O14  1  0.739489  0.385290  0.204904  1
  O  O15  1  0.733284  0.596617  0.794907  1
  O  O16  1  0.734809  0.098694  0.706292  1
  O  O17  1  0.740422  0.911668  0.288921  1
  O  O18  1  0.266716  0.596617  0.794907  1
  O  O19  1  0.260511  0.385290  0.204904  1
  O  O20  1  0.500000  0.338846  0.924643  1
  O  O21  1  0.500000  0.660656  0.081718  1
  O  O22  1  0.500000  0.837126  0.568844  1
  O  O23  1  0.500000  0.162909  0.431038  1
  O  O24  1  0.286988  0.008783  0.004512  1
  O  O25  1  0.708227  0.500182  0.498109  1
  O  O26  1  0.713012  0.008783  0.004512  1
  O  O27  1  0.291773  0.500182  0.498109  1
  O  O28  1  0.000000  0.159389  0.439540  1
  O  O29  1  0.000000  0.844414  0.551291  1
  O  O30  1  0.000000  0.655633  0.053785  1
  O  O31  1  0.000000  0.335190  0.952112  1
