# generated using pymatgen
data_Pr15NdCd4Os3Pt
_symmetry_space_group_name_H-M   'P 1'
_cell_length_a   10.01401586
_cell_length_b   10.08088895
_cell_length_c   10.08088793
_cell_angle_alpha   59.77971291
_cell_angle_beta   59.57462486
_cell_angle_gamma   59.57463058
_symmetry_Int_Tables_number   1
_chemical_formula_structural   Pr15NdCd4Os3Pt
_chemical_formula_sum   'Pr15 Nd1 Cd4 Os3 Pt1'
_cell_volume   713.75578983
_cell_formula_units_Z   1
loop_
 _symmetry_equiv_pos_site_id
 _symmetry_equiv_pos_as_xyz
  1  'x, y, z'
loop_
 _atom_site_type_symbol
 _atom_site_label
 _atom_site_symmetry_multiplicity
 _atom_site_fract_x
 _atom_site_fract_y
 _atom_site_fract_z
 _atom_site_occupancy
  Pr  Pr0  1  0.343653  0.349612  0.956532  1
  Pr  Pr1  1  0.343653  0.956532  0.349612  1
  Pr  Pr2  1  0.962287  0.345354  0.345354  1
  Pr  Pr3  1  0.812673  0.191910  0.191910  1
  Pr  Pr4  1  0.190169  0.809442  0.809442  1
  Pr  Pr5  1  0.191450  0.808416  0.190786  1
  Pr  Pr6  1  0.813804  0.191268  0.803401  1
  Pr  Pr7  1  0.191450  0.190786  0.808416  1
  Pr  Pr8  1  0.813804  0.803401  0.191268  1
  Pr  Pr9  1  0.939705  0.560119  0.560119  1
  Pr  Pr10  1  0.557108  0.939939  0.939939  1
  Pr  Pr11  1  0.557101  0.939667  0.564144  1
  Pr  Pr12  1  0.939398  0.559787  0.941440  1
  Pr  Pr13  1  0.557101  0.564144  0.939667  1
  Pr  Pr14  1  0.939398  0.941440  0.559787  1
  Nd  Nd15  1  0.343107  0.349032  0.349032  1
  Cd  Cd16  1  0.579379  0.579325  0.579325  1
  Cd  Cd17  1  0.579129  0.579538  0.260917  1
  Cd  Cd18  1  0.579129  0.260917  0.579538  1
  Cd  Cd19  1  0.260895  0.579310  0.579310  1
  Os  Os20  1  0.142401  0.138010  0.138010  1
  Os  Os21  1  0.143331  0.139266  0.580922  1
  Os  Os22  1  0.143331  0.580922  0.139266  1
  Pt  Pt23  1  0.576543  0.141863  0.141863  1
