# generated using pymatgen
data_YHo2In3HgPt2
_symmetry_space_group_name_H-M   'P 1'
_cell_length_a   7.78023488
_cell_length_b   7.79918763
_cell_length_c   3.90861100
_cell_angle_alpha   90.00000000
_cell_angle_beta   90.00000000
_cell_angle_gamma   120.08247932
_symmetry_Int_Tables_number   1
_chemical_formula_structural   YHo2In3HgPt2
_chemical_formula_sum   'Y1 Ho2 In3 Hg1 Pt2'
_cell_volume   205.22658046
_cell_formula_units_Z   1
loop_
 _symmetry_equiv_pos_site_id
 _symmetry_equiv_pos_as_xyz
  1  'x, y, z'
loop_
 _atom_site_type_symbol
 _atom_site_label
 _atom_site_symmetry_multiplicity
 _atom_site_fract_x
 _atom_site_fract_y
 _atom_site_fract_z
 _atom_site_occupancy
  Y  Y0  1  0.609337  0.020598  0.500000  1
  Ho  Ho1  1  0.412155  0.389376  0.500000  1
  Ho  Ho2  1  0.977233  0.588166  0.500000  1
  In  In3  1  0.745187  0.743688  0.000000  1
  In  In4  1  0.998801  0.254994  0.000000  1
  In  In5  1  0.256287  0.000896  0.000000  1
  Hg  Hg6  1  0.332332  0.665514  0.000000  1
  Pt  Pt7  1  0.667302  0.336444  0.000000  1
  Pt  Pt8  1  0.001365  0.000325  0.500000  1
