# generated using pymatgen
data_Sr3Eu(GaP)8
_symmetry_space_group_name_H-M   'P 1'
_cell_length_a   3.93533800
_cell_length_b   9.45637001
_cell_length_c   12.22731408
_cell_angle_alpha   95.81633146
_cell_angle_beta   90.00000000
_cell_angle_gamma   90.00000000
_symmetry_Int_Tables_number   1
_chemical_formula_structural   Sr3Eu(GaP)8
_chemical_formula_sum   'Sr3 Eu1 Ga8 P8'
_cell_volume   452.68487274
_cell_formula_units_Z   1
loop_
 _symmetry_equiv_pos_site_id
 _symmetry_equiv_pos_as_xyz
  1  'x, y, z'
loop_
 _atom_site_type_symbol
 _atom_site_label
 _atom_site_symmetry_multiplicity
 _atom_site_fract_x
 _atom_site_fract_y
 _atom_site_fract_z
 _atom_site_occupancy
  Sr  Sr0  1  0.000000  0.195866  0.279982  1
  Sr  Sr1  1  0.000000  0.804134  0.720018  1
  Sr  Sr2  1  0.500000  0.000000  0.000000  1
  Eu  Eu3  1  0.500000  0.500000  0.500000  1
  Ga  Ga4  1  0.500000  0.396716  0.056045  1
  Ga  Ga5  1  0.500000  0.603284  0.943955  1
  Ga  Ga6  1  0.500000  0.886772  0.434413  1
  Ga  Ga7  1  0.500000  0.113228  0.565587  1
  Ga  Ga8  1  0.000000  0.598018  0.279915  1
  Ga  Ga9  1  0.000000  0.401982  0.720085  1
  Ga  Ga10  1  0.000000  0.801303  0.173256  1
  Ga  Ga11  1  0.000000  0.198697  0.826744  1
  P  P12  1  0.500000  0.444265  0.257075  1
  P  P13  1  0.500000  0.555735  0.742925  1
  P  P14  1  0.000000  0.266752  0.536917  1
  P  P15  1  0.000000  0.733248  0.463083  1
  P  P16  1  0.500000  0.941865  0.241129  1
  P  P17  1  0.500000  0.058135  0.758871  1
  P  P18  1  0.000000  0.242885  0.025721  1
  P  P19  1  0.000000  0.757115  0.974279  1
