# generated using pymatgen
data_ErU3(CoB4)4
_symmetry_space_group_name_H-M   'P 1'
_cell_length_a   3.36966400
_cell_length_b   5.89304632
_cell_length_c   11.43918354
_cell_angle_alpha   89.92350636
_cell_angle_beta   90.00000000
_cell_angle_gamma   90.00000000
_symmetry_Int_Tables_number   1
_chemical_formula_structural   ErU3(CoB4)4
_chemical_formula_sum   'Er1 U3 Co4 B16'
_cell_volume   227.15436877
_cell_formula_units_Z   1
loop_
 _symmetry_equiv_pos_site_id
 _symmetry_equiv_pos_as_xyz
  1  'x, y, z'
loop_
 _atom_site_type_symbol
 _atom_site_label
 _atom_site_symmetry_multiplicity
 _atom_site_fract_x
 _atom_site_fract_y
 _atom_site_fract_z
 _atom_site_occupancy
  Er  Er0  1  0.500000  0.872246  0.350321  1
  U  U1  1  0.500000  0.373198  0.149851  1
  U  U2  1  0.500000  0.627938  0.849362  1
  U  U3  1  0.500000  0.128116  0.650872  1
  Co  Co4  1  0.500000  0.366417  0.410894  1
  Co  Co5  1  0.500000  0.634067  0.586820  1
  Co  Co6  1  0.500000  0.131014  0.913643  1
  Co  Co7  1  0.500000  0.866151  0.088859  1
  B  B8  1  0.000000  0.112898  0.046479  1
  B  B9  1  0.000000  0.886534  0.953362  1
  B  B10  1  0.000000  0.387573  0.546492  1
  B  B11  1  0.000000  0.613279  0.453863  1
  B  B12  1  0.000000  0.138235  0.466160  1
  B  B13  1  0.000000  0.863733  0.533478  1
  B  B14  1  0.000000  0.364558  0.965838  1
  B  B15  1  0.000000  0.635101  0.033755  1
  B  B16  1  0.000000  0.023492  0.191373  1
  B  B17  1  0.000000  0.974845  0.807336  1
  B  B18  1  0.000000  0.475085  0.692281  1
  B  B19  1  0.000000  0.524518  0.309563  1
  B  B20  1  0.000000  0.216741  0.314230  1
  B  B21  1  0.000000  0.783780  0.686515  1
  B  B22  1  0.000000  0.283909  0.813011  1
  B  B23  1  0.000000  0.716573  0.185647  1
