# generated using pymatgen
data_TaNb(PRu)2
_symmetry_space_group_name_H-M   'P 1'
_cell_length_a   3.74569500
_cell_length_b   6.35976700
_cell_length_c   7.21875900
_cell_angle_alpha   90.00000000
_cell_angle_beta   90.00000000
_cell_angle_gamma   90.00000000
_symmetry_Int_Tables_number   1
_chemical_formula_structural   TaNb(PRu)2
_chemical_formula_sum   'Ta2 Nb2 P4 Ru4'
_cell_volume   171.96345382
_cell_formula_units_Z   2
loop_
 _symmetry_equiv_pos_site_id
 _symmetry_equiv_pos_as_xyz
  1  'x, y, z'
loop_
 _atom_site_type_symbol
 _atom_site_label
 _atom_site_symmetry_multiplicity
 _atom_site_fract_x
 _atom_site_fract_y
 _atom_site_fract_z
 _atom_site_occupancy
  Ta  Ta0  1  0.750000  0.975152  0.171554  1
  Ta  Ta1  1  0.750000  0.475152  0.328446  1
  Nb  Nb2  1  0.250000  0.024628  0.827909  1
  Nb  Nb3  1  0.250000  0.524628  0.672091  1
  P  P4  1  0.250000  0.768317  0.376125  1
  P  P5  1  0.250000  0.268317  0.123875  1
  P  P6  1  0.750000  0.231202  0.625158  1
  P  P7  1  0.750000  0.731202  0.874842  1
  Ru  Ru8  1  0.250000  0.145804  0.434933  1
  Ru  Ru9  1  0.250000  0.645804  0.065067  1
  Ru  Ru10  1  0.750000  0.854897  0.560199  1
  Ru  Ru11  1  0.750000  0.354897  0.939801  1
