# generated using pymatgen
data_LiZr4Pt10Rh
_symmetry_space_group_name_H-M   'P 1'
_cell_length_a   5.76020517
_cell_length_b   5.71659415
_cell_length_c   9.32562116
_cell_angle_alpha   90.45805356
_cell_angle_beta   90.53248781
_cell_angle_gamma   120.64539787
_symmetry_Int_Tables_number   1
_chemical_formula_structural   LiZr4Pt10Rh
_chemical_formula_sum   'Li1 Zr4 Pt10 Rh1'
_cell_volume   264.15332529
_cell_formula_units_Z   1
loop_
 _symmetry_equiv_pos_site_id
 _symmetry_equiv_pos_as_xyz
  1  'x, y, z'
loop_
 _atom_site_type_symbol
 _atom_site_label
 _atom_site_symmetry_multiplicity
 _atom_site_fract_x
 _atom_site_fract_y
 _atom_site_fract_z
 _atom_site_occupancy
  Li  Li0  1  0.500000  0.000000  0.000000  1
  Zr  Zr1  1  0.000000  0.000000  0.500000  1
  Zr  Zr2  1  0.000000  0.000000  0.000000  1
  Zr  Zr3  1  0.330430  0.649672  0.258153  1
  Zr  Zr4  1  0.669570  0.350328  0.741847  1
  Pt  Pt5  1  0.500000  0.000000  0.500000  1
  Pt  Pt6  1  0.000000  0.500000  0.500000  1
  Pt  Pt7  1  0.500000  0.500000  0.000000  1
  Pt  Pt8  1  0.000000  0.500000  0.000000  1
  Pt  Pt9  1  0.826371  0.648113  0.247403  1
  Pt  Pt10  1  0.338010  0.155448  0.244783  1
  Pt  Pt11  1  0.820232  0.154120  0.243565  1
  Pt  Pt12  1  0.173629  0.351887  0.752597  1
  Pt  Pt13  1  0.661990  0.844552  0.755217  1
  Pt  Pt14  1  0.179768  0.845880  0.756435  1
  Rh  Rh15  1  0.500000  0.500000  0.500000  1
