# generated using pymatgen
data_CaNdOsC2
_symmetry_space_group_name_H-M   'P 1'
_cell_length_a   5.26119700
_cell_length_b   6.49660300
_cell_length_c   10.46050100
_cell_angle_alpha   90.00000000
_cell_angle_beta   90.00000000
_cell_angle_gamma   90.00000000
_symmetry_Int_Tables_number   1
_chemical_formula_structural   CaNdOsC2
_chemical_formula_sum   'Ca4 Nd4 Os4 C8'
_cell_volume   357.53896405
_cell_formula_units_Z   4
loop_
 _symmetry_equiv_pos_site_id
 _symmetry_equiv_pos_as_xyz
  1  'x, y, z'
loop_
 _atom_site_type_symbol
 _atom_site_label
 _atom_site_symmetry_multiplicity
 _atom_site_fract_x
 _atom_site_fract_y
 _atom_site_fract_z
 _atom_site_occupancy
  Ca  Ca0  1  0.250000  0.467273  0.776193  1
  Ca  Ca1  1  0.750000  0.032727  0.276193  1
  Ca  Ca2  1  0.250000  0.967273  0.723807  1
  Ca  Ca3  1  0.750000  0.532727  0.223807  1
  Nd  Nd4  1  0.250000  0.803987  0.054280  1
  Nd  Nd5  1  0.750000  0.696013  0.554280  1
  Nd  Nd6  1  0.250000  0.303987  0.445720  1
  Nd  Nd7  1  0.750000  0.196013  0.945720  1
  Os  Os8  1  0.250000  0.271956  0.145955  1
  Os  Os9  1  0.750000  0.228044  0.645955  1
  Os  Os10  1  0.250000  0.771956  0.354045  1
  Os  Os11  1  0.750000  0.728044  0.854045  1
  C  C12  1  0.250000  0.696592  0.528762  1
  C  C13  1  0.750000  0.803408  0.028762  1
  C  C14  1  0.250000  0.196592  0.971238  1
  C  C15  1  0.750000  0.303408  0.471238  1
  C  C16  1  0.250000  0.031444  0.255514  1
  C  C17  1  0.750000  0.468556  0.755514  1
  C  C18  1  0.250000  0.531444  0.244486  1
  C  C19  1  0.750000  0.968556  0.744486  1
