# generated using pymatgen
data_HfBe3AlRe
_symmetry_space_group_name_H-M   'P 1'
_cell_length_a   4.68018200
_cell_length_b   4.68018206
_cell_length_c   7.74936400
_cell_angle_alpha   90.00000000
_cell_angle_beta   90.00000000
_cell_angle_gamma   120.00001370
_symmetry_Int_Tables_number   1
_chemical_formula_structural   HfBe3AlRe
_chemical_formula_sum   'Hf2 Be6 Al2 Re2'
_cell_volume   147.00162049
_cell_formula_units_Z   2
loop_
 _symmetry_equiv_pos_site_id
 _symmetry_equiv_pos_as_xyz
  1  'x, y, z'
loop_
 _atom_site_type_symbol
 _atom_site_label
 _atom_site_symmetry_multiplicity
 _atom_site_fract_x
 _atom_site_fract_y
 _atom_site_fract_z
 _atom_site_occupancy
  Hf  Hf0  1  0.333333  0.666667  0.067575  1
  Hf  Hf1  1  0.666667  0.333333  0.567575  1
  Be  Be2  1  0.823374  0.646749  0.250225  1
  Be  Be3  1  0.176626  0.823374  0.750225  1
  Be  Be4  1  0.646749  0.823374  0.750225  1
  Be  Be5  1  0.353251  0.176626  0.250225  1
  Be  Be6  1  0.823374  0.176626  0.250225  1
  Be  Be7  1  0.176626  0.353251  0.750225  1
  Al  Al8  1  0.000000  0.000000  0.994423  1
  Al  Al9  1  0.000000  0.000000  0.494423  1
  Re  Re10  1  0.666667  0.333333  0.937327  1
  Re  Re11  1  0.333333  0.666667  0.437327  1
