# generated using pymatgen
data_Tb5Ho11Cd4FePt3
_symmetry_space_group_name_H-M   'P 1'
_cell_length_a   9.63377859
_cell_length_b   9.63180934
_cell_length_c   9.63179661
_cell_angle_alpha   59.86233936
_cell_angle_beta   59.84063211
_cell_angle_gamma   59.84026127
_symmetry_Int_Tables_number   1
_chemical_formula_structural   Tb5Ho11Cd4FePt3
_chemical_formula_sum   'Tb5 Ho11 Cd4 Fe1 Pt3'
_cell_volume   629.78683811
_cell_formula_units_Z   1
loop_
 _symmetry_equiv_pos_site_id
 _symmetry_equiv_pos_as_xyz
  1  'x, y, z'
loop_
 _atom_site_type_symbol
 _atom_site_label
 _atom_site_symmetry_multiplicity
 _atom_site_fract_x
 _atom_site_fract_y
 _atom_site_fract_z
 _atom_site_occupancy
  Tb  Tb0  1  0.559901  0.937426  0.937424  1
  Tb  Tb1  1  0.564122  0.936168  0.563616  1
  Tb  Tb2  1  0.937488  0.559911  0.936938  1
  Tb  Tb3  1  0.564121  0.563617  0.936167  1
  Tb  Tb4  1  0.937488  0.936939  0.559908  1
  Ho  Ho5  1  0.351828  0.352115  0.352125  1
  Ho  Ho6  1  0.346337  0.346558  0.951484  1
  Ho  Ho7  1  0.346324  0.951492  0.346562  1
  Ho  Ho8  1  0.951293  0.346655  0.346670  1
  Ho  Ho9  1  0.819812  0.188222  0.188233  1
  Ho  Ho10  1  0.188344  0.810232  0.810222  1
  Ho  Ho11  1  0.187981  0.819642  0.188532  1
  Ho  Ho12  1  0.810381  0.188536  0.810096  1
  Ho  Ho13  1  0.187988  0.188524  0.819638  1
  Ho  Ho14  1  0.810379  0.810101  0.188535  1
  Ho  Ho15  1  0.936766  0.563504  0.563499  1
  Cd  Cd16  1  0.579980  0.579640  0.579642  1
  Cd  Cd17  1  0.581066  0.581171  0.255393  1
  Cd  Cd18  1  0.581065  0.255396  0.581172  1
  Cd  Cd19  1  0.254847  0.581218  0.581212  1
  Fe  Fe20  1  0.142854  0.142791  0.142802  1
  Pt  Pt21  1  0.143500  0.144001  0.572525  1
  Pt  Pt22  1  0.143500  0.572530  0.143998  1
  Pt  Pt23  1  0.572638  0.143614  0.143610  1
