# generated using pymatgen
data_ErTm2In3Cu2Ir
_symmetry_space_group_name_H-M   'P 1'
_cell_length_a   7.50532317
_cell_length_b   7.50936241
_cell_length_c   3.86092200
_cell_angle_alpha   90.00000000
_cell_angle_beta   90.00000000
_cell_angle_gamma   119.95665787
_symmetry_Int_Tables_number   1
_chemical_formula_structural   ErTm2In3Cu2Ir
_chemical_formula_sum   'Er1 Tm2 In3 Cu2 Ir1'
_cell_volume   188.53137331
_cell_formula_units_Z   1
loop_
 _symmetry_equiv_pos_site_id
 _symmetry_equiv_pos_as_xyz
  1  'x, y, z'
loop_
 _atom_site_type_symbol
 _atom_site_label
 _atom_site_symmetry_multiplicity
 _atom_site_fract_x
 _atom_site_fract_y
 _atom_site_fract_z
 _atom_site_occupancy
  Er  Er0  1  0.581673  0.980320  0.500000  1
  Tm  Tm1  1  0.020512  0.601826  0.500000  1
  Tm  Tm2  1  0.397738  0.418495  0.500000  1
  In  In3  1  0.750462  0.739503  0.000000  1
  In  In4  1  0.989728  0.249991  0.000000  1
  In  In5  1  0.260259  0.010674  0.000000  1
  Cu  Cu6  1  0.000444  0.999361  0.500000  1
  Cu  Cu7  1  0.666487  0.334055  0.000000  1
  Ir  Ir8  1  0.332697  0.665776  0.000000  1
