# generated using pymatgen
data_Dy3Tm13ZnIn3Rh4
_symmetry_space_group_name_H-M   'P 1'
_cell_length_a   9.53652039
_cell_length_b   9.52362943
_cell_length_c   9.53475854
_cell_angle_alpha   60.07038966
_cell_angle_beta   60.03977242
_cell_angle_gamma   60.06039787
_symmetry_Int_Tables_number   1
_chemical_formula_structural   Dy3Tm13ZnIn3Rh4
_chemical_formula_sum   'Dy3 Tm13 Zn1 In3 Rh4'
_cell_volume   613.12117381
_cell_formula_units_Z   1
loop_
 _symmetry_equiv_pos_site_id
 _symmetry_equiv_pos_as_xyz
  1  'x, y, z'
loop_
 _atom_site_type_symbol
 _atom_site_label
 _atom_site_symmetry_multiplicity
 _atom_site_fract_x
 _atom_site_fract_y
 _atom_site_fract_z
 _atom_site_occupancy
  Dy  Dy0  1  0.061503  0.061533  0.438888  1
  Dy  Dy1  1  0.436239  0.070350  0.435179  1
  Dy  Dy2  1  0.062637  0.438706  0.061793  1
  Tm  Tm3  1  0.053972  0.646659  0.647273  1
  Tm  Tm4  1  0.437159  0.436866  0.067697  1
  Tm  Tm5  1  0.646978  0.053666  0.647422  1
  Tm  Tm6  1  0.189550  0.810048  0.189346  1
  Tm  Tm7  1  0.189367  0.189434  0.810685  1
  Tm  Tm8  1  0.809515  0.809889  0.190944  1
  Tm  Tm9  1  0.439990  0.061106  0.060234  1
  Tm  Tm10  1  0.810347  0.189565  0.189234  1
  Tm  Tm11  1  0.067546  0.437878  0.436989  1
  Tm  Tm12  1  0.809263  0.190933  0.810427  1
  Tm  Tm13  1  0.191027  0.809343  0.810098  1
  Tm  Tm14  1  0.647037  0.646945  0.053967  1
  Tm  Tm15  1  0.651246  0.651250  0.651565  1
  Zn  Zn16  1  0.415434  0.416389  0.415736  1
  In  In17  1  0.744960  0.417561  0.417525  1
  In  In18  1  0.417728  0.745012  0.416906  1
  In  In19  1  0.417681  0.416573  0.746006  1
  Rh  Rh20  1  0.859083  0.857748  0.427169  1
  Rh  Rh21  1  0.856320  0.856896  0.857185  1
  Rh  Rh22  1  0.427283  0.858162  0.859573  1
  Rh  Rh23  1  0.858134  0.427487  0.858157  1
