# generated using pymatgen
data_Ho7PaNb12Si15Ge
_symmetry_space_group_name_H-M   'P 1'
_cell_length_a   6.87974206
_cell_length_b   7.08170197
_cell_length_c   13.42353607
_cell_angle_alpha   90.02472840
_cell_angle_beta   90.06056781
_cell_angle_gamma   90.03175192
_symmetry_Int_Tables_number   1
_chemical_formula_structural   Ho7PaNb12Si15Ge
_chemical_formula_sum   'Ho7 Pa1 Nb12 Si15 Ge1'
_cell_volume   653.99794782
_cell_formula_units_Z   1
loop_
 _symmetry_equiv_pos_site_id
 _symmetry_equiv_pos_as_xyz
  1  'x, y, z'
loop_
 _atom_site_type_symbol
 _atom_site_label
 _atom_site_symmetry_multiplicity
 _atom_site_fract_x
 _atom_site_fract_y
 _atom_site_fract_z
 _atom_site_occupancy
  Ho  Ho0  1  0.001189  0.171577  0.404433  1
  Ho  Ho1  1  0.500273  0.673802  0.596898  1
  Ho  Ho2  1  0.997483  0.828251  0.903334  1
  Ho  Ho3  1  0.497552  0.671248  0.903723  1
  Ho  Ho4  1  0.997266  0.828596  0.596322  1
  Ho  Ho5  1  0.503308  0.326605  0.403301  1
  Ho  Ho6  1  0.000639  0.171843  0.095653  1
  Pa  Pa7  1  0.503293  0.327845  0.096020  1
  Nb  Nb8  1  0.664308  0.007367  0.750633  1
  Nb  Nb9  1  0.163374  0.491119  0.751507  1
  Nb  Nb10  1  0.335908  0.995964  0.248416  1
  Nb  Nb11  1  0.834249  0.506935  0.249101  1
  Nb  Nb12  1  0.836313  0.325314  0.625978  1
  Nb  Nb13  1  0.339112  0.175831  0.875693  1
  Nb  Nb14  1  0.164169  0.672717  0.125398  1
  Nb  Nb15  1  0.662128  0.826254  0.374019  1
  Nb  Nb16  1  0.159639  0.678198  0.372347  1
  Nb  Nb17  1  0.660646  0.826004  0.125530  1
  Nb  Nb18  1  0.837576  0.325763  0.875153  1
  Nb  Nb19  1  0.341336  0.171046  0.627167  1
  Si  Si20  1  0.797182  0.626325  0.750013  1
  Si  Si21  1  0.296463  0.871728  0.750336  1
  Si  Si22  1  0.201360  0.373820  0.250727  1
  Si  Si23  1  0.703420  0.125821  0.250504  1
  Si  Si24  1  0.541687  0.377909  0.750217  1
  Si  Si25  1  0.042010  0.122359  0.750056  1
  Si  Si26  1  0.458337  0.622511  0.250806  1
  Si  Si27  1  0.957173  0.877475  0.249087  1
  Si  Si28  1  0.664064  0.037195  0.540763  1
  Si  Si29  1  0.164428  0.462648  0.958479  1
  Si  Si30  1  0.334174  0.960974  0.040872  1
  Si  Si31  1  0.832541  0.537520  0.458571  1
  Si  Si32  1  0.336151  0.962889  0.459216  1
  Si  Si33  1  0.837818  0.538775  0.040659  1
  Si  Si34  1  0.664049  0.036235  0.958266  1
  Ge  Ge35  1  0.169380  0.463535  0.540798  1
