# generated using pymatgen
data_DyYTa2(SbRh)4
_symmetry_space_group_name_H-M   'P 1'
_cell_length_a   6.37485805
_cell_length_b   4.49556300
_cell_length_c   9.02643807
_cell_angle_alpha   90.00000000
_cell_angle_beta   89.98581843
_cell_angle_gamma   90.00000000
_symmetry_Int_Tables_number   1
_chemical_formula_structural   DyYTa2(SbRh)4
_chemical_formula_sum   'Dy1 Y1 Ta2 Sb4 Rh4'
_cell_volume   258.68485326
_cell_formula_units_Z   1
loop_
 _symmetry_equiv_pos_site_id
 _symmetry_equiv_pos_as_xyz
  1  'x, y, z'
loop_
 _atom_site_type_symbol
 _atom_site_label
 _atom_site_symmetry_multiplicity
 _atom_site_fract_x
 _atom_site_fract_y
 _atom_site_fract_z
 _atom_site_occupancy
  Dy  Dy0  1  0.005847  0.000000  0.376419  1
  Y  Y1  1  0.505803  0.500001  0.623499  1
  Ta  Ta2  1  0.494509  0.500001  0.120506  1
  Ta  Ta3  1  0.994594  0.000000  0.879506  1
  Sb  Sb4  1  0.984506  0.500001  0.124750  1
  Sb  Sb5  1  0.510280  0.000000  0.370023  1
  Sb  Sb6  1  0.010321  0.500001  0.629907  1
  Sb  Sb7  1  0.484540  0.000000  0.875356  1
  Rh  Rh8  1  0.733243  0.000000  0.108975  1
  Rh  Rh9  1  0.271046  0.500001  0.350088  1
  Rh  Rh10  1  0.772269  0.000000  0.649693  1
  Rh  Rh11  1  0.233035  0.500001  0.891274  1
