# generated using pymatgen
data_Ba4W(IN2)2
_symmetry_space_group_name_H-M   'P 1'
_cell_length_a   6.42962800
_cell_length_b   8.58841916
_cell_length_c   11.88471208
_cell_angle_alpha   83.16018902
_cell_angle_beta   90.00000000
_cell_angle_gamma   90.00000000
_symmetry_Int_Tables_number   1
_chemical_formula_structural   Ba4W(IN2)2
_chemical_formula_sum   'Ba8 W2 I4 N8'
_cell_volume   651.60711430
_cell_formula_units_Z   2
loop_
 _symmetry_equiv_pos_site_id
 _symmetry_equiv_pos_as_xyz
  1  'x, y, z'
loop_
 _atom_site_type_symbol
 _atom_site_label
 _atom_site_symmetry_multiplicity
 _atom_site_fract_x
 _atom_site_fract_y
 _atom_site_fract_z
 _atom_site_occupancy
  Ba  Ba0  1  0.750000  0.270475  0.313799  1
  Ba  Ba1  1  0.750000  0.007561  0.618169  1
  Ba  Ba2  1  0.750000  0.447384  0.601417  1
  Ba  Ba3  1  0.750000  0.778974  0.127929  1
  Ba  Ba4  1  0.250000  0.992439  0.381831  1
  Ba  Ba5  1  0.250000  0.552616  0.398583  1
  Ba  Ba6  1  0.250000  0.221026  0.872071  1
  Ba  Ba7  1  0.250000  0.729525  0.686201  1
  W  W8  1  0.750000  0.768785  0.409648  1
  W  W9  1  0.250000  0.231215  0.590352  1
  I  I10  1  0.250000  0.341722  0.158685  1
  I  I11  1  0.750000  0.658278  0.841315  1
  I  I12  1  0.250000  0.862189  0.088145  1
  I  I13  1  0.750000  0.137811  0.911855  1
  N  N14  1  0.250000  0.051709  0.696156  1
  N  N15  1  0.007099  0.237379  0.497805  1
  N  N16  1  0.507099  0.762621  0.502195  1
  N  N17  1  0.992901  0.762621  0.502195  1
  N  N18  1  0.750000  0.595855  0.325765  1
  N  N19  1  0.750000  0.948291  0.303844  1
  N  N20  1  0.492901  0.237379  0.497805  1
  N  N21  1  0.250000  0.404145  0.674235  1
