# generated using pymatgen
data_Nd3PaTlInPd4
_symmetry_space_group_name_H-M   'P 1'
_cell_length_a   7.95130545
_cell_length_b   7.94242815
_cell_length_c   3.77632000
_cell_angle_alpha   90.00000000
_cell_angle_beta   90.00000000
_cell_angle_gamma   91.82385438
_symmetry_Int_Tables_number   1
_chemical_formula_structural   Nd3PaTlInPd4
_chemical_formula_sum   'Nd3 Pa1 Tl1 In1 Pd4'
_cell_volume   238.36388198
_cell_formula_units_Z   1
loop_
 _symmetry_equiv_pos_site_id
 _symmetry_equiv_pos_as_xyz
  1  'x, y, z'
loop_
 _atom_site_type_symbol
 _atom_site_label
 _atom_site_symmetry_multiplicity
 _atom_site_fract_x
 _atom_site_fract_y
 _atom_site_fract_z
 _atom_site_occupancy
  Nd  Nd0  1  0.821888  0.672306  0.500000  1
  Nd  Nd1  1  0.174436  0.324563  0.500000  1
  Nd  Nd2  1  0.675740  0.178543  0.500000  1
  Pa  Pa3  1  0.330861  0.828103  0.500000  1
  Tl  Tl4  1  0.997592  0.996683  0.000000  1
  In  In5  1  0.496246  0.499457  0.000000  1
  Pd  Pd6  1  0.368474  0.111521  0.000000  1
  Pd  Pd7  1  0.880645  0.385221  0.000000  1
  Pd  Pd8  1  0.147215  0.641114  0.000000  1
  Pd  Pd9  1  0.606902  0.862487  0.000000  1
