# generated using pymatgen
data_Zr2Sc6Al12Mo2Os7
_symmetry_space_group_name_H-M   'P 1'
_cell_length_a   8.91553801
_cell_length_b   8.90610256
_cell_length_c   8.90610530
_cell_angle_alpha   59.92483332
_cell_angle_beta   59.96501437
_cell_angle_gamma   59.96501662
_symmetry_Int_Tables_number   1
_chemical_formula_structural   Zr2Sc6Al12Mo2Os7
_chemical_formula_sum   'Zr2 Sc6 Al12 Mo2 Os7'
_cell_volume   499.49502317
_cell_formula_units_Z   1
loop_
 _symmetry_equiv_pos_site_id
 _symmetry_equiv_pos_as_xyz
  1  'x, y, z'
loop_
 _atom_site_type_symbol
 _atom_site_label
 _atom_site_symmetry_multiplicity
 _atom_site_fract_x
 _atom_site_fract_y
 _atom_site_fract_z
 _atom_site_occupancy
  Zr  Zr0  1  0.357869  0.879402  0.879402  1
  Zr  Zr1  1  0.883325  0.879403  0.879403  1
  Sc  Sc2  1  0.709944  0.709991  0.293245  1
  Sc  Sc3  1  0.286823  0.709993  0.293240  1
  Sc  Sc4  1  0.713688  0.286312  0.286312  1
  Sc  Sc5  1  0.286823  0.293240  0.709993  1
  Sc  Sc6  1  0.709944  0.293245  0.709991  1
  Sc  Sc7  1  0.295039  0.704962  0.704962  1
  Al  Al8  1  0.121365  0.122366  0.634903  1
  Al  Al9  1  0.121365  0.634903  0.122366  1
  Al  Al10  1  0.632974  0.121451  0.121451  1
  Al  Al11  1  0.124122  0.121452  0.121452  1
  Al  Al12  1  0.662409  0.660984  0.014197  1
  Al  Al13  1  0.662409  0.014197  0.660984  1
  Al  Al14  1  0.010629  0.662286  0.662286  1
  Al  Al15  1  0.664797  0.662287  0.662287  1
  Al  Al16  1  0.334642  0.335061  0.995656  1
  Al  Al17  1  0.334642  0.995656  0.335061  1
  Al  Al18  1  0.993256  0.335327  0.335327  1
  Al  Al19  1  0.336089  0.335327  0.335327  1
  Mo  Mo20  1  0.879469  0.877296  0.363766  1
  Mo  Mo21  1  0.879469  0.363766  0.877296  1
  Os  Os22  1  0.987504  0.012495  0.012495  1
  Os  Os23  1  0.998585  0.998171  0.494888  1
  Os  Os24  1  0.508356  0.998173  0.494888  1
  Os  Os25  1  0.997352  0.502648  0.502648  1
  Os  Os26  1  0.508356  0.494888  0.998173  1
  Os  Os27  1  0.998585  0.494888  0.998171  1
  Os  Os28  1  0.500168  0.999831  0.999831  1
