# generated using pymatgen
data_Ru3PtPb4O13
_symmetry_space_group_name_H-M   'P 1'
_cell_length_a   7.36316480
_cell_length_b   7.33843685
_cell_length_c   7.36316500
_cell_angle_alpha   59.88847381
_cell_angle_beta   60.00000359
_cell_angle_gamma   59.88847000
_symmetry_Int_Tables_number   1
_chemical_formula_structural   Ru3PtPb4O13
_chemical_formula_sum   'Ru3 Pt1 Pb4 O13'
_cell_volume   280.85583927
_cell_formula_units_Z   1
loop_
 _symmetry_equiv_pos_site_id
 _symmetry_equiv_pos_as_xyz
  1  'x, y, z'
loop_
 _atom_site_type_symbol
 _atom_site_label
 _atom_site_symmetry_multiplicity
 _atom_site_fract_x
 _atom_site_fract_y
 _atom_site_fract_z
 _atom_site_occupancy
  Ru  Ru0  1  0.872822  0.879803  0.374552  1
  Ru  Ru1  1  0.872822  0.879803  0.872822  1
  Ru  Ru2  1  0.374552  0.879803  0.872822  1
  Pt  Pt3  1  0.873502  0.379493  0.873502  1
  Pb  Pb4  1  0.880050  0.377557  0.371197  1
  Pb  Pb5  1  0.371197  0.377557  0.371197  1
  Pb  Pb6  1  0.371197  0.377557  0.880050  1
  Pb  Pb7  1  0.373463  0.879612  0.373463  1
  O  O8  1  0.200959  0.802834  0.795247  1
  O  O9  1  0.200959  0.802834  0.200959  1
  O  O10  1  0.560298  0.933338  0.946066  1
  O  O11  1  0.560298  0.933338  0.560298  1
  O  O12  1  0.946066  0.933338  0.560298  1
  O  O13  1  0.795247  0.802834  0.200959  1
  O  O14  1  0.541840  0.551553  0.953303  1
  O  O15  1  0.796041  0.202306  0.796041  1
  O  O16  1  0.796041  0.202306  0.205612  1
  O  O17  1  0.953303  0.551553  0.953303  1
  O  O18  1  0.953303  0.551553  0.541840  1
  O  O19  1  0.205612  0.202306  0.796041  1
  O  O20  1  0.500426  0.498721  0.500426  1
