# generated using pymatgen
data_Zr(TiBr4)3
_symmetry_space_group_name_H-M   'P 1'
_cell_length_a   6.10643261
_cell_length_b   12.71131300
_cell_length_c   7.34994127
_cell_angle_alpha   90.00000000
_cell_angle_beta   89.88368200
_cell_angle_gamma   90.00000000
_symmetry_Int_Tables_number   1
_chemical_formula_structural   Zr(TiBr4)3
_chemical_formula_sum   'Zr1 Ti3 Br12'
_cell_volume   570.50697055
_cell_formula_units_Z   1
loop_
 _symmetry_equiv_pos_site_id
 _symmetry_equiv_pos_as_xyz
  1  'x, y, z'
loop_
 _atom_site_type_symbol
 _atom_site_label
 _atom_site_symmetry_multiplicity
 _atom_site_fract_x
 _atom_site_fract_y
 _atom_site_fract_z
 _atom_site_occupancy
  Zr  Zr0  1  0.249871  0.000000  0.247415  1
  Ti  Ti1  1  0.749979  0.000000  0.247481  1
  Ti  Ti2  1  0.228584  0.500000  0.752768  1
  Ti  Ti3  1  0.771294  0.500000  0.752653  1
  Br  Br4  1  0.998522  0.500000  0.041552  1
  Br  Br5  1  0.990883  0.146691  0.100553  1
  Br  Br6  1  0.990883  0.853310  0.100553  1
  Br  Br7  1  0.509167  0.146597  0.394319  1
  Br  Br8  1  0.509167  0.853403  0.394319  1
  Br  Br9  1  0.501318  0.500000  0.475001  1
  Br  Br10  1  0.991135  0.000000  0.541218  1
  Br  Br11  1  0.000796  0.355244  0.607805  1
  Br  Br12  1  0.000796  0.644757  0.607805  1
  Br  Br13  1  0.499336  0.360888  0.891259  1
  Br  Br14  1  0.499336  0.639113  0.891259  1
  Br  Br15  1  0.508941  0.000000  0.954049  1
