# generated using pymatgen
data_RbMnP2Os
_symmetry_space_group_name_H-M   'P 1'
_cell_length_a   7.53377341
_cell_length_b   7.53377294
_cell_length_c   7.53377374
_cell_angle_alpha   149.89004031
_cell_angle_beta   149.89002888
_cell_angle_gamma   43.10284142
_symmetry_Int_Tables_number   1
_chemical_formula_structural   RbMnP2Os
_chemical_formula_sum   'Rb1 Mn1 P2 Os1'
_cell_volume   107.32949099
_cell_formula_units_Z   1
loop_
 _symmetry_equiv_pos_site_id
 _symmetry_equiv_pos_as_xyz
  1  'x, y, z'
loop_
 _atom_site_type_symbol
 _atom_site_label
 _atom_site_symmetry_multiplicity
 _atom_site_fract_x
 _atom_site_fract_y
 _atom_site_fract_z
 _atom_site_occupancy
  Rb  Rb0  1  0.000000  0.000000  0.000000  1
  Mn  Mn1  1  0.250000  0.750000  0.500000  1
  P  P2  1  0.659011  0.659011  0.000000  1
  P  P3  1  0.340989  0.340989  0.000000  1
  Os  Os4  1  0.750000  0.250000  0.500000  1
