# generated using pymatgen
data_Dy2Er4MnSi24Ru7
_symmetry_space_group_name_H-M   'P 1'
_cell_length_a   10.10164233
_cell_length_b   10.10166146
_cell_length_c   8.09899303
_cell_angle_alpha   90.02880541
_cell_angle_beta   90.02688272
_cell_angle_gamma   132.69592024
_symmetry_Int_Tables_number   1
_chemical_formula_structural   Dy2Er4MnSi24Ru7
_chemical_formula_sum   'Dy2 Er4 Mn1 Si24 Ru7'
_cell_volume   607.40856272
_cell_formula_units_Z   1
loop_
 _symmetry_equiv_pos_site_id
 _symmetry_equiv_pos_as_xyz
  1  'x, y, z'
loop_
 _atom_site_type_symbol
 _atom_site_label
 _atom_site_symmetry_multiplicity
 _atom_site_fract_x
 _atom_site_fract_y
 _atom_site_fract_z
 _atom_site_occupancy
  Dy  Dy0  1  0.498213  0.997589  0.248721  1
  Dy  Dy1  1  0.003043  0.501906  0.750886  1
  Er  Er2  1  0.501870  0.003004  0.750872  1
  Er  Er3  1  0.997665  0.498268  0.248687  1
  Er  Er4  1  0.501834  0.501873  0.500718  1
  Er  Er5  1  0.999293  0.999300  0.997786  1
  Mn  Mn6  1  0.624806  0.624928  0.874561  1
  Si  Si7  1  0.387340  0.154269  0.004711  1
  Si  Si8  1  0.654332  0.887505  0.494734  1
  Si  Si9  1  0.112653  0.345460  0.506006  1
  Si  Si10  1  0.842019  0.614399  0.989547  1
  Si  Si11  1  0.614404  0.842067  0.989312  1
  Si  Si12  1  0.345521  0.112672  0.506273  1
  Si  Si13  1  0.887500  0.654303  0.494475  1
  Si  Si14  1  0.154230  0.387315  0.004990  1
  Si  Si15  1  0.612484  0.378520  0.228924  1
  Si  Si16  1  0.877458  0.110683  0.271174  1
  Si  Si17  1  0.888524  0.121874  0.728790  1
  Si  Si18  1  0.624229  0.396080  0.772358  1
  Si  Si19  1  0.396295  0.624510  0.772324  1
  Si  Si20  1  0.122172  0.888748  0.728817  1
  Si  Si21  1  0.704383  0.294755  0.000113  1
  Si  Si22  1  0.794884  0.204956  0.499982  1
  Si  Si23  1  0.294734  0.704389  0.000139  1
  Si  Si24  1  0.205008  0.794903  0.499968  1
  Si  Si25  1  0.166799  0.166786  0.333765  1
  Si  Si26  1  0.667864  0.667871  0.160980  1
  Si  Si27  1  0.338434  0.338430  0.832804  1
  Si  Si28  1  0.825683  0.825666  0.673585  1
  Si  Si29  1  0.378232  0.612247  0.228953  1
  Si  Si30  1  0.110435  0.877133  0.271149  1
  Ru  Ru31  1  0.125200  0.125111  0.628891  1
  Ru  Ru32  1  0.871677  0.871597  0.374266  1
  Ru  Ru33  1  0.373732  0.373834  0.127129  1
  Ru  Ru34  1  0.330374  0.669632  0.502024  1
  Ru  Ru35  1  0.167912  0.829122  0.999809  1
  Ru  Ru36  1  0.669651  0.330347  0.502008  1
  Ru  Ru37  1  0.829106  0.167941  0.999768  1
