# generated using pymatgen
data_K8Ba4HfTiBi8
_symmetry_space_group_name_H-M   'P 1'
_cell_length_a   11.29918825
_cell_length_b   11.29918704
_cell_length_c   8.74834093
_cell_angle_alpha   89.16388202
_cell_angle_beta   89.16388138
_cell_angle_gamma   60.26148846
_symmetry_Int_Tables_number   1
_chemical_formula_structural   K8Ba4HfTiBi8
_chemical_formula_sum   'K8 Ba4 Hf1 Ti1 Bi8'
_cell_volume   969.67737948
_cell_formula_units_Z   1
loop_
 _symmetry_equiv_pos_site_id
 _symmetry_equiv_pos_as_xyz
  1  'x, y, z'
loop_
 _atom_site_type_symbol
 _atom_site_label
 _atom_site_symmetry_multiplicity
 _atom_site_fract_x
 _atom_site_fract_y
 _atom_site_fract_z
 _atom_site_occupancy
  K  K0  1  0.940459  0.530199  0.371737  1
  K  K1  1  0.530199  0.940459  0.371737  1
  K  K2  1  0.722867  0.133569  0.193172  1
  K  K3  1  0.133569  0.722867  0.193172  1
  K  K4  1  0.141766  0.141766  0.214039  1
  K  K5  1  0.273057  0.865659  0.695611  1
  K  K6  1  0.865659  0.273057  0.695611  1
  K  K7  1  0.854286  0.854286  0.662276  1
  Ba  Ba8  1  0.532026  0.532026  0.374524  1
  Ba  Ba9  1  0.046904  0.478157  0.873197  1
  Ba  Ba10  1  0.478157  0.046904  0.873197  1
  Ba  Ba11  1  0.477285  0.477285  0.870338  1
  Hf  Hf12  1  0.333755  0.333755  0.480781  1
  Ti  Ti13  1  0.666558  0.666558  0.987663  1
  Bi  Bi14  1  0.394625  0.800841  0.087227  1
  Bi  Bi15  1  0.800841  0.394625  0.087227  1
  Bi  Bi16  1  0.803290  0.803290  0.068577  1
  Bi  Bi17  1  0.609915  0.200806  0.590376  1
  Bi  Bi18  1  0.200806  0.609915  0.590376  1
  Bi  Bi19  1  0.197547  0.197547  0.603985  1
  Bi  Bi20  1  0.336345  0.336345  0.148000  1
  Bi  Bi21  1  0.660697  0.660697  0.669994  1
