# generated using pymatgen
data_Ti4Mn2IrOs
_symmetry_space_group_name_H-M   'P 1'
_cell_length_a   6.07771000
_cell_length_b   4.30750400
_cell_length_c   8.62581800
_cell_angle_alpha   90.00000000
_cell_angle_beta   90.00024876
_cell_angle_gamma   90.00000000
_symmetry_Int_Tables_number   1
_chemical_formula_structural   Ti4Mn2IrOs
_chemical_formula_sum   'Ti8 Mn4 Ir2 Os2'
_cell_volume   225.82184621
_cell_formula_units_Z   2
loop_
 _symmetry_equiv_pos_site_id
 _symmetry_equiv_pos_as_xyz
  1  'x, y, z'
loop_
 _atom_site_type_symbol
 _atom_site_label
 _atom_site_symmetry_multiplicity
 _atom_site_fract_x
 _atom_site_fract_y
 _atom_site_fract_z
 _atom_site_occupancy
  Ti  Ti0  1  0.001388  0.749999  0.126450  1
  Ti  Ti1  1  0.498621  0.749999  0.126460  1
  Ti  Ti2  1  0.998535  0.249999  0.373544  1
  Ti  Ti3  1  0.501508  0.249999  0.373549  1
  Ti  Ti4  1  0.501310  0.749999  0.623477  1
  Ti  Ti5  1  0.998644  0.749999  0.623482  1
  Ti  Ti6  1  0.498768  0.249999  0.876512  1
  Ti  Ti7  1  0.001225  0.249999  0.876520  1
  Mn  Mn8  1  0.750028  0.249999  0.124123  1
  Mn  Mn9  1  0.250005  0.749999  0.375856  1
  Mn  Mn10  1  0.750018  0.249999  0.626232  1
  Mn  Mn11  1  0.249946  0.749999  0.873798  1
  Ir  Ir12  1  0.249985  0.249999  0.625453  1
  Ir  Ir13  1  0.749985  0.749999  0.874535  1
  Os  Os14  1  0.250014  0.249999  0.124384  1
  Os  Os15  1  0.750015  0.749999  0.375625  1
