# generated using pymatgen
data_Zr6Zn16SiAu7
_symmetry_space_group_name_H-M   'P 1'
_cell_length_a   8.96072793
_cell_length_b   8.96072755
_cell_length_c   8.96072600
_cell_angle_alpha   59.99999835
_cell_angle_beta   59.99999973
_cell_angle_gamma   59.99999417
_symmetry_Int_Tables_number   1
_chemical_formula_structural   Zr6Zn16SiAu7
_chemical_formula_sum   'Zr6 Zn16 Si1 Au7'
_cell_volume   508.76208503
_cell_formula_units_Z   1
loop_
 _symmetry_equiv_pos_site_id
 _symmetry_equiv_pos_as_xyz
  1  'x, y, z'
loop_
 _atom_site_type_symbol
 _atom_site_label
 _atom_site_symmetry_multiplicity
 _atom_site_fract_x
 _atom_site_fract_y
 _atom_site_fract_z
 _atom_site_occupancy
  Zr  Zr0  1  0.707421  0.292579  0.292579  1
  Zr  Zr1  1  0.292579  0.707421  0.707421  1
  Zr  Zr2  1  0.292579  0.707421  0.292579  1
  Zr  Zr3  1  0.707421  0.292579  0.707421  1
  Zr  Zr4  1  0.292579  0.292579  0.707421  1
  Zr  Zr5  1  0.707421  0.707421  0.292579  1
  Zn  Zn6  1  0.122194  0.122194  0.122194  1
  Zn  Zn7  1  0.877806  0.877806  0.877806  1
  Zn  Zn8  1  0.122194  0.122194  0.633418  1
  Zn  Zn9  1  0.122194  0.633418  0.122194  1
  Zn  Zn10  1  0.877806  0.877806  0.366582  1
  Zn  Zn11  1  0.877806  0.366582  0.877806  1
  Zn  Zn12  1  0.633418  0.122194  0.122194  1
  Zn  Zn13  1  0.366582  0.877806  0.877806  1
  Zn  Zn14  1  0.340724  0.340724  0.340724  1
  Zn  Zn15  1  0.659276  0.659276  0.659276  1
  Zn  Zn16  1  0.340724  0.340724  0.977829  1
  Zn  Zn17  1  0.340724  0.977829  0.340724  1
  Zn  Zn18  1  0.659276  0.659276  0.022171  1
  Zn  Zn19  1  0.659276  0.022171  0.659276  1
  Zn  Zn20  1  0.977829  0.340724  0.340724  1
  Zn  Zn21  1  0.022171  0.659276  0.659276  1
  Si  Si22  1  0.500000  0.500000  0.500000  1
  Au  Au23  1  0.500000  0.000000  0.000000  1
  Au  Au24  1  0.000000  0.500000  0.500000  1
  Au  Au25  1  0.000000  0.500000  0.000000  1
  Au  Au26  1  0.500000  0.000000  0.500000  1
  Au  Au27  1  0.000000  0.000000  0.500000  1
  Au  Au28  1  0.500000  0.500000  0.000000  1
  Au  Au29  1  0.000000  0.000000  0.000000  1
