# generated using pymatgen
data_Ho12Co2Ru3Pb
_symmetry_space_group_name_H-M   'P 1'
_cell_length_a   8.31817172
_cell_length_b   8.31794356
_cell_length_c   8.31817308
_cell_angle_alpha   112.71826805
_cell_angle_beta   109.91366090
_cell_angle_gamma   105.85562492
_symmetry_Int_Tables_number   1
_chemical_formula_structural   Ho12Co2Ru3Pb
_chemical_formula_sum   'Ho12 Co2 Ru3 Pb1'
_cell_volume   441.44502028
_cell_formula_units_Z   1
loop_
 _symmetry_equiv_pos_site_id
 _symmetry_equiv_pos_as_xyz
  1  'x, y, z'
loop_
 _atom_site_type_symbol
 _atom_site_label
 _atom_site_symmetry_multiplicity
 _atom_site_fract_x
 _atom_site_fract_y
 _atom_site_fract_z
 _atom_site_occupancy
  Ho  Ho0  1  0.820742  0.722168  0.542919  1
  Ho  Ho1  1  0.179258  0.277832  0.457081  1
  Ho  Ho2  1  0.179250  0.722168  0.901425  1
  Ho  Ho3  1  0.820750  0.277832  0.098575  1
  Ho  Ho4  1  0.680372  0.363736  0.683365  1
  Ho  Ho5  1  0.319628  0.636264  0.316635  1
  Ho  Ho6  1  0.680404  0.997036  0.316631  1
  Ho  Ho7  1  0.319596  0.002964  0.683369  1
  Ho  Ho8  1  0.584752  0.772712  0.812042  1
  Ho  Ho9  1  0.415248  0.227288  0.187958  1
  Ho  Ho10  1  0.960670  0.772712  0.187959  1
  Ho  Ho11  1  0.039330  0.227288  0.812041  1
  Co  Co12  1  0.109890  0.609894  0.500005  1
  Co  Co13  1  0.890110  0.390106  0.499995  1
  Ru  Ru14  1  0.660771  0.000000  0.660771  1
  Ru  Ru15  1  0.339229  0.000000  0.339229  1
  Ru  Ru16  1  0.000000  0.000000  0.000000  1
  Pb  Pb17  1  0.500000  0.500000  0.000000  1
