# generated using pymatgen
data_La8Si15Os
_symmetry_space_group_name_H-M   'P 1'
_cell_length_a   8.28327800
_cell_length_b   8.28327871
_cell_length_c   8.73113400
_cell_angle_alpha   90.00000000
_cell_angle_beta   90.00000000
_cell_angle_gamma   119.99999715
_symmetry_Int_Tables_number   1
_chemical_formula_structural   La8Si15Os
_chemical_formula_sum   'La8 Si15 Os1'
_cell_volume   518.80697908
_cell_formula_units_Z   1
loop_
 _symmetry_equiv_pos_site_id
 _symmetry_equiv_pos_as_xyz
  1  'x, y, z'
loop_
 _atom_site_type_symbol
 _atom_site_label
 _atom_site_symmetry_multiplicity
 _atom_site_fract_x
 _atom_site_fract_y
 _atom_site_fract_z
 _atom_site_occupancy
  La  La0  1  0.501497  0.498503  0.750832  1
  La  La1  1  0.501478  0.498522  0.249102  1
  La  La2  1  0.997006  0.498503  0.750832  1
  La  La3  1  0.997043  0.498522  0.249102  1
  La  La4  1  0.501497  0.002994  0.750832  1
  La  La5  1  0.501478  0.002957  0.249102  1
  La  La6  1  0.000000  0.000000  0.751498  1
  La  La7  1  0.000000  0.000000  0.248650  1
  Si  Si8  1  0.666667  0.333333  0.999851  1
  Si  Si9  1  0.333333  0.666667  0.999902  1
  Si  Si10  1  0.333333  0.666667  0.499895  1
  Si  Si11  1  0.834198  0.165802  0.000074  1
  Si  Si12  1  0.167318  0.832682  0.000033  1
  Si  Si13  1  0.331603  0.165802  0.000074  1
  Si  Si14  1  0.163024  0.836976  0.500075  1
  Si  Si15  1  0.665366  0.832682  0.000033  1
  Si  Si16  1  0.829964  0.170036  0.500051  1
  Si  Si17  1  0.834198  0.668397  0.000074  1
  Si  Si18  1  0.673950  0.836976  0.500075  1
  Si  Si19  1  0.167318  0.334634  0.000033  1
  Si  Si20  1  0.340071  0.170036  0.500051  1
  Si  Si21  1  0.163024  0.326050  0.500075  1
  Si  Si22  1  0.829964  0.659929  0.500051  1
  Os  Os23  1  0.666667  0.333333  0.499704  1
