# generated using pymatgen
data_HoAg(WO4)2
_symmetry_space_group_name_H-M   'P 1'
_cell_length_a   7.41014398
_cell_length_b   7.41014428
_cell_length_c   7.28975586
_cell_angle_alpha   65.77536094
_cell_angle_beta   65.77535698
_cell_angle_gamma   94.63267409
_symmetry_Int_Tables_number   1
_chemical_formula_structural   HoAg(WO4)2
_chemical_formula_sum   'Ho2 Ag2 W4 O16'
_cell_volume   317.60410899
_cell_formula_units_Z   2
loop_
 _symmetry_equiv_pos_site_id
 _symmetry_equiv_pos_as_xyz
  1  'x, y, z'
loop_
 _atom_site_type_symbol
 _atom_site_label
 _atom_site_symmetry_multiplicity
 _atom_site_fract_x
 _atom_site_fract_y
 _atom_site_fract_z
 _atom_site_occupancy
  Ho  Ho0  1  0.700152  0.299848  0.000000  1
  Ho  Ho1  1  0.299848  0.700152  0.000000  1
  Ag  Ag2  1  0.685579  0.685579  0.476645  1
  Ag  Ag3  1  0.314421  0.314421  0.523355  1
  W  W4  1  0.162581  0.837419  0.500000  1
  W  W5  1  0.837419  0.162581  0.500000  1
  W  W6  1  0.785062  0.785062  0.974037  1
  W  W7  1  0.214938  0.214938  0.025963  1
  O  O8  1  0.895500  0.644996  0.760705  1
  O  O9  1  0.644996  0.895500  0.760705  1
  O  O10  1  0.104500  0.355004  0.239295  1
  O  O11  1  0.355004  0.104500  0.239295  1
  O  O12  1  0.784322  0.310247  0.651646  1
  O  O13  1  0.310247  0.784322  0.651646  1
  O  O14  1  0.215678  0.689753  0.348354  1
  O  O15  1  0.689753  0.215678  0.348354  1
  O  O16  1  0.448653  0.448653  0.857403  1
  O  O17  1  0.551347  0.551347  0.142597  1
  O  O18  1  0.043101  0.302061  0.908869  1
  O  O19  1  0.302061  0.043101  0.908869  1
  O  O20  1  0.956899  0.697939  0.091131  1
  O  O21  1  0.697939  0.956899  0.091131  1
  O  O22  1  0.020416  0.020416  0.660253  1
  O  O23  1  0.979584  0.979584  0.339747  1
