# generated using pymatgen
data_Rb4ZrPaS6
_symmetry_space_group_name_H-M   'P 1'
_cell_length_a   13.27786700
_cell_length_b   6.51078533
_cell_length_c   8.98815000
_cell_angle_alpha   71.63867975
_cell_angle_beta   90.00000000
_cell_angle_gamma   90.00000000
_symmetry_Int_Tables_number   1
_chemical_formula_structural   Rb4ZrPaS6
_chemical_formula_sum   'Rb8 Zr2 Pa2 S12'
_cell_volume   737.46071489
_cell_formula_units_Z   2
loop_
 _symmetry_equiv_pos_site_id
 _symmetry_equiv_pos_as_xyz
  1  'x, y, z'
loop_
 _atom_site_type_symbol
 _atom_site_label
 _atom_site_symmetry_multiplicity
 _atom_site_fract_x
 _atom_site_fract_y
 _atom_site_fract_z
 _atom_site_occupancy
  Rb  Rb0  1  0.954883  0.674806  0.657991  1
  Rb  Rb1  1  0.454883  0.825194  0.342009  1
  Rb  Rb2  1  0.045112  0.325328  0.343849  1
  Rb  Rb3  1  0.545112  0.174672  0.656151  1
  Rb  Rb4  1  0.871026  0.090364  0.895631  1
  Rb  Rb5  1  0.371026  0.409636  0.104369  1
  Rb  Rb6  1  0.129003  0.922081  0.105641  1
  Rb  Rb7  1  0.629003  0.577919  0.894359  1
  Zr  Zr8  1  0.249370  0.344588  0.701892  1
  Zr  Zr9  1  0.749370  0.155412  0.298108  1
  Pa  Pa10  1  0.750513  0.655734  0.298229  1
  Pa  Pa11  1  0.250513  0.844266  0.701771  1
  S  S12  1  0.907291  0.920713  0.281692  1
  S  S13  1  0.407291  0.579287  0.718308  1
  S  S14  1  0.092609  0.093016  0.719105  1
  S  S15  1  0.592609  0.406984  0.280895  1
  S  S16  1  0.817796  0.304842  0.517798  1
  S  S17  1  0.317796  0.195158  0.482202  1
  S  S18  1  0.182350  0.681787  0.481987  1
  S  S19  1  0.682350  0.818213  0.518013  1
  S  S20  1  0.838429  0.491094  0.090243  1
  S  S21  1  0.338429  0.008906  0.909757  1
  S  S22  1  0.161616  0.498111  0.909449  1
  S  S23  1  0.661616  0.001889  0.090551  1
