# generated using pymatgen
data_Gd5Ir2Rh
_symmetry_space_group_name_H-M   'P 1'
_cell_length_a   11.02386000
_cell_length_b   11.02386000
_cell_length_c   6.42793800
_cell_angle_alpha   90.00000000
_cell_angle_beta   90.00000000
_cell_angle_gamma   90.00000000
_symmetry_Int_Tables_number   1
_chemical_formula_structural   Gd5Ir2Rh
_chemical_formula_sum   'Gd20 Ir8 Rh4'
_cell_volume   781.15831064
_cell_formula_units_Z   4
loop_
 _symmetry_equiv_pos_site_id
 _symmetry_equiv_pos_as_xyz
  1  'x, y, z'
loop_
 _atom_site_type_symbol
 _atom_site_label
 _atom_site_symmetry_multiplicity
 _atom_site_fract_x
 _atom_site_fract_y
 _atom_site_fract_z
 _atom_site_occupancy
  Gd  Gd0  1  0.290321  0.088751  0.378976  1
  Gd  Gd1  1  0.290321  0.911249  0.878976  1
  Gd  Gd2  1  0.709679  0.088751  0.878976  1
  Gd  Gd3  1  0.709679  0.911249  0.378976  1
  Gd  Gd4  1  0.588751  0.790321  0.878976  1
  Gd  Gd5  1  0.588751  0.209679  0.378976  1
  Gd  Gd6  1  0.411249  0.790321  0.378976  1
  Gd  Gd7  1  0.411249  0.209679  0.878976  1
  Gd  Gd8  1  0.209679  0.411249  0.621024  1
  Gd  Gd9  1  0.209679  0.588751  0.121024  1
  Gd  Gd10  1  0.790321  0.411249  0.121024  1
  Gd  Gd11  1  0.790321  0.588751  0.621024  1
  Gd  Gd12  1  0.911249  0.709679  0.121024  1
  Gd  Gd13  1  0.911249  0.290321  0.621024  1
  Gd  Gd14  1  0.088751  0.709679  0.621024  1
  Gd  Gd15  1  0.088751  0.290321  0.121024  1
  Gd  Gd16  1  0.000000  0.000000  0.500000  1
  Gd  Gd17  1  0.000000  0.000000  0.000000  1
  Gd  Gd18  1  0.500000  0.500000  0.000000  1
  Gd  Gd19  1  0.500000  0.500000  0.500000  1
  Ir  Ir20  1  0.845794  0.154206  0.250000  1
  Ir  Ir21  1  0.845794  0.845794  0.750000  1
  Ir  Ir22  1  0.154206  0.154206  0.750000  1
  Ir  Ir23  1  0.154206  0.845794  0.250000  1
  Ir  Ir24  1  0.654206  0.345794  0.750000  1
  Ir  Ir25  1  0.654206  0.654206  0.250000  1
  Ir  Ir26  1  0.345794  0.345794  0.250000  1
  Ir  Ir27  1  0.345794  0.654206  0.750000  1
  Rh  Rh28  1  0.500000  0.000000  0.122749  1
  Rh  Rh29  1  0.500000  0.000000  0.622749  1
  Rh  Rh30  1  0.000000  0.500000  0.877251  1
  Rh  Rh31  1  0.000000  0.500000  0.377251  1
