# generated using pymatgen
data_Cs3AsS3
_symmetry_space_group_name_H-M   'P 1'
_cell_length_a   10.15711100
_cell_length_b   10.15711100
_cell_length_c   10.15711100
_cell_angle_alpha   90.00000000
_cell_angle_beta   90.00000000
_cell_angle_gamma   90.00000000
_symmetry_Int_Tables_number   1
_chemical_formula_structural   Cs3AsS3
_chemical_formula_sum   'Cs12 As4 S12'
_cell_volume   1047.87769410
_cell_formula_units_Z   4
loop_
 _symmetry_equiv_pos_site_id
 _symmetry_equiv_pos_as_xyz
  1  'x, y, z'
loop_
 _atom_site_type_symbol
 _atom_site_label
 _atom_site_symmetry_multiplicity
 _atom_site_fract_x
 _atom_site_fract_y
 _atom_site_fract_z
 _atom_site_occupancy
  Cs  Cs0  1  0.057222  0.557222  0.942778  1
  Cs  Cs1  1  0.557222  0.942778  0.057222  1
  Cs  Cs2  1  0.942778  0.057222  0.557222  1
  Cs  Cs3  1  0.442778  0.442778  0.442778  1
  Cs  Cs4  1  0.562380  0.062380  0.437620  1
  Cs  Cs5  1  0.062380  0.437620  0.562380  1
  Cs  Cs6  1  0.437620  0.562380  0.062380  1
  Cs  Cs7  1  0.937620  0.937620  0.937620  1
  Cs  Cs8  1  0.825420  0.325420  0.174580  1
  Cs  Cs9  1  0.325420  0.174580  0.825420  1
  Cs  Cs10  1  0.174580  0.825420  0.325420  1
  Cs  Cs11  1  0.674580  0.674580  0.674580  1
  As  As12  1  0.271144  0.771144  0.728856  1
  As  As13  1  0.771144  0.728856  0.271144  1
  As  As14  1  0.728856  0.271144  0.771144  1
  As  As15  1  0.228856  0.228856  0.228856  1
  S  S16  1  0.257602  0.839556  0.942724  1
  S  S17  1  0.057276  0.757602  0.660444  1
  S  S18  1  0.339556  0.557276  0.742398  1
  S  S19  1  0.757602  0.660444  0.057276  1
  S  S20  1  0.557276  0.742398  0.339556  1
  S  S21  1  0.839556  0.942724  0.257602  1
  S  S22  1  0.742398  0.339556  0.557276  1
  S  S23  1  0.942724  0.257602  0.839556  1
  S  S24  1  0.660444  0.057276  0.757602  1
  S  S25  1  0.242398  0.160444  0.442724  1
  S  S26  1  0.442724  0.242398  0.160444  1
  S  S27  1  0.160444  0.442724  0.242398  1
