# generated using pymatgen
data_Er11In(Hg2Pd)4
_symmetry_space_group_name_H-M   'P 1'
_cell_length_a   12.87931373
_cell_length_b   12.87930066
_cell_length_c   3.69353800
_cell_angle_alpha   90.00000000
_cell_angle_beta   90.00000000
_cell_angle_gamma   111.39904610
_symmetry_Int_Tables_number   1
_chemical_formula_structural   Er11In(Hg2Pd)4
_chemical_formula_sum   'Er11 In1 Hg8 Pd4'
_cell_volume   570.43494990
_cell_formula_units_Z   1
loop_
 _symmetry_equiv_pos_site_id
 _symmetry_equiv_pos_as_xyz
  1  'x, y, z'
loop_
 _atom_site_type_symbol
 _atom_site_label
 _atom_site_symmetry_multiplicity
 _atom_site_fract_x
 _atom_site_fract_y
 _atom_site_fract_z
 _atom_site_occupancy
  Er  Er0  1  0.415258  0.076345  0.000000  1
  Er  Er1  1  0.584742  0.923655  0.000000  1
  Er  Er2  1  0.076339  0.415254  0.000000  1
  Er  Er3  1  0.923661  0.584746  0.000000  1
  Er  Er4  1  0.166730  0.833273  0.000000  1
  Er  Er5  1  0.833270  0.166727  0.000000  1
  Er  Er6  1  0.369976  0.630026  0.000000  1
  Er  Er7  1  0.630024  0.369974  0.000000  1
  Er  Er8  1  0.300319  0.300325  0.000000  1
  Er  Er9  1  0.699681  0.699675  0.000000  1
  Er  Er10  1  0.000000  0.000000  0.000000  1
  In  In11  1  0.500000  0.500000  0.500000  1
  Hg  Hg12  1  0.369297  0.847158  0.500000  1
  Hg  Hg13  1  0.630703  0.152842  0.500000  1
  Hg  Hg14  1  0.847165  0.369307  0.500000  1
  Hg  Hg15  1  0.152835  0.630693  0.500000  1
  Hg  Hg16  1  0.214117  0.060945  0.500000  1
  Hg  Hg17  1  0.785883  0.939055  0.500000  1
  Hg  Hg18  1  0.060943  0.214124  0.500000  1
  Hg  Hg19  1  0.939057  0.785876  0.500000  1
  Pd  Pd20  1  0.448929  0.250882  0.500000  1
  Pd  Pd21  1  0.551071  0.749118  0.500000  1
  Pd  Pd22  1  0.250861  0.448931  0.500000  1
  Pd  Pd23  1  0.749139  0.551069  0.500000  1
