# generated using pymatgen
data_RbCeSmSe6
_symmetry_space_group_name_H-M   'P 1'
_cell_length_a   11.78916516
_cell_length_b   11.78916573
_cell_length_c   11.78916534
_cell_angle_alpha   159.20135005
_cell_angle_beta   152.07463154
_cell_angle_gamma   35.07581190
_symmetry_Int_Tables_number   1
_chemical_formula_structural   RbCeSmSe6
_chemical_formula_sum   'Rb1 Ce1 Sm1 Se6'
_cell_volume   272.19022548
_cell_formula_units_Z   1
loop_
 _symmetry_equiv_pos_site_id
 _symmetry_equiv_pos_as_xyz
  1  'x, y, z'
loop_
 _atom_site_type_symbol
 _atom_site_label
 _atom_site_symmetry_multiplicity
 _atom_site_fract_x
 _atom_site_fract_y
 _atom_site_fract_z
 _atom_site_occupancy
  Rb  Rb0  1  0.997049  0.997049  0.000000  1
  Ce  Ce1  1  0.687644  0.187644  0.500000  1
  Sm  Sm2  1  0.315578  0.815578  0.500000  1
  Se  Se3  1  0.181476  0.393777  0.787699  1
  Se  Se4  1  0.221898  0.221898  0.000000  1
  Se  Se5  1  0.398915  0.608508  0.790409  1
  Se  Se6  1  0.606079  0.393777  0.212301  1
  Se  Se7  1  0.818099  0.608508  0.209591  1
  Se  Se8  1  0.773263  0.773263  0.000000  1
