# generated using pymatgen
data_Tb15Lu(CoHg)4
_symmetry_space_group_name_H-M   'P 1'
_cell_length_a   9.50586391
_cell_length_b   9.50586416
_cell_length_c   9.51735400
_cell_angle_alpha   59.96001508
_cell_angle_beta   59.96001420
_cell_angle_gamma   60.00672567
_symmetry_Int_Tables_number   1
_chemical_formula_structural   Tb15Lu(CoHg)4
_chemical_formula_sum   'Tb15 Lu1 Co4 Hg4'
_cell_volume   607.77624602
_cell_formula_units_Z   1
loop_
 _symmetry_equiv_pos_site_id
 _symmetry_equiv_pos_as_xyz
  1  'x, y, z'
loop_
 _atom_site_type_symbol
 _atom_site_label
 _atom_site_symmetry_multiplicity
 _atom_site_fract_x
 _atom_site_fract_y
 _atom_site_fract_z
 _atom_site_occupancy
  Tb  Tb0  1  0.596967  0.596967  0.598629  1
  Tb  Tb1  1  0.190262  0.810016  0.811779  1
  Tb  Tb2  1  0.060636  0.060636  0.439364  1
  Tb  Tb3  1  0.438208  0.062305  0.061101  1
  Tb  Tb4  1  0.810016  0.190262  0.811779  1
  Tb  Tb5  1  0.438208  0.062305  0.438385  1
  Tb  Tb6  1  0.597857  0.206923  0.597610  1
  Tb  Tb7  1  0.810979  0.810979  0.189021  1
  Tb  Tb8  1  0.206923  0.597857  0.597610  1
  Tb  Tb9  1  0.810016  0.190262  0.187943  1
  Tb  Tb10  1  0.062305  0.438208  0.438385  1
  Tb  Tb11  1  0.190262  0.810016  0.187943  1
  Tb  Tb12  1  0.596967  0.596967  0.207438  1
  Tb  Tb13  1  0.188920  0.188920  0.811080  1
  Tb  Tb14  1  0.062305  0.438208  0.061101  1
  Lu  Lu15  1  0.439250  0.439250  0.060750  1
  Co  Co16  1  0.391347  0.391347  0.388754  1
  Co  Co17  1  0.827571  0.391639  0.390395  1
  Co  Co18  1  0.391639  0.827571  0.390395  1
  Co  Co19  1  0.391347  0.391347  0.828553  1
  Hg  Hg20  1  0.833919  0.833919  0.498278  1
  Hg  Hg21  1  0.833919  0.833919  0.833882  1
  Hg  Hg22  1  0.496659  0.833517  0.834912  1
  Hg  Hg23  1  0.833517  0.496659  0.834912  1
