# generated using pymatgen
data_Tb10Bi3Pb3Cl2
_symmetry_space_group_name_H-M   'P 1'
_cell_length_a   9.27186090
_cell_length_b   9.27759025
_cell_length_c   6.55738400
_cell_angle_alpha   90.00000000
_cell_angle_beta   90.00000000
_cell_angle_gamma   119.82083237
_symmetry_Int_Tables_number   1
_chemical_formula_structural   Tb10Bi3Pb3Cl2
_chemical_formula_sum   'Tb10 Bi3 Pb3 Cl2'
_cell_volume   489.37817432
_cell_formula_units_Z   1
loop_
 _symmetry_equiv_pos_site_id
 _symmetry_equiv_pos_as_xyz
  1  'x, y, z'
loop_
 _atom_site_type_symbol
 _atom_site_label
 _atom_site_symmetry_multiplicity
 _atom_site_fract_x
 _atom_site_fract_y
 _atom_site_fract_z
 _atom_site_occupancy
  Tb  Tb0  1  0.262521  0.002273  0.250000  1
  Tb  Tb1  1  0.738754  0.999725  0.750000  1
  Tb  Tb2  1  0.002750  0.263180  0.250000  1
  Tb  Tb3  1  0.997290  0.736277  0.750000  1
  Tb  Tb4  1  0.737325  0.737042  0.250000  1
  Tb  Tb5  1  0.261505  0.264203  0.750000  1
  Tb  Tb6  1  0.333101  0.664471  0.999474  1
  Tb  Tb7  1  0.666770  0.335023  0.999467  1
  Tb  Tb8  1  0.666770  0.335023  0.500533  1
  Tb  Tb9  1  0.333101  0.664471  0.500526  1
  Bi  Bi10  1  0.611694  0.000188  0.250000  1
  Bi  Bi11  1  0.388489  0.000064  0.750000  1
  Bi  Bi12  1  0.000157  0.611025  0.250000  1
  Pb  Pb13  1  0.999632  0.388843  0.750000  1
  Pb  Pb14  1  0.389758  0.389754  0.250000  1
  Pb  Pb15  1  0.610315  0.610575  0.750000  1
  Cl  Cl16  1  0.000034  0.998931  0.000593  1
  Cl  Cl17  1  0.000034  0.998931  0.499407  1
