# generated using pymatgen
data_SrEr7(IO6)4
_symmetry_space_group_name_H-M   'P 1'
_cell_length_a   5.53675300
_cell_length_b   7.69453882
_cell_length_c   11.49371500
_cell_angle_alpha   77.00634764
_cell_angle_beta   90.00000000
_cell_angle_gamma   90.00000000
_symmetry_Int_Tables_number   1
_chemical_formula_structural   SrEr7(IO6)4
_chemical_formula_sum   'Sr1 Er7 I4 O24'
_cell_volume   477.12613566
_cell_formula_units_Z   1
loop_
 _symmetry_equiv_pos_site_id
 _symmetry_equiv_pos_as_xyz
  1  'x, y, z'
loop_
 _atom_site_type_symbol
 _atom_site_label
 _atom_site_symmetry_multiplicity
 _atom_site_fract_x
 _atom_site_fract_y
 _atom_site_fract_z
 _atom_site_occupancy
  Sr  Sr0  1  0.743097  0.000000  0.750000  1
  Er  Er1  1  0.246483  0.000000  0.250000  1
  Er  Er2  1  0.179096  0.786876  0.577382  1
  Er  Er3  1  0.821324  0.788044  0.083707  1
  Er  Er4  1  0.688586  0.500000  0.750000  1
  Er  Er5  1  0.312612  0.500000  0.250000  1
  Er  Er6  1  0.179096  0.213124  0.922618  1
  Er  Er7  1  0.821324  0.211956  0.416293  1
  I  I8  1  0.256133  0.719108  0.884397  1
  I  I9  1  0.732571  0.723290  0.389614  1
  I  I10  1  0.256133  0.280892  0.615603  1
  I  I11  1  0.732571  0.276710  0.110386  1
  O  O12  1  0.083768  0.933719  0.894940  1
  O  O13  1  0.530242  0.818195  0.942163  1
  O  O14  1  0.981008  0.950853  0.404838  1
  O  O15  1  0.429711  0.784931  0.732839  1
  O  O16  1  0.458646  0.843695  0.435596  1
  O  O17  1  0.988202  0.693909  0.778191  1
  O  O18  1  0.552613  0.796778  0.227185  1
  O  O19  1  0.831138  0.652723  0.564665  1
  O  O20  1  0.372366  0.489496  0.883791  1
  O  O21  1  0.054077  0.716700  0.250338  1
  O  O22  1  0.372366  0.510504  0.616209  1
  O  O23  1  0.831138  0.347277  0.935335  1
  O  O24  1  0.121641  0.619753  0.035163  1
  O  O25  1  0.612075  0.491427  0.387822  1
  O  O26  1  0.988202  0.306091  0.721809  1
  O  O27  1  0.612075  0.508573  0.112178  1
  O  O28  1  0.121641  0.380247  0.464837  1
  O  O29  1  0.429711  0.215069  0.767161  1
  O  O30  1  0.054077  0.283300  0.249662  1
  O  O31  1  0.530242  0.181805  0.557837  1
  O  O32  1  0.552613  0.203222  0.272815  1
  O  O33  1  0.083768  0.066281  0.605060  1
  O  O34  1  0.458646  0.156305  0.064404  1
  O  O35  1  0.981008  0.049147  0.095162  1
