# generated using pymatgen
data_Be15Nb6Co3Cu2Ni3
_symmetry_space_group_name_H-M   'P 1'
_cell_length_a   7.58875298
_cell_length_b   7.59430330
_cell_length_c   7.59087804
_cell_angle_alpha   60.18665324
_cell_angle_beta   60.08801866
_cell_angle_gamma   60.06377610
_symmetry_Int_Tables_number   1
_chemical_formula_structural   Be15Nb6Co3Cu2Ni3
_chemical_formula_sum   'Be15 Nb6 Co3 Cu2 Ni3'
_cell_volume   310.12936589
_cell_formula_units_Z   1
loop_
 _symmetry_equiv_pos_site_id
 _symmetry_equiv_pos_as_xyz
  1  'x, y, z'
loop_
 _atom_site_type_symbol
 _atom_site_label
 _atom_site_symmetry_multiplicity
 _atom_site_fract_x
 _atom_site_fract_y
 _atom_site_fract_z
 _atom_site_occupancy
  Be  Be0  1  0.321892  0.329159  0.326753  1
  Be  Be1  1  0.678884  0.672667  0.671750  1
  Be  Be2  1  0.322900  0.328264  0.021277  1
  Be  Be3  1  0.324163  0.018386  0.328126  1
  Be  Be4  1  0.677654  0.670651  0.979520  1
  Be  Be5  1  0.676629  0.980933  0.670289  1
  Be  Be6  1  0.026848  0.326296  0.323190  1
  Be  Be7  1  0.971758  0.675648  0.674917  1
  Be  Be8  1  0.500136  0.999507  0.000260  1
  Be  Be9  1  0.999160  0.500868  0.500826  1
  Be  Be10  1  0.999860  0.499800  0.000272  1
  Be  Be11  1  0.500798  0.999872  0.499814  1
  Be  Be12  1  0.999393  0.999723  0.500000  1
  Be  Be13  1  0.500275  0.499860  0.000224  1
  Be  Be14  1  0.000180  0.000978  0.998730  1
  Nb  Nb15  1  0.708190  0.296051  0.295963  1
  Nb  Nb16  1  0.293329  0.697797  0.706865  1
  Nb  Nb17  1  0.287912  0.699278  0.304700  1
  Nb  Nb18  1  0.706486  0.302387  0.697740  1
  Nb  Nb19  1  0.289326  0.306580  0.701955  1
  Nb  Nb20  1  0.712148  0.695110  0.300640  1
  Co  Co21  1  0.122720  0.632853  0.122091  1
  Co  Co22  1  0.877636  0.879061  0.365642  1
  Co  Co23  1  0.877045  0.367250  0.878468  1
  Cu  Cu24  1  0.632678  0.121312  0.121652  1
  Cu  Cu25  1  0.367992  0.878042  0.877858  1
  Ni  Ni26  1  0.123527  0.121883  0.121760  1
  Ni  Ni27  1  0.877111  0.878082  0.876976  1
  Ni  Ni28  1  0.123370  0.121701  0.631740  1
