# generated using pymatgen
data_LiSe3N8
_symmetry_space_group_name_H-M   'P 1'
_cell_length_a   4.46541920
_cell_length_b   8.34840792
_cell_length_c   12.33585771
_cell_angle_alpha   96.10649339
_cell_angle_beta   93.23276335
_cell_angle_gamma   105.85297218
_symmetry_Int_Tables_number   1
_chemical_formula_structural   LiSe3N8
_chemical_formula_sum   'Li1 Se3 N8'
_cell_volume   438.11047050
_cell_formula_units_Z   1
loop_
 _symmetry_equiv_pos_site_id
 _symmetry_equiv_pos_as_xyz
  1  'x, y, z'
loop_
 _atom_site_type_symbol
 _atom_site_label
 _atom_site_symmetry_multiplicity
 _atom_site_fract_x
 _atom_site_fract_y
 _atom_site_fract_z
 _atom_site_occupancy
  Li  Li0  1  0.874553  0.372699  0.572998  1
  Se  Se1  1  0.430609  0.491635  0.526099  1
  Se  Se2  1  0.258672  0.260857  0.386363  1
  Se  Se3  1  0.740804  0.123877  0.423360  1
  N  N4  1  0.190567  0.857662  0.748137  1
  N  N5  1  0.771805  0.777217  0.027950  1
  N  N6  1  0.179206  0.772548  0.270667  1
  N  N7  1  0.988583  0.368429  0.746493  1
  N  N8  1  0.596656  0.653659  0.029139  1
  N  N9  1  0.179031  0.640814  0.278469  1
  N  N10  1  0.074077  0.949209  0.718951  1
  N  N11  1  0.088197  0.383481  0.833002  1
