# generated using pymatgen
data_Ba8Dy3Y(FeO5)4
_symmetry_space_group_name_H-M   'P 1'
_cell_length_a   6.15575203
_cell_length_b   7.93495726
_cell_length_c   12.77751199
_cell_angle_alpha   91.87037457
_cell_angle_beta   89.99460739
_cell_angle_gamma   89.99021351
_symmetry_Int_Tables_number   1
_chemical_formula_structural   Ba8Dy3Y(FeO5)4
_chemical_formula_sum   'Ba8 Dy3 Y1 Fe4 O20'
_cell_volume   623.79308341
_cell_formula_units_Z   1
loop_
 _symmetry_equiv_pos_site_id
 _symmetry_equiv_pos_as_xyz
  1  'x, y, z'
loop_
 _atom_site_type_symbol
 _atom_site_label
 _atom_site_symmetry_multiplicity
 _atom_site_fract_x
 _atom_site_fract_y
 _atom_site_fract_z
 _atom_site_occupancy
  Ba  Ba0  1  0.761888  0.483728  0.347191  1
  Ba  Ba1  1  0.738390  0.983332  0.847522  1
  Ba  Ba2  1  0.237642  0.516805  0.652724  1
  Ba  Ba3  1  0.261828  0.016214  0.152304  1
  Ba  Ba4  1  0.758307  0.992779  0.379941  1
  Ba  Ba5  1  0.741832  0.493267  0.880533  1
  Ba  Ba6  1  0.241221  0.006577  0.619898  1
  Ba  Ba7  1  0.258349  0.507001  0.119613  1
  Dy  Dy8  1  0.750155  0.767055  0.129509  1
  Dy  Dy9  1  0.250128  0.732854  0.370272  1
  Dy  Dy10  1  0.249898  0.233054  0.870500  1
  Y  Y11  1  0.749642  0.267082  0.629546  1
  Fe  Fe12  1  0.733363  0.742370  0.582884  1
  Fe  Fe13  1  0.766570  0.242644  0.083158  1
  Fe  Fe14  1  0.266563  0.257332  0.416827  1
  Fe  Fe15  1  0.233600  0.757367  0.916873  1
  O  O16  1  0.764091  0.971912  0.631433  1
  O  O17  1  0.736402  0.472955  0.130894  1
  O  O18  1  0.236369  0.027152  0.368998  1
  O  O19  1  0.263735  0.527154  0.869191  1
  O  O20  1  0.732654  0.061663  0.175561  1
  O  O21  1  0.768006  0.563082  0.676436  1
  O  O22  1  0.267381  0.938323  0.824437  1
  O  O23  1  0.232689  0.438172  0.324265  1
  O  O24  1  0.546133  0.745483  0.273593  1
  O  O25  1  0.953495  0.245476  0.774202  1
  O  O26  1  0.452665  0.254749  0.726021  1
  O  O27  1  0.046008  0.754646  0.226204  1
  O  O28  1  0.553161  0.221634  0.974640  1
  O  O29  1  0.946607  0.721202  0.474223  1
  O  O30  1  0.446878  0.778432  0.025432  1
  O  O31  1  0.053528  0.278584  0.525610  1
  O  O32  1  0.049717  0.231580  0.022172  1
  O  O33  1  0.450283  0.731103  0.521823  1
  O  O34  1  0.950708  0.768569  0.978096  1
  O  O35  1  0.550112  0.268668  0.477472  1
