# generated using pymatgen
data_La2Nd3Dy3(CdPt)2
_symmetry_space_group_name_H-M   'P 1'
_cell_length_a   9.95426760
_cell_length_b   9.95436240
_cell_length_c   9.95062200
_cell_angle_alpha   60.01217009
_cell_angle_beta   60.01236054
_cell_angle_gamma   60.02540656
_symmetry_Int_Tables_number   1
_chemical_formula_structural   La2Nd3Dy3(CdPt)2
_chemical_formula_sum   'La4 Nd6 Dy6 Cd4 Pt4'
_cell_volume   697.46405400
_cell_formula_units_Z   2
loop_
 _symmetry_equiv_pos_site_id
 _symmetry_equiv_pos_as_xyz
  1  'x, y, z'
loop_
 _atom_site_type_symbol
 _atom_site_label
 _atom_site_symmetry_multiplicity
 _atom_site_fract_x
 _atom_site_fract_y
 _atom_site_fract_z
 _atom_site_occupancy
  La  La0  1  0.352229  0.352232  0.351678  1
  La  La1  1  0.352232  0.352240  0.943854  1
  La  La2  1  0.353255  0.941346  0.352698  1
  La  La3  1  0.941376  0.353239  0.352687  1
  Nd  Nd4  1  0.937499  0.563062  0.564939  1
  Nd  Nd5  1  0.563072  0.937512  0.934458  1
  Nd  Nd6  1  0.563075  0.937513  0.564945  1
  Nd  Nd7  1  0.937489  0.563091  0.934474  1
  Nd  Nd8  1  0.564583  0.564586  0.935416  1
  Nd  Nd9  1  0.936470  0.936459  0.563536  1
  Dy  Dy10  1  0.815109  0.184798  0.185528  1
  Dy  Dy11  1  0.184803  0.815112  0.814567  1
  Dy  Dy12  1  0.184798  0.815110  0.185529  1
  Dy  Dy13  1  0.815107  0.184801  0.814568  1
  Dy  Dy14  1  0.185371  0.185372  0.814630  1
  Dy  Dy15  1  0.815067  0.815072  0.184933  1
  Cd  Cd16  1  0.580726  0.580725  0.581070  1
  Cd  Cd17  1  0.580727  0.580723  0.257485  1
  Cd  Cd18  1  0.580952  0.256447  0.581304  1
  Cd  Cd19  1  0.256437  0.580952  0.581306  1
  Pt  Pt20  1  0.140371  0.140362  0.140802  1
  Pt  Pt21  1  0.140372  0.140364  0.578465  1
  Pt  Pt22  1  0.140242  0.578645  0.140564  1
  Pt  Pt23  1  0.578641  0.140238  0.140569  1
