# generated using pymatgen
data_Tb4DyErCoBr10
_symmetry_space_group_name_H-M   'P 1'
_cell_length_a   7.37533678
_cell_length_b   9.18597380
_cell_length_c   9.17175820
_cell_angle_alpha   106.94451426
_cell_angle_beta   96.42092905
_cell_angle_gamma   104.74152352
_symmetry_Int_Tables_number   1
_chemical_formula_structural   Tb4DyErCoBr10
_chemical_formula_sum   'Tb4 Dy1 Er1 Co1 Br10'
_cell_volume   563.10391680
_cell_formula_units_Z   1
loop_
 _symmetry_equiv_pos_site_id
 _symmetry_equiv_pos_as_xyz
  1  'x, y, z'
loop_
 _atom_site_type_symbol
 _atom_site_label
 _atom_site_symmetry_multiplicity
 _atom_site_fract_x
 _atom_site_fract_y
 _atom_site_fract_z
 _atom_site_occupancy
  Tb  Tb0  1  0.878694  0.951720  0.735658  1
  Tb  Tb1  1  0.121603  0.047925  0.264468  1
  Tb  Tb2  1  0.350487  0.129452  0.674687  1
  Tb  Tb3  1  0.649605  0.871835  0.325613  1
  Dy  Dy4  1  0.035684  0.708000  0.410256  1
  Er  Er5  1  0.964805  0.289398  0.589364  1
  Co  Co6  1  0.000244  0.999628  0.500085  1
  Br  Br7  1  0.456502  0.820570  0.587150  1
  Br  Br8  1  0.544729  0.180873  0.414052  1
  Br  Br9  1  0.913895  0.625294  0.671950  1
  Br  Br10  1  0.085129  0.372233  0.330219  1
  Br  Br11  1  0.243825  0.080528  0.955302  1
  Br  Br12  1  0.756326  0.919552  0.044408  1
  Br  Br13  1  0.333494  0.446322  0.769862  1
  Br  Br14  1  0.662679  0.554357  0.229045  1
  Br  Br15  1  0.777303  0.251094  0.839218  1
  Br  Br16  1  0.224998  0.751222  0.158663  1
