# generated using pymatgen
data_Be(B6N)2
_symmetry_space_group_name_H-M   'P 1'
_cell_length_a   5.23487689
_cell_length_b   5.23487746
_cell_length_c   5.23487724
_cell_angle_alpha   63.18767185
_cell_angle_beta   63.18766496
_cell_angle_gamma   63.18767257
_symmetry_Int_Tables_number   1
_chemical_formula_structural   Be(B6N)2
_chemical_formula_sum   'Be1 B12 N2'
_cell_volume   108.60702466
_cell_formula_units_Z   1
loop_
 _symmetry_equiv_pos_site_id
 _symmetry_equiv_pos_as_xyz
  1  'x, y, z'
loop_
 _atom_site_type_symbol
 _atom_site_label
 _atom_site_symmetry_multiplicity
 _atom_site_fract_x
 _atom_site_fract_y
 _atom_site_fract_z
 _atom_site_occupancy
  Be  Be0  1  0.500000  0.500000  0.500000  1
  B  B1  1  0.676478  0.197029  0.197029  1
  B  B2  1  0.197029  0.197029  0.676478  1
  B  B3  1  0.197029  0.676478  0.197029  1
  B  B4  1  0.323522  0.802971  0.802971  1
  B  B5  1  0.802971  0.802971  0.323522  1
  B  B6  1  0.802971  0.323522  0.802971  1
  B  B7  1  0.330679  0.003677  0.003677  1
  B  B8  1  0.003677  0.003677  0.330679  1
  B  B9  1  0.003677  0.330679  0.003677  1
  B  B10  1  0.669321  0.996323  0.996323  1
  B  B11  1  0.996323  0.996323  0.669321  1
  B  B12  1  0.996323  0.669321  0.996323  1
  N  N13  1  0.623710  0.623710  0.623710  1
  N  N14  1  0.376290  0.376290  0.376290  1
