# generated using pymatgen
data_YEr3(Al3Rh)6
_symmetry_space_group_name_H-M   'P 1'
_cell_length_a   7.54692795
_cell_length_b   7.54943499
_cell_length_c   9.45262400
_cell_angle_alpha   90.00000000
_cell_angle_beta   90.00000000
_cell_angle_gamma   119.34937403
_symmetry_Int_Tables_number   1
_chemical_formula_structural   YEr3(Al3Rh)6
_chemical_formula_sum   'Y1 Er3 Al18 Rh6'
_cell_volume   469.43751204
_cell_formula_units_Z   1
loop_
 _symmetry_equiv_pos_site_id
 _symmetry_equiv_pos_as_xyz
  1  'x, y, z'
loop_
 _atom_site_type_symbol
 _atom_site_label
 _atom_site_symmetry_multiplicity
 _atom_site_fract_x
 _atom_site_fract_y
 _atom_site_fract_z
 _atom_site_occupancy
  Y  Y0  1  0.994533  0.671114  0.750000  1
  Er  Er1  1  0.005328  0.328775  0.250000  1
  Er  Er2  1  0.671156  0.994668  0.750000  1
  Er  Er3  1  0.328891  0.005480  0.250000  1
  Al  Al4  1  0.127692  0.128327  0.750000  1
  Al  Al5  1  0.872259  0.872558  0.250000  1
  Al  Al6  1  0.000700  0.334900  0.574140  1
  Al  Al7  1  0.999281  0.664436  0.424112  1
  Al  Al8  1  0.999281  0.664436  0.075888  1
  Al  Al9  1  0.335942  0.001178  0.925771  1
  Al  Al10  1  0.000700  0.334900  0.925860  1
  Al  Al11  1  0.664468  0.999305  0.075122  1
  Al  Al12  1  0.664468  0.999305  0.424878  1
  Al  Al13  1  0.335942  0.001178  0.574229  1
  Al  Al14  1  0.332916  0.332924  0.051295  1
  Al  Al15  1  0.666749  0.667199  0.950189  1
  Al  Al16  1  0.666749  0.667199  0.549811  1
  Al  Al17  1  0.332916  0.332924  0.448705  1
  Al  Al18  1  0.339964  0.550188  0.750000  1
  Al  Al19  1  0.660535  0.449742  0.250000  1
  Al  Al20  1  0.549502  0.338280  0.750000  1
  Al  Al21  1  0.449920  0.660799  0.250000  1
  Rh  Rh22  1  0.671868  0.327457  0.499514  1
  Rh  Rh23  1  0.327873  0.672031  0.499566  1
  Rh  Rh24  1  0.327873  0.672031  0.000434  1
  Rh  Rh25  1  0.671868  0.327457  0.000486  1
  Rh  Rh26  1  0.000313  0.000606  0.499356  1
  Rh  Rh27  1  0.000313  0.000606  0.000644  1
