# generated using pymatgen
data_Cs3RbBa2(Nb2Se11)2
_symmetry_space_group_name_H-M   'P 1'
_cell_length_a   14.54199800
_cell_length_b   8.06082475
_cell_length_c   17.35600997
_cell_angle_alpha   84.16545582
_cell_angle_beta   90.00000000
_cell_angle_gamma   90.00000000
_symmetry_Int_Tables_number   1
_chemical_formula_structural   Cs3RbBa2(Nb2Se11)2
_chemical_formula_sum   'Cs6 Rb2 Ba4 Nb8 Se44'
_cell_volume   2023.94070169
_cell_formula_units_Z   2
loop_
 _symmetry_equiv_pos_site_id
 _symmetry_equiv_pos_as_xyz
  1  'x, y, z'
loop_
 _atom_site_type_symbol
 _atom_site_label
 _atom_site_symmetry_multiplicity
 _atom_site_fract_x
 _atom_site_fract_y
 _atom_site_fract_z
 _atom_site_occupancy
  Cs  Cs0  1  0.541371  0.270705  0.915616  1
  Cs  Cs1  1  0.458668  0.728991  0.085540  1
  Cs  Cs2  1  0.958668  0.271009  0.414460  1
  Cs  Cs3  1  0.884328  0.297114  0.732952  1
  Cs  Cs4  1  0.041371  0.729295  0.584384  1
  Cs  Cs5  1  0.384328  0.702886  0.767048  1
  Rb  Rb6  1  0.617215  0.289269  0.233601  1
  Rb  Rb7  1  0.117215  0.710731  0.266399  1
  Ba  Ba8  1  0.878750  0.246025  0.034654  1
  Ba  Ba9  1  0.621292  0.246227  0.533551  1
  Ba  Ba10  1  0.378750  0.753975  0.465346  1
  Ba  Ba11  1  0.121292  0.753773  0.966449  1
  Nb  Nb12  1  0.326084  0.143045  0.196637  1
  Nb  Nb13  1  0.174023  0.140837  0.696470  1
  Nb  Nb14  1  0.715240  0.722937  0.604139  1
  Nb  Nb15  1  0.674023  0.859163  0.803530  1
  Nb  Nb16  1  0.215240  0.277063  0.895861  1
  Nb  Nb17  1  0.784363  0.722055  0.105114  1
  Nb  Nb18  1  0.826084  0.856955  0.303363  1
  Nb  Nb19  1  0.284363  0.277945  0.394886  1
  Se  Se20  1  0.167225  0.146613  0.302634  1
  Se  Se21  1  0.123915  0.161029  0.024672  1
  Se  Se22  1  0.281726  0.963508  0.609522  1
  Se  Se23  1  0.875456  0.836259  0.976156  1
  Se  Se24  1  0.197536  0.497308  0.444264  1
  Se  Se25  1  0.823503  0.560245  0.248906  1
  Se  Se26  1  0.445416  0.204483  0.105402  1
  Se  Se27  1  0.547647  0.603248  0.603204  1
  Se  Se28  1  0.781726  0.036492  0.890478  1
  Se  Se29  1  0.218333  0.963050  0.111149  1
  Se  Se30  1  0.292035  0.375132  0.656504  1
  Se  Se31  1  0.577539  0.922766  0.674208  1
  Se  Se32  1  0.809386  0.990190  0.566715  1
  Se  Se33  1  0.452597  0.397132  0.395196  1
  Se  Se34  1  0.047647  0.396752  0.896796  1
  Se  Se35  1  0.706640  0.623558  0.342901  1
  Se  Se36  1  0.623915  0.838971  0.475328  1
  Se  Se37  1  0.639736  0.158850  0.734329  1
  Se  Se38  1  0.667225  0.853387  0.197366  1
  Se  Se39  1  0.057155  0.202144  0.603238  1
  Se  Se40  1  0.832651  0.852179  0.697016  1
  Se  Se41  1  0.206640  0.376442  0.157099  1
  Se  Se42  1  0.301182  0.493722  0.947957  1
  Se  Se43  1  0.139736  0.841150  0.765671  1
  Se  Se44  1  0.859393  0.157316  0.234509  1
  Se  Se45  1  0.422722  0.079022  0.325611  1
  Se  Se46  1  0.945416  0.795517  0.394598  1
  Se  Se47  1  0.359393  0.842684  0.265491  1
  Se  Se48  1  0.332651  0.147821  0.802984  1
  Se  Se49  1  0.952597  0.602868  0.104804  1
  Se  Se50  1  0.323503  0.439755  0.251094  1
  Se  Se51  1  0.175542  0.437589  0.751254  1
  Se  Se52  1  0.922722  0.920978  0.174389  1
  Se  Se53  1  0.557155  0.797856  0.896762  1
  Se  Se54  1  0.792035  0.624868  0.843496  1
  Se  Se55  1  0.675542  0.562411  0.748746  1
  Se  Se56  1  0.191332  0.009866  0.433122  1
  Se  Se57  1  0.718333  0.036950  0.388851  1
  Se  Se58  1  0.691332  0.990134  0.066878  1
  Se  Se59  1  0.801182  0.506278  0.552043  1
  Se  Se60  1  0.077539  0.077234  0.825792  1
  Se  Se61  1  0.309386  0.009810  0.933285  1
  Se  Se62  1  0.697536  0.502692  0.055736  1
  Se  Se63  1  0.375456  0.163741  0.523844  1
