# generated using pymatgen
data_CePr5BiO12
_symmetry_space_group_name_H-M   'P 1'
_cell_length_a   6.80807765
_cell_length_b   6.85354743
_cell_length_c   6.87803700
_cell_angle_alpha   98.79392026
_cell_angle_beta   99.38509061
_cell_angle_gamma   98.59739823
_symmetry_Int_Tables_number   1
_chemical_formula_structural   CePr5BiO12
_chemical_formula_sum   'Ce1 Pr5 Bi1 O12'
_cell_volume   307.86034742
_cell_formula_units_Z   1
loop_
 _symmetry_equiv_pos_site_id
 _symmetry_equiv_pos_as_xyz
  1  'x, y, z'
loop_
 _atom_site_type_symbol
 _atom_site_label
 _atom_site_symmetry_multiplicity
 _atom_site_fract_x
 _atom_site_fract_y
 _atom_site_fract_z
 _atom_site_occupancy
  Ce  Ce0  1  0.143927  0.312240  0.603328  1
  Pr  Pr1  1  0.306418  0.607369  0.142352  1
  Pr  Pr2  1  0.609815  0.140508  0.303446  1
  Pr  Pr3  1  0.390859  0.857693  0.694067  1
  Pr  Pr4  1  0.694137  0.392571  0.862061  1
  Pr  Pr5  1  0.857175  0.694661  0.391387  1
  Bi  Bi6  1  0.002379  0.001533  0.998409  1
  O  O7  1  0.421332  0.187197  0.586559  1
  O  O8  1  0.929058  0.696476  0.048520  1
  O  O9  1  0.177848  0.572892  0.438243  1
  O  O10  1  0.838048  0.402914  0.569208  1
  O  O11  1  0.561675  0.825135  0.415382  1
  O  O12  1  0.593255  0.439193  0.180027  1
  O  O13  1  0.395987  0.554913  0.816701  1
  O  O14  1  0.962766  0.076879  0.310511  1
  O  O15  1  0.046013  0.931359  0.691711  1
  O  O16  1  0.691350  0.047317  0.934188  1
  O  O17  1  0.068525  0.306107  0.946502  1
  O  O18  1  0.309434  0.953040  0.067401  1
