# generated using pymatgen
data_Tm12InCo2Si2Ag
_symmetry_space_group_name_H-M   'P 1'
_cell_length_a   8.32373504
_cell_length_b   8.32373479
_cell_length_c   8.32373555
_cell_angle_alpha   113.27914344
_cell_angle_beta   111.04051380
_cell_angle_gamma   104.22680279
_symmetry_Int_Tables_number   1
_chemical_formula_structural   Tm12InCo2Si2Ag
_chemical_formula_sum   'Tm12 In1 Co2 Si2 Ag1'
_cell_volume   441.00722649
_cell_formula_units_Z   1
loop_
 _symmetry_equiv_pos_site_id
 _symmetry_equiv_pos_as_xyz
  1  'x, y, z'
loop_
 _atom_site_type_symbol
 _atom_site_label
 _atom_site_symmetry_multiplicity
 _atom_site_fract_x
 _atom_site_fract_y
 _atom_site_fract_z
 _atom_site_occupancy
  Tm  Tm0  1  0.437107  0.238701  0.198406  1
  Tm  Tm1  1  0.562893  0.761299  0.801594  1
  Tm  Tm2  1  0.040293  0.238701  0.801594  1
  Tm  Tm3  1  0.959707  0.761299  0.198406  1
  Tm  Tm4  1  0.184943  0.286218  0.471161  1
  Tm  Tm5  1  0.815057  0.713782  0.528839  1
  Tm  Tm6  1  0.184943  0.713782  0.898725  1
  Tm  Tm7  1  0.815057  0.286218  0.101275  1
  Tm  Tm8  1  0.304861  0.615312  0.310451  1
  Tm  Tm9  1  0.695139  0.384688  0.689549  1
  Tm  Tm10  1  0.304861  0.994410  0.689549  1
  Tm  Tm11  1  0.695139  0.005590  0.310451  1
  In  In12  1  0.500000  0.500000  0.000000  1
  Co  Co13  1  0.109138  0.609138  0.500000  1
  Co  Co14  1  0.890862  0.390862  0.500000  1
  Si  Si15  1  0.361821  0.000000  0.361821  1
  Si  Si16  1  0.638179  0.000000  0.638179  1
  Ag  Ag17  1  0.000000  0.000000  0.000000  1
