# generated using pymatgen
data_Be9NbVW
_symmetry_space_group_name_H-M   'P 1'
_cell_length_a   7.37166756
_cell_length_b   7.37166811
_cell_length_c   7.37166732
_cell_angle_alpha   34.91394828
_cell_angle_beta   34.91394313
_cell_angle_gamma   34.91394792
_symmetry_Int_Tables_number   1
_chemical_formula_structural   Be9NbVW
_chemical_formula_sum   'Be9 Nb1 V1 W1'
_cell_volume   117.15030310
_cell_formula_units_Z   1
loop_
 _symmetry_equiv_pos_site_id
 _symmetry_equiv_pos_as_xyz
  1  'x, y, z'
loop_
 _atom_site_type_symbol
 _atom_site_label
 _atom_site_symmetry_multiplicity
 _atom_site_fract_x
 _atom_site_fract_y
 _atom_site_fract_z
 _atom_site_occupancy
  Be  Be0  1  0.500297  0.500297  0.500297  1
  Be  Be1  1  0.333386  0.333386  0.333387  1
  Be  Be2  1  0.664886  0.664886  0.664885  1
  Be  Be3  1  0.078584  0.585625  0.585625  1
  Be  Be4  1  0.585625  0.585625  0.078584  1
  Be  Be5  1  0.585625  0.078584  0.585625  1
  Be  Be6  1  0.414035  0.921969  0.414035  1
  Be  Be7  1  0.921969  0.414035  0.414035  1
  Be  Be8  1  0.414035  0.414035  0.921969  1
  Nb  Nb9  1  0.001003  0.001003  0.001003  1
  V  V10  1  0.856944  0.856944  0.856944  1
  W  W11  1  0.143611  0.143611  0.143611  1
