# generated using pymatgen
data_Dy4AlTc4Ru3
_symmetry_space_group_name_H-M   'P 1'
_cell_length_a   5.25199708
_cell_length_b   5.29349321
_cell_length_c   9.08144100
_cell_angle_alpha   90.00000000
_cell_angle_beta   90.00000000
_cell_angle_gamma   119.60099377
_symmetry_Int_Tables_number   1
_chemical_formula_structural   Dy4AlTc4Ru3
_chemical_formula_sum   'Dy4 Al1 Tc4 Ru3'
_cell_volume   219.52519779
_cell_formula_units_Z   1
loop_
 _symmetry_equiv_pos_site_id
 _symmetry_equiv_pos_as_xyz
  1  'x, y, z'
loop_
 _atom_site_type_symbol
 _atom_site_label
 _atom_site_symmetry_multiplicity
 _atom_site_fract_x
 _atom_site_fract_y
 _atom_site_fract_z
 _atom_site_occupancy
  Dy  Dy0  1  0.662100  0.330372  0.563489  1
  Dy  Dy1  1  0.333838  0.669964  0.439181  1
  Dy  Dy2  1  0.333838  0.669964  0.060819  1
  Dy  Dy3  1  0.662100  0.330372  0.936511  1
  Al  Al4  1  0.836626  0.665629  0.250000  1
  Tc  Tc5  1  0.162440  0.332288  0.750000  1
  Tc  Tc6  1  0.170658  0.824118  0.750000  1
  Tc  Tc7  1  0.658676  0.825582  0.750000  1
  Tc  Tc8  1  0.837590  0.166683  0.250000  1
  Ru  Ru9  1  0.993380  0.009410  0.496632  1
  Ru  Ru10  1  0.993380  0.009410  0.003368  1
  Ru  Ru11  1  0.355375  0.166208  0.250000  1
