# generated using pymatgen
data_Lu5Pb3N
_symmetry_space_group_name_H-M   'P 1'
_cell_length_a   8.97862279
_cell_length_b   8.97862233
_cell_length_c   8.97862260
_cell_angle_alpha   126.00145377
_cell_angle_beta   126.00144849
_cell_angle_gamma   79.88575174
_symmetry_Int_Tables_number   1
_chemical_formula_structural   Lu5Pb3N
_chemical_formula_sum   'Lu10 Pb6 N2'
_cell_volume   457.48620668
_cell_formula_units_Z   2
loop_
 _symmetry_equiv_pos_site_id
 _symmetry_equiv_pos_as_xyz
  1  'x, y, z'
loop_
 _atom_site_type_symbol
 _atom_site_label
 _atom_site_symmetry_multiplicity
 _atom_site_fract_x
 _atom_site_fract_y
 _atom_site_fract_z
 _atom_site_occupancy
  Lu  Lu0  1  0.507436  0.298704  0.500000  1
  Lu  Lu1  1  0.798704  0.007436  0.500000  1
  Lu  Lu2  1  0.007436  0.507436  0.208732  1
  Lu  Lu3  1  0.298704  0.798704  0.791268  1
  Lu  Lu4  1  0.495177  0.703839  0.500000  1
  Lu  Lu5  1  0.203839  0.995177  0.500000  1
  Lu  Lu6  1  0.995177  0.495177  0.791338  1
  Lu  Lu7  1  0.703839  0.203839  0.208662  1
  Lu  Lu8  1  0.501453  0.501453  0.000000  1
  Lu  Lu9  1  0.001453  0.001453  0.000000  1
  Pb  Pb10  1  0.152761  0.349721  0.500000  1
  Pb  Pb11  1  0.849721  0.652761  0.500000  1
  Pb  Pb12  1  0.652761  0.152761  0.803039  1
  Pb  Pb13  1  0.349721  0.849721  0.196961  1
  Pb  Pb14  1  0.751020  0.751020  0.000000  1
  Pb  Pb15  1  0.251020  0.251020  0.000000  1
  N  N16  1  0.751308  0.251308  0.500000  1
  N  N17  1  0.251308  0.751308  0.500000  1
