# generated using pymatgen
data_Tm20Ir4Pt7Au
_symmetry_space_group_name_H-M   'P 1'
_cell_length_a   10.93509245
_cell_length_b   10.93509245
_cell_length_c   6.30640117
_cell_angle_alpha   89.93230868
_cell_angle_beta   89.93230868
_cell_angle_gamma   89.96480093
_symmetry_Int_Tables_number   1
_chemical_formula_structural   Tm20Ir4Pt7Au
_chemical_formula_sum   'Tm20 Ir4 Pt7 Au1'
_cell_volume   754.09458889
_cell_formula_units_Z   1
loop_
 _symmetry_equiv_pos_site_id
 _symmetry_equiv_pos_as_xyz
  1  'x, y, z'
loop_
 _atom_site_type_symbol
 _atom_site_label
 _atom_site_symmetry_multiplicity
 _atom_site_fract_x
 _atom_site_fract_y
 _atom_site_fract_z
 _atom_site_occupancy
  Tm  Tm0  1  0.294962  0.086619  0.373269  1
  Tm  Tm1  1  0.296497  0.912778  0.873538  1
  Tm  Tm2  1  0.701489  0.084756  0.866078  1
  Tm  Tm3  1  0.702683  0.909394  0.375104  1
  Tm  Tm4  1  0.586464  0.795377  0.874758  1
  Tm  Tm5  1  0.581627  0.204903  0.373951  1
  Tm  Tm6  1  0.412469  0.795619  0.374206  1
  Tm  Tm7  1  0.412144  0.204104  0.874132  1
  Tm  Tm8  1  0.204623  0.413536  0.625242  1
  Tm  Tm9  1  0.204381  0.587531  0.125794  1
  Tm  Tm10  1  0.795097  0.418373  0.126049  1
  Tm  Tm11  1  0.795896  0.587856  0.625868  1
  Tm  Tm12  1  0.913381  0.705038  0.126731  1
  Tm  Tm13  1  0.915244  0.298511  0.633922  1
  Tm  Tm14  1  0.087222  0.703503  0.626462  1
  Tm  Tm15  1  0.090606  0.297317  0.124896  1
  Tm  Tm16  1  0.002613  0.997099  0.501465  1
  Tm  Tm17  1  0.002901  0.997387  0.998535  1
  Tm  Tm18  1  0.499627  0.499836  0.999707  1
  Tm  Tm19  1  0.500164  0.500373  0.500293  1
  Ir  Ir20  1  0.500246  0.000010  0.119739  1
  Ir  Ir21  1  0.499820  0.999802  0.618066  1
  Ir  Ir22  1  0.000198  0.500180  0.881934  1
  Ir  Ir23  1  0.999990  0.499754  0.380261  1
  Pt  Pt24  1  0.846750  0.846526  0.750020  1
  Pt  Pt25  1  0.153474  0.153250  0.749980  1
  Pt  Pt26  1  0.154168  0.845832  0.250000  1
  Pt  Pt27  1  0.653629  0.346371  0.750000  1
  Pt  Pt28  1  0.653502  0.653140  0.249709  1
  Pt  Pt29  1  0.346860  0.346498  0.250291  1
  Pt  Pt30  1  0.346497  0.653503  0.750000  1
  Au  Au31  1  0.844777  0.155223  0.250000  1
