# generated using pymatgen
data_TbHo5(AlAu)6
_symmetry_space_group_name_H-M   'P 1'
_cell_length_a   7.38231200
_cell_length_b   7.38245183
_cell_length_c   7.93929300
_cell_angle_alpha   90.00000000
_cell_angle_beta   89.99962746
_cell_angle_gamma   120.05793730
_symmetry_Int_Tables_number   1
_chemical_formula_structural   TbHo5(AlAu)6
_chemical_formula_sum   'Tb1 Ho5 Al6 Au6'
_cell_volume   374.49983916
_cell_formula_units_Z   1
loop_
 _symmetry_equiv_pos_site_id
 _symmetry_equiv_pos_as_xyz
  1  'x, y, z'
loop_
 _atom_site_type_symbol
 _atom_site_label
 _atom_site_symmetry_multiplicity
 _atom_site_fract_x
 _atom_site_fract_y
 _atom_site_fract_z
 _atom_site_occupancy
  Tb  Tb0  1  0.414391  0.410872  0.249999  1
  Ho  Ho1  1  0.586631  0.996784  0.750005  1
  Ho  Ho2  1  0.003138  0.589752  0.749995  1
  Ho  Ho3  1  0.410177  0.413268  0.750001  1
  Ho  Ho4  1  0.996873  0.586437  0.249993  1
  Ho  Ho5  1  0.589856  0.003647  0.250003  1
  Al  Al6  1  0.752762  0.752893  0.999241  1
  Al  Al7  1  0.247043  0.999596  0.999627  1
  Al  Al8  1  0.999786  0.247144  0.999663  1
  Al  Al9  1  0.752762  0.752893  0.500761  1
  Al  Al10  1  0.247045  0.999597  0.500378  1
  Al  Al11  1  0.999784  0.247143  0.500335  1
  Au  Au12  1  0.999768  0.999820  0.750007  1
  Au  Au13  1  0.998780  0.998780  0.250001  1
  Au  Au14  1  0.667683  0.333007  0.994153  1
  Au  Au15  1  0.667686  0.333002  0.505853  1
  Au  Au16  1  0.332919  0.667683  0.496731  1
  Au  Au17  1  0.332912  0.667682  0.003254  1
