# generated using pymatgen
data_Rb16CeZrBi8
_symmetry_space_group_name_H-M   'P 1'
_cell_length_a   12.34963973
_cell_length_b   12.34962990
_cell_length_c   12.32991300
_cell_angle_alpha   60.05266849
_cell_angle_beta   60.05282327
_cell_angle_gamma   60.05776998
_symmetry_Int_Tables_number   1
_chemical_formula_structural   Rb16CeZrBi8
_chemical_formula_sum   'Rb16 Ce1 Zr1 Bi8'
_cell_volume   1331.33878203
_cell_formula_units_Z   1
loop_
 _symmetry_equiv_pos_site_id
 _symmetry_equiv_pos_as_xyz
  1  'x, y, z'
loop_
 _atom_site_type_symbol
 _atom_site_label
 _atom_site_symmetry_multiplicity
 _atom_site_fract_x
 _atom_site_fract_y
 _atom_site_fract_z
 _atom_site_occupancy
  Rb  Rb0  1  0.625575  0.123115  0.625711  1
  Rb  Rb1  1  0.625555  0.625675  0.123209  1
  Rb  Rb2  1  0.123196  0.625631  0.625594  1
  Rb  Rb3  1  0.625570  0.625656  0.625637  1
  Rb  Rb4  1  0.030354  0.030336  0.469658  1
  Rb  Rb5  1  0.779672  0.220264  0.220105  1
  Rb  Rb6  1  0.220267  0.779663  0.779994  1
  Rb  Rb7  1  0.779735  0.779752  0.220268  1
  Rb  Rb8  1  0.779679  0.220256  0.780016  1
  Rb  Rb9  1  0.220295  0.779657  0.220100  1
  Rb  Rb10  1  0.469674  0.030342  0.469423  1
  Rb  Rb11  1  0.469658  0.030361  0.030551  1
  Rb  Rb12  1  0.030378  0.469681  0.469314  1
  Rb  Rb13  1  0.030307  0.469774  0.030468  1
  Rb  Rb14  1  0.220270  0.220268  0.779744  1
  Rb  Rb15  1  0.469608  0.469724  0.030308  1
  Ce  Ce16  1  0.499992  0.500070  0.499853  1
  Zr  Zr17  1  0.749977  0.749914  0.750076  1
  Bi  Bi18  1  0.395953  0.811641  0.396213  1
  Bi  Bi19  1  0.848783  0.848795  0.453688  1
  Bi  Bi20  1  0.454094  0.848839  0.848543  1
  Bi  Bi21  1  0.848784  0.848818  0.848762  1
  Bi  Bi22  1  0.811935  0.395820  0.396097  1
  Bi  Bi23  1  0.395946  0.395907  0.395966  1
  Bi  Bi24  1  0.395931  0.395928  0.812172  1
  Bi  Bi25  1  0.848811  0.454112  0.848533  1
