# generated using pymatgen
data_TbDyGa8Fe9
_symmetry_space_group_name_H-M   'P 1'
_cell_length_a   6.57323755
_cell_length_b   6.57323843
_cell_length_c   6.57323801
_cell_angle_alpha   83.77399019
_cell_angle_beta   96.22600957
_cell_angle_gamma   96.22601655
_symmetry_Int_Tables_number   1
_chemical_formula_structural   TbDyGa8Fe9
_chemical_formula_sum   'Tb1 Dy1 Ga8 Fe9'
_cell_volume   279.32585197
_cell_formula_units_Z   1
loop_
 _symmetry_equiv_pos_site_id
 _symmetry_equiv_pos_as_xyz
  1  'x, y, z'
loop_
 _atom_site_type_symbol
 _atom_site_label
 _atom_site_symmetry_multiplicity
 _atom_site_fract_x
 _atom_site_fract_y
 _atom_site_fract_z
 _atom_site_occupancy
  Tb  Tb0  1  0.363410  0.636592  0.636591  1
  Dy  Dy1  1  0.636428  0.363573  0.363573  1
  Ga  Ga2  1  0.319382  0.319225  0.000161  1
  Ga  Ga3  1  0.680775  0.680618  0.000161  1
  Ga  Ga4  1  0.871290  0.128711  0.128711  1
  Ga  Ga5  1  0.999839  0.680619  0.319224  1
  Ga  Ga6  1  0.319382  0.000161  0.319225  1
  Ga  Ga7  1  0.680775  0.000161  0.680618  1
  Ga  Ga8  1  0.999839  0.319224  0.680618  1
  Ga  Ga9  1  0.128501  0.871501  0.871500  1
  Fe  Fe10  1  0.499970  0.000014  0.000014  1
  Fe  Fe11  1  0.999986  0.500030  0.000014  1
  Fe  Fe12  1  0.336536  0.663465  0.163887  1
  Fe  Fe13  1  0.163945  0.336344  0.336344  1
  Fe  Fe14  1  0.663656  0.836054  0.336345  1
  Fe  Fe15  1  0.999986  0.000014  0.500030  1
  Fe  Fe16  1  0.836112  0.663465  0.663464  1
  Fe  Fe17  1  0.336536  0.163887  0.663465  1
  Fe  Fe18  1  0.663655  0.336344  0.836054  1
