# generated using pymatgen
data_NaSr3PaO6
_symmetry_space_group_name_H-M   'P 1'
_cell_length_a   7.17532733
_cell_length_b   7.17532701
_cell_length_c   7.17532651
_cell_angle_alpha   92.06321855
_cell_angle_beta   92.06321511
_cell_angle_gamma   92.06322436
_symmetry_Int_Tables_number   1
_chemical_formula_structural   NaSr3PaO6
_chemical_formula_sum   'Na2 Sr6 Pa2 O12'
_cell_volume   368.68776136
_cell_formula_units_Z   2
loop_
 _symmetry_equiv_pos_site_id
 _symmetry_equiv_pos_as_xyz
  1  'x, y, z'
loop_
 _atom_site_type_symbol
 _atom_site_label
 _atom_site_symmetry_multiplicity
 _atom_site_fract_x
 _atom_site_fract_y
 _atom_site_fract_z
 _atom_site_occupancy
  Na  Na0  1  0.250000  0.250000  0.250000  1
  Na  Na1  1  0.750000  0.750000  0.750000  1
  Sr  Sr2  1  0.412164  0.750000  0.087836  1
  Sr  Sr3  1  0.250000  0.912164  0.587836  1
  Sr  Sr4  1  0.750000  0.087836  0.412164  1
  Sr  Sr5  1  0.587836  0.250000  0.912164  1
  Sr  Sr6  1  0.087836  0.412164  0.750000  1
  Sr  Sr7  1  0.912164  0.587836  0.250000  1
  Pa  Pa8  1  0.000000  0.000000  0.000000  1
  Pa  Pa9  1  0.500000  0.500000  0.500000  1
  O  O10  1  0.449571  0.564645  0.794289  1
  O  O11  1  0.564645  0.794289  0.449571  1
  O  O12  1  0.435355  0.205711  0.550429  1
  O  O13  1  0.294289  0.064645  0.949571  1
  O  O14  1  0.205711  0.550429  0.435355  1
  O  O15  1  0.550429  0.435355  0.205711  1
  O  O16  1  0.064645  0.949571  0.294289  1
  O  O17  1  0.949571  0.294289  0.064645  1
  O  O18  1  0.705711  0.935355  0.050429  1
  O  O19  1  0.794289  0.449571  0.564645  1
  O  O20  1  0.935355  0.050429  0.705711  1
  O  O21  1  0.050429  0.705711  0.935355  1
