# generated using pymatgen
data_Y4Al18OsPt5
_symmetry_space_group_name_H-M   'P 1'
_cell_length_a   7.61486127
_cell_length_b   7.61486253
_cell_length_c   9.47707823
_cell_angle_alpha   90.07250163
_cell_angle_beta   90.07250700
_cell_angle_gamma   119.70584874
_symmetry_Int_Tables_number   1
_chemical_formula_structural   Y4Al18OsPt5
_chemical_formula_sum   'Y4 Al18 Os1 Pt5'
_cell_volume   477.31759332
_cell_formula_units_Z   1
loop_
 _symmetry_equiv_pos_site_id
 _symmetry_equiv_pos_as_xyz
  1  'x, y, z'
loop_
 _atom_site_type_symbol
 _atom_site_label
 _atom_site_symmetry_multiplicity
 _atom_site_fract_x
 _atom_site_fract_y
 _atom_site_fract_z
 _atom_site_occupancy
  Y  Y0  1  0.995580  0.670048  0.249033  1
  Y  Y1  1  0.005670  0.330275  0.750976  1
  Y  Y2  1  0.669725  0.994330  0.249024  1
  Y  Y3  1  0.329952  0.004420  0.750967  1
  Al  Al4  1  0.333829  0.334749  0.560993  1
  Al  Al5  1  0.665251  0.666171  0.439007  1
  Al  Al6  1  0.667862  0.661963  0.053989  1
  Al  Al7  1  0.338037  0.332138  0.946011  1
  Al  Al8  1  0.336621  0.545054  0.249330  1
  Al  Al9  1  0.661320  0.452514  0.753926  1
  Al  Al10  1  0.547486  0.338680  0.246074  1
  Al  Al11  1  0.454946  0.663379  0.750670  1
  Al  Al12  1  0.995283  0.333775  0.074637  1
  Al  Al13  1  0.995710  0.659808  0.925739  1
  Al  Al14  1  0.998838  0.666390  0.577456  1
  Al  Al15  1  0.333610  0.001162  0.422544  1
  Al  Al16  1  0.000467  0.334766  0.423377  1
  Al  Al17  1  0.665234  0.999533  0.576623  1
  Al  Al18  1  0.666225  0.004717  0.925363  1
  Al  Al19  1  0.340192  0.004290  0.074261  1
  Al  Al20  1  0.129101  0.130661  0.249383  1
  Al  Al21  1  0.869339  0.870899  0.750617  1
  Os  Os22  1  0.672052  0.327948  0.000000  1
  Pt  Pt23  1  0.000761  0.999239  0.000000  1
  Pt  Pt24  1  0.999509  0.000491  0.500000  1
  Pt  Pt25  1  0.328403  0.671597  0.000000  1
  Pt  Pt26  1  0.327384  0.672616  0.500000  1
  Pt  Pt27  1  0.671613  0.328387  0.500000  1
