# generated using pymatgen
data_Dy16Er4Ir11Au
_symmetry_space_group_name_H-M   'P 1'
_cell_length_a   10.94069199
_cell_length_b   10.94069199
_cell_length_c   6.34230155
_cell_angle_alpha   89.96687794
_cell_angle_beta   89.96687794
_cell_angle_gamma   89.66210743
_symmetry_Int_Tables_number   1
_chemical_formula_structural   Dy16Er4Ir11Au
_chemical_formula_sum   'Dy16 Er4 Ir11 Au1'
_cell_volume   759.15205968
_cell_formula_units_Z   1
loop_
 _symmetry_equiv_pos_site_id
 _symmetry_equiv_pos_as_xyz
  1  'x, y, z'
loop_
 _atom_site_type_symbol
 _atom_site_label
 _atom_site_symmetry_multiplicity
 _atom_site_fract_x
 _atom_site_fract_y
 _atom_site_fract_z
 _atom_site_occupancy
  Dy  Dy0  1  0.290089  0.088085  0.377080  1
  Dy  Dy1  1  0.292241  0.911353  0.876254  1
  Dy  Dy2  1  0.704477  0.084575  0.866134  1
  Dy  Dy3  1  0.706119  0.905071  0.380285  1
  Dy  Dy4  1  0.587590  0.790504  0.878904  1
  Dy  Dy5  1  0.579656  0.210592  0.379204  1
  Dy  Dy6  1  0.411287  0.790855  0.377637  1
  Dy  Dy7  1  0.410673  0.209150  0.877991  1
  Dy  Dy8  1  0.209496  0.412410  0.621096  1
  Dy  Dy9  1  0.209145  0.588713  0.122363  1
  Dy  Dy10  1  0.789408  0.420344  0.120796  1
  Dy  Dy11  1  0.790850  0.589327  0.622009  1
  Dy  Dy12  1  0.911915  0.709911  0.122920  1
  Dy  Dy13  1  0.915425  0.295523  0.633866  1
  Dy  Dy14  1  0.088647  0.707759  0.623746  1
  Dy  Dy15  1  0.094929  0.293881  0.119715  1
  Er  Er16  1  0.004090  0.995732  0.501923  1
  Er  Er17  1  0.004268  0.995910  0.998077  1
  Er  Er18  1  0.499303  0.499863  0.999050  1
  Er  Er19  1  0.500137  0.500697  0.500950  1
  Ir  Ir20  1  0.847518  0.848869  0.749607  1
  Ir  Ir21  1  0.151131  0.152482  0.750393  1
  Ir  Ir22  1  0.153841  0.846159  0.250000  1
  Ir  Ir23  1  0.654062  0.345938  0.750000  1
  Ir  Ir24  1  0.652673  0.651836  0.248974  1
  Ir  Ir25  1  0.348164  0.347327  0.251026  1
  Ir  Ir26  1  0.347249  0.652751  0.750000  1
  Ir  Ir27  1  0.500804  0.000283  0.124524  1
  Ir  Ir28  1  0.499967  0.000542  0.621294  1
  Ir  Ir29  1  0.999458  0.500033  0.878706  1
  Ir  Ir30  1  0.999717  0.499196  0.375476  1
  Au  Au31  1  0.845670  0.154330  0.250000  1
