# generated using pymatgen
data_Tm3MgZn2Ge2Au
_symmetry_space_group_name_H-M   'P 1'
_cell_length_a   6.95273807
_cell_length_b   6.95273809
_cell_length_c   4.30661700
_cell_angle_alpha   90.00000000
_cell_angle_beta   90.00000000
_cell_angle_gamma   119.79552594
_symmetry_Int_Tables_number   1
_chemical_formula_structural   Tm3MgZn2Ge2Au
_chemical_formula_sum   'Tm3 Mg1 Zn2 Ge2 Au1'
_cell_volume   180.66322798
_cell_formula_units_Z   1
loop_
 _symmetry_equiv_pos_site_id
 _symmetry_equiv_pos_as_xyz
  1  'x, y, z'
loop_
 _atom_site_type_symbol
 _atom_site_label
 _atom_site_symmetry_multiplicity
 _atom_site_fract_x
 _atom_site_fract_y
 _atom_site_fract_z
 _atom_site_occupancy
  Tm  Tm0  1  0.574833  0.000252  0.000000  1
  Tm  Tm1  1  0.000252  0.574833  0.000000  1
  Tm  Tm2  1  0.414846  0.414846  0.000000  1
  Mg  Mg3  1  0.767522  0.767522  0.500000  1
  Zn  Zn4  1  0.246742  0.001018  0.500000  1
  Zn  Zn5  1  0.001018  0.246742  0.500000  1
  Ge  Ge6  1  0.329036  0.664373  0.500000  1
  Ge  Ge7  1  0.664373  0.329036  0.500000  1
  Au  Au8  1  0.001378  0.001378  0.000000  1
