# generated using pymatgen
data_Dy4Er8Co4TcBi
_symmetry_space_group_name_H-M   'P 1'
_cell_length_a   8.28706966
_cell_length_b   8.28706837
_cell_length_c   8.28706780
_cell_angle_alpha   110.51022077
_cell_angle_beta   111.59675029
_cell_angle_gamma   106.35295327
_symmetry_Int_Tables_number   1
_chemical_formula_structural   Dy4Er8Co4TcBi
_chemical_formula_sum   'Dy4 Er8 Co4 Tc1 Bi1'
_cell_volume   437.09956928
_cell_formula_units_Z   1
loop_
 _symmetry_equiv_pos_site_id
 _symmetry_equiv_pos_as_xyz
  1  'x, y, z'
loop_
 _atom_site_type_symbol
 _atom_site_label
 _atom_site_symmetry_multiplicity
 _atom_site_fract_x
 _atom_site_fract_y
 _atom_site_fract_z
 _atom_site_occupancy
  Dy  Dy0  1  0.282453  0.183089  0.465540  1
  Dy  Dy1  1  0.717547  0.816911  0.534460  1
  Dy  Dy2  1  0.282453  0.816911  0.099364  1
  Dy  Dy3  1  0.717547  0.183089  0.900636  1
  Er  Er4  1  0.619173  0.310484  0.308689  1
  Er  Er5  1  0.380827  0.689516  0.691311  1
  Er  Er6  1  0.001797  0.310484  0.691311  1
  Er  Er7  1  0.998203  0.689516  0.308689  1
  Er  Er8  1  0.214307  0.411267  0.196960  1
  Er  Er9  1  0.785693  0.588733  0.803040  1
  Er  Er10  1  0.214307  0.017347  0.803040  1
  Er  Er11  1  0.785693  0.982653  0.196960  1
  Co  Co12  1  0.000000  0.377783  0.377783  1
  Co  Co13  1  0.000000  0.622217  0.622217  1
  Co  Co14  1  0.388661  0.888661  0.500000  1
  Co  Co15  1  0.611339  0.111339  0.500000  1
  Tc  Tc16  1  0.000000  0.000000  0.000000  1
  Bi  Bi17  1  0.500000  0.500000  0.000000  1
