# generated using pymatgen
data_Au2ICl5
_symmetry_space_group_name_H-M   'P 1'
_cell_length_a   8.11674523
_cell_length_b   6.82968867
_cell_length_c   6.67096883
_cell_angle_alpha   107.58352032
_cell_angle_beta   82.43749384
_cell_angle_gamma   126.79712469
_symmetry_Int_Tables_number   1
_chemical_formula_structural   Au2ICl5
_chemical_formula_sum   'Au2 I1 Cl5'
_cell_volume   281.69884154
_cell_formula_units_Z   1
loop_
 _symmetry_equiv_pos_site_id
 _symmetry_equiv_pos_as_xyz
  1  'x, y, z'
loop_
 _atom_site_type_symbol
 _atom_site_label
 _atom_site_symmetry_multiplicity
 _atom_site_fract_x
 _atom_site_fract_y
 _atom_site_fract_z
 _atom_site_occupancy
  Au  Au0  1  0.836205  0.166264  0.996237  1
  Au  Au1  1  0.167262  0.834041  0.000750  1
  I  I2  1  0.916444  0.588029  0.271101  1
  Cl  Cl3  1  0.616556  0.943996  0.225062  1
  Cl  Cl4  1  0.242362  0.209575  0.225876  1
  Cl  Cl5  1  0.763460  0.796246  0.746765  1
  Cl  Cl6  1  0.380763  0.031523  0.751847  1
  Cl  Cl7  1  0.076947  0.430326  0.782366  1
