# generated using pymatgen
data_Li2YErSi3
_symmetry_space_group_name_H-M   'P 1'
_cell_length_a   9.25460557
_cell_length_b   9.25460600
_cell_length_c   6.69217700
_cell_angle_alpha   90.00000000
_cell_angle_beta   90.00000000
_cell_angle_gamma   153.55812511
_symmetry_Int_Tables_number   1
_chemical_formula_structural   Li2YErSi3
_chemical_formula_sum   'Li4 Y2 Er2 Si6'
_cell_volume   255.22658658
_cell_formula_units_Z   2
loop_
 _symmetry_equiv_pos_site_id
 _symmetry_equiv_pos_as_xyz
  1  'x, y, z'
loop_
 _atom_site_type_symbol
 _atom_site_label
 _atom_site_symmetry_multiplicity
 _atom_site_fract_x
 _atom_site_fract_y
 _atom_site_fract_z
 _atom_site_occupancy
  Li  Li0  1  0.190376  0.809624  0.059642  1
  Li  Li1  1  0.190376  0.809624  0.440358  1
  Li  Li2  1  0.809624  0.190376  0.940358  1
  Li  Li3  1  0.809624  0.190376  0.559642  1
  Y  Y4  1  0.553022  0.446978  0.250000  1
  Y  Y5  1  0.446978  0.553022  0.750000  1
  Er  Er6  1  0.344683  0.655317  0.250000  1
  Er  Er7  1  0.655317  0.344683  0.750000  1
  Si  Si8  1  0.721399  0.278601  0.250000  1
  Si  Si9  1  0.278601  0.721399  0.750000  1
  Si  Si10  1  0.059656  0.940344  0.927145  1
  Si  Si11  1  0.940344  0.059656  0.072855  1
  Si  Si12  1  0.940344  0.059656  0.427145  1
  Si  Si13  1  0.059656  0.940344  0.572855  1
