# generated using pymatgen
data_CaTb3Ir4F28
_symmetry_space_group_name_H-M   'P 1'
_cell_length_a   5.59007204
_cell_length_b   8.97839736
_cell_length_c   12.06388510
_cell_angle_alpha   62.64420601
_cell_angle_beta   89.92578739
_cell_angle_gamma   89.88373396
_symmetry_Int_Tables_number   1
_chemical_formula_structural   CaTb3Ir4F28
_chemical_formula_sum   'Ca1 Tb3 Ir4 F28'
_cell_volume   537.77260868
_cell_formula_units_Z   1
loop_
 _symmetry_equiv_pos_site_id
 _symmetry_equiv_pos_as_xyz
  1  'x, y, z'
loop_
 _atom_site_type_symbol
 _atom_site_label
 _atom_site_symmetry_multiplicity
 _atom_site_fract_x
 _atom_site_fract_y
 _atom_site_fract_z
 _atom_site_occupancy
  Ca  Ca0  1  0.263824  0.820554  0.264150  1
  Tb  Tb1  1  0.738418  0.186447  0.734919  1
  Tb  Tb2  1  0.765359  0.182049  0.235237  1
  Tb  Tb3  1  0.238421  0.814079  0.765430  1
  Ir  Ir4  1  0.756887  0.724609  0.043765  1
  Ir  Ir5  1  0.241585  0.275848  0.953774  1
  Ir  Ir6  1  0.257578  0.273049  0.456790  1
  Ir  Ir7  1  0.740848  0.724597  0.545838  1
  F  F8  1  0.935268  0.702322  0.422887  1
  F  F9  1  0.057616  0.291060  0.584315  1
  F  F10  1  0.437621  0.297099  0.078877  1
  F  F11  1  0.558791  0.706144  0.916585  1
  F  F12  1  0.470576  0.726847  0.132429  1
  F  F13  1  0.530858  0.271552  0.861027  1
  F  F14  1  0.968771  0.270109  0.365974  1
  F  F15  1  0.028799  0.731027  0.637762  1
  F  F16  1  0.950005  0.741113  0.169908  1
  F  F17  1  0.047204  0.257037  0.824909  1
  F  F18  1  0.454499  0.254132  0.329002  1
  F  F19  1  0.546587  0.745261  0.674264  1
  F  F20  1  0.765229  0.480934  0.139715  1
  F  F21  1  0.231658  0.519545  0.858061  1
  F  F22  1  0.266113  0.511859  0.362818  1
  F  F23  1  0.733802  0.479908  0.642800  1
  F  F24  1  0.946615  0.284562  0.040910  1
  F  F25  1  0.052235  0.718114  0.955356  1
  F  F26  1  0.450904  0.713884  0.462463  1
  F  F27  1  0.551837  0.279167  0.546005  1
  F  F28  1  0.739041  0.968215  0.453080  1
  F  F29  1  0.258330  0.029638  0.551345  1
  F  F30  1  0.242579  0.036583  0.042573  1
  F  F31  1  0.758269  0.969259  0.948706  1
  F  F32  1  0.594682  0.976066  0.228147  1
  F  F33  1  0.416325  0.028038  0.768484  1
  F  F34  1  0.087081  0.038995  0.269689  1
  F  F35  1  0.915783  0.970300  0.732009  1
