# generated using pymatgen
data_Pr10Cd3InRu6
_symmetry_space_group_name_H-M   'P 1'
_cell_length_a   8.74581604
_cell_length_b   8.78707636
_cell_length_c   8.74581537
_cell_angle_alpha   109.56681188
_cell_angle_beta   109.37545396
_cell_angle_gamma   109.56682616
_symmetry_Int_Tables_number   1
_chemical_formula_structural   Pr10Cd3InRu6
_chemical_formula_sum   'Pr10 Cd3 In1 Ru6'
_cell_volume   516.78440852
_cell_formula_units_Z   1
loop_
 _symmetry_equiv_pos_site_id
 _symmetry_equiv_pos_as_xyz
  1  'x, y, z'
loop_
 _atom_site_type_symbol
 _atom_site_label
 _atom_site_symmetry_multiplicity
 _atom_site_fract_x
 _atom_site_fract_y
 _atom_site_fract_z
 _atom_site_occupancy
  Pr  Pr0  1  0.250304  0.682058  0.434047  1
  Pr  Pr1  1  0.748990  0.817652  0.065873  1
  Pr  Pr2  1  0.434127  0.251780  0.683117  1
  Pr  Pr3  1  0.683743  0.431754  0.249696  1
  Pr  Pr4  1  0.065953  0.748012  0.816257  1
  Pr  Pr5  1  0.816883  0.068662  0.751010  1
  Pr  Pr6  1  0.214263  0.214641  0.214394  1
  Pr  Pr7  1  0.500132  0.000378  0.285737  1
  Pr  Pr8  1  0.285606  0.500246  0.999868  1
  Pr  Pr9  1  0.000000  0.285286  0.500000  1
  Cd  Cd10  1  0.592776  0.592699  0.591587  1
  Cd  Cd11  1  0.498811  0.999923  0.907224  1
  Cd  Cd12  1  0.908413  0.501113  0.001189  1
  In  In13  1  0.000000  0.905786  0.500000  1
  Ru  Ru14  1  0.244881  0.133816  0.881718  1
  Ru  Ru15  1  0.749143  0.362000  0.611701  1
  Ru  Ru16  1  0.888298  0.250300  0.137442  1
  Ru  Ru17  1  0.136837  0.888934  0.255119  1
  Ru  Ru18  1  0.618282  0.752099  0.363163  1
  Ru  Ru19  1  0.362558  0.612858  0.750857  1
