# generated using pymatgen
data_Cr2Hg(P2O7)2
_symmetry_space_group_name_H-M   'P 1'
_cell_length_a   4.90214676
_cell_length_b   6.92173143
_cell_length_c   8.17258124
_cell_angle_alpha   91.94863619
_cell_angle_beta   93.70511769
_cell_angle_gamma   105.07525282
_symmetry_Int_Tables_number   1
_chemical_formula_structural   Cr2Hg(P2O7)2
_chemical_formula_sum   'Cr2 Hg1 P4 O14'
_cell_volume   266.83174213
_cell_formula_units_Z   1
loop_
 _symmetry_equiv_pos_site_id
 _symmetry_equiv_pos_as_xyz
  1  'x, y, z'
loop_
 _atom_site_type_symbol
 _atom_site_label
 _atom_site_symmetry_multiplicity
 _atom_site_fract_x
 _atom_site_fract_y
 _atom_site_fract_z
 _atom_site_occupancy
  Cr  Cr0  1  0.500000  0.500000  0.500000  1
  Cr  Cr1  1  0.000000  0.000000  0.000000  1
  Hg  Hg2  1  0.000000  0.000000  0.500000  1
  P  P3  1  0.012587  0.635124  0.255785  1
  P  P4  1  0.987413  0.364876  0.744215  1
  P  P5  1  0.615788  0.238934  0.194526  1
  P  P6  1  0.384212  0.761066  0.805474  1
  O  O7  1  0.780112  0.466969  0.149826  1
  O  O8  1  0.219888  0.533031  0.850174  1
  O  O9  1  0.536774  0.255818  0.374391  1
  O  O10  1  0.463226  0.744182  0.625609  1
  O  O11  1  0.246944  0.548145  0.320233  1
  O  O12  1  0.753056  0.451855  0.679767  1
  O  O13  1  0.842325  0.695774  0.402426  1
  O  O14  1  0.171674  0.889793  0.808183  1
  O  O15  1  0.828326  0.110207  0.191817  1
  O  O16  1  0.887252  0.187021  0.845930  1
  O  O17  1  0.112748  0.812979  0.154070  1
  O  O18  1  0.626361  0.811970  0.935893  1
  O  O19  1  0.373639  0.188030  0.064107  1
  O  O20  1  0.157675  0.304226  0.597574  1
