# generated using pymatgen
data_Ba3Tc3NO8
_symmetry_space_group_name_H-M   'P 1'
_cell_length_a   5.84702037
_cell_length_b   5.80486505
_cell_length_c   14.17382767
_cell_angle_alpha   90.00006426
_cell_angle_beta   90.44023426
_cell_angle_gamma   119.76159737
_symmetry_Int_Tables_number   1
_chemical_formula_structural   Ba3Tc3NO8
_chemical_formula_sum   'Ba6 Tc6 N2 O16'
_cell_volume   417.60510803
_cell_formula_units_Z   2
loop_
 _symmetry_equiv_pos_site_id
 _symmetry_equiv_pos_as_xyz
  1  'x, y, z'
loop_
 _atom_site_type_symbol
 _atom_site_label
 _atom_site_symmetry_multiplicity
 _atom_site_fract_x
 _atom_site_fract_y
 _atom_site_fract_z
 _atom_site_occupancy
  Ba  Ba0  1  0.667167  0.333580  0.907434  1
  Ba  Ba1  1  0.657401  0.328696  0.597466  1
  Ba  Ba2  1  0.335808  0.667919  0.091651  1
  Ba  Ba3  1  0.999379  0.999679  0.747478  1
  Ba  Ba4  1  0.007964  0.004000  0.245896  1
  Ba  Ba5  1  0.334855  0.667441  0.407073  1
  Tc  Tc6  1  0.977376  0.988696  0.490198  1
  Tc  Tc7  1  0.000041  0.000025  0.998898  1
  Tc  Tc8  1  0.330125  0.665055  0.659951  1
  Tc  Tc9  1  0.667686  0.333858  0.157329  1
  Tc  Tc10  1  0.686233  0.343130  0.355520  1
  Tc  Tc11  1  0.332634  0.666310  0.838250  1
  N  N12  1  0.831680  0.666399  0.422116  1
  N  N13  1  0.831682  0.165306  0.422119  1
  O  O14  1  0.015742  0.507870  0.748338  1
  O  O15  1  0.491413  0.505841  0.750728  1
  O  O16  1  0.520456  0.488873  0.249787  1
  O  O17  1  0.973639  0.486833  0.251441  1
  O  O18  1  0.491400  0.985557  0.750728  1
  O  O19  1  0.520458  0.031608  0.249785  1
  O  O20  1  0.329160  0.164593  0.419664  1
  O  O21  1  0.667989  0.833985  0.917532  1
  O  O22  1  0.164258  0.833525  0.917293  1
  O  O23  1  0.164259  0.330706  0.917281  1
  O  O24  1  0.665754  0.832867  0.583794  1
  O  O25  1  0.165718  0.831478  0.582024  1
  O  O26  1  0.836465  0.165954  0.079262  1
  O  O27  1  0.330892  0.165465  0.079660  1
  O  O28  1  0.165711  0.334214  0.582033  1
  O  O29  1  0.836463  0.670548  0.079271  1
