# generated using pymatgen
data_Tb8TaTi8Nb3Si16
_symmetry_space_group_name_H-M   'P 1'
_cell_length_a   7.07115083
_cell_length_b   7.07115117
_cell_length_c   13.02436914
_cell_angle_alpha   90.02489972
_cell_angle_beta   89.97509963
_cell_angle_gamma   90.03474557
_symmetry_Int_Tables_number   1
_chemical_formula_structural   Tb8TaTi8Nb3Si16
_chemical_formula_sum   'Tb8 Ta1 Ti8 Nb3 Si16'
_cell_volume   651.23353714
_cell_formula_units_Z   1
loop_
 _symmetry_equiv_pos_site_id
 _symmetry_equiv_pos_as_xyz
  1  'x, y, z'
loop_
 _atom_site_type_symbol
 _atom_site_label
 _atom_site_symmetry_multiplicity
 _atom_site_fract_x
 _atom_site_fract_y
 _atom_site_fract_z
 _atom_site_occupancy
  Tb  Tb0  1  0.340290  0.001952  0.466733  1
  Tb  Tb1  1  0.498038  0.840092  0.716974  1
  Tb  Tb2  1  0.501965  0.159614  0.216961  1
  Tb  Tb3  1  0.840092  0.498038  0.283026  1
  Tb  Tb4  1  0.159614  0.501965  0.783039  1
  Tb  Tb5  1  0.660159  0.997777  0.966667  1
  Tb  Tb6  1  0.001952  0.340290  0.533267  1
  Tb  Tb7  1  0.997777  0.660159  0.033333  1
  Ta  Ta8  1  0.326432  0.326432  0.000000  1
  Ti  Ti9  1  0.153428  0.009215  0.875578  1
  Ti  Ti10  1  0.490414  0.653448  0.125773  1
  Ti  Ti11  1  0.509488  0.347006  0.625723  1
  Ti  Ti12  1  0.653448  0.490414  0.874227  1
  Ti  Ti13  1  0.347006  0.509488  0.374277  1
  Ti  Ti14  1  0.846593  0.990674  0.375451  1
  Ti  Ti15  1  0.009215  0.153428  0.124422  1
  Ti  Ti16  1  0.990674  0.846593  0.624549  1
  Nb  Nb17  1  0.173700  0.826371  0.249921  1
  Nb  Nb18  1  0.826371  0.173700  0.750079  1
  Nb  Nb19  1  0.673556  0.673556  0.500000  1
  Si  Si20  1  0.202506  0.128877  0.685176  1
  Si  Si21  1  0.370840  0.701411  0.935162  1
  Si  Si22  1  0.628826  0.297348  0.435088  1
  Si  Si23  1  0.701411  0.370840  0.064838  1
  Si  Si24  1  0.297348  0.628826  0.564912  1
  Si  Si25  1  0.797569  0.871144  0.185096  1
  Si  Si26  1  0.128877  0.202506  0.314824  1
  Si  Si27  1  0.871144  0.797569  0.814904  1
  Si  Si28  1  0.292086  0.954426  0.063797  1
  Si  Si29  1  0.546728  0.792189  0.313715  1
  Si  Si30  1  0.453176  0.207987  0.814394  1
  Si  Si31  1  0.792189  0.546728  0.686285  1
  Si  Si32  1  0.207987  0.453176  0.185606  1
  Si  Si33  1  0.708067  0.046608  0.563892  1
  Si  Si34  1  0.954426  0.292086  0.936203  1
  Si  Si35  1  0.046608  0.708067  0.436108  1
