# generated using pymatgen
data_TiNb11(Zn3C)4
_symmetry_space_group_name_H-M   'P 1'
_cell_length_a   8.34595559
_cell_length_b   8.34816127
_cell_length_c   8.34817121
_cell_angle_alpha   59.87264489
_cell_angle_beta   60.00869864
_cell_angle_gamma   60.00880965
_symmetry_Int_Tables_number   1
_chemical_formula_structural   TiNb11(Zn3C)4
_chemical_formula_sum   'Ti1 Nb11 Zn12 C4'
_cell_volume   410.94229775
_cell_formula_units_Z   1
loop_
 _symmetry_equiv_pos_site_id
 _symmetry_equiv_pos_as_xyz
  1  'x, y, z'
loop_
 _atom_site_type_symbol
 _atom_site_label
 _atom_site_symmetry_multiplicity
 _atom_site_fract_x
 _atom_site_fract_y
 _atom_site_fract_z
 _atom_site_occupancy
  Ti  Ti0  1  0.678907  0.321093  0.321093  1
  Nb  Nb1  1  0.930082  0.931602  0.568713  1
  Nb  Nb2  1  0.569603  0.931602  0.568712  1
  Nb  Nb3  1  0.930430  0.569570  0.569570  1
  Nb  Nb4  1  0.569603  0.568713  0.931602  1
  Nb  Nb5  1  0.930083  0.568712  0.931602  1
  Nb  Nb6  1  0.569897  0.930103  0.930103  1
  Nb  Nb7  1  0.319374  0.318021  0.682269  1
  Nb  Nb8  1  0.680335  0.318021  0.682267  1
  Nb  Nb9  1  0.320051  0.679949  0.679949  1
  Nb  Nb10  1  0.680336  0.682269  0.318021  1
  Nb  Nb11  1  0.319376  0.682267  0.318021  1
  Zn  Zn12  1  0.332268  0.332572  0.002891  1
  Zn  Zn13  1  0.332269  0.002891  0.332572  1
  Zn  Zn14  1  0.997982  0.333075  0.333075  1
  Zn  Zn15  1  0.335867  0.333075  0.333075  1
  Zn  Zn16  1  0.917653  0.917084  0.247612  1
  Zn  Zn17  1  0.917654  0.247612  0.917084  1
  Zn  Zn18  1  0.248169  0.917212  0.917211  1
  Zn  Zn19  1  0.917408  0.917211  0.917212  1
  Zn  Zn20  1  0.125247  0.125411  0.624097  1
  Zn  Zn21  1  0.125246  0.624097  0.125411  1
  Zn  Zn22  1  0.625247  0.124599  0.124600  1
  Zn  Zn23  1  0.125553  0.124600  0.124599  1
  C  C24  1  0.625699  0.619857  0.128745  1
  C  C25  1  0.625698  0.128745  0.619857  1
  C  C26  1  0.124776  0.625019  0.625019  1
  C  C27  1  0.625185  0.625019  0.625019  1
