# generated using pymatgen
data_KNiP2Ru
_symmetry_space_group_name_H-M   'P 1'
_cell_length_a   7.25062743
_cell_length_b   7.25062699
_cell_length_c   7.25062783
_cell_angle_alpha   149.54145703
_cell_angle_beta   149.54145487
_cell_angle_gamma   43.61491565
_symmetry_Int_Tables_number   1
_chemical_formula_structural   KNiP2Ru
_chemical_formula_sum   'K1 Ni1 P2 Ru1'
_cell_volume   97.67886306
_cell_formula_units_Z   1
loop_
 _symmetry_equiv_pos_site_id
 _symmetry_equiv_pos_as_xyz
  1  'x, y, z'
loop_
 _atom_site_type_symbol
 _atom_site_label
 _atom_site_symmetry_multiplicity
 _atom_site_fract_x
 _atom_site_fract_y
 _atom_site_fract_z
 _atom_site_occupancy
  K  K0  1  0.000000  0.000000  0.000000  1
  Ni  Ni1  1  0.750000  0.250000  0.500000  1
  P  P2  1  0.345091  0.345091  0.000000  1
  P  P3  1  0.654909  0.654909  0.000000  1
  Ru  Ru4  1  0.250000  0.750000  0.500000  1
