# generated using pymatgen
data_Y3Tm17Zn3Cd3Ru2
_symmetry_space_group_name_H-M   'P 1'
_cell_length_a   9.41254600
_cell_length_b   9.41254654
_cell_length_c   9.55832100
_cell_angle_alpha   90.00000000
_cell_angle_beta   90.00000000
_cell_angle_gamma   120.00000512
_symmetry_Int_Tables_number   1
_chemical_formula_structural   Y3Tm17Zn3Cd3Ru2
_chemical_formula_sum   'Y3 Tm17 Zn3 Cd3 Ru2'
_cell_volume   733.37562125
_cell_formula_units_Z   1
loop_
 _symmetry_equiv_pos_site_id
 _symmetry_equiv_pos_as_xyz
  1  'x, y, z'
loop_
 _atom_site_type_symbol
 _atom_site_label
 _atom_site_symmetry_multiplicity
 _atom_site_fract_x
 _atom_site_fract_y
 _atom_site_fract_z
 _atom_site_occupancy
  Y  Y0  1  0.459416  0.540584  0.750000  1
  Y  Y1  1  0.459416  0.918831  0.750000  1
  Y  Y2  1  0.081169  0.540584  0.750000  1
  Tm  Tm3  1  0.000000  0.000000  0.474920  1
  Tm  Tm4  1  0.000000  0.000000  0.025080  1
  Tm  Tm5  1  0.208103  0.791897  0.438144  1
  Tm  Tm6  1  0.208103  0.416205  0.438144  1
  Tm  Tm7  1  0.583795  0.791897  0.438144  1
  Tm  Tm8  1  0.790846  0.209154  0.556168  1
  Tm  Tm9  1  0.790846  0.581691  0.556168  1
  Tm  Tm10  1  0.418309  0.209154  0.556168  1
  Tm  Tm11  1  0.790846  0.209154  0.943832  1
  Tm  Tm12  1  0.790846  0.581691  0.943832  1
  Tm  Tm13  1  0.418309  0.209154  0.943832  1
  Tm  Tm14  1  0.208103  0.791897  0.061856  1
  Tm  Tm15  1  0.208103  0.416205  0.061856  1
  Tm  Tm16  1  0.583795  0.791897  0.061856  1
  Tm  Tm17  1  0.541441  0.458559  0.250000  1
  Tm  Tm18  1  0.541441  0.082882  0.250000  1
  Tm  Tm19  1  0.917118  0.458559  0.250000  1
  Zn  Zn20  1  0.878079  0.121921  0.250000  1
  Zn  Zn21  1  0.878079  0.756161  0.250000  1
  Zn  Zn22  1  0.243839  0.121921  0.250000  1
  Cd  Cd23  1  0.110171  0.889829  0.750000  1
  Cd  Cd24  1  0.110171  0.220341  0.750000  1
  Cd  Cd25  1  0.779659  0.889829  0.750000  1
  Ru  Ru26  1  0.333333  0.666667  0.250000  1
  Ru  Ru27  1  0.666667  0.333333  0.750000  1
