# generated using pymatgen
data_Nb3Al2OsC
_symmetry_space_group_name_H-M   'P 1'
_cell_length_a   8.34532436
_cell_length_b   8.34532506
_cell_length_c   8.34532500
_cell_angle_alpha   60.00000421
_cell_angle_beta   60.00000142
_cell_angle_gamma   60.00000831
_symmetry_Int_Tables_number   1
_chemical_formula_structural   Nb3Al2OsC
_chemical_formula_sum   'Nb12 Al8 Os4 C4'
_cell_volume   410.97441050
_cell_formula_units_Z   4
loop_
 _symmetry_equiv_pos_site_id
 _symmetry_equiv_pos_as_xyz
  1  'x, y, z'
loop_
 _atom_site_type_symbol
 _atom_site_label
 _atom_site_symmetry_multiplicity
 _atom_site_fract_x
 _atom_site_fract_y
 _atom_site_fract_z
 _atom_site_occupancy
  Nb  Nb0  1  0.806977  0.806977  0.193023  1
  Nb  Nb1  1  0.193023  0.193023  0.806977  1
  Nb  Nb2  1  0.806977  0.193023  0.806977  1
  Nb  Nb3  1  0.193023  0.806977  0.193023  1
  Nb  Nb4  1  0.193023  0.806977  0.806977  1
  Nb  Nb5  1  0.806977  0.193023  0.193023  1
  Nb  Nb6  1  0.443023  0.443023  0.056977  1
  Nb  Nb7  1  0.056977  0.056977  0.443023  1
  Nb  Nb8  1  0.443023  0.056977  0.443023  1
  Nb  Nb9  1  0.056977  0.443023  0.056977  1
  Nb  Nb10  1  0.056977  0.443023  0.443023  1
  Nb  Nb11  1  0.443023  0.056977  0.056977  1
  Al  Al12  1  0.750873  0.416376  0.416376  1
  Al  Al13  1  0.416376  0.750873  0.416376  1
  Al  Al14  1  0.416376  0.416376  0.750873  1
  Al  Al15  1  0.416376  0.416376  0.416376  1
  Al  Al16  1  0.499127  0.833624  0.833624  1
  Al  Al17  1  0.833624  0.499127  0.833624  1
  Al  Al18  1  0.833624  0.833624  0.499127  1
  Al  Al19  1  0.833624  0.833624  0.833624  1
  Os  Os20  1  0.125000  0.625000  0.625000  1
  Os  Os21  1  0.625000  0.125000  0.625000  1
  Os  Os22  1  0.625000  0.625000  0.125000  1
  Os  Os23  1  0.625000  0.625000  0.625000  1
  C  C24  1  0.625000  0.125000  0.125000  1
  C  C25  1  0.125000  0.625000  0.125000  1
  C  C26  1  0.125000  0.125000  0.625000  1
  C  C27  1  0.125000  0.125000  0.125000  1
