# generated using pymatgen
data_Zr6Ti7Al9Os7
_symmetry_space_group_name_H-M   'P 1'
_cell_length_a   8.87476048
_cell_length_b   8.87476179
_cell_length_c   8.87476136
_cell_angle_alpha   59.56086889
_cell_angle_beta   59.56086532
_cell_angle_gamma   59.56086342
_symmetry_Int_Tables_number   1
_chemical_formula_structural   Zr6Ti7Al9Os7
_chemical_formula_sum   'Zr6 Ti7 Al9 Os7'
_cell_volume   489.32512083
_cell_formula_units_Z   1
loop_
 _symmetry_equiv_pos_site_id
 _symmetry_equiv_pos_as_xyz
  1  'x, y, z'
loop_
 _atom_site_type_symbol
 _atom_site_label
 _atom_site_symmetry_multiplicity
 _atom_site_fract_x
 _atom_site_fract_y
 _atom_site_fract_z
 _atom_site_occupancy
  Zr  Zr0  1  0.693712  0.693712  0.307659  1
  Zr  Zr1  1  0.302126  0.705215  0.302126  1
  Zr  Zr2  1  0.705215  0.302126  0.302126  1
  Zr  Zr3  1  0.302126  0.302126  0.705215  1
  Zr  Zr4  1  0.693712  0.307659  0.693712  1
  Zr  Zr5  1  0.307659  0.693712  0.693712  1
  Ti  Ti6  1  0.879986  0.879986  0.363898  1
  Ti  Ti7  1  0.879986  0.363898  0.879986  1
  Ti  Ti8  1  0.363898  0.879986  0.879986  1
  Ti  Ti9  1  0.876674  0.876674  0.876674  1
  Ti  Ti10  1  0.121530  0.121530  0.633309  1
  Ti  Ti11  1  0.121530  0.633309  0.121530  1
  Ti  Ti12  1  0.633309  0.121530  0.121530  1
  Al  Al13  1  0.118248  0.118248  0.118248  1
  Al  Al14  1  0.663295  0.663295  0.008779  1
  Al  Al15  1  0.663295  0.008779  0.663295  1
  Al  Al16  1  0.008779  0.663295  0.663295  1
  Al  Al17  1  0.663864  0.663864  0.663864  1
  Al  Al18  1  0.333718  0.333718  0.997023  1
  Al  Al19  1  0.333718  0.997023  0.333718  1
  Al  Al20  1  0.997023  0.333718  0.333718  1
  Al  Al21  1  0.336715  0.336715  0.336715  1
  Os  Os22  1  0.997393  0.997393  0.997393  1
  Os  Os23  1  0.999776  0.999776  0.502282  1
  Os  Os24  1  0.500334  0.999989  0.500334  1
  Os  Os25  1  0.999989  0.500334  0.500334  1
  Os  Os26  1  0.500334  0.500334  0.999989  1
  Os  Os27  1  0.999776  0.502282  0.999776  1
  Os  Os28  1  0.502282  0.999776  0.999776  1
