# generated using pymatgen
data_Eu5Ho3(Si3Pt)4
_symmetry_space_group_name_H-M   'P 1'
_cell_length_a   8.21978700
_cell_length_b   8.21978781
_cell_length_c   8.48091200
_cell_angle_alpha   90.00000000
_cell_angle_beta   90.00000000
_cell_angle_gamma   120.00000077
_symmetry_Int_Tables_number   1
_chemical_formula_structural   Eu5Ho3(Si3Pt)4
_chemical_formula_sum   'Eu5 Ho3 Si12 Pt4'
_cell_volume   496.24295634
_cell_formula_units_Z   1
loop_
 _symmetry_equiv_pos_site_id
 _symmetry_equiv_pos_as_xyz
  1  'x, y, z'
loop_
 _atom_site_type_symbol
 _atom_site_label
 _atom_site_symmetry_multiplicity
 _atom_site_fract_x
 _atom_site_fract_y
 _atom_site_fract_z
 _atom_site_occupancy
  Eu  Eu0  1  0.000016  0.000022  0.250000  1
  Eu  Eu1  1  0.000020  0.000008  0.750000  1
  Eu  Eu2  1  0.500716  0.499253  0.250000  1
  Eu  Eu3  1  0.500726  0.001465  0.250000  1
  Eu  Eu4  1  0.998483  0.499242  0.250000  1
  Ho  Ho5  1  0.499010  0.500993  0.750000  1
  Ho  Ho6  1  0.499018  0.998032  0.750000  1
  Ho  Ho7  1  0.001973  0.500986  0.750000  1
  Si  Si8  1  0.165839  0.834132  0.506468  1
  Si  Si9  1  0.165862  0.331728  0.506286  1
  Si  Si10  1  0.668325  0.834160  0.506426  1
  Si  Si11  1  0.834099  0.165933  0.506902  1
  Si  Si12  1  0.834078  0.668158  0.506691  1
  Si  Si13  1  0.331801  0.165902  0.506820  1
  Si  Si14  1  0.834099  0.165933  0.993098  1
  Si  Si15  1  0.834078  0.668158  0.993309  1
  Si  Si16  1  0.331801  0.165902  0.993180  1
  Si  Si17  1  0.165839  0.834132  0.993532  1
  Si  Si18  1  0.165862  0.331728  0.993714  1
  Si  Si19  1  0.668325  0.834160  0.993574  1
  Pt  Pt20  1  0.333376  0.666608  0.515588  1
  Pt  Pt21  1  0.666635  0.333382  0.520277  1
  Pt  Pt22  1  0.666635  0.333382  0.979723  1
  Pt  Pt23  1  0.333376  0.666608  0.984412  1
