# generated using pymatgen
data_HoLu(BiRh)2
_symmetry_space_group_name_H-M   'P 1'
_cell_length_a   4.67681900
_cell_length_b   6.63987400
_cell_length_c   9.37004100
_cell_angle_alpha   90.00000000
_cell_angle_beta   90.00000000
_cell_angle_gamma   90.00000000
_symmetry_Int_Tables_number   1
_chemical_formula_structural   HoLu(BiRh)2
_chemical_formula_sum   'Ho2 Lu2 Bi4 Rh4'
_cell_volume   290.97246401
_cell_formula_units_Z   2
loop_
 _symmetry_equiv_pos_site_id
 _symmetry_equiv_pos_as_xyz
  1  'x, y, z'
loop_
 _atom_site_type_symbol
 _atom_site_label
 _atom_site_symmetry_multiplicity
 _atom_site_fract_x
 _atom_site_fract_y
 _atom_site_fract_z
 _atom_site_occupancy
  Ho  Ho0  1  0.500002  0.497464  0.124018  1
  Ho  Ho1  1  0.000000  0.997463  0.875981  1
  Lu  Lu2  1  0.000000  0.003795  0.374730  1
  Lu  Lu3  1  0.500002  0.503794  0.625270  1
  Bi  Bi4  1  0.500002  0.999042  0.126726  1
  Bi  Bi5  1  0.000000  0.503153  0.376156  1
  Bi  Bi6  1  0.500002  0.003152  0.623842  1
  Bi  Bi7  1  0.000000  0.499043  0.873273  1
  Rh  Rh8  1  0.000000  0.748636  0.128563  1
  Rh  Rh9  1  0.500002  0.247907  0.378049  1
  Rh  Rh10  1  0.000000  0.747906  0.621951  1
  Rh  Rh11  1  0.500002  0.248637  0.871436  1
