# generated using pymatgen
data_La9NdSb9Te
_symmetry_space_group_name_H-M   'P 1'
_cell_length_a   7.98733615
_cell_length_b   9.26450196
_cell_length_c   10.32162347
_cell_angle_alpha   103.02282551
_cell_angle_beta   97.39789591
_cell_angle_gamma   106.83481583
_symmetry_Int_Tables_number   1
_chemical_formula_structural   La9NdSb9Te
_chemical_formula_sum   'La9 Nd1 Sb9 Te1'
_cell_volume   696.66442922
_cell_formula_units_Z   1
loop_
 _symmetry_equiv_pos_site_id
 _symmetry_equiv_pos_as_xyz
  1  'x, y, z'
loop_
 _atom_site_type_symbol
 _atom_site_label
 _atom_site_symmetry_multiplicity
 _atom_site_fract_x
 _atom_site_fract_y
 _atom_site_fract_z
 _atom_site_occupancy
  La  La0  1  0.696335  0.152376  0.399474  1
  La  La1  1  0.500045  0.749571  0.000074  1
  La  La2  1  0.696360  0.645113  0.398518  1
  La  La3  1  0.304201  0.355118  0.601827  1
  La  La4  1  0.100820  0.948069  0.195101  1
  La  La5  1  0.499456  0.250129  0.999238  1
  La  La6  1  0.304294  0.847925  0.601282  1
  La  La7  1  0.098823  0.450268  0.199636  1
  La  La8  1  0.898889  0.051567  0.804498  1
  Nd  Nd9  1  0.900863  0.549858  0.800261  1
  Sb  Sb10  1  0.800484  0.600526  0.099309  1
  Sb  Sb11  1  0.601158  0.201356  0.700183  1
  Sb  Sb12  1  0.400634  0.800818  0.300472  1
  Sb  Sb13  1  0.800375  0.099858  0.101833  1
  Sb  Sb14  1  0.198217  0.400083  0.898272  1
  Sb  Sb15  1  0.603874  0.700277  0.700482  1
  Sb  Sb16  1  0.397910  0.298762  0.300061  1
  Sb  Sb17  1  0.197851  0.897994  0.897519  1
  Sb  Sb18  1  0.999404  0.500394  0.501894  1
  Te  Te19  1  0.000008  0.999940  0.500068  1
