# generated using pymatgen
data_La2ThIn5
_symmetry_space_group_name_H-M   'P 1'
_cell_length_a   6.84383400
_cell_length_b   10.81027500
_cell_length_c   12.58427000
_cell_angle_alpha   90.00000000
_cell_angle_beta   90.00000000
_cell_angle_gamma   90.00000000
_symmetry_Int_Tables_number   1
_chemical_formula_structural   La2ThIn5
_chemical_formula_sum   'La8 Th4 In20'
_cell_volume   931.03120365
_cell_formula_units_Z   4
loop_
 _symmetry_equiv_pos_site_id
 _symmetry_equiv_pos_as_xyz
  1  'x, y, z'
loop_
 _atom_site_type_symbol
 _atom_site_label
 _atom_site_symmetry_multiplicity
 _atom_site_fract_x
 _atom_site_fract_y
 _atom_site_fract_z
 _atom_site_occupancy
  La  La0  1  0.888460  0.486911  0.145024  1
  La  La1  1  0.611540  0.013089  0.645024  1
  La  La2  1  0.111540  0.986911  0.854976  1
  La  La3  1  0.388460  0.513089  0.354976  1
  La  La4  1  0.111540  0.513089  0.854976  1
  La  La5  1  0.388460  0.986911  0.354976  1
  La  La6  1  0.888460  0.013089  0.145024  1
  La  La7  1  0.611540  0.486911  0.645024  1
  Th  Th8  1  0.349692  0.750000  0.062081  1
  Th  Th9  1  0.150308  0.750000  0.562081  1
  Th  Th10  1  0.650308  0.250000  0.937919  1
  Th  Th11  1  0.849692  0.250000  0.437919  1
  In  In12  1  0.625668  0.750000  0.504236  1
  In  In13  1  0.874332  0.750000  0.004236  1
  In  In14  1  0.374332  0.250000  0.495764  1
  In  In15  1  0.125668  0.250000  0.995764  1
  In  In16  1  0.661318  0.750000  0.243557  1
  In  In17  1  0.838682  0.750000  0.743557  1
  In  In18  1  0.338682  0.250000  0.756443  1
  In  In19  1  0.161318  0.250000  0.256443  1
  In  In20  1  0.104718  0.750000  0.286977  1
  In  In21  1  0.395282  0.750000  0.786977  1
  In  In22  1  0.895282  0.250000  0.713023  1
  In  In23  1  0.604718  0.250000  0.213023  1
  In  In24  1  0.872870  0.547888  0.405262  1
  In  In25  1  0.627130  0.952112  0.905262  1
  In  In26  1  0.127130  0.047888  0.594738  1
  In  In27  1  0.372870  0.452112  0.094738  1
  In  In28  1  0.127130  0.452112  0.594738  1
  In  In29  1  0.372870  0.047888  0.094738  1
  In  In30  1  0.872870  0.952112  0.405262  1
  In  In31  1  0.627130  0.547888  0.905262  1
