# generated using pymatgen
data_Ta4Nb2CN2
_symmetry_space_group_name_H-M   'P 1'
_cell_length_a   5.36311225
_cell_length_b   5.36423253
_cell_length_c   4.96115154
_cell_angle_alpha   90.17570247
_cell_angle_beta   90.10846164
_cell_angle_gamma   120.05700516
_symmetry_Int_Tables_number   1
_chemical_formula_structural   Ta4Nb2CN2
_chemical_formula_sum   'Ta4 Nb2 C1 N2'
_cell_volume   123.53283297
_cell_formula_units_Z   1
loop_
 _symmetry_equiv_pos_site_id
 _symmetry_equiv_pos_as_xyz
  1  'x, y, z'
loop_
 _atom_site_type_symbol
 _atom_site_label
 _atom_site_symmetry_multiplicity
 _atom_site_fract_x
 _atom_site_fract_y
 _atom_site_fract_z
 _atom_site_occupancy
  Ta  Ta0  1  0.664149  0.664811  0.755190  1
  Ta  Ta1  1  0.000465  0.336929  0.752556  1
  Ta  Ta2  1  0.336421  0.999460  0.751987  1
  Ta  Ta3  1  0.334695  0.336025  0.246556  1
  Nb  Nb4  1  0.000035  0.662822  0.245747  1
  Nb  Nb5  1  0.662028  0.998706  0.245759  1
  C  C6  1  0.665376  0.333992  0.501587  1
  N  N7  1  0.333947  0.664441  0.503298  1
  N  N8  1  0.002886  0.002811  0.997320  1
