# generated using pymatgen
data_Yb4CuNi13
_symmetry_space_group_name_H-M   'P 1'
_cell_length_a   4.86574382
_cell_length_b   4.86574238
_cell_length_c   12.23720057
_cell_angle_alpha   78.53265117
_cell_angle_beta   78.53265633
_cell_angle_gamma   59.99998885
_symmetry_Int_Tables_number   1
_chemical_formula_structural   Yb4CuNi13
_chemical_formula_sum   'Yb4 Cu1 Ni13'
_cell_volume   244.20509716
_cell_formula_units_Z   1
loop_
 _symmetry_equiv_pos_site_id
 _symmetry_equiv_pos_as_xyz
  1  'x, y, z'
loop_
 _atom_site_type_symbol
 _atom_site_label
 _atom_site_symmetry_multiplicity
 _atom_site_fract_x
 _atom_site_fract_y
 _atom_site_fract_z
 _atom_site_occupancy
  Yb  Yb0  1  0.948319  0.948319  0.155044  1
  Yb  Yb1  1  0.051404  0.051404  0.845787  1
  Yb  Yb2  1  0.852266  0.852266  0.443200  1
  Yb  Yb3  1  0.148085  0.148085  0.555745  1
  Cu  Cu4  1  0.722036  0.722036  0.833892  1
  Ni  Ni5  1  0.500167  0.500167  0.499500  1
  Ni  Ni6  1  0.277555  0.277555  0.167336  1
  Ni  Ni7  1  0.611623  0.611623  0.165130  1
  Ni  Ni8  1  0.388405  0.388405  0.834785  1
  Ni  Ni9  1  0.000566  0.498920  0.001594  1
  Ni  Ni10  1  0.498920  0.000566  0.001594  1
  Ni  Ni11  1  0.498920  0.498920  0.001594  1
  Ni  Ni12  1  0.389350  0.389350  0.330963  1
  Ni  Ni13  1  0.890337  0.389350  0.330963  1
  Ni  Ni14  1  0.389350  0.890337  0.330963  1
  Ni  Ni15  1  0.610793  0.610793  0.667304  1
  Ni  Ni16  1  0.111111  0.610793  0.667304  1
  Ni  Ni17  1  0.610793  0.111111  0.667304  1
