# generated using pymatgen
data_Tm9Hf11Si15Se
_symmetry_space_group_name_H-M   'P 1'
_cell_length_a   7.28894213
_cell_length_b   7.25756838
_cell_length_c   13.35253781
_cell_angle_alpha   89.96221456
_cell_angle_beta   89.60253593
_cell_angle_gamma   89.94152403
_symmetry_Int_Tables_number   1
_chemical_formula_structural   Tm9Hf11Si15Se
_chemical_formula_sum   'Tm9 Hf11 Si15 Se1'
_cell_volume   706.33168191
_cell_formula_units_Z   1
loop_
 _symmetry_equiv_pos_site_id
 _symmetry_equiv_pos_as_xyz
  1  'x, y, z'
loop_
 _atom_site_type_symbol
 _atom_site_label
 _atom_site_symmetry_multiplicity
 _atom_site_fract_x
 _atom_site_fract_y
 _atom_site_fract_z
 _atom_site_occupancy
  Tm  Tm0  1  0.495269  0.153925  0.535057  1
  Tm  Tm1  1  0.501945  0.844610  0.032733  1
  Tm  Tm2  1  0.650908  0.001707  0.290727  1
  Tm  Tm3  1  0.340218  0.988072  0.780281  1
  Tm  Tm4  1  0.852540  0.508954  0.961421  1
  Tm  Tm5  1  0.153151  0.496091  0.466982  1
  Tm  Tm6  1  0.002553  0.653806  0.714792  1
  Tm  Tm7  1  0.005234  0.351707  0.218958  1
  Tm  Tm8  1  0.505144  0.351489  0.121950  1
  Hf  Hf9  1  0.676458  0.324766  0.749475  1
  Hf  Hf10  1  0.323182  0.675047  0.251862  1
  Hf  Hf11  1  0.823435  0.825314  0.500665  1
  Hf  Hf12  1  0.180745  0.173166  0.997836  1
  Hf  Hf13  1  0.501856  0.646901  0.625841  1
  Hf  Hf14  1  0.846793  0.004668  0.874617  1
  Hf  Hf15  1  0.147275  0.998584  0.376746  1
  Hf  Hf16  1  0.647623  0.503485  0.376310  1
  Hf  Hf17  1  0.346679  0.500550  0.872111  1
  Hf  Hf18  1  0.008001  0.845570  0.127449  1
  Hf  Hf19  1  0.996416  0.146681  0.625076  1
  Si  Si20  1  0.204591  0.859606  0.568007  1
  Si  Si21  1  0.639690  0.704747  0.817696  1
  Si  Si22  1  0.359683  0.296076  0.322053  1
  Si  Si23  1  0.858168  0.205043  0.432278  1
  Si  Si24  1  0.137585  0.798617  0.932506  1
  Si  Si25  1  0.707586  0.648982  0.185395  1
  Si  Si26  1  0.293725  0.359103  0.680484  1
  Si  Si27  1  0.530284  0.200159  0.921122  1
  Si  Si28  1  0.448057  0.795372  0.436920  1
  Si  Si29  1  0.702246  0.950174  0.685254  1
  Si  Si30  1  0.296751  0.044373  0.187104  1
  Si  Si31  1  0.795988  0.451207  0.564098  1
  Si  Si32  1  0.201545  0.550026  0.063275  1
  Si  Si33  1  0.951160  0.705604  0.316715  1
  Si  Si34  1  0.048490  0.295425  0.813533  1
  Se  Se35  1  0.819022  0.140393  0.072671  1
