# generated using pymatgen
data_Rb20Pu(HfAs4)3
_symmetry_space_group_name_H-M   'P 1'
_cell_length_a   8.85151252
_cell_length_b   9.49460454
_cell_length_c   18.39982000
_cell_angle_alpha   60.41876964
_cell_angle_beta   89.98043214
_cell_angle_gamma   90.08340523
_symmetry_Int_Tables_number   1
_chemical_formula_structural   Rb20Pu(HfAs4)3
_chemical_formula_sum   'Rb20 Pu1 Hf3 As12'
_cell_volume   1344.79165242
_cell_formula_units_Z   1
loop_
 _symmetry_equiv_pos_site_id
 _symmetry_equiv_pos_as_xyz
  1  'x, y, z'
loop_
 _atom_site_type_symbol
 _atom_site_label
 _atom_site_symmetry_multiplicity
 _atom_site_fract_x
 _atom_site_fract_y
 _atom_site_fract_z
 _atom_site_occupancy
  Rb  Rb0  1  0.172794  0.844904  0.739550  1
  Rb  Rb1  1  0.674530  0.159553  0.757354  1
  Rb  Rb2  1  0.823087  0.150707  0.260547  1
  Rb  Rb3  1  0.329414  0.837175  0.245791  1
  Rb  Rb4  1  0.162809  0.159428  0.422527  1
  Rb  Rb5  1  0.658240  0.843226  0.081535  1
  Rb  Rb6  1  0.836802  0.837589  0.580852  1
  Rb  Rb7  1  0.340541  0.168169  0.914256  1
  Rb  Rb8  1  0.012673  0.081398  0.089761  1
  Rb  Rb9  1  0.504137  0.916083  0.410032  1
  Rb  Rb10  1  0.989939  0.917903  0.909950  1
  Rb  Rb11  1  0.493053  0.084445  0.589793  1
  Rb  Rb12  1  0.512559  0.259381  0.076859  1
  Rb  Rb13  1  0.022689  0.736362  0.419771  1
  Rb  Rb14  1  0.484666  0.733721  0.920073  1
  Rb  Rb15  1  0.985405  0.273778  0.577373  1
  Rb  Rb16  1  0.969564  0.546380  0.255302  1
  Rb  Rb17  1  0.482120  0.451314  0.247792  1
  Rb  Rb18  1  0.026778  0.453050  0.745104  1
  Rb  Rb19  1  0.520652  0.548610  0.752746  1
  Pu  Pu20  1  0.132206  0.494440  0.081906  1
  Hf  Hf21  1  0.373359  0.493321  0.579348  1
  Hf  Hf22  1  0.865003  0.506859  0.917216  1
  Hf  Hf23  1  0.630132  0.504906  0.422344  1
  As  As24  1  0.329189  0.481960  0.438905  1
  As  As25  1  0.813360  0.518508  0.057405  1
  As  As26  1  0.674162  0.515687  0.562922  1
  As  As27  1  0.165779  0.484650  0.930977  1
  As  As28  1  0.211849  0.204390  0.225940  1
  As  As29  1  0.707727  0.773158  0.287755  1
  As  As30  1  0.790810  0.778582  0.784407  1
  As  As31  1  0.295519  0.223263  0.712887  1
  As  As32  1  0.258054  0.770671  0.077640  1
  As  As33  1  0.751357  0.250619  0.423868  1
  As  As34  1  0.748212  0.248850  0.921898  1
  As  As35  1  0.250830  0.746960  0.577618  1
