# generated using pymatgen
data_MgZr3(TlS4)2
_symmetry_space_group_name_H-M   'P 1'
_cell_length_a   6.38956700
_cell_length_b   7.41620900
_cell_length_c   16.06545300
_cell_angle_alpha   90.00000000
_cell_angle_beta   90.00000000
_cell_angle_gamma   90.00000000
_symmetry_Int_Tables_number   1
_chemical_formula_structural   MgZr3(TlS4)2
_chemical_formula_sum   'Mg2 Zr6 Tl4 S16'
_cell_volume   761.28340837
_cell_formula_units_Z   2
loop_
 _symmetry_equiv_pos_site_id
 _symmetry_equiv_pos_as_xyz
  1  'x, y, z'
loop_
 _atom_site_type_symbol
 _atom_site_label
 _atom_site_symmetry_multiplicity
 _atom_site_fract_x
 _atom_site_fract_y
 _atom_site_fract_z
 _atom_site_occupancy
  Mg  Mg0  1  0.003099  0.000000  0.248340  1
  Mg  Mg1  1  0.003099  0.000000  0.751660  1
  Zr  Zr2  1  0.997620  0.500000  0.253099  1
  Zr  Zr3  1  0.997620  0.500000  0.746901  1
  Zr  Zr4  1  0.497737  0.243518  0.249765  1
  Zr  Zr5  1  0.497737  0.756482  0.750235  1
  Zr  Zr6  1  0.497737  0.756482  0.249765  1
  Zr  Zr7  1  0.497737  0.243518  0.750235  1
  Tl  Tl8  1  0.343495  0.000000  0.000000  1
  Tl  Tl9  1  0.654535  0.500000  0.500000  1
  Tl  Tl10  1  0.021320  0.000000  0.500000  1
  Tl  Tl11  1  0.979779  0.500000  0.000000  1
  S  S12  1  0.832046  0.252815  0.342110  1
  S  S13  1  0.832046  0.747185  0.657890  1
  S  S14  1  0.168600  0.744568  0.158357  1
  S  S15  1  0.168600  0.255432  0.841643  1
  S  S16  1  0.168600  0.255432  0.158357  1
  S  S17  1  0.168600  0.744568  0.841643  1
  S  S18  1  0.832046  0.747185  0.342110  1
  S  S19  1  0.832046  0.252815  0.657890  1
  S  S20  1  0.659948  0.000000  0.158126  1
  S  S21  1  0.659948  0.000000  0.841874  1
  S  S22  1  0.332544  0.500000  0.341859  1
  S  S23  1  0.332544  0.500000  0.658141  1
  S  S24  1  0.342881  0.000000  0.342577  1
  S  S25  1  0.342881  0.000000  0.657423  1
  S  S26  1  0.667579  0.500000  0.160234  1
  S  S27  1  0.667579  0.500000  0.839766  1
