# generated using pymatgen
data_Dy3TmMoRu7
_symmetry_space_group_name_H-M   'P 1'
_cell_length_a   5.46022641
_cell_length_b   5.18935342
_cell_length_c   9.02424804
_cell_angle_alpha   90.00840161
_cell_angle_beta   90.00125623
_cell_angle_gamma   121.98960273
_symmetry_Int_Tables_number   1
_chemical_formula_structural   Dy3TmMoRu7
_chemical_formula_sum   'Dy3 Tm1 Mo1 Ru7'
_cell_volume   216.87257507
_cell_formula_units_Z   1
loop_
 _symmetry_equiv_pos_site_id
 _symmetry_equiv_pos_as_xyz
  1  'x, y, z'
loop_
 _atom_site_type_symbol
 _atom_site_label
 _atom_site_symmetry_multiplicity
 _atom_site_fract_x
 _atom_site_fract_y
 _atom_site_fract_z
 _atom_site_occupancy
  Dy  Dy0  1  0.672291  0.345604  0.563756  1
  Dy  Dy1  1  0.334815  0.669718  0.431784  1
  Dy  Dy2  1  0.334946  0.670061  0.067645  1
  Tm  Tm3  1  0.673011  0.347208  0.936084  1
  Mo  Mo4  1  0.159218  0.319750  0.750809  1
  Ru  Ru5  1  0.008914  0.018520  0.498293  1
  Ru  Ru6  1  0.008748  0.018171  0.001653  1
  Ru  Ru7  1  0.171854  0.821022  0.751279  1
  Ru  Ru8  1  0.650347  0.821340  0.751257  1
  Ru  Ru9  1  0.822157  0.643547  0.248926  1
  Ru  Ru10  1  0.831539  0.162112  0.249261  1
  Ru  Ru11  1  0.332163  0.162945  0.249255  1
