# generated using pymatgen
data_Ce2Co3Ni4
_symmetry_space_group_name_H-M   'P 1'
_cell_length_a   4.88429943
_cell_length_b   4.88430036
_cell_length_c   12.61100984
_cell_angle_alpha   78.83400675
_cell_angle_beta   78.83400654
_cell_angle_gamma   60.00000462
_symmetry_Int_Tables_number   1
_chemical_formula_structural   Ce2Co3Ni4
_chemical_formula_sum   'Ce4 Co6 Ni8'
_cell_volume   253.94906429
_cell_formula_units_Z   2
loop_
 _symmetry_equiv_pos_site_id
 _symmetry_equiv_pos_as_xyz
  1  'x, y, z'
loop_
 _atom_site_type_symbol
 _atom_site_label
 _atom_site_symmetry_multiplicity
 _atom_site_fract_x
 _atom_site_fract_y
 _atom_site_fract_z
 _atom_site_occupancy
  Ce  Ce0  1  0.948255  0.948255  0.155234  1
  Ce  Ce1  1  0.051745  0.051745  0.844766  1
  Ce  Ce2  1  0.853506  0.853506  0.439481  1
  Ce  Ce3  1  0.146494  0.146494  0.560519  1
  Co  Co4  1  0.390096  0.390096  0.327971  1
  Co  Co5  1  0.891837  0.390096  0.327971  1
  Co  Co6  1  0.390096  0.891837  0.327971  1
  Co  Co7  1  0.609904  0.609904  0.672029  1
  Co  Co8  1  0.108163  0.609904  0.672029  1
  Co  Co9  1  0.609904  0.108163  0.672029  1
  Ni  Ni10  1  0.500000  0.500000  0.500000  1
  Ni  Ni11  1  0.721581  0.721581  0.835258  1
  Ni  Ni12  1  0.278419  0.278419  0.164742  1
  Ni  Ni13  1  0.611707  0.611707  0.164880  1
  Ni  Ni14  1  0.388293  0.388293  0.835120  1
  Ni  Ni15  1  0.000000  0.500000  0.000000  1
  Ni  Ni16  1  0.500000  0.000000  0.000000  1
  Ni  Ni17  1  0.500000  0.500000  0.000000  1
