# generated using pymatgen
data_La2Th2(Ga8Pd3)3
_symmetry_space_group_name_H-M   'P 1'
_cell_length_a   7.68269548
_cell_length_b   7.69159230
_cell_length_c   13.48686070
_cell_angle_alpha   84.68520341
_cell_angle_beta   79.20590210
_cell_angle_gamma   59.93853881
_symmetry_Int_Tables_number   1
_chemical_formula_structural   La2Th2(Ga8Pd3)3
_chemical_formula_sum   'La2 Th2 Ga24 Pd9'
_cell_volume   677.56145643
_cell_formula_units_Z   1
loop_
 _symmetry_equiv_pos_site_id
 _symmetry_equiv_pos_as_xyz
  1  'x, y, z'
loop_
 _atom_site_type_symbol
 _atom_site_label
 _atom_site_symmetry_multiplicity
 _atom_site_fract_x
 _atom_site_fract_y
 _atom_site_fract_z
 _atom_site_occupancy
  La  La0  1  0.732285  0.497747  0.808891  1
  La  La1  1  0.267715  0.502253  0.191109  1
  Th  Th2  1  0.395729  0.168268  0.807718  1
  Th  Th3  1  0.604271  0.831732  0.192282  1
  Ga  Ga4  1  0.688824  0.833600  0.942267  1
  Ga  Ga5  1  0.311176  0.166400  0.057733  1
  Ga  Ga6  1  0.144805  0.834630  0.559173  1
  Ga  Ga7  1  0.855195  0.165370  0.440827  1
  Ga  Ga8  1  0.480439  0.166844  0.556577  1
  Ga  Ga9  1  0.519561  0.833156  0.443423  1
  Ga  Ga10  1  0.215952  0.166624  0.331699  1
  Ga  Ga11  1  0.784048  0.833376  0.668301  1
  Ga  Ga12  1  0.436823  0.507050  0.668608  1
  Ga  Ga13  1  0.563177  0.492950  0.331392  1
  Ga  Ga14  1  0.108928  0.159945  0.667176  1
  Ga  Ga15  1  0.891072  0.840055  0.332824  1
  Ga  Ga16  1  0.350173  0.502900  0.942197  1
  Ga  Ga17  1  0.649827  0.497100  0.057803  1
  Ga  Ga18  1  0.017152  0.165069  0.949898  1
  Ga  Ga19  1  0.982848  0.834931  0.050102  1
  Ga  Ga20  1  0.185699  0.501670  0.442991  1
  Ga  Ga21  1  0.814301  0.498330  0.557009  1
  Ga  Ga22  1  0.739145  0.159707  0.183318  1
  Ga  Ga23  1  0.260855  0.840293  0.816682  1
  Ga  Ga24  1  0.064531  0.632313  0.815514  1
  Ga  Ga25  1  0.935469  0.367687  0.184486  1
  Ga  Ga26  1  0.860525  0.035332  0.816118  1
  Ga  Ga27  1  0.139475  0.964668  0.183882  1
  Pd  Pd28  1  0.120985  0.496137  0.637091  1
  Pd  Pd29  1  0.879015  0.503863  0.362909  1
  Pd  Pd30  1  0.658654  0.169947  0.999364  1
  Pd  Pd31  1  0.341346  0.830053  0.000636  1
  Pd  Pd32  1  0.541877  0.166243  0.362467  1
  Pd  Pd33  1  0.458123  0.833757  0.637533  1
  Pd  Pd34  1  0.781407  0.170523  0.637293  1
  Pd  Pd35  1  0.218593  0.829477  0.362707  1
  Pd  Pd36  1  0.000000  0.500000  0.000000  1
