# generated using pymatgen
data_Sr8FeTc3O16
_symmetry_space_group_name_H-M   'P 1'
_cell_length_a   5.58421587
_cell_length_b   8.94352478
_cell_length_c   8.94349599
_cell_angle_alpha   88.39242336
_cell_angle_beta   71.84877788
_cell_angle_gamma   108.15260013
_symmetry_Int_Tables_number   1
_chemical_formula_structural   Sr8FeTc3O16
_chemical_formula_sum   'Sr8 Fe1 Tc3 O16'
_cell_volume   399.42007247
_cell_formula_units_Z   1
loop_
 _symmetry_equiv_pos_site_id
 _symmetry_equiv_pos_as_xyz
  1  'x, y, z'
loop_
 _atom_site_type_symbol
 _atom_site_label
 _atom_site_symmetry_multiplicity
 _atom_site_fract_x
 _atom_site_fract_y
 _atom_site_fract_z
 _atom_site_occupancy
  Sr  Sr0  1  0.254043  0.401101  0.891451  1
  Sr  Sr1  1  0.999965  0.644585  0.644511  1
  Sr  Sr2  1  0.745813  0.891244  0.401240  1
  Sr  Sr3  1  0.500062  0.149672  0.149540  1
  Sr  Sr4  1  0.000100  0.355460  0.355441  1
  Sr  Sr5  1  0.745942  0.598923  0.108601  1
  Sr  Sr6  1  0.499922  0.850288  0.850505  1
  Sr  Sr7  1  0.254113  0.108663  0.598776  1
  Fe  Fe8  1  0.499943  0.499921  0.500044  1
  Tc  Tc9  1  0.252427  0.752213  0.247836  1
  Tc  Tc10  1  0.000035  0.000041  0.999974  1
  Tc  Tc11  1  0.747597  0.247810  0.752141  1
  O  O12  1  0.251100  0.589681  0.087310  1
  O  O13  1  0.999753  0.837279  0.837723  1
  O  O14  1  0.749427  0.087698  0.589275  1
  O  O15  1  0.499664  0.338632  0.338960  1
  O  O16  1  0.000301  0.162803  0.162216  1
  O  O17  1  0.748901  0.410341  0.912652  1
  O  O18  1  0.500309  0.661351  0.661044  1
  O  O19  1  0.250590  0.912293  0.410752  1
  O  O20  1  0.877378  0.125256  0.874522  1
  O  O21  1  0.619187  0.370660  0.629455  1
  O  O22  1  0.380769  0.629283  0.370558  1
  O  O23  1  0.122634  0.874796  0.125465  1
  O  O24  1  0.375217  0.123044  0.876658  1
  O  O25  1  0.117836  0.374402  0.625883  1
  O  O26  1  0.882129  0.625565  0.374142  1
  O  O27  1  0.624839  0.876994  0.123324  1
