# generated using pymatgen
data_Ho8Sc12GaSi15
_symmetry_space_group_name_H-M   'P 1'
_cell_length_a   7.09490167
_cell_length_b   7.38346179
_cell_length_c   14.00754964
_cell_angle_alpha   89.92066498
_cell_angle_beta   89.95093357
_cell_angle_gamma   89.99205252
_symmetry_Int_Tables_number   1
_chemical_formula_structural   Ho8Sc12GaSi15
_chemical_formula_sum   'Ho8 Sc12 Ga1 Si15'
_cell_volume   733.78360282
_cell_formula_units_Z   1
loop_
 _symmetry_equiv_pos_site_id
 _symmetry_equiv_pos_as_xyz
  1  'x, y, z'
loop_
 _atom_site_type_symbol
 _atom_site_label
 _atom_site_symmetry_multiplicity
 _atom_site_fract_x
 _atom_site_fract_y
 _atom_site_fract_z
 _atom_site_occupancy
  Ho  Ho0  1  0.012056  0.175504  0.097068  1
  Ho  Ho1  1  0.987895  0.824664  0.903351  1
  Ho  Ho2  1  0.487739  0.676219  0.903259  1
  Ho  Ho3  1  0.987304  0.826398  0.597494  1
  Ho  Ho4  1  0.512208  0.323908  0.096962  1
  Ho  Ho5  1  0.011218  0.174218  0.401797  1
  Ho  Ho6  1  0.512919  0.323521  0.401750  1
  Ho  Ho7  1  0.489759  0.677973  0.597505  1
  Sc  Sc8  1  0.161137  0.502890  0.751127  1
  Sc  Sc9  1  0.838965  0.497213  0.249938  1
  Sc  Sc10  1  0.338980  0.002901  0.249838  1
  Sc  Sc11  1  0.661231  0.996550  0.750053  1
  Sc  Sc12  1  0.331824  0.174761  0.625702  1
  Sc  Sc13  1  0.668859  0.823797  0.374642  1
  Sc  Sc14  1  0.169940  0.677480  0.373882  1
  Sc  Sc15  1  0.669635  0.823513  0.125178  1
  Sc  Sc16  1  0.828787  0.323001  0.625395  1
  Sc  Sc17  1  0.330150  0.176092  0.875021  1
  Sc  Sc18  1  0.830464  0.323071  0.875038  1
  Sc  Sc19  1  0.169333  0.676789  0.125164  1
  Ga  Ga20  1  0.160047  0.462911  0.539316  1
  Si  Si21  1  0.033669  0.117346  0.750628  1
  Si  Si22  1  0.966573  0.883522  0.249738  1
  Si  Si23  1  0.467638  0.615958  0.249999  1
  Si  Si24  1  0.532208  0.384741  0.749748  1
  Si  Si25  1  0.284562  0.872536  0.750306  1
  Si  Si26  1  0.714594  0.127623  0.249630  1
  Si  Si27  1  0.214405  0.372146  0.249507  1
  Si  Si28  1  0.785617  0.627343  0.750717  1
  Si  Si29  1  0.841075  0.535772  0.460357  1
  Si  Si30  1  0.341558  0.964474  0.460251  1
  Si  Si31  1  0.841918  0.535255  0.038766  1
  Si  Si32  1  0.657760  0.035415  0.539098  1
  Si  Si33  1  0.158035  0.464477  0.961551  1
  Si  Si34  1  0.657690  0.035161  0.960675  1
  Si  Si35  1  0.342247  0.964859  0.039547  1
