# generated using pymatgen
data_Nd4CuNiIrPt
_symmetry_space_group_name_H-M   'P 1'
_cell_length_a   4.46498300
_cell_length_b   5.66944790
_cell_length_c   7.40538871
_cell_angle_alpha   90.13751236
_cell_angle_beta   90.00000000
_cell_angle_gamma   90.00000000
_symmetry_Int_Tables_number   1
_chemical_formula_structural   Nd4CuNiIrPt
_chemical_formula_sum   'Nd4 Cu1 Ni1 Ir1 Pt1'
_cell_volume   187.45938482
_cell_formula_units_Z   1
loop_
 _symmetry_equiv_pos_site_id
 _symmetry_equiv_pos_as_xyz
  1  'x, y, z'
loop_
 _atom_site_type_symbol
 _atom_site_label
 _atom_site_symmetry_multiplicity
 _atom_site_fract_x
 _atom_site_fract_y
 _atom_site_fract_z
 _atom_site_occupancy
  Nd  Nd0  1  0.000000  0.633060  0.332309  1
  Nd  Nd1  1  0.000000  0.873671  0.808305  1
  Nd  Nd2  1  0.500000  0.365448  0.674040  1
  Nd  Nd3  1  0.500000  0.132173  0.188780  1
  Cu  Cu4  1  0.500000  0.627673  0.038137  1
  Ni  Ni5  1  0.000000  0.134752  0.455460  1
  Ir  Ir6  1  0.500000  0.857001  0.541735  1
  Pt  Pt7  1  0.000000  0.376222  0.961233  1
