# generated using pymatgen
data_Cr4InBi3F28
_symmetry_space_group_name_H-M   'P 1'
_cell_length_a   5.58269087
_cell_length_b   8.96378185
_cell_length_c   11.87159000
_cell_angle_alpha   62.51959058
_cell_angle_beta   89.96797909
_cell_angle_gamma   89.92623945
_symmetry_Int_Tables_number   1
_chemical_formula_structural   Cr4InBi3F28
_chemical_formula_sum   'Cr4 In1 Bi3 F28'
_cell_volume   527.04728562
_cell_formula_units_Z   1
loop_
 _symmetry_equiv_pos_site_id
 _symmetry_equiv_pos_as_xyz
  1  'x, y, z'
loop_
 _atom_site_type_symbol
 _atom_site_label
 _atom_site_symmetry_multiplicity
 _atom_site_fract_x
 _atom_site_fract_y
 _atom_site_fract_z
 _atom_site_occupancy
  Cr  Cr0  1  0.756941  0.270705  0.958864  1
  Cr  Cr1  1  0.262705  0.724229  0.536686  1
  Cr  Cr2  1  0.232937  0.728617  0.050627  1
  Cr  Cr3  1  0.741884  0.281008  0.453665  1
  In  In4  1  0.722753  0.805173  0.262188  1
  Bi  Bi5  1  0.779045  0.810944  0.760839  1
  Bi  Bi6  1  0.275331  0.187747  0.737858  1
  Bi  Bi7  1  0.226665  0.175924  0.238116  1
  F  F8  1  0.424946  0.710422  0.933969  1
  F  F9  1  0.926861  0.295308  0.575321  1
  F  F10  1  0.573968  0.290791  0.079537  1
  F  F11  1  0.072142  0.706327  0.419724  1
  F  F12  1  0.456582  0.286171  0.541547  1
  F  F13  1  0.955183  0.722998  0.958688  1
  F  F14  1  0.549901  0.719860  0.445637  1
  F  F15  1  0.045400  0.276737  0.044078  1
  F  F16  1  0.770670  0.502221  0.866064  1
  F  F17  1  0.277441  0.496129  0.632737  1
  F  F18  1  0.219241  0.501847  0.143739  1
  F  F19  1  0.739160  0.514540  0.359820  1
  F  F20  1  0.752394  0.041227  0.045914  1
  F  F21  1  0.258442  0.957836  0.449541  1
  F  F22  1  0.238400  0.960599  0.957636  1
  F  F23  1  0.742419  0.048100  0.545892  1
  F  F24  1  0.986929  0.728114  0.630277  1
  F  F25  1  0.476012  0.272320  0.867588  1
  F  F26  1  0.017390  0.269865  0.364895  1
  F  F27  1  0.512261  0.729118  0.146861  1
  F  F28  1  0.030449  0.754369  0.170433  1
  F  F29  1  0.555931  0.261683  0.332417  1
  F  F30  1  0.939933  0.256352  0.833497  1
  F  F31  1  0.451580  0.745546  0.657418  1
  F  F32  1  0.413159  0.966127  0.223695  1
  F  F33  1  0.901621  0.006316  0.273786  1
  F  F34  1  0.604925  0.028563  0.777386  1
  F  F35  1  0.108401  0.966166  0.723061  1
