# generated using pymatgen
data_LuSc(NiH3)2
_symmetry_space_group_name_H-M   'P 1'
_cell_length_a   5.65151794
_cell_length_b   5.65151842
_cell_length_c   4.41685900
_cell_angle_alpha   90.00000000
_cell_angle_beta   90.00000000
_cell_angle_gamma   144.13765020
_symmetry_Int_Tables_number   1
_chemical_formula_structural   LuSc(NiH3)2
_chemical_formula_sum   'Lu1 Sc1 Ni2 H6'
_cell_volume   82.64617655
_cell_formula_units_Z   1
loop_
 _symmetry_equiv_pos_site_id
 _symmetry_equiv_pos_as_xyz
  1  'x, y, z'
loop_
 _atom_site_type_symbol
 _atom_site_label
 _atom_site_symmetry_multiplicity
 _atom_site_fract_x
 _atom_site_fract_y
 _atom_site_fract_z
 _atom_site_occupancy
  Lu  Lu0  1  0.861084  0.138916  0.750000  1
  Sc  Sc1  1  0.138654  0.861346  0.250000  1
  Ni  Ni2  1  0.578377  0.421623  0.750000  1
  Ni  Ni3  1  0.424449  0.575551  0.250000  1
  H  H4  1  0.073791  0.926209  0.750000  1
  H  H5  1  0.937129  0.062871  0.250000  1
  H  H6  1  0.683181  0.316819  0.486456  1
  H  H7  1  0.310076  0.689924  0.492413  1
  H  H8  1  0.683181  0.316819  0.013544  1
  H  H9  1  0.310076  0.689924  0.007587  1
