# generated using pymatgen
data_Ca8Mg3Si12Ag
_symmetry_space_group_name_H-M   'P 1'
_cell_length_a   4.43989100
_cell_length_b   10.57704046
_cell_length_c   11.13183219
_cell_angle_alpha   89.74753190
_cell_angle_beta   90.00000000
_cell_angle_gamma   90.00000000
_symmetry_Int_Tables_number   1
_chemical_formula_structural   Ca8Mg3Si12Ag
_chemical_formula_sum   'Ca8 Mg3 Si12 Ag1'
_cell_volume   522.75585871
_cell_formula_units_Z   1
loop_
 _symmetry_equiv_pos_site_id
 _symmetry_equiv_pos_as_xyz
  1  'x, y, z'
loop_
 _atom_site_type_symbol
 _atom_site_label
 _atom_site_symmetry_multiplicity
 _atom_site_fract_x
 _atom_site_fract_y
 _atom_site_fract_z
 _atom_site_occupancy
  Ca  Ca0  1  0.500000  0.557298  0.351475  1
  Ca  Ca1  1  0.500000  0.447237  0.645380  1
  Ca  Ca2  1  0.000000  0.049111  0.149709  1
  Ca  Ca3  1  0.000000  0.945775  0.855900  1
  Ca  Ca4  1  0.500000  0.824494  0.573561  1
  Ca  Ca5  1  0.500000  0.176122  0.420872  1
  Ca  Ca6  1  0.000000  0.322931  0.922323  1
  Ca  Ca7  1  0.000000  0.679260  0.081813  1
  Mg  Mg8  1  0.500000  0.137353  0.720220  1
  Mg  Mg9  1  0.000000  0.361910  0.220076  1
  Mg  Mg10  1  0.000000  0.638607  0.780361  1
  Si  Si11  1  0.500000  0.891987  0.044941  1
  Si  Si12  1  0.500000  0.106271  0.959871  1
  Si  Si13  1  0.000000  0.394226  0.458750  1
  Si  Si14  1  0.000000  0.609571  0.539051  1
  Si  Si15  1  0.000000  0.968820  0.399721  1
  Si  Si16  1  0.000000  0.031136  0.600842  1
  Si  Si17  1  0.500000  0.467203  0.100102  1
  Si  Si18  1  0.500000  0.531967  0.899405  1
  Si  Si19  1  0.000000  0.258200  0.633198  1
  Si  Si20  1  0.000000  0.745280  0.363239  1
  Si  Si21  1  0.500000  0.758760  0.868559  1
  Si  Si22  1  0.500000  0.241542  0.132919  1
  Ag  Ag23  1  0.500000  0.854935  0.277712  1
