# generated using pymatgen
data_CeY3Nb2(B2Ru5)2
_symmetry_space_group_name_H-M   'P 1'
_cell_length_a   9.69034815
_cell_length_b   9.69034815
_cell_length_c   3.14933700
_cell_angle_alpha   90.00000000
_cell_angle_beta   90.00000000
_cell_angle_gamma   89.97968408
_symmetry_Int_Tables_number   1
_chemical_formula_structural   CeY3Nb2(B2Ru5)2
_chemical_formula_sum   'Ce1 Y3 Nb2 B4 Ru10'
_cell_volume   295.73169286
_cell_formula_units_Z   1
loop_
 _symmetry_equiv_pos_site_id
 _symmetry_equiv_pos_as_xyz
  1  'x, y, z'
loop_
 _atom_site_type_symbol
 _atom_site_label
 _atom_site_symmetry_multiplicity
 _atom_site_fract_x
 _atom_site_fract_y
 _atom_site_fract_z
 _atom_site_occupancy
  Ce  Ce0  1  0.674961  0.174961  0.000000  1
  Y  Y1  1  0.824617  0.675015  0.000000  1
  Y  Y2  1  0.175015  0.324617  0.000000  1
  Y  Y3  1  0.324620  0.824620  0.000000  1
  Nb  Nb4  1  0.498025  0.503122  0.000000  1
  Nb  Nb5  1  0.003122  0.998025  0.000000  1
  B  B6  1  0.621064  0.876804  0.000000  1
  B  B7  1  0.376804  0.121064  0.000000  1
  B  B8  1  0.120621  0.620621  0.000000  1
  B  B9  1  0.881591  0.381591  0.000000  1
  Ru  Ru10  1  0.570823  0.719898  0.500000  1
  Ru  Ru11  1  0.430675  0.281714  0.500000  1
  Ru  Ru12  1  0.070302  0.780683  0.500000  1
  Ru  Ru13  1  0.926797  0.217724  0.500000  1
  Ru  Ru14  1  0.280683  0.570302  0.500000  1
  Ru  Ru15  1  0.717724  0.426797  0.500000  1
  Ru  Ru16  1  0.219898  0.070823  0.500000  1
  Ru  Ru17  1  0.781714  0.930675  0.500000  1
  Ru  Ru18  1  0.501698  0.001698  0.500000  1
  Ru  Ru19  1  0.999246  0.499246  0.500000  1
