# generated using pymatgen
data_La3Nd2Pt19
_symmetry_space_group_name_H-M   'P 1'
_cell_length_a   5.48374154
_cell_length_b   5.48374202
_cell_length_c   18.09315828
_cell_angle_alpha   81.28371441
_cell_angle_beta   81.28371228
_cell_angle_gamma   59.99999405
_symmetry_Int_Tables_number   1
_chemical_formula_structural   La3Nd2Pt19
_chemical_formula_sum   'La3 Nd2 Pt19'
_cell_volume   463.92313850
_cell_formula_units_Z   1
loop_
 _symmetry_equiv_pos_site_id
 _symmetry_equiv_pos_as_xyz
  1  'x, y, z'
loop_
 _atom_site_type_symbol
 _atom_site_label
 _atom_site_symmetry_multiplicity
 _atom_site_fract_x
 _atom_site_fract_y
 _atom_site_fract_z
 _atom_site_occupancy
  La  La0  1  0.000000  0.000000  0.000000  1
  La  La1  1  0.077719  0.077719  0.766843  1
  La  La2  1  0.922281  0.922281  0.233157  1
  Nd  Nd3  1  0.152200  0.152200  0.543399  1
  Nd  Nd4  1  0.847800  0.847800  0.456601  1
  Pt  Pt5  1  0.500000  0.500000  0.500000  1
  Pt  Pt6  1  0.250054  0.250054  0.249837  1
  Pt  Pt7  1  0.749946  0.749946  0.750163  1
  Pt  Pt8  1  0.333232  0.333232  0.000303  1
  Pt  Pt9  1  0.666768  0.666768  0.999697  1
  Pt  Pt10  1  0.416282  0.416282  0.751154  1
  Pt  Pt11  1  0.583718  0.583718  0.248846  1
  Pt  Pt12  1  0.122100  0.626782  0.624336  1
  Pt  Pt13  1  0.626782  0.626782  0.624336  1
  Pt  Pt14  1  0.626782  0.122100  0.624336  1
  Pt  Pt15  1  0.877900  0.373218  0.375664  1
  Pt  Pt16  1  0.373218  0.373218  0.375664  1
  Pt  Pt17  1  0.373218  0.877900  0.375664  1
  Pt  Pt18  1  0.041066  0.541291  0.876351  1
  Pt  Pt19  1  0.541291  0.541291  0.876351  1
  Pt  Pt20  1  0.541291  0.041066  0.876351  1
  Pt  Pt21  1  0.958934  0.458709  0.123649  1
  Pt  Pt22  1  0.458709  0.458709  0.123649  1
  Pt  Pt23  1  0.458709  0.958934  0.123649  1
