# generated using pymatgen
data_Yb3DyPt2(RhO7)2
_symmetry_space_group_name_H-M   'P 1'
_cell_length_a   7.22055639
_cell_length_b   7.23616134
_cell_length_c   7.22055742
_cell_angle_alpha   60.18604360
_cell_angle_beta   60.05228439
_cell_angle_gamma   60.18605041
_symmetry_Int_Tables_number   1
_chemical_formula_structural   Yb3DyPt2(RhO7)2
_chemical_formula_sum   'Yb3 Dy1 Pt2 Rh2 O14'
_cell_volume   267.62241040
_cell_formula_units_Z   1
loop_
 _symmetry_equiv_pos_site_id
 _symmetry_equiv_pos_as_xyz
  1  'x, y, z'
loop_
 _atom_site_type_symbol
 _atom_site_label
 _atom_site_symmetry_multiplicity
 _atom_site_fract_x
 _atom_site_fract_y
 _atom_site_fract_z
 _atom_site_occupancy
  Yb  Yb0  1  0.125000  0.625000  0.125000  1
  Yb  Yb1  1  0.125000  0.125000  0.625000  1
  Yb  Yb2  1  0.625000  0.125000  0.125000  1
  Dy  Dy3  1  0.125000  0.125000  0.125000  1
  Pt  Pt4  1  0.125000  0.625000  0.625000  1
  Pt  Pt5  1  0.625000  0.625000  0.125000  1
  Rh  Rh6  1  0.625000  0.625000  0.625000  1
  Rh  Rh7  1  0.625000  0.125000  0.625000  1
  O  O8  1  0.294627  0.708591  0.703434  1
  O  O9  1  0.538135  0.957881  0.957015  1
  O  O10  1  0.701064  0.298325  0.701064  1
  O  O11  1  0.292985  0.292119  0.711865  1
  O  O12  1  0.703434  0.708591  0.294627  1
  O  O13  1  0.001959  0.001882  0.001959  1
  O  O14  1  0.289120  0.715606  0.289120  1
  O  O15  1  0.960880  0.534394  0.960880  1
  O  O16  1  0.957015  0.957881  0.538135  1
  O  O17  1  0.546566  0.541409  0.955373  1
  O  O18  1  0.248041  0.248118  0.248041  1
  O  O19  1  0.548936  0.951675  0.548936  1
  O  O20  1  0.711865  0.292119  0.292985  1
  O  O21  1  0.955373  0.541409  0.546566  1
