# generated using pymatgen
data_YPaC2
_symmetry_space_group_name_H-M   'P 1'
_cell_length_a   6.20903745
_cell_length_b   6.20903777
_cell_length_c   6.20903685
_cell_angle_alpha   34.07755709
_cell_angle_beta   34.07755530
_cell_angle_gamma   34.07756134
_symmetry_Int_Tables_number   1
_chemical_formula_structural   YPaC2
_chemical_formula_sum   'Y1 Pa1 C2'
_cell_volume   66.99676428
_cell_formula_units_Z   1
loop_
 _symmetry_equiv_pos_site_id
 _symmetry_equiv_pos_as_xyz
  1  'x, y, z'
loop_
 _atom_site_type_symbol
 _atom_site_label
 _atom_site_symmetry_multiplicity
 _atom_site_fract_x
 _atom_site_fract_y
 _atom_site_fract_z
 _atom_site_occupancy
  Y  Y0  1  0.500000  0.500000  0.500000  1
  Pa  Pa1  1  0.000000  0.000000  0.000000  1
  C  C2  1  0.258144  0.258144  0.258144  1
  C  C3  1  0.741856  0.741856  0.741856  1
