# generated using pymatgen
data_Sc5Fe3(Co4P3)4
_symmetry_space_group_name_H-M   'P 1'
_cell_length_a   11.83060700
_cell_length_b   11.83060981
_cell_length_c   3.58714900
_cell_angle_alpha   90.00000000
_cell_angle_beta   90.00000000
_cell_angle_gamma   120.00000614
_symmetry_Int_Tables_number   1
_chemical_formula_structural   Sc5Fe3(Co4P3)4
_chemical_formula_sum   'Sc5 Fe3 Co16 P12'
_cell_volume   434.80464986
_cell_formula_units_Z   1
loop_
 _symmetry_equiv_pos_site_id
 _symmetry_equiv_pos_as_xyz
  1  'x, y, z'
loop_
 _atom_site_type_symbol
 _atom_site_label
 _atom_site_symmetry_multiplicity
 _atom_site_fract_x
 _atom_site_fract_y
 _atom_site_fract_z
 _atom_site_occupancy
  Sc  Sc0  1  0.666667  0.333333  0.000000  1
  Sc  Sc1  1  0.333333  0.666667  0.000000  1
  Sc  Sc2  1  0.812717  0.812717  0.500000  1
  Sc  Sc3  1  0.187283  0.000000  0.500000  1
  Sc  Sc4  1  0.000000  0.187283  0.500000  1
  Fe  Fe5  1  0.447918  0.447918  0.000000  1
  Fe  Fe6  1  0.552082  0.000000  0.000000  1
  Fe  Fe7  1  0.000000  0.552082  0.000000  1
  Co  Co8  1  0.872479  0.355906  0.500000  1
  Co  Co9  1  0.644094  0.516573  0.500000  1
  Co  Co10  1  0.483427  0.127521  0.500000  1
  Co  Co11  1  0.355906  0.872479  0.500000  1
  Co  Co12  1  0.516573  0.644094  0.500000  1
  Co  Co13  1  0.127521  0.483427  0.500000  1
  Co  Co14  1  0.802108  0.178068  0.000000  1
  Co  Co15  1  0.821932  0.624039  0.000000  1
  Co  Co16  1  0.375961  0.197892  0.000000  1
  Co  Co17  1  0.178068  0.802108  0.000000  1
  Co  Co18  1  0.624039  0.821932  0.000000  1
  Co  Co19  1  0.197892  0.375961  0.000000  1
  Co  Co20  1  0.282375  0.282375  0.500000  1
  Co  Co21  1  0.717625  0.000000  0.500000  1
  Co  Co22  1  0.000000  0.717625  0.500000  1
  Co  Co23  1  0.000000  0.000000  0.000000  1
  P  P24  1  0.683278  0.166480  0.500000  1
  P  P25  1  0.833520  0.516798  0.500000  1
  P  P26  1  0.483202  0.316722  0.500000  1
  P  P27  1  0.166480  0.683278  0.500000  1
  P  P28  1  0.516798  0.833520  0.500000  1
  P  P29  1  0.316722  0.483202  0.500000  1
  P  P30  1  0.177874  0.177874  0.000000  1
  P  P31  1  0.822126  0.000000  0.000000  1
  P  P32  1  0.000000  0.822126  0.000000  1
  P  P33  1  0.635972  0.635972  0.000000  1
  P  P34  1  0.364028  0.000000  0.000000  1
  P  P35  1  0.000000  0.364028  0.000000  1
