# generated using pymatgen
data_HoMnFeB6
_symmetry_space_group_name_H-M   'P 1'
_cell_length_a   5.39157033
_cell_length_b   5.39156987
_cell_length_c   5.39156969
_cell_angle_alpha   146.30636594
_cell_angle_beta   109.72326680
_cell_angle_gamma   80.24163367
_symmetry_Int_Tables_number   1
_chemical_formula_structural   HoMnFeB6
_chemical_formula_sum   'Ho1 Mn1 Fe1 B6'
_cell_volume   79.96394078
_cell_formula_units_Z   1
loop_
 _symmetry_equiv_pos_site_id
 _symmetry_equiv_pos_as_xyz
  1  'x, y, z'
loop_
 _atom_site_type_symbol
 _atom_site_label
 _atom_site_symmetry_multiplicity
 _atom_site_fract_x
 _atom_site_fract_y
 _atom_site_fract_z
 _atom_site_occupancy
  Ho  Ho0  1  0.502584  0.002584  0.500000  1
  Mn  Mn1  1  0.844912  0.844912  0.000000  1
  Fe  Fe2  1  0.151960  0.151960  0.000000  1
  B  B3  1  0.857300  0.499886  0.357414  1
  B  B4  1  0.142473  0.499886  0.642586  1
  B  B5  1  0.961802  0.696506  0.265296  1
  B  B6  1  0.044272  0.303880  0.740392  1
  B  B7  1  0.563488  0.303880  0.259608  1
  B  B8  1  0.431210  0.696506  0.734704  1
