# generated using pymatgen
data_La4Cd2IrAu3
_symmetry_space_group_name_H-M   'P 1'
_cell_length_a   8.16414417
_cell_length_b   8.16414557
_cell_length_c   3.96828800
_cell_angle_alpha   90.00000000
_cell_angle_beta   90.00000000
_cell_angle_gamma   90.14657794
_symmetry_Int_Tables_number   1
_chemical_formula_structural   La4Cd2IrAu3
_chemical_formula_sum   'La4 Cd2 Ir1 Au3'
_cell_volume   264.49847232
_cell_formula_units_Z   1
loop_
 _symmetry_equiv_pos_site_id
 _symmetry_equiv_pos_as_xyz
  1  'x, y, z'
loop_
 _atom_site_type_symbol
 _atom_site_label
 _atom_site_symmetry_multiplicity
 _atom_site_fract_x
 _atom_site_fract_y
 _atom_site_fract_z
 _atom_site_occupancy
  La  La0  1  0.669422  0.169422  0.500000  1
  La  La1  1  0.311565  0.811565  0.500000  1
  La  La2  1  0.177762  0.348227  0.500000  1
  La  La3  1  0.848227  0.677762  0.500000  1
  Cd  Cd4  1  0.002058  0.999402  0.000000  1
  Cd  Cd5  1  0.499402  0.502058  0.000000  1
  Ir  Ir6  1  0.128360  0.628360  0.000000  1
  Au  Au7  1  0.872089  0.372089  0.000000  1
  Au  Au8  1  0.624286  0.866830  0.000000  1
  Au  Au9  1  0.366830  0.124286  0.000000  1
