# generated using pymatgen
data_Zr10GaBi5B2
_symmetry_space_group_name_H-M   'P 1'
_cell_length_a   8.65912078
_cell_length_b   8.60250392
_cell_length_c   5.86100100
_cell_angle_alpha   90.00000000
_cell_angle_beta   90.00000000
_cell_angle_gamma   119.78395035
_symmetry_Int_Tables_number   1
_chemical_formula_structural   Zr10GaBi5B2
_chemical_formula_sum   'Zr10 Ga1 Bi5 B2'
_cell_volume   378.91559291
_cell_formula_units_Z   1
loop_
 _symmetry_equiv_pos_site_id
 _symmetry_equiv_pos_as_xyz
  1  'x, y, z'
loop_
 _atom_site_type_symbol
 _atom_site_label
 _atom_site_symmetry_multiplicity
 _atom_site_fract_x
 _atom_site_fract_y
 _atom_site_fract_z
 _atom_site_occupancy
  Zr  Zr0  1  0.674084  0.334973  0.003958  1
  Zr  Zr1  1  0.325916  0.660892  0.003958  1
  Zr  Zr2  1  0.325916  0.660892  0.496042  1
  Zr  Zr3  1  0.674084  0.334973  0.496042  1
  Zr  Zr4  1  0.773692  0.771805  0.750000  1
  Zr  Zr5  1  0.226308  0.998112  0.750000  1
  Zr  Zr6  1  0.000000  0.229317  0.750000  1
  Zr  Zr7  1  0.220516  0.233493  0.250000  1
  Zr  Zr8  1  0.779484  0.012977  0.250000  1
  Zr  Zr9  1  0.000000  0.765253  0.250000  1
  Ga  Ga10  1  0.000000  0.400057  0.250000  1
  Bi  Bi11  1  0.399734  0.397931  0.750000  1
  Bi  Bi12  1  0.600266  0.998197  0.750000  1
  Bi  Bi13  1  0.000000  0.594584  0.750000  1
  Bi  Bi14  1  0.603119  0.605071  0.250000  1
  Bi  Bi15  1  0.396881  0.001952  0.250000  1
  B  B16  1  0.000000  0.999762  0.000673  1
  B  B17  1  0.000000  0.999762  0.499327  1
