# generated using pymatgen
data_ErLu2Ga5Co
_symmetry_space_group_name_H-M   'P 1'
_cell_length_a   6.80296900
_cell_length_b   6.83204452
_cell_length_c   4.16820100
_cell_angle_alpha   90.00000000
_cell_angle_beta   90.00000000
_cell_angle_gamma   119.85931544
_symmetry_Int_Tables_number   1
_chemical_formula_structural   ErLu2Ga5Co
_chemical_formula_sum   'Er1 Lu2 Ga5 Co1'
_cell_volume   168.01280795
_cell_formula_units_Z   1
loop_
 _symmetry_equiv_pos_site_id
 _symmetry_equiv_pos_as_xyz
  1  'x, y, z'
loop_
 _atom_site_type_symbol
 _atom_site_label
 _atom_site_symmetry_multiplicity
 _atom_site_fract_x
 _atom_site_fract_y
 _atom_site_fract_z
 _atom_site_occupancy
  Er  Er0  1  0.596666  0.000000  0.000000  1
  Lu  Lu1  1  0.999440  0.599391  0.000000  1
  Lu  Lu2  1  0.400049  0.400609  0.000000  1
  Ga  Ga3  1  0.233496  0.000000  0.500000  1
  Ga  Ga4  1  0.999736  0.232175  0.500000  1
  Ga  Ga5  1  0.767561  0.767825  0.500000  1
  Ga  Ga6  1  0.332190  0.664376  0.500000  1
  Ga  Ga7  1  0.667814  0.335624  0.500000  1
  Co  Co8  1  0.003047  0.000000  0.000000  1
