# generated using pymatgen
data_TmPa(Co3Si2)2
_symmetry_space_group_name_H-M   'P 1'
_cell_length_a   6.24518551
_cell_length_b   6.24518611
_cell_length_c   6.24518600
_cell_angle_alpha   130.18925790
_cell_angle_beta   113.20960951
_cell_angle_gamma   87.74135147
_symmetry_Int_Tables_number   1
_chemical_formula_structural   TmPa(Co3Si2)2
_chemical_formula_sum   'Tm1 Pa1 Co6 Si4'
_cell_volume   162.80521201
_cell_formula_units_Z   1
loop_
 _symmetry_equiv_pos_site_id
 _symmetry_equiv_pos_as_xyz
  1  'x, y, z'
loop_
 _atom_site_type_symbol
 _atom_site_label
 _atom_site_symmetry_multiplicity
 _atom_site_fract_x
 _atom_site_fract_y
 _atom_site_fract_z
 _atom_site_occupancy
  Tm  Tm0  1  0.750000  0.457659  0.707659  1
  Pa  Pa1  1  0.250000  0.547052  0.297052  1
  Co  Co2  1  0.015809  0.000342  0.516151  1
  Co  Co3  1  0.484191  0.000342  0.984533  1
  Co  Co4  1  0.714314  0.991753  0.712596  1
  Co  Co5  1  0.220843  0.498282  0.712596  1
  Co  Co6  1  0.279157  0.991753  0.277440  1
  Co  Co7  1  0.785686  0.498282  0.277440  1
  Si  Si8  1  0.071767  0.876876  0.805109  1
  Si  Si9  1  0.905901  0.108060  0.202158  1
  Si  Si10  1  0.594099  0.796258  0.202158  1
  Si  Si11  1  0.428233  0.233340  0.805109  1
