# generated using pymatgen
data_YbHoPa2(ReB6)2
_symmetry_space_group_name_H-M   'P 1'
_cell_length_a   3.71062600
_cell_length_b   9.18129006
_cell_length_c   11.47844689
_cell_angle_alpha   90.14234553
_cell_angle_beta   90.00000000
_cell_angle_gamma   90.00000000
_symmetry_Int_Tables_number   1
_chemical_formula_structural   YbHoPa2(ReB6)2
_chemical_formula_sum   'Yb2 Ho2 Pa4 Re4 B24'
_cell_volume   391.05035099
_cell_formula_units_Z   2
loop_
 _symmetry_equiv_pos_site_id
 _symmetry_equiv_pos_as_xyz
  1  'x, y, z'
loop_
 _atom_site_type_symbol
 _atom_site_label
 _atom_site_symmetry_multiplicity
 _atom_site_fract_x
 _atom_site_fract_y
 _atom_site_fract_z
 _atom_site_occupancy
  Yb  Yb0  1  0.000000  0.948572  0.380364  1
  Yb  Yb1  1  0.000000  0.051428  0.619636  1
  Ho  Ho2  1  0.000000  0.445981  0.125316  1
  Ho  Ho3  1  0.000000  0.554019  0.874684  1
  Pa  Pa4  1  0.000000  0.323237  0.412822  1
  Pa  Pa5  1  0.000000  0.676763  0.587178  1
  Pa  Pa6  1  0.000000  0.824333  0.088750  1
  Pa  Pa7  1  0.000000  0.175667  0.911250  1
  Re  Re8  1  0.000000  0.640005  0.321943  1
  Re  Re9  1  0.000000  0.359995  0.678057  1
  Re  Re10  1  0.000000  0.138997  0.177660  1
  Re  Re11  1  0.000000  0.861003  0.822340  1
  B  B12  1  0.500000  0.552922  0.432626  1
  B  B13  1  0.500000  0.447078  0.567374  1
  B  B14  1  0.500000  0.053096  0.067499  1
  B  B15  1  0.500000  0.946904  0.932501  1
  B  B16  1  0.500000  0.747460  0.421365  1
  B  B17  1  0.500000  0.252540  0.578635  1
  B  B18  1  0.500000  0.247788  0.079125  1
  B  B19  1  0.500000  0.752212  0.920875  1
  B  B20  1  0.500000  0.794673  0.267615  1
  B  B21  1  0.500000  0.205327  0.732385  1
  B  B22  1  0.500000  0.293756  0.232684  1
  B  B23  1  0.500000  0.706244  0.767316  1
  B  B24  1  0.500000  0.634993  0.186343  1
  B  B25  1  0.500000  0.365007  0.813657  1
  B  B26  1  0.500000  0.135190  0.314267  1
  B  B27  1  0.500000  0.864810  0.685733  1
  B  B28  1  0.500000  0.983951  0.214806  1
  B  B29  1  0.500000  0.016049  0.785194  1
  B  B30  1  0.500000  0.484034  0.286498  1
  B  B31  1  0.500000  0.515966  0.713502  1
  B  B32  1  0.500000  0.615126  0.032123  1
  B  B33  1  0.500000  0.384874  0.967877  1
  B  B34  1  0.500000  0.123945  0.465430  1
  B  B35  1  0.500000  0.876055  0.534570  1
