# generated using pymatgen
data_La16Tb4Ir5Rh7
_symmetry_space_group_name_H-M   'P 1'
_cell_length_a   11.35186005
_cell_length_b   11.35186005
_cell_length_c   6.62468127
_cell_angle_alpha   90.06746851
_cell_angle_beta   90.06746851
_cell_angle_gamma   89.98787661
_symmetry_Int_Tables_number   1
_chemical_formula_structural   La16Tb4Ir5Rh7
_chemical_formula_sum   'La16 Tb4 Ir5 Rh7'
_cell_volume   853.68653853
_cell_formula_units_Z   1
loop_
 _symmetry_equiv_pos_site_id
 _symmetry_equiv_pos_as_xyz
  1  'x, y, z'
loop_
 _atom_site_type_symbol
 _atom_site_label
 _atom_site_symmetry_multiplicity
 _atom_site_fract_x
 _atom_site_fract_y
 _atom_site_fract_z
 _atom_site_occupancy
  La  La0  1  0.288241  0.088497  0.387440  1
  La  La1  1  0.288065  0.909597  0.888867  1
  La  La2  1  0.711499  0.089871  0.888209  1
  La  La3  1  0.711045  0.909995  0.388173  1
  La  La4  1  0.587641  0.787093  0.889292  1
  La  La5  1  0.587392  0.212876  0.389219  1
  La  La6  1  0.410895  0.787601  0.389121  1
  La  La7  1  0.412221  0.212625  0.889083  1
  La  La8  1  0.212907  0.412359  0.610708  1
  La  La9  1  0.212399  0.589105  0.110879  1
  La  La10  1  0.787124  0.412608  0.110781  1
  La  La11  1  0.787375  0.587779  0.610917  1
  La  La12  1  0.911503  0.711759  0.112560  1
  La  La13  1  0.910129  0.288501  0.611791  1
  La  La14  1  0.090403  0.711935  0.611133  1
  La  La15  1  0.090005  0.288955  0.111827  1
  Tb  Tb16  1  0.000316  0.999501  0.499735  1
  Tb  Tb17  1  0.000499  0.999684  0.000265  1
  Tb  Tb18  1  0.499810  0.499949  0.000121  1
  Tb  Tb19  1  0.500051  0.500190  0.499879  1
  Ir  Ir20  1  0.149204  0.850796  0.250000  1
  Ir  Ir21  1  0.650441  0.349559  0.750000  1
  Ir  Ir22  1  0.650426  0.650318  0.250118  1
  Ir  Ir23  1  0.349682  0.349574  0.249882  1
  Ir  Ir24  1  0.349979  0.650021  0.750000  1
  Rh  Rh25  1  0.850981  0.149019  0.250000  1
  Rh  Rh26  1  0.850269  0.851220  0.749987  1
  Rh  Rh27  1  0.148780  0.149731  0.750013  1
  Rh  Rh28  1  0.500904  0.000384  0.117288  1
  Rh  Rh29  1  0.500511  0.000315  0.617554  1
  Rh  Rh30  1  0.999685  0.499489  0.882446  1
  Rh  Rh31  1  0.999616  0.499096  0.382712  1
