# generated using pymatgen
data_TbHoAg2(Pt2O7)2
_symmetry_space_group_name_H-M   'P 1'
_cell_length_a   7.24158920
_cell_length_b   7.24158885
_cell_length_c   7.38977132
_cell_angle_alpha   59.24649078
_cell_angle_beta   59.24648939
_cell_angle_gamma   59.30296322
_symmetry_Int_Tables_number   1
_chemical_formula_structural   TbHoAg2(Pt2O7)2
_chemical_formula_sum   'Tb1 Ho1 Ag2 Pt4 O14'
_cell_volume   269.43575566
_cell_formula_units_Z   1
loop_
 _symmetry_equiv_pos_site_id
 _symmetry_equiv_pos_as_xyz
  1  'x, y, z'
loop_
 _atom_site_type_symbol
 _atom_site_label
 _atom_site_symmetry_multiplicity
 _atom_site_fract_x
 _atom_site_fract_y
 _atom_site_fract_z
 _atom_site_occupancy
  Tb  Tb0  1  0.625000  0.625000  0.125000  1
  Ho  Ho1  1  0.625000  0.625000  0.625000  1
  Ag  Ag2  1  0.625000  0.125000  0.625000  1
  Ag  Ag3  1  0.125000  0.625000  0.625000  1
  Pt  Pt4  1  0.125000  0.125000  0.125000  1
  Pt  Pt5  1  0.625000  0.125000  0.125000  1
  Pt  Pt6  1  0.125000  0.625000  0.125000  1
  Pt  Pt7  1  0.125000  0.125000  0.625000  1
  O  O8  1  0.027060  0.460979  0.456234  1
  O  O9  1  0.781072  0.781072  0.220632  1
  O  O10  1  0.789168  0.220464  0.195946  1
  O  O11  1  0.460979  0.027060  0.456234  1
  O  O12  1  0.761977  0.761977  0.735089  1
  O  O13  1  0.045034  0.045034  0.455229  1
  O  O14  1  0.029536  0.460832  0.054054  1
  O  O15  1  0.789021  0.222940  0.793766  1
  O  O16  1  0.220464  0.789168  0.195946  1
  O  O17  1  0.204966  0.204966  0.794771  1
  O  O18  1  0.488023  0.488023  0.514911  1
  O  O19  1  0.460832  0.029536  0.054054  1
  O  O20  1  0.468928  0.468928  0.029368  1
  O  O21  1  0.222940  0.789021  0.793766  1
