# generated using pymatgen
data_Ba2In4IrPt
_symmetry_space_group_name_H-M   'P 1'
_cell_length_a   6.33019647
_cell_length_b   6.33019646
_cell_length_c   8.14656700
_cell_angle_alpha   90.00000000
_cell_angle_beta   90.00000000
_cell_angle_gamma   138.03358514
_symmetry_Int_Tables_number   1
_chemical_formula_structural   Ba2In4IrPt
_chemical_formula_sum   'Ba2 In4 Ir1 Pt1'
_cell_volume   218.29159293
_cell_formula_units_Z   1
loop_
 _symmetry_equiv_pos_site_id
 _symmetry_equiv_pos_as_xyz
  1  'x, y, z'
loop_
 _atom_site_type_symbol
 _atom_site_label
 _atom_site_symmetry_multiplicity
 _atom_site_fract_x
 _atom_site_fract_y
 _atom_site_fract_z
 _atom_site_occupancy
  Ba  Ba0  1  0.053027  0.946973  0.250000  1
  Ba  Ba1  1  0.946656  0.053344  0.750000  1
  In  In2  1  0.663518  0.336482  0.553492  1
  In  In3  1  0.335934  0.664066  0.441214  1
  In  In4  1  0.663518  0.336482  0.946508  1
  In  In5  1  0.335934  0.664066  0.058786  1
  Ir  Ir6  1  0.778507  0.221493  0.250000  1
  Pt  Pt7  1  0.222906  0.777094  0.750000  1
