# generated using pymatgen
data_Dy11YCo4SnOs
_symmetry_space_group_name_H-M   'P 1'
_cell_length_a   8.30228349
_cell_length_b   8.30549437
_cell_length_c   8.30549363
_cell_angle_alpha   106.48280195
_cell_angle_beta   110.39610365
_cell_angle_gamma   111.59486490
_symmetry_Int_Tables_number   1
_chemical_formula_structural   Dy11YCo4SnOs
_chemical_formula_sum   'Dy11 Y1 Co4 Sn1 Os1'
_cell_volume   439.82652049
_cell_formula_units_Z   1
loop_
 _symmetry_equiv_pos_site_id
 _symmetry_equiv_pos_as_xyz
  1  'x, y, z'
loop_
 _atom_site_type_symbol
 _atom_site_label
 _atom_site_symmetry_multiplicity
 _atom_site_fract_x
 _atom_site_fract_y
 _atom_site_fract_z
 _atom_site_occupancy
  Dy  Dy0  1  0.102723  0.285567  0.817156  1
  Dy  Dy1  1  0.897288  0.714510  0.182778  1
  Dy  Dy2  1  0.531672  0.714515  0.817159  1
  Dy  Dy3  1  0.305822  0.619506  0.313594  1
  Dy  Dy4  1  0.305822  0.992229  0.686317  1
  Dy  Dy5  1  0.694237  0.380621  0.686574  1
  Dy  Dy6  1  0.694237  0.007661  0.313616  1
  Dy  Dy7  1  0.194190  0.214828  0.409194  1
  Dy  Dy8  1  0.805804  0.785222  0.590954  1
  Dy  Dy9  1  0.194190  0.784996  0.979360  1
  Dy  Dy10  1  0.805804  0.214851  0.020584  1
  Y  Y11  1  0.468730  0.285433  0.183296  1
  Co  Co12  1  0.499984  0.611663  0.111208  1
  Co  Co13  1  0.499984  0.388777  0.888321  1
  Co  Co14  1  0.378860  0.999970  0.378891  1
  Co  Co15  1  0.621102  0.999954  0.621148  1
  Sn  Sn16  1  0.999874  0.499928  0.499946  1
  Os  Os17  1  0.999676  0.999769  0.999906  1
