# generated using pymatgen
data_Tb2DyEr2(ReO6)2
_symmetry_space_group_name_H-M   'P 1'
_cell_length_a   6.83275971
_cell_length_b   6.83275943
_cell_length_c   7.53836553
_cell_angle_alpha   73.88186743
_cell_angle_beta   73.88186615
_cell_angle_gamma   49.08492703
_symmetry_Int_Tables_number   1
_chemical_formula_structural   Tb2DyEr2(ReO6)2
_chemical_formula_sum   'Tb2 Dy1 Er2 Re2 O12'
_cell_volume   253.26649801
_cell_formula_units_Z   1
loop_
 _symmetry_equiv_pos_site_id
 _symmetry_equiv_pos_as_xyz
  1  'x, y, z'
loop_
 _atom_site_type_symbol
 _atom_site_label
 _atom_site_symmetry_multiplicity
 _atom_site_fract_x
 _atom_site_fract_y
 _atom_site_fract_z
 _atom_site_occupancy
  Tb  Tb0  1  0.696428  0.696428  0.642312  1
  Tb  Tb1  1  0.303524  0.303524  0.358384  1
  Dy  Dy2  1  0.685523  0.685523  0.174801  1
  Er  Er3  1  0.314475  0.314475  0.824581  1
  Er  Er4  1  0.999921  0.999921  0.500288  1
  Re  Re5  1  0.786178  0.213911  0.999757  1
  Re  Re6  1  0.213911  0.786178  0.999757  1
  O  O7  1  0.000439  0.000439  0.207558  1
  O  O8  1  0.999574  0.999574  0.792367  1
  O  O9  1  0.581795  0.087643  0.082867  1
  O  O10  1  0.416585  0.914812  0.915783  1
  O  O11  1  0.914812  0.416585  0.915783  1
  O  O12  1  0.087643  0.581795  0.082867  1
  O  O13  1  0.499388  0.499388  0.176420  1
  O  O14  1  0.499904  0.499904  0.823050  1
  O  O15  1  0.403688  0.901524  0.425561  1
  O  O16  1  0.595169  0.099518  0.576152  1
  O  O17  1  0.099518  0.595169  0.576152  1
  O  O18  1  0.901524  0.403688  0.425561  1
