# generated using pymatgen
data_Ca6Pr9Nd5Sn16
_symmetry_space_group_name_H-M   'P 1'
_cell_length_a   8.09398312
_cell_length_b   8.54002929
_cell_length_c   16.15262050
_cell_angle_alpha   89.99933271
_cell_angle_beta   90.12060374
_cell_angle_gamma   90.03259386
_symmetry_Int_Tables_number   1
_chemical_formula_structural   Ca6Pr9Nd5Sn16
_chemical_formula_sum   'Ca6 Pr9 Nd5 Sn16'
_cell_volume   1116.51255771
_cell_formula_units_Z   1
loop_
 _symmetry_equiv_pos_site_id
 _symmetry_equiv_pos_as_xyz
  1  'x, y, z'
loop_
 _atom_site_type_symbol
 _atom_site_label
 _atom_site_symmetry_multiplicity
 _atom_site_fract_x
 _atom_site_fract_y
 _atom_site_fract_z
 _atom_site_occupancy
  Ca  Ca0  1  0.169432  0.329573  0.376985  1
  Ca  Ca1  1  0.330264  0.828806  0.622653  1
  Ca  Ca2  1  0.162624  0.497830  0.748458  1
  Ca  Ca3  1  0.661285  0.002448  0.748522  1
  Ca  Ca4  1  0.838903  0.501912  0.250745  1
  Ca  Ca5  1  0.337202  0.999669  0.251282  1
  Pr  Pr6  1  0.834276  0.673902  0.876135  1
  Pr  Pr7  1  0.490428  0.315127  0.904408  1
  Pr  Pr8  1  0.992944  0.184231  0.595240  1
  Pr  Pr9  1  0.506810  0.684851  0.404250  1
  Pr  Pr10  1  0.010187  0.815517  0.097088  1
  Pr  Pr11  1  0.508849  0.683720  0.096378  1
  Pr  Pr12  1  0.010143  0.815011  0.403777  1
  Pr  Pr13  1  0.489228  0.315338  0.594872  1
  Pr  Pr14  1  0.991493  0.182705  0.904394  1
  Nd  Nd15  1  0.333684  0.826735  0.875955  1
  Nd  Nd16  1  0.833507  0.672054  0.624125  1
  Nd  Nd17  1  0.666229  0.172110  0.375678  1
  Nd  Nd18  1  0.167007  0.327480  0.124613  1
  Nd  Nd19  1  0.666493  0.173352  0.124129  1
  Sn  Sn20  1  0.324792  0.036425  0.038049  1
  Sn  Sn21  1  0.826795  0.463708  0.461739  1
  Sn  Sn22  1  0.672785  0.963252  0.537666  1
  Sn  Sn23  1  0.174862  0.535164  0.962232  1
  Sn  Sn24  1  0.674234  0.963884  0.962912  1
  Sn  Sn25  1  0.170606  0.534424  0.538805  1
  Sn  Sn26  1  0.328116  0.034555  0.460793  1
  Sn  Sn27  1  0.825446  0.463116  0.038127  1
  Sn  Sn28  1  0.530624  0.602709  0.750228  1
  Sn  Sn29  1  0.032092  0.895872  0.749479  1
  Sn  Sn30  1  0.469234  0.395153  0.250420  1
  Sn  Sn31  1  0.968864  0.103341  0.249783  1
  Sn  Sn32  1  0.290991  0.142064  0.750350  1
  Sn  Sn33  1  0.789083  0.360582  0.750159  1
  Sn  Sn34  1  0.710302  0.860971  0.249843  1
  Sn  Sn35  1  0.210184  0.642410  0.249726  1
