# generated using pymatgen
data_Dy8GaPdPt23
_symmetry_space_group_name_H-M   'P 1'
_cell_length_a   8.35879900
_cell_length_b   8.34411600
_cell_length_c   8.34411600
_cell_angle_alpha   90.00000000
_cell_angle_beta   90.00000000
_cell_angle_gamma   90.00000000
_symmetry_Int_Tables_number   1
_chemical_formula_structural   Dy8GaPdPt23
_chemical_formula_sum   'Dy8 Ga1 Pd1 Pt23'
_cell_volume   581.97529368
_cell_formula_units_Z   1
loop_
 _symmetry_equiv_pos_site_id
 _symmetry_equiv_pos_as_xyz
  1  'x, y, z'
loop_
 _atom_site_type_symbol
 _atom_site_label
 _atom_site_symmetry_multiplicity
 _atom_site_fract_x
 _atom_site_fract_y
 _atom_site_fract_z
 _atom_site_occupancy
  Dy  Dy0  1  0.251109  0.250893  0.749107  1
  Dy  Dy1  1  0.251109  0.749107  0.250893  1
  Dy  Dy2  1  0.748458  0.251525  0.251525  1
  Dy  Dy3  1  0.748458  0.748475  0.748475  1
  Dy  Dy4  1  0.748458  0.748475  0.251525  1
  Dy  Dy5  1  0.748458  0.251525  0.748475  1
  Dy  Dy6  1  0.251109  0.749107  0.749107  1
  Dy  Dy7  1  0.251109  0.250893  0.250893  1
  Ga  Ga8  1  0.002754  0.000000  0.000000  1
  Pd  Pd9  1  0.707585  0.000000  0.000000  1
  Pt  Pt10  1  0.499758  0.500000  0.746574  1
  Pt  Pt11  1  0.499758  0.253426  0.500000  1
  Pt  Pt12  1  0.253591  0.500000  0.500000  1
  Pt  Pt13  1  0.499758  0.500000  0.253426  1
  Pt  Pt14  1  0.499758  0.746574  0.500000  1
  Pt  Pt15  1  0.746451  0.500000  0.500000  1
  Pt  Pt16  1  0.998921  0.000000  0.705189  1
  Pt  Pt17  1  0.998921  0.294811  0.000000  1
  Pt  Pt18  1  0.298061  0.000000  0.000000  1
  Pt  Pt19  1  0.998921  0.000000  0.294811  1
  Pt  Pt20  1  0.998921  0.705189  0.000000  1
  Pt  Pt21  1  0.000032  0.500000  0.738393  1
  Pt  Pt22  1  0.500261  0.261197  0.000000  1
  Pt  Pt23  1  0.261070  0.000000  0.500000  1
  Pt  Pt24  1  0.000032  0.261607  0.500000  1
  Pt  Pt25  1  0.500261  0.000000  0.738803  1
  Pt  Pt26  1  0.261070  0.500000  0.000000  1
  Pt  Pt27  1  0.000032  0.500000  0.261607  1
  Pt  Pt28  1  0.500261  0.738803  0.000000  1
  Pt  Pt29  1  0.000032  0.738393  0.500000  1
  Pt  Pt30  1  0.500261  0.000000  0.261197  1
  Pt  Pt31  1  0.737630  0.000000  0.500000  1
  Pt  Pt32  1  0.737630  0.500000  0.000000  1
