# generated using pymatgen
data_Mn2Co2TcMo3P4
_symmetry_space_group_name_H-M   'P 1'
_cell_length_a   3.73004700
_cell_length_b   5.84675095
_cell_length_c   6.71405798
_cell_angle_alpha   89.81264826
_cell_angle_beta   90.00000000
_cell_angle_gamma   90.00000000
_symmetry_Int_Tables_number   1
_chemical_formula_structural   Mn2Co2TcMo3P4
_chemical_formula_sum   'Mn2 Co2 Tc1 Mo3 P4'
_cell_volume   146.42379692
_cell_formula_units_Z   1
loop_
 _symmetry_equiv_pos_site_id
 _symmetry_equiv_pos_as_xyz
  1  'x, y, z'
loop_
 _atom_site_type_symbol
 _atom_site_label
 _atom_site_symmetry_multiplicity
 _atom_site_fract_x
 _atom_site_fract_y
 _atom_site_fract_z
 _atom_site_occupancy
  Mn  Mn0  1  0.750000  0.636699  0.442622  1
  Mn  Mn1  1  0.750000  0.135903  0.058604  1
  Co  Co2  1  0.250000  0.859044  0.931311  1
  Co  Co3  1  0.250000  0.359194  0.569943  1
  Tc  Tc4  1  0.250000  0.471685  0.173418  1
  Mo  Mo5  1  0.250000  0.974842  0.323256  1
  Mo  Mo6  1  0.750000  0.032362  0.669262  1
  Mo  Mo7  1  0.750000  0.530307  0.830328  1
  P  P8  1  0.250000  0.733369  0.619640  1
  P  P9  1  0.250000  0.235552  0.887015  1
  P  P10  1  0.750000  0.269606  0.371367  1
  P  P11  1  0.750000  0.761438  0.123234  1
