# generated using pymatgen
data_Tb4Pr2FeCl10
_symmetry_space_group_name_H-M   'P 1'
_cell_length_a   7.23068483
_cell_length_b   9.05564588
_cell_length_c   8.90056435
_cell_angle_alpha   108.18763679
_cell_angle_beta   95.07418331
_cell_angle_gamma   107.36856290
_symmetry_Int_Tables_number   1
_chemical_formula_structural   Tb4Pr2FeCl10
_chemical_formula_sum   'Tb4 Pr2 Fe1 Cl10'
_cell_volume   517.72403810
_cell_formula_units_Z   1
loop_
 _symmetry_equiv_pos_site_id
 _symmetry_equiv_pos_as_xyz
  1  'x, y, z'
loop_
 _atom_site_type_symbol
 _atom_site_label
 _atom_site_symmetry_multiplicity
 _atom_site_fract_x
 _atom_site_fract_y
 _atom_site_fract_z
 _atom_site_occupancy
  Tb  Tb0  1  0.975184  0.308526  0.102346  1
  Tb  Tb1  1  0.024816  0.691474  0.897654  1
  Tb  Tb2  1  0.369698  0.143964  0.187653  1
  Tb  Tb3  1  0.630302  0.856036  0.812347  1
  Pr  Pr4  1  0.128960  0.051165  0.766709  1
  Pr  Pr5  1  0.871040  0.948835  0.233291  1
  Fe  Fe6  1  0.000000  0.000000  0.000000  1
  Cl  Cl7  1  0.553166  0.170491  0.925837  1
  Cl  Cl8  1  0.446834  0.829509  0.074163  1
  Cl  Cl9  1  0.349708  0.449243  0.270028  1
  Cl  Cl10  1  0.650292  0.550757  0.729972  1
  Cl  Cl11  1  0.253070  0.083889  0.446240  1
  Cl  Cl12  1  0.746930  0.916111  0.553760  1
  Cl  Cl13  1  0.787019  0.258421  0.341706  1
  Cl  Cl14  1  0.212981  0.741579  0.658294  1
  Cl  Cl15  1  0.085039  0.375018  0.839593  1
  Cl  Cl16  1  0.914961  0.624982  0.160407  1
