# generated using pymatgen
data_Tb10CeNdOs4
_symmetry_space_group_name_H-M   'P 1'
_cell_length_a   6.43334946
_cell_length_b   7.38740054
_cell_length_c   9.24976100
_cell_angle_alpha   90.00000000
_cell_angle_beta   90.00000000
_cell_angle_gamma   91.45163739
_symmetry_Int_Tables_number   1
_chemical_formula_structural   Tb10CeNdOs4
_chemical_formula_sum   'Tb10 Ce1 Nd1 Os4'
_cell_volume   439.46055302
_cell_formula_units_Z   1
loop_
 _symmetry_equiv_pos_site_id
 _symmetry_equiv_pos_as_xyz
  1  'x, y, z'
loop_
 _atom_site_type_symbol
 _atom_site_label
 _atom_site_symmetry_multiplicity
 _atom_site_fract_x
 _atom_site_fract_y
 _atom_site_fract_z
 _atom_site_occupancy
  Tb  Tb0  1  0.331671  0.671825  0.062530  1
  Tb  Tb1  1  0.166965  0.175856  0.435918  1
  Tb  Tb2  1  0.671869  0.325870  0.566147  1
  Tb  Tb3  1  0.829698  0.824794  0.933122  1
  Tb  Tb4  1  0.671869  0.325870  0.933853  1
  Tb  Tb5  1  0.829698  0.824794  0.566878  1
  Tb  Tb6  1  0.331671  0.671825  0.437470  1
  Tb  Tb7  1  0.166965  0.175856  0.064082  1
  Tb  Tb8  1  0.135751  0.459921  0.750000  1
  Tb  Tb9  1  0.364938  0.961197  0.750000  1
  Ce  Ce10  1  0.855209  0.555795  0.250000  1
  Nd  Nd11  1  0.630910  0.037757  0.250000  1
  Os  Os12  1  0.038310  0.867327  0.250000  1
  Os  Os13  1  0.475405  0.389157  0.250000  1
  Os  Os14  1  0.959202  0.115934  0.750000  1
  Os  Os15  1  0.539874  0.616222  0.750000  1
