# generated using pymatgen
data_Tb7Y7Th2(CdNi)4
_symmetry_space_group_name_H-M   'P 1'
_cell_length_a   9.62264513
_cell_length_b   9.62264612
_cell_length_c   9.63452700
_cell_angle_alpha   59.95914530
_cell_angle_beta   59.95914189
_cell_angle_gamma   59.92817766
_symmetry_Int_Tables_number   1
_chemical_formula_structural   Tb7Y7Th2(CdNi)4
_chemical_formula_sum   'Tb7 Y7 Th2 Cd4 Ni4'
_cell_volume   630.08612394
_cell_formula_units_Z   1
loop_
 _symmetry_equiv_pos_site_id
 _symmetry_equiv_pos_as_xyz
  1  'x, y, z'
loop_
 _atom_site_type_symbol
 _atom_site_label
 _atom_site_symmetry_multiplicity
 _atom_site_fract_x
 _atom_site_fract_y
 _atom_site_fract_z
 _atom_site_occupancy
  Tb  Tb0  1  0.599092  0.199829  0.600539  1
  Tb  Tb1  1  0.199829  0.599092  0.600539  1
  Tb  Tb2  1  0.061582  0.439844  0.437991  1
  Tb  Tb3  1  0.439844  0.061582  0.060584  1
  Tb  Tb4  1  0.439844  0.061582  0.437991  1
  Tb  Tb5  1  0.061582  0.439844  0.060584  1
  Tb  Tb6  1  0.439321  0.439321  0.060679  1
  Y  Y7  1  0.061470  0.061470  0.438530  1
  Y  Y8  1  0.186950  0.814216  0.815617  1
  Y  Y9  1  0.814216  0.186950  0.183216  1
  Y  Y10  1  0.814216  0.186950  0.815617  1
  Y  Y11  1  0.186950  0.814216  0.183216  1
  Y  Y12  1  0.813761  0.813761  0.186239  1
  Y  Y13  1  0.185704  0.185704  0.814296  1
  Th  Th14  1  0.593873  0.593873  0.600285  1
  Th  Th15  1  0.593873  0.593873  0.211970  1
  Cd  Cd16  1  0.832421  0.832421  0.830230  1
  Cd  Cd17  1  0.832421  0.832421  0.504926  1
  Cd  Cd18  1  0.832773  0.505130  0.831048  1
  Cd  Cd19  1  0.505130  0.832773  0.831048  1
  Ni  Ni20  1  0.394184  0.394184  0.390642  1
  Ni  Ni21  1  0.394184  0.394184  0.820991  1
  Ni  Ni22  1  0.398462  0.818316  0.391612  1
  Ni  Ni23  1  0.818316  0.398462  0.391612  1
