# generated using pymatgen
data_TbPr9AlSi4Ge
_symmetry_space_group_name_H-M   'P 1'
_cell_length_a   7.80773800
_cell_length_b   9.14916325
_cell_length_c   7.80773800
_cell_angle_alpha   115.25777559
_cell_angle_beta   90.00000000
_cell_angle_gamma   115.25777559
_symmetry_Int_Tables_number   1
_chemical_formula_structural   TbPr9AlSi4Ge
_chemical_formula_sum   'Tb1 Pr9 Al1 Si4 Ge1'
_cell_volume   444.74961943
_cell_formula_units_Z   1
loop_
 _symmetry_equiv_pos_site_id
 _symmetry_equiv_pos_as_xyz
  1  'x, y, z'
loop_
 _atom_site_type_symbol
 _atom_site_label
 _atom_site_symmetry_multiplicity
 _atom_site_fract_x
 _atom_site_fract_y
 _atom_site_fract_z
 _atom_site_occupancy
  Tb  Tb0  1  0.979686  0.959373  0.979686  1
  Pr  Pr1  1  0.525146  0.050291  0.525146  1
  Pr  Pr2  1  0.527224  0.717386  0.673683  1
  Pr  Pr3  1  0.190164  0.717386  0.043704  1
  Pr  Pr4  1  0.673683  0.717386  0.190164  1
  Pr  Pr5  1  0.043704  0.717386  0.527224  1
  Pr  Pr6  1  0.455414  0.281728  0.307751  1
  Pr  Pr7  1  0.826312  0.281728  0.973975  1
  Pr  Pr8  1  0.307751  0.281728  0.826312  1
  Pr  Pr9  1  0.973975  0.281728  0.455414  1
  Al  Al10  1  0.752894  0.505789  0.752894  1
  Si  Si11  1  0.885424  0.997793  0.616815  1
  Si  Si12  1  0.112369  0.997793  0.380978  1
  Si  Si13  1  0.616815  0.997793  0.112369  1
  Si  Si14  1  0.380978  0.997793  0.885424  1
  Ge  Ge15  1  0.248460  0.496921  0.248460  1
