# generated using pymatgen
data_NdTh(Ni3P2)2
_symmetry_space_group_name_H-M   'P 1'
_cell_length_a   3.88258500
_cell_length_b   10.57833935
_cell_length_c   12.49921235
_cell_angle_alpha   90.02319106
_cell_angle_beta   90.00000000
_cell_angle_gamma   90.00000000
_symmetry_Int_Tables_number   1
_chemical_formula_structural   NdTh(Ni3P2)2
_chemical_formula_sum   'Nd3 Th3 Ni18 P12'
_cell_volume   513.35887915
_cell_formula_units_Z   3
loop_
 _symmetry_equiv_pos_site_id
 _symmetry_equiv_pos_as_xyz
  1  'x, y, z'
loop_
 _atom_site_type_symbol
 _atom_site_label
 _atom_site_symmetry_multiplicity
 _atom_site_fract_x
 _atom_site_fract_y
 _atom_site_fract_z
 _atom_site_occupancy
  Nd  Nd0  1  0.500000  0.188075  0.205008  1
  Nd  Nd1  1  0.000000  0.686945  0.795427  1
  Nd  Nd2  1  0.000000  0.312974  0.794339  1
  Th  Th3  1  0.000000  0.499991  0.519987  1
  Th  Th4  1  0.500000  0.000614  0.480921  1
  Th  Th5  1  0.500000  0.813248  0.205696  1
  Ni  Ni6  1  0.500000  0.499288  0.153877  1
  Ni  Ni7  1  0.000000  0.000898  0.846082  1
  Ni  Ni8  1  0.500000  0.499781  0.697271  1
  Ni  Ni9  1  0.000000  0.997763  0.301477  1
  Ni  Ni10  1  0.000000  0.499053  0.981266  1
  Ni  Ni11  1  0.500000  0.000868  0.017927  1
  Ni  Ni12  1  0.500000  0.333103  0.994781  1
  Ni  Ni13  1  0.500000  0.666570  0.995936  1
  Ni  Ni14  1  0.000000  0.167733  0.004322  1
  Ni  Ni15  1  0.000000  0.833416  0.004543  1
  Ni  Ni16  1  0.500000  0.303515  0.426687  1
  Ni  Ni17  1  0.500000  0.695248  0.426237  1
  Ni  Ni18  1  0.000000  0.195550  0.572952  1
  Ni  Ni19  1  0.000000  0.805186  0.574983  1
  Ni  Ni20  1  0.500000  0.881430  0.713626  1
  Ni  Ni21  1  0.500000  0.118409  0.712757  1
  Ni  Ni22  1  0.000000  0.619427  0.287194  1
  Ni  Ni23  1  0.000000  0.381896  0.287031  1
  P  P24  1  0.500000  0.499867  0.877170  1
  P  P25  1  0.000000  0.001290  0.121173  1
  P  P26  1  0.500000  0.498799  0.335396  1
  P  P27  1  0.000000  0.000434  0.665155  1
  P  P28  1  0.500000  0.307513  0.612425  1
  P  P29  1  0.500000  0.692238  0.613233  1
  P  P30  1  0.000000  0.191844  0.386907  1
  P  P31  1  0.000000  0.807194  0.390109  1
  P  P32  1  0.500000  0.850503  0.897115  1
  P  P33  1  0.500000  0.150014  0.896172  1
  P  P34  1  0.000000  0.648537  0.101864  1
  P  P35  1  0.000000  0.350786  0.102952  1
