# generated using pymatgen
data_Na5Li(BeH3)6
_symmetry_space_group_name_H-M   'P 1'
_cell_length_a   6.36198685
_cell_length_b   6.36198747
_cell_length_c   8.97666865
_cell_angle_alpha   90.28972190
_cell_angle_beta   90.28972718
_cell_angle_gamma   119.09072168
_symmetry_Int_Tables_number   1
_chemical_formula_structural   Na5Li(BeH3)6
_chemical_formula_sum   'Na5 Li1 Be6 H18'
_cell_volume   317.48011481
_cell_formula_units_Z   1
loop_
 _symmetry_equiv_pos_site_id
 _symmetry_equiv_pos_as_xyz
  1  'x, y, z'
loop_
 _atom_site_type_symbol
 _atom_site_label
 _atom_site_symmetry_multiplicity
 _atom_site_fract_x
 _atom_site_fract_y
 _atom_site_fract_z
 _atom_site_occupancy
  Na  Na0  1  0.499284  0.500716  0.500000  1
  Na  Na1  1  0.172058  0.827942  0.500000  1
  Na  Na2  1  0.827230  0.172770  0.500000  1
  Na  Na3  1  0.501118  0.498882  0.000000  1
  Na  Na4  1  0.176094  0.823906  0.000000  1
  Li  Li5  1  0.833088  0.166912  0.000000  1
  Be  Be6  1  0.060344  0.064203  0.756381  1
  Be  Be7  1  0.835328  0.600639  0.752749  1
  Be  Be8  1  0.609472  0.840663  0.756058  1
  Be  Be9  1  0.935797  0.939656  0.243619  1
  Be  Be10  1  0.399361  0.164672  0.247251  1
  Be  Be11  1  0.159337  0.390528  0.243942  1
  H  H12  1  0.172598  0.173065  0.620363  1
  H  H13  1  0.835077  0.497595  0.612766  1
  H  H14  1  0.494420  0.835677  0.619401  1
  H  H15  1  0.615431  0.615314  0.757042  1
  H  H16  1  0.053346  0.831622  0.757381  1
  H  H17  1  0.833106  0.062411  0.753829  1
  H  H18  1  0.835170  0.478914  0.885198  1
  H  H19  1  0.509613  0.851137  0.894258  1
  H  H20  1  0.162608  0.174145  0.894950  1
  H  H21  1  0.825855  0.837392  0.105050  1
  H  H22  1  0.521086  0.164830  0.114802  1
  H  H23  1  0.148863  0.490387  0.105742  1
  H  H24  1  0.384686  0.384569  0.242958  1
  H  H25  1  0.168378  0.946654  0.242619  1
  H  H26  1  0.937589  0.166894  0.246171  1
  H  H27  1  0.502405  0.164923  0.387234  1
  H  H28  1  0.164323  0.505580  0.380599  1
  H  H29  1  0.826935  0.827402  0.379637  1
