# generated using pymatgen
data_Zr2Fe(CoSn)2
_symmetry_space_group_name_H-M   'P 1'
_cell_length_a   7.53983347
_cell_length_b   7.53983403
_cell_length_c   7.53983465
_cell_angle_alpha   33.81134333
_cell_angle_beta   33.81133652
_cell_angle_gamma   33.81134704
_symmetry_Int_Tables_number   1
_chemical_formula_structural   Zr2Fe(CoSn)2
_chemical_formula_sum   'Zr2 Fe1 Co2 Sn2'
_cell_volume   118.27104058
_cell_formula_units_Z   1
loop_
 _symmetry_equiv_pos_site_id
 _symmetry_equiv_pos_as_xyz
  1  'x, y, z'
loop_
 _atom_site_type_symbol
 _atom_site_label
 _atom_site_symmetry_multiplicity
 _atom_site_fract_x
 _atom_site_fract_y
 _atom_site_fract_z
 _atom_site_occupancy
  Zr  Zr0  1  0.503620  0.503620  0.503620  1
  Zr  Zr1  1  0.997432  0.997432  0.997432  1
  Fe  Fe2  1  0.124223  0.124223  0.124223  1
  Co  Co3  1  0.377960  0.377960  0.377960  1
  Co  Co4  1  0.872323  0.872323  0.872323  1
  Sn  Sn5  1  0.251988  0.251988  0.251988  1
  Sn  Sn6  1  0.747452  0.747452  0.747452  1
