# generated using pymatgen
data_ScV5P3
_symmetry_space_group_name_H-M   'P 1'
_cell_length_a   3.31447700
_cell_length_b   7.50763423
_cell_length_c   10.06027956
_cell_angle_alpha   79.23921176
_cell_angle_beta   90.00000000
_cell_angle_gamma   90.00000000
_symmetry_Int_Tables_number   1
_chemical_formula_structural   ScV5P3
_chemical_formula_sum   'Sc2 V10 P6'
_cell_volume   245.93665648
_cell_formula_units_Z   2
loop_
 _symmetry_equiv_pos_site_id
 _symmetry_equiv_pos_as_xyz
  1  'x, y, z'
loop_
 _atom_site_type_symbol
 _atom_site_label
 _atom_site_symmetry_multiplicity
 _atom_site_fract_x
 _atom_site_fract_y
 _atom_site_fract_z
 _atom_site_occupancy
  Sc  Sc0  1  0.250000  0.807061  0.777408  1
  Sc  Sc1  1  0.750000  0.192939  0.222592  1
  V  V2  1  0.250000  0.535563  0.087356  1
  V  V3  1  0.750000  0.464437  0.912644  1
  V  V4  1  0.250000  0.920956  0.089876  1
  V  V5  1  0.750000  0.079044  0.910124  1
  V  V6  1  0.250000  0.625016  0.498527  1
  V  V7  1  0.750000  0.374984  0.501473  1
  V  V8  1  0.250000  0.129303  0.489772  1
  V  V9  1  0.750000  0.870697  0.510228  1
  V  V10  1  0.250000  0.314602  0.731582  1
  V  V11  1  0.750000  0.685398  0.268418  1
  P  P12  1  0.250000  0.248327  0.000491  1
  P  P13  1  0.750000  0.751673  0.999509  1
  P  P14  1  0.250000  0.425843  0.324814  1
  P  P15  1  0.750000  0.574157  0.675186  1
  P  P16  1  0.250000  0.911494  0.330628  1
  P  P17  1  0.750000  0.088506  0.669372  1
