# generated using pymatgen
data_Hf4Zr2Nb4Al12Os7
_symmetry_space_group_name_H-M   'P 1'
_cell_length_a   8.84805234
_cell_length_b   8.84805310
_cell_length_c   8.83182300
_cell_angle_alpha   60.03227834
_cell_angle_beta   60.03227550
_cell_angle_gamma   59.88049407
_symmetry_Int_Tables_number   1
_chemical_formula_structural   Hf4Zr2Nb4Al12Os7
_chemical_formula_sum   'Hf4 Zr2 Nb4 Al12 Os7'
_cell_volume   488.70671964
_cell_formula_units_Z   1
loop_
 _symmetry_equiv_pos_site_id
 _symmetry_equiv_pos_as_xyz
  1  'x, y, z'
loop_
 _atom_site_type_symbol
 _atom_site_label
 _atom_site_symmetry_multiplicity
 _atom_site_fract_x
 _atom_site_fract_y
 _atom_site_fract_z
 _atom_site_occupancy
  Hf  Hf0  1  0.700901  0.700901  0.298265  1
  Hf  Hf1  1  0.300601  0.699991  0.299673  1
  Hf  Hf2  1  0.699991  0.300601  0.299673  1
  Hf  Hf3  1  0.299115  0.299115  0.701230  1
  Zr  Zr4  1  0.698994  0.300405  0.699362  1
  Zr  Zr5  1  0.300405  0.698994  0.699362  1
  Nb  Nb6  1  0.879315  0.879315  0.362094  1
  Nb  Nb7  1  0.879210  0.362574  0.879288  1
  Nb  Nb8  1  0.362574  0.879210  0.879288  1
  Nb  Nb9  1  0.878925  0.878925  0.879149  1
  Al  Al10  1  0.121099  0.121099  0.636687  1
  Al  Al11  1  0.121048  0.637011  0.121037  1
  Al  Al12  1  0.637011  0.121048  0.121037  1
  Al  Al13  1  0.120834  0.120834  0.120953  1
  Al  Al14  1  0.660114  0.660114  0.020206  1
  Al  Al15  1  0.659729  0.020108  0.660122  1
  Al  Al16  1  0.020108  0.659729  0.660122  1
  Al  Al17  1  0.660103  0.660103  0.659844  1
  Al  Al18  1  0.334524  0.334524  0.996704  1
  Al  Al19  1  0.334523  0.996424  0.334757  1
  Al  Al20  1  0.996424  0.334523  0.334757  1
  Al  Al21  1  0.334475  0.334475  0.334885  1
  Os  Os22  1  0.000007  0.000007  0.999516  1
  Os  Os23  1  0.998312  0.998312  0.500238  1
  Os  Os24  1  0.502191  0.999591  0.500851  1
  Os  Os25  1  0.999591  0.502191  0.500851  1
  Os  Os26  1  0.501673  0.501673  0.000867  1
  Os  Os27  1  0.997341  0.500866  0.999592  1
  Os  Os28  1  0.500866  0.997341  0.999592  1
