# generated using pymatgen
data_Tb4Ho3Co2Sn23Ru4
_symmetry_space_group_name_H-M   'P 1'
_cell_length_a   9.79662689
_cell_length_b   9.79545713
_cell_length_c   10.08166005
_cell_angle_alpha   89.98955068
_cell_angle_beta   89.93172424
_cell_angle_gamma   120.00426238
_symmetry_Int_Tables_number   1
_chemical_formula_structural   Tb4Ho3Co2Sn23Ru4
_chemical_formula_sum   'Tb4 Ho3 Co2 Sn23 Ru4'
_cell_volume   837.80860860
_cell_formula_units_Z   1
loop_
 _symmetry_equiv_pos_site_id
 _symmetry_equiv_pos_as_xyz
  1  'x, y, z'
loop_
 _atom_site_type_symbol
 _atom_site_label
 _atom_site_symmetry_multiplicity
 _atom_site_fract_x
 _atom_site_fract_y
 _atom_site_fract_z
 _atom_site_occupancy
  Tb  Tb0  1  0.000001  0.999988  0.000025  1
  Tb  Tb1  1  0.517732  0.037341  0.694224  1
  Tb  Tb2  1  0.037631  0.518802  0.304487  1
  Tb  Tb3  1  0.962363  0.481170  0.695507  1
  Ho  Ho4  1  0.482570  0.519482  0.305729  1
  Ho  Ho5  1  0.517400  0.480490  0.694281  1
  Ho  Ho6  1  0.482596  0.963112  0.305651  1
  Co  Co7  1  0.339370  0.169681  0.198670  1
  Co  Co8  1  0.660738  0.830168  0.801395  1
  Sn  Sn9  1  0.349071  0.002177  0.003596  1
  Sn  Sn10  1  0.650934  0.997808  0.996525  1
  Sn  Sn11  1  0.000016  0.349414  0.000002  1
  Sn  Sn12  1  0.999963  0.650563  0.000030  1
  Sn  Sn13  1  0.650897  0.653040  0.996469  1
  Sn  Sn14  1  0.349111  0.346952  0.003548  1
  Sn  Sn15  1  0.336077  0.667915  0.816434  1
  Sn  Sn16  1  0.663858  0.331932  0.183602  1
  Sn  Sn17  1  0.999987  0.999973  0.499995  1
  Sn  Sn18  1  0.780548  0.218668  0.458597  1
  Sn  Sn19  1  0.219289  0.781170  0.541089  1
  Sn  Sn20  1  0.780378  0.561834  0.458776  1
  Sn  Sn21  1  0.219611  0.438146  0.541222  1
  Sn  Sn22  1  0.434920  0.217569  0.452765  1
  Sn  Sn23  1  0.565102  0.782232  0.546880  1
  Sn  Sn24  1  0.333729  0.666860  0.120526  1
  Sn  Sn25  1  0.666474  0.333582  0.879760  1
  Sn  Sn26  1  0.122348  0.888006  0.272032  1
  Sn  Sn27  1  0.877915  0.112042  0.728016  1
  Sn  Sn28  1  0.122362  0.234352  0.272017  1
  Sn  Sn29  1  0.877621  0.765656  0.727972  1
  Sn  Sn30  1  0.761522  0.880746  0.273481  1
  Sn  Sn31  1  0.238231  0.119279  0.726571  1
  Ru  Ru32  1  0.830572  0.167975  0.199987  1
  Ru  Ru33  1  0.169037  0.831811  0.800098  1
  Ru  Ru34  1  0.830562  0.662593  0.200026  1
  Ru  Ru35  1  0.169464  0.337468  0.800017  1
