# generated using pymatgen
data_Tb2Sc2ReB12Rh
_symmetry_space_group_name_H-M   'P 1'
_cell_length_a   3.59085700
_cell_length_b   8.99543652
_cell_length_c   11.39407281
_cell_angle_alpha   90.15775904
_cell_angle_beta   90.00000000
_cell_angle_gamma   90.00000000
_symmetry_Int_Tables_number   1
_chemical_formula_structural   Tb2Sc2ReB12Rh
_chemical_formula_sum   'Tb4 Sc4 Re2 B24 Rh2'
_cell_volume   368.04226721
_cell_formula_units_Z   2
loop_
 _symmetry_equiv_pos_site_id
 _symmetry_equiv_pos_as_xyz
  1  'x, y, z'
loop_
 _atom_site_type_symbol
 _atom_site_label
 _atom_site_symmetry_multiplicity
 _atom_site_fract_x
 _atom_site_fract_y
 _atom_site_fract_z
 _atom_site_occupancy
  Tb  Tb0  1  0.000000  0.317824  0.412198  1
  Tb  Tb1  1  0.000000  0.682176  0.587802  1
  Tb  Tb2  1  0.000000  0.823389  0.083434  1
  Tb  Tb3  1  0.000000  0.176611  0.916566  1
  Sc  Sc4  1  0.000000  0.948620  0.372821  1
  Sc  Sc5  1  0.000000  0.051380  0.627179  1
  Sc  Sc6  1  0.000000  0.441445  0.125398  1
  Sc  Sc7  1  0.000000  0.558555  0.874602  1
  Re  Re8  1  0.000000  0.141269  0.182180  1
  Re  Re9  1  0.000000  0.858731  0.817820  1
  B  B10  1  0.500000  0.555761  0.433316  1
  B  B11  1  0.500000  0.444239  0.566684  1
  B  B12  1  0.500000  0.054673  0.067841  1
  B  B13  1  0.500000  0.945327  0.932159  1
  B  B14  1  0.500000  0.754293  0.419190  1
  B  B15  1  0.500000  0.245707  0.580810  1
  B  B16  1  0.500000  0.253588  0.081954  1
  B  B17  1  0.500000  0.746412  0.918046  1
  B  B18  1  0.500000  0.793712  0.264898  1
  B  B19  1  0.500000  0.206288  0.735102  1
  B  B20  1  0.500000  0.295529  0.235445  1
  B  B21  1  0.500000  0.704471  0.764555  1
  B  B22  1  0.500000  0.628982  0.181600  1
  B  B23  1  0.500000  0.371018  0.818400  1
  B  B24  1  0.500000  0.129562  0.317519  1
  B  B25  1  0.500000  0.870438  0.682481  1
  B  B26  1  0.500000  0.981856  0.215070  1
  B  B27  1  0.500000  0.018144  0.784930  1
  B  B28  1  0.500000  0.482799  0.285888  1
  B  B29  1  0.500000  0.517201  0.714112  1
  B  B30  1  0.500000  0.598172  0.026866  1
  B  B31  1  0.500000  0.401828  0.973134  1
  B  B32  1  0.500000  0.099160  0.474031  1
  B  B33  1  0.500000  0.900840  0.525969  1
  Rh  Rh34  1  0.000000  0.640017  0.318712  1
  Rh  Rh35  1  0.000000  0.359983  0.681288  1
