# generated using pymatgen
data_Hf4Bi2Os
_symmetry_space_group_name_H-M   'P 1'
_cell_length_a   8.29186333
_cell_length_b   8.29186280
_cell_length_c   8.29186314
_cell_angle_alpha   96.27077993
_cell_angle_beta   96.27078004
_cell_angle_gamma   141.40227712
_symmetry_Int_Tables_number   1
_chemical_formula_structural   Hf4Bi2Os
_chemical_formula_sum   'Hf8 Bi4 Os2'
_cell_volume   335.67496280
_cell_formula_units_Z   2
loop_
 _symmetry_equiv_pos_site_id
 _symmetry_equiv_pos_as_xyz
  1  'x, y, z'
loop_
 _atom_site_type_symbol
 _atom_site_label
 _atom_site_symmetry_multiplicity
 _atom_site_fract_x
 _atom_site_fract_y
 _atom_site_fract_z
 _atom_site_occupancy
  Hf  Hf0  1  0.084226  0.199101  0.283326  1
  Hf  Hf1  1  0.915774  0.800899  0.716674  1
  Hf  Hf2  1  0.800899  0.084226  0.885125  1
  Hf  Hf3  1  0.415774  0.699101  0.114875  1
  Hf  Hf4  1  0.199101  0.915774  0.114875  1
  Hf  Hf5  1  0.584226  0.300899  0.885125  1
  Hf  Hf6  1  0.699101  0.584226  0.283326  1
  Hf  Hf7  1  0.300899  0.415774  0.716674  1
  Bi  Bi8  1  0.137979  0.637979  0.775957  1
  Bi  Bi9  1  0.862021  0.362021  0.224043  1
  Bi  Bi10  1  0.362021  0.137979  0.500000  1
  Bi  Bi11  1  0.637979  0.862021  0.500000  1
  Os  Os12  1  0.250000  0.250000  0.000000  1
  Os  Os13  1  0.750000  0.750000  0.000000  1
