# generated using pymatgen
data_Sc5Tc23Os
_symmetry_space_group_name_H-M   'P 1'
_cell_length_a   8.39531648
_cell_length_b   8.40353243
_cell_length_c   8.39531677
_cell_angle_alpha   109.55042103
_cell_angle_beta   109.39289731
_cell_angle_gamma   109.55042866
_symmetry_Int_Tables_number   1
_chemical_formula_structural   Sc5Tc23Os
_chemical_formula_sum   'Sc5 Tc23 Os1'
_cell_volume   455.49472095
_cell_formula_units_Z   1
loop_
 _symmetry_equiv_pos_site_id
 _symmetry_equiv_pos_as_xyz
  1  'x, y, z'
loop_
 _atom_site_type_symbol
 _atom_site_label
 _atom_site_symmetry_multiplicity
 _atom_site_fract_x
 _atom_site_fract_y
 _atom_site_fract_z
 _atom_site_occupancy
  Sc  Sc0  1  0.000027  0.000130  0.000027  1
  Sc  Sc1  1  0.624881  0.999400  0.999183  1
  Sc  Sc2  1  0.999354  0.625997  0.999354  1
  Sc  Sc3  1  0.999183  0.999400  0.624881  1
  Sc  Sc4  1  0.374159  0.374058  0.374159  1
  Tc  Tc5  1  0.393401  0.672498  0.999317  1
  Tc  Tc6  1  0.720937  0.327171  0.327532  1
  Tc  Tc7  1  0.394169  0.999000  0.672464  1
  Tc  Tc8  1  0.673679  0.393263  0.000523  1
  Tc  Tc9  1  0.000523  0.393263  0.673679  1
  Tc  Tc10  1  0.326528  0.719859  0.326528  1
  Tc  Tc11  1  0.327532  0.327171  0.720937  1
  Tc  Tc12  1  0.999317  0.672498  0.393401  1
  Tc  Tc13  1  0.672464  0.999000  0.394169  1
  Tc  Tc14  1  0.605971  0.608624  0.282022  1
  Tc  Tc15  1  0.282022  0.608624  0.605971  1
  Tc  Tc16  1  0.608013  0.282183  0.608013  1
  Tc  Tc17  1  0.374448  0.192546  0.999888  1
  Tc  Tc18  1  0.180941  0.806373  0.806494  1
  Tc  Tc19  1  0.374582  0.999928  0.192264  1
  Tc  Tc20  1  0.191748  0.373993  0.999233  1
  Tc  Tc21  1  0.999233  0.373993  0.191748  1
  Tc  Tc22  1  0.807587  0.182615  0.807587  1
  Tc  Tc23  1  0.806494  0.806373  0.180941  1
  Tc  Tc24  1  0.999888  0.192546  0.374448  1
  Tc  Tc25  1  0.192264  0.999928  0.374582  1
  Tc  Tc26  1  0.625333  0.625775  0.818113  1
  Tc  Tc27  1  0.818113  0.625775  0.625333  1
  Os  Os28  1  0.627210  0.818015  0.627210  1
