# generated using pymatgen
data_Zr2Np2H15
_symmetry_space_group_name_H-M   'P 1'
_cell_length_a   7.25145698
_cell_length_b   7.25145709
_cell_length_c   7.25145739
_cell_angle_alpha   109.42468924
_cell_angle_beta   109.42468849
_cell_angle_gamma   109.42468748
_symmetry_Int_Tables_number   1
_chemical_formula_structural   Zr2Np2H15
_chemical_formula_sum   'Zr4 Np4 H30'
_cell_volume   294.03560485
_cell_formula_units_Z   2
loop_
 _symmetry_equiv_pos_site_id
 _symmetry_equiv_pos_as_xyz
  1  'x, y, z'
loop_
 _atom_site_type_symbol
 _atom_site_label
 _atom_site_symmetry_multiplicity
 _atom_site_fract_x
 _atom_site_fract_y
 _atom_site_fract_z
 _atom_site_occupancy
  Zr  Zr0  1  0.907290  0.907290  0.907290  1
  Zr  Zr1  1  0.498277  0.993873  0.088618  1
  Zr  Zr2  1  0.993873  0.088618  0.498277  1
  Zr  Zr3  1  0.088618  0.498277  0.993873  1
  Np  Np4  1  0.001246  0.591172  0.503599  1
  Np  Np5  1  0.591172  0.503599  0.001246  1
  Np  Np6  1  0.503599  0.001246  0.591172  1
  Np  Np7  1  0.408921  0.408921  0.408921  1
  H  H8  1  0.657341  0.960821  0.369018  1
  H  H9  1  0.208548  0.308273  0.836691  1
  H  H10  1  0.178293  0.393437  0.535654  1
  H  H11  1  0.082548  0.275508  0.110738  1
  H  H12  1  0.275508  0.110738  0.082548  1
  H  H13  1  0.110738  0.082548  0.275508  1
  H  H14  1  0.473604  0.148199  0.888452  1
  H  H15  1  0.738177  0.354871  0.818675  1
  H  H16  1  0.627028  0.373165  0.247314  1
  H  H17  1  0.247314  0.627028  0.373165  1
  H  H18  1  0.752314  0.874478  0.124644  1
  H  H19  1  0.124644  0.752314  0.874478  1
  H  H20  1  0.373165  0.247314  0.627028  1
  H  H21  1  0.874478  0.124644  0.752314  1
  H  H22  1  0.783456  0.602992  0.640356  1
  H  H23  1  0.308273  0.836691  0.208548  1
  H  H24  1  0.369018  0.657341  0.960821  1
  H  H25  1  0.960821  0.369018  0.657341  1
  H  H26  1  0.535654  0.178293  0.393437  1
  H  H27  1  0.393437  0.535654  0.178293  1
  H  H28  1  0.836691  0.208548  0.308273  1
  H  H29  1  0.920276  0.692519  0.029614  1
  H  H30  1  0.818675  0.738177  0.354871  1
  H  H31  1  0.148199  0.888452  0.473604  1
  H  H32  1  0.692519  0.029614  0.920276  1
  H  H33  1  0.354871  0.818675  0.738177  1
  H  H34  1  0.888452  0.473604  0.148199  1
  H  H35  1  0.640356  0.783456  0.602992  1
  H  H36  1  0.602992  0.640356  0.783456  1
  H  H37  1  0.029614  0.920276  0.692519  1
