# generated using pymatgen
data_Er3Tm5Ti11Si16Os
_symmetry_space_group_name_H-M   'P 1'
_cell_length_a   6.98104965
_cell_length_b   6.98162510
_cell_length_c   12.81085508
_cell_angle_alpha   90.02229867
_cell_angle_beta   89.98226872
_cell_angle_gamma   89.91365915
_symmetry_Int_Tables_number   1
_chemical_formula_structural   Er3Tm5Ti11Si16Os
_chemical_formula_sum   'Er3 Tm5 Ti11 Si16 Os1'
_cell_volume   624.38839531
_cell_formula_units_Z   1
loop_
 _symmetry_equiv_pos_site_id
 _symmetry_equiv_pos_as_xyz
  1  'x, y, z'
loop_
 _atom_site_type_symbol
 _atom_site_label
 _atom_site_symmetry_multiplicity
 _atom_site_fract_x
 _atom_site_fract_y
 _atom_site_fract_z
 _atom_site_occupancy
  Er  Er0  1  0.658110  0.998542  0.968601  1
  Er  Er1  1  0.003989  0.340766  0.532576  1
  Er  Er2  1  0.998630  0.658201  0.031412  1
  Tm  Tm3  1  0.341216  0.003535  0.467359  1
  Tm  Tm4  1  0.497197  0.840886  0.718166  1
  Tm  Tm5  1  0.499572  0.159031  0.215076  1
  Tm  Tm6  1  0.840834  0.497260  0.281784  1
  Tm  Tm7  1  0.159064  0.499610  0.784962  1
  Ti  Ti8  1  0.174275  0.827764  0.248306  1
  Ti  Ti9  1  0.827709  0.174252  0.751729  1
  Ti  Ti10  1  0.673787  0.674024  0.499988  1
  Ti  Ti11  1  0.151068  0.002993  0.875082  1
  Ti  Ti12  1  0.492398  0.655339  0.124731  1
  Ti  Ti13  1  0.506407  0.349654  0.628027  1
  Ti  Ti14  1  0.655290  0.492422  0.875291  1
  Ti  Ti15  1  0.349695  0.506492  0.371952  1
  Ti  Ti16  1  0.848832  0.994347  0.375023  1
  Ti  Ti17  1  0.003039  0.150993  0.124914  1
  Ti  Ti18  1  0.994395  0.848814  0.624944  1
  Si  Si19  1  0.203343  0.132217  0.684532  1
  Si  Si20  1  0.371642  0.699700  0.932757  1
  Si  Si21  1  0.631703  0.296814  0.433744  1
  Si  Si22  1  0.699656  0.371664  0.067269  1
  Si  Si23  1  0.297047  0.632241  0.566205  1
  Si  Si24  1  0.796152  0.867687  0.183560  1
  Si  Si25  1  0.132459  0.203076  0.315537  1
  Si  Si26  1  0.867697  0.796165  0.816430  1
  Si  Si27  1  0.288022  0.955465  0.064613  1
  Si  Si28  1  0.546702  0.793012  0.315342  1
  Si  Si29  1  0.450389  0.208443  0.818139  1
  Si  Si30  1  0.792820  0.546955  0.684779  1
  Si  Si31  1  0.208474  0.450447  0.181866  1
  Si  Si32  1  0.707388  0.047708  0.565838  1
  Si  Si33  1  0.955503  0.288026  0.935393  1
  Si  Si34  1  0.047955  0.707907  0.434082  1
  Os  Os35  1  0.327548  0.327550  0.999992  1
