# generated using pymatgen
data_Dy4Lu8GaNi4Hg
_symmetry_space_group_name_H-M   'P 1'
_cell_length_a   8.20736780
_cell_length_b   8.20740599
_cell_length_c   8.20736648
_cell_angle_alpha   112.55530573
_cell_angle_beta   109.66131417
_cell_angle_gamma   106.25794997
_symmetry_Int_Tables_number   1
_chemical_formula_structural   Dy4Lu8GaNi4Hg
_chemical_formula_sum   'Dy4 Lu8 Ga1 Ni4 Hg1'
_cell_volume   424.30690711
_cell_formula_units_Z   1
loop_
 _symmetry_equiv_pos_site_id
 _symmetry_equiv_pos_as_xyz
  1  'x, y, z'
loop_
 _atom_site_type_symbol
 _atom_site_label
 _atom_site_symmetry_multiplicity
 _atom_site_fract_x
 _atom_site_fract_y
 _atom_site_fract_z
 _atom_site_occupancy
  Dy  Dy0  1  0.181324  0.215057  0.396451  1
  Dy  Dy1  1  0.818606  0.215057  0.033732  1
  Dy  Dy2  1  0.181394  0.784943  0.966268  1
  Dy  Dy3  1  0.818676  0.784943  0.603549  1
  Lu  Lu4  1  0.039154  0.735009  0.303952  1
  Lu  Lu5  1  0.960846  0.264991  0.696048  1
  Lu  Lu6  1  0.568943  0.264991  0.304144  1
  Lu  Lu7  1  0.431057  0.735009  0.695856  1
  Lu  Lu8  1  0.674532  0.866871  0.192338  1
  Lu  Lu9  1  0.325529  0.517671  0.192142  1
  Lu  Lu10  1  0.325469  0.133129  0.807662  1
  Lu  Lu11  1  0.674472  0.482329  0.807858  1
  Ga  Ga12  1  0.000000  0.500000  0.500000  1
  Ni  Ni13  1  0.648663  0.500000  0.148663  1
  Ni  Ni14  1  0.351337  0.500000  0.851337  1
  Ni  Ni15  1  0.876047  0.876120  0.000072  1
  Ni  Ni16  1  0.123953  0.123880  0.999928  1
  Hg  Hg17  1  0.500000  0.000000  0.500000  1
