# generated using pymatgen
data_Y4Zr3ScIr4
_symmetry_space_group_name_H-M   'P 1'
_cell_length_a   4.54082900
_cell_length_b   7.12285130
_cell_length_c   8.36461267
_cell_angle_alpha   90.76126577
_cell_angle_beta   90.00000000
_cell_angle_gamma   90.00000000
_symmetry_Int_Tables_number   1
_chemical_formula_structural   Y4Zr3ScIr4
_chemical_formula_sum   'Y4 Zr3 Sc1 Ir4'
_cell_volume   270.51822297
_cell_formula_units_Z   1
loop_
 _symmetry_equiv_pos_site_id
 _symmetry_equiv_pos_as_xyz
  1  'x, y, z'
loop_
 _atom_site_type_symbol
 _atom_site_label
 _atom_site_symmetry_multiplicity
 _atom_site_fract_x
 _atom_site_fract_y
 _atom_site_fract_z
 _atom_site_occupancy
  Y  Y0  1  0.250000  0.019533  0.325843  1
  Y  Y1  1  0.250000  0.513706  0.176629  1
  Y  Y2  1  0.750000  0.986943  0.676268  1
  Y  Y3  1  0.750000  0.480466  0.821154  1
  Zr  Zr4  1  0.250000  0.138938  0.926908  1
  Zr  Zr5  1  0.250000  0.645191  0.570512  1
  Zr  Zr6  1  0.750000  0.852965  0.074507  1
  Sc  Sc7  1  0.750000  0.359969  0.426433  1
  Ir  Ir8  1  0.250000  0.270192  0.600986  1
  Ir  Ir9  1  0.250000  0.765009  0.906454  1
  Ir  Ir10  1  0.750000  0.738082  0.404104  1
  Ir  Ir11  1  0.750000  0.229007  0.090201  1
