# generated using pymatgen
data_TbHoPa(InPd)3
_symmetry_space_group_name_H-M   'P 1'
_cell_length_a   7.70430283
_cell_length_b   7.69231055
_cell_length_c   3.88177300
_cell_angle_alpha   90.00000000
_cell_angle_beta   90.00000000
_cell_angle_gamma   120.01374583
_symmetry_Int_Tables_number   1
_chemical_formula_structural   TbHoPa(InPd)3
_chemical_formula_sum   'Tb1 Ho1 Pa1 In3 Pd3'
_cell_volume   199.20064906
_cell_formula_units_Z   1
loop_
 _symmetry_equiv_pos_site_id
 _symmetry_equiv_pos_as_xyz
  1  'x, y, z'
loop_
 _atom_site_type_symbol
 _atom_site_label
 _atom_site_symmetry_multiplicity
 _atom_site_fract_x
 _atom_site_fract_y
 _atom_site_fract_z
 _atom_site_occupancy
  Tb  Tb0  1  0.407133  0.408828  0.000000  1
  Ho  Ho1  1  0.593172  0.001733  0.000000  1
  Pa  Pa2  1  0.000041  0.589530  0.000000  1
  In  In3  1  0.733116  0.743204  0.500000  1
  In  In4  1  0.999185  0.248114  0.500000  1
  In  In5  1  0.267200  0.009430  0.500000  1
  Pd  Pd6  1  0.317669  0.665893  0.500000  1
  Pd  Pd7  1  0.999357  0.986528  0.000000  1
  Pd  Pd8  1  0.683126  0.346741  0.500000  1
