# generated using pymatgen
data_DyY2Co8P6Ru
_symmetry_space_group_name_H-M   'P 1'
_cell_length_a   3.70915600
_cell_length_b   10.51947000
_cell_length_c   12.27464000
_cell_angle_alpha   90.00000000
_cell_angle_beta   90.00000000
_cell_angle_gamma   90.00000000
_symmetry_Int_Tables_number   1
_chemical_formula_structural   DyY2Co8P6Ru
_chemical_formula_sum   'Dy2 Y4 Co16 P12 Ru2'
_cell_volume   478.93626430
_cell_formula_units_Z   2
loop_
 _symmetry_equiv_pos_site_id
 _symmetry_equiv_pos_as_xyz
  1  'x, y, z'
loop_
 _atom_site_type_symbol
 _atom_site_label
 _atom_site_symmetry_multiplicity
 _atom_site_fract_x
 _atom_site_fract_y
 _atom_site_fract_z
 _atom_site_occupancy
  Dy  Dy0  1  0.000000  0.683078  0.793298  1
  Dy  Dy1  1  0.000000  0.316922  0.793298  1
  Y  Y2  1  0.000000  0.500000  0.524301  1
  Y  Y3  1  0.500000  0.000000  0.475852  1
  Y  Y4  1  0.500000  0.816812  0.206630  1
  Y  Y5  1  0.500000  0.183188  0.206630  1
  Co  Co6  1  0.500000  0.500000  0.704482  1
  Co  Co7  1  0.000000  0.000000  0.295672  1
  Co  Co8  1  0.000000  0.500000  0.986087  1
  Co  Co9  1  0.500000  0.000000  0.013509  1
  Co  Co10  1  0.500000  0.332601  0.990575  1
  Co  Co11  1  0.500000  0.667399  0.990575  1
  Co  Co12  1  0.000000  0.167518  0.009166  1
  Co  Co13  1  0.000000  0.832482  0.009166  1
  Co  Co14  1  0.500000  0.297208  0.431154  1
  Co  Co15  1  0.500000  0.702792  0.431154  1
  Co  Co16  1  0.000000  0.202822  0.569109  1
  Co  Co17  1  0.000000  0.797178  0.569109  1
  Co  Co18  1  0.500000  0.879320  0.707917  1
  Co  Co19  1  0.500000  0.120680  0.707917  1
  Co  Co20  1  0.000000  0.620632  0.292224  1
  Co  Co21  1  0.000000  0.379368  0.292224  1
  P  P22  1  0.500000  0.500000  0.882051  1
  P  P23  1  0.000000  0.000000  0.117781  1
  P  P24  1  0.500000  0.500000  0.349851  1
  P  P25  1  0.000000  0.000000  0.650105  1
  P  P26  1  0.500000  0.311048  0.616271  1
  P  P27  1  0.500000  0.688952  0.616271  1
  P  P28  1  0.000000  0.188992  0.384007  1
  P  P29  1  0.000000  0.811008  0.384007  1
  P  P30  1  0.500000  0.846566  0.893530  1
  P  P31  1  0.500000  0.153434  0.893530  1
  P  P32  1  0.000000  0.653245  0.106339  1
  P  P33  1  0.000000  0.346755  0.106339  1
  Ru  Ru34  1  0.500000  0.500000  0.159196  1
  Ru  Ru35  1  0.000000  0.000000  0.840679  1
