# generated using pymatgen
data_Tb3Re(Ni4P3)2
_symmetry_space_group_name_H-M   'P 1'
_cell_length_a   3.77156800
_cell_length_b   10.55017700
_cell_length_c   12.34683000
_cell_angle_alpha   90.00000000
_cell_angle_beta   90.00000000
_cell_angle_gamma   90.00000000
_symmetry_Int_Tables_number   1
_chemical_formula_structural   Tb3Re(Ni4P3)2
_chemical_formula_sum   'Tb6 Re2 Ni16 P12'
_cell_volume   491.28913155
_cell_formula_units_Z   2
loop_
 _symmetry_equiv_pos_site_id
 _symmetry_equiv_pos_as_xyz
  1  'x, y, z'
loop_
 _atom_site_type_symbol
 _atom_site_label
 _atom_site_symmetry_multiplicity
 _atom_site_fract_x
 _atom_site_fract_y
 _atom_site_fract_z
 _atom_site_occupancy
  Tb  Tb0  1  0.751978  0.000000  0.476883  1
  Tb  Tb1  1  0.251978  0.500000  0.523117  1
  Tb  Tb2  1  0.251834  0.684171  0.792103  1
  Tb  Tb3  1  0.251834  0.315829  0.792103  1
  Tb  Tb4  1  0.751834  0.815829  0.207897  1
  Tb  Tb5  1  0.751834  0.184171  0.207897  1
  Re  Re6  1  0.251763  0.000000  0.846215  1
  Re  Re7  1  0.751763  0.500000  0.153785  1
  Ni  Ni8  1  0.751739  0.000000  0.016621  1
  Ni  Ni9  1  0.251739  0.500000  0.983379  1
  Ni  Ni10  1  0.251200  0.197625  0.572103  1
  Ni  Ni11  1  0.251200  0.802375  0.572103  1
  Ni  Ni12  1  0.751200  0.302375  0.427897  1
  Ni  Ni13  1  0.751200  0.697625  0.427897  1
  Ni  Ni14  1  0.252822  0.619602  0.289035  1
  Ni  Ni15  1  0.252822  0.380398  0.289035  1
  Ni  Ni16  1  0.752822  0.880398  0.710965  1
  Ni  Ni17  1  0.752822  0.119602  0.710965  1
  Ni  Ni18  1  0.251538  0.168219  0.012939  1
  Ni  Ni19  1  0.251538  0.831781  0.012939  1
  Ni  Ni20  1  0.751538  0.331781  0.987061  1
  Ni  Ni21  1  0.751538  0.668219  0.987061  1
  Ni  Ni22  1  0.251509  0.000000  0.299617  1
  Ni  Ni23  1  0.751509  0.500000  0.700383  1
  P  P24  1  0.251998  0.186702  0.386365  1
  P  P25  1  0.251998  0.813298  0.386365  1
  P  P26  1  0.751998  0.313298  0.613635  1
  P  P27  1  0.751998  0.686702  0.613635  1
  P  P28  1  0.251709  0.000000  0.123153  1
  P  P29  1  0.751709  0.500000  0.876847  1
  P  P30  1  0.251690  0.651544  0.107244  1
  P  P31  1  0.251690  0.348456  0.107244  1
  P  P32  1  0.751690  0.848456  0.892756  1
  P  P33  1  0.751690  0.151544  0.892756  1
  P  P34  1  0.251937  0.000000  0.652694  1
  P  P35  1  0.751937  0.500000  0.347306  1
