# generated using pymatgen
data_Tb2SmEuSe3O4
_symmetry_space_group_name_H-M   'P 1'
_cell_length_a   6.79751272
_cell_length_b   6.79751269
_cell_length_c   8.37703091
_cell_angle_alpha   90.77144096
_cell_angle_beta   89.22855796
_cell_angle_gamma   146.58234324
_symmetry_Int_Tables_number   1
_chemical_formula_structural   Tb2SmEuSe3O4
_chemical_formula_sum   'Tb2 Sm1 Eu1 Se3 O4'
_cell_volume   213.15341420
_cell_formula_units_Z   1
loop_
 _symmetry_equiv_pos_site_id
 _symmetry_equiv_pos_as_xyz
  1  'x, y, z'
loop_
 _atom_site_type_symbol
 _atom_site_label
 _atom_site_symmetry_multiplicity
 _atom_site_fract_x
 _atom_site_fract_y
 _atom_site_fract_z
 _atom_site_occupancy
  Tb  Tb0  1  0.980298  0.019702  0.497246  1
  Tb  Tb1  1  0.993191  0.006809  0.999613  1
  Sm  Sm2  1  0.321352  0.678648  0.763241  1
  Eu  Eu3  1  0.318608  0.681392  0.242827  1
  Se  Se4  1  0.677433  0.322567  0.996810  1
  Se  Se5  1  0.646190  0.353810  0.650948  1
  Se  Se6  1  0.643761  0.356239  0.349057  1
  O  O7  1  0.390970  0.609030  0.504678  1
  O  O8  1  0.915224  0.084776  0.754282  1
  O  O9  1  0.411488  0.588512  0.996134  1
  O  O10  1  0.918914  0.081086  0.245162  1
