# generated using pymatgen
data_Sc4Mn3TcOs4
_symmetry_space_group_name_H-M   'P 1'
_cell_length_a   5.13320232
_cell_length_b   5.06611089
_cell_length_c   8.54917400
_cell_angle_alpha   90.00000000
_cell_angle_beta   90.00000000
_cell_angle_gamma   119.90045589
_symmetry_Int_Tables_number   1
_chemical_formula_structural   Sc4Mn3TcOs4
_chemical_formula_sum   'Sc4 Mn3 Tc1 Os4'
_cell_volume   192.73146274
_cell_formula_units_Z   1
loop_
 _symmetry_equiv_pos_site_id
 _symmetry_equiv_pos_as_xyz
  1  'x, y, z'
loop_
 _atom_site_type_symbol
 _atom_site_label
 _atom_site_symmetry_multiplicity
 _atom_site_fract_x
 _atom_site_fract_y
 _atom_site_fract_z
 _atom_site_occupancy
  Sc  Sc0  1  0.331803  0.667255  0.435678  1
  Sc  Sc1  1  0.666047  0.335162  0.561873  1
  Sc  Sc2  1  0.666047  0.335162  0.938127  1
  Sc  Sc3  1  0.331803  0.667255  0.064322  1
  Mn  Mn4  1  0.170927  0.827973  0.750000  1
  Mn  Mn5  1  0.342600  0.164373  0.250000  1
  Mn  Mn6  1  0.836046  0.657627  0.250000  1
  Tc  Tc7  1  0.173428  0.342064  0.750000  1
  Os  Os8  1  0.657059  0.826615  0.750000  1
  Os  Os9  1  0.999967  0.000947  0.004555  1
  Os  Os10  1  0.824306  0.174618  0.250000  1
  Os  Os11  1  0.999967  0.000947  0.495445  1
