# generated using pymatgen
data_SmYFe2(Co3B)2
_symmetry_space_group_name_H-M   'P 1'
_cell_length_a   5.08749001
_cell_length_b   5.08643073
_cell_length_c   6.80250100
_cell_angle_alpha   90.00000000
_cell_angle_beta   90.00000000
_cell_angle_gamma   120.01077237
_symmetry_Int_Tables_number   1
_chemical_formula_structural   SmYFe2(Co3B)2
_chemical_formula_sum   'Sm1 Y1 Fe2 Co6 B2'
_cell_volume   152.42941988
_cell_formula_units_Z   1
loop_
 _symmetry_equiv_pos_site_id
 _symmetry_equiv_pos_as_xyz
  1  'x, y, z'
loop_
 _atom_site_type_symbol
 _atom_site_label
 _atom_site_symmetry_multiplicity
 _atom_site_fract_x
 _atom_site_fract_y
 _atom_site_fract_z
 _atom_site_occupancy
  Sm  Sm0  1  0.999973  0.000000  0.000000  1
  Y  Y1  1  0.999992  0.000000  0.500000  1
  Fe  Fe2  1  0.333316  0.666698  0.000000  1
  Fe  Fe3  1  0.666637  0.333302  0.000000  1
  Co  Co4  1  0.500009  0.000042  0.290137  1
  Co  Co5  1  0.500007  0.499982  0.290100  1
  Co  Co6  1  0.999941  0.499977  0.290109  1
  Co  Co7  1  0.500009  0.000042  0.709863  1
  Co  Co8  1  0.500007  0.499982  0.709899  1
  Co  Co9  1  0.999941  0.499977  0.709890  1
  B  B10  1  0.333318  0.666711  0.500000  1
  B  B11  1  0.666651  0.333289  0.500000  1
