# generated using pymatgen
data_Tm5P12Ru18Rh
_symmetry_space_group_name_H-M   'P 1'
_cell_length_a   12.50216800
_cell_length_b   12.50216829
_cell_length_c   3.96539000
_cell_angle_alpha   90.00000000
_cell_angle_beta   90.00000000
_cell_angle_gamma   119.99999395
_symmetry_Int_Tables_number   1
_chemical_formula_structural   Tm5P12Ru18Rh
_chemical_formula_sum   'Tm5 P12 Ru18 Rh1'
_cell_volume   536.76876536
_cell_formula_units_Z   1
loop_
 _symmetry_equiv_pos_site_id
 _symmetry_equiv_pos_as_xyz
  1  'x, y, z'
loop_
 _atom_site_type_symbol
 _atom_site_label
 _atom_site_symmetry_multiplicity
 _atom_site_fract_x
 _atom_site_fract_y
 _atom_site_fract_z
 _atom_site_occupancy
  Tm  Tm0  1  0.333333  0.666667  0.500000  1
  Tm  Tm1  1  0.666667  0.333333  0.500000  1
  Tm  Tm2  1  0.186253  0.186253  0.000000  1
  Tm  Tm3  1  0.813747  0.000000  0.000000  1
  Tm  Tm4  1  0.000000  0.813747  0.000000  1
  P  P5  1  0.307161  0.829134  0.000000  1
  P  P6  1  0.170866  0.478027  0.000000  1
  P  P7  1  0.521973  0.692839  0.000000  1
  P  P8  1  0.829134  0.307161  0.000000  1
  P  P9  1  0.478027  0.170866  0.000000  1
  P  P10  1  0.692839  0.521973  0.000000  1
  P  P11  1  0.372377  0.372377  0.500000  1
  P  P12  1  0.627623  0.000000  0.500000  1
  P  P13  1  0.000000  0.627623  0.500000  1
  P  P14  1  0.815890  0.815890  0.500000  1
  P  P15  1  0.184110  0.000000  0.500000  1
  P  P16  1  0.000000  0.184110  0.500000  1
  Ru  Ru17  1  0.191548  0.814919  0.500000  1
  Ru  Ru18  1  0.185081  0.376630  0.500000  1
  Ru  Ru19  1  0.623370  0.808452  0.500000  1
  Ru  Ru20  1  0.814919  0.191548  0.500000  1
  Ru  Ru21  1  0.376630  0.185081  0.500000  1
  Ru  Ru22  1  0.808452  0.623370  0.500000  1
  Ru  Ru23  1  0.126644  0.634590  0.000000  1
  Ru  Ru24  1  0.365410  0.492053  0.000000  1
  Ru  Ru25  1  0.507947  0.873356  0.000000  1
  Ru  Ru26  1  0.634590  0.126644  0.000000  1
  Ru  Ru27  1  0.492053  0.365410  0.000000  1
  Ru  Ru28  1  0.873356  0.507947  0.000000  1
  Ru  Ru29  1  0.555067  0.555067  0.500000  1
  Ru  Ru30  1  0.444933  0.000000  0.500000  1
  Ru  Ru31  1  0.000000  0.444933  0.500000  1
  Ru  Ru32  1  0.718654  0.718654  0.000000  1
  Ru  Ru33  1  0.281346  0.000000  0.000000  1
  Ru  Ru34  1  0.000000  0.281346  0.000000  1
  Rh  Rh35  1  0.000000  0.000000  0.500000  1
