# generated using pymatgen
data_Pr5AsPtO12
_symmetry_space_group_name_H-M   'P 1'
_cell_length_a   7.12602137
_cell_length_b   7.12602149
_cell_length_c   7.62571539
_cell_angle_alpha   74.52228386
_cell_angle_beta   74.52228371
_cell_angle_gamma   50.36482197
_symmetry_Int_Tables_number   1
_chemical_formula_structural   Pr5AsPtO12
_chemical_formula_sum   'Pr5 As1 Pt1 O12'
_cell_volume   284.95678699
_cell_formula_units_Z   1
loop_
 _symmetry_equiv_pos_site_id
 _symmetry_equiv_pos_as_xyz
  1  'x, y, z'
loop_
 _atom_site_type_symbol
 _atom_site_label
 _atom_site_symmetry_multiplicity
 _atom_site_fract_x
 _atom_site_fract_y
 _atom_site_fract_z
 _atom_site_occupancy
  Pr  Pr0  1  0.691656  0.700127  0.642101  1
  Pr  Pr1  1  0.692833  0.699372  0.163474  1
  Pr  Pr2  1  0.992922  0.007078  0.500000  1
  Pr  Pr3  1  0.300628  0.307167  0.836526  1
  Pr  Pr4  1  0.299873  0.308344  0.357899  1
  As  As5  1  0.761879  0.238121  0.000000  1
  Pt  Pt6  1  0.250849  0.749151  0.000000  1
  O  O7  1  0.986653  0.012662  0.169137  1
  O  O8  1  0.893379  0.406270  0.924675  1
  O  O9  1  0.426865  0.903932  0.920226  1
  O  O10  1  0.900124  0.404556  0.425252  1
  O  O11  1  0.400410  0.908143  0.421294  1
  O  O12  1  0.518162  0.480670  0.831508  1
  O  O13  1  0.519330  0.481838  0.168492  1
  O  O14  1  0.091857  0.599590  0.578706  1
  O  O15  1  0.595444  0.099876  0.574748  1
  O  O16  1  0.096068  0.573135  0.079774  1
  O  O17  1  0.593730  0.106621  0.075325  1
  O  O18  1  0.987338  0.013347  0.830863  1
