# generated using pymatgen
data_Hf5TiBBr12
_symmetry_space_group_name_H-M   'P 1'
_cell_length_a   8.54949826
_cell_length_b   8.59949024
_cell_length_c   8.59891340
_cell_angle_alpha   106.94269446
_cell_angle_beta   106.86489336
_cell_angle_gamma   106.90576210
_symmetry_Int_Tables_number   1
_chemical_formula_structural   Hf5TiBBr12
_chemical_formula_sum   'Hf5 Ti1 B1 Br12'
_cell_volume   527.87127735
_cell_formula_units_Z   1
loop_
 _symmetry_equiv_pos_site_id
 _symmetry_equiv_pos_as_xyz
  1  'x, y, z'
loop_
 _atom_site_type_symbol
 _atom_site_label
 _atom_site_symmetry_multiplicity
 _atom_site_fract_x
 _atom_site_fract_y
 _atom_site_fract_z
 _atom_site_occupancy
  Hf  Hf0  1  0.285667  0.093242  0.029000  1
  Hf  Hf1  1  0.093689  0.027045  0.283508  1
  Hf  Hf2  1  0.905221  0.969262  0.715192  1
  Hf  Hf3  1  0.711496  0.902775  0.969908  1
  Hf  Hf4  1  0.028750  0.286977  0.094278  1
  Ti  Ti5  1  0.972911  0.728867  0.910232  1
  B  B6  1  0.998875  0.002800  0.000841  1
  Br  Br7  1  0.921623  0.303561  0.774973  1
  Br  Br8  1  0.688006  0.221614  0.077290  1
  Br  Br9  1  0.441771  0.140617  0.365864  1
  Br  Br10  1  0.861894  0.635869  0.567798  1
  Br  Br11  1  0.223452  0.076606  0.690438  1
  Br  Br12  1  0.640503  0.561679  0.859403  1
  Br  Br13  1  0.367705  0.440701  0.141424  1
  Br  Br14  1  0.776414  0.920605  0.309042  1
  Br  Br15  1  0.141365  0.364943  0.441313  1
  Br  Br16  1  0.556844  0.856126  0.633285  1
  Br  Br17  1  0.309506  0.778170  0.922658  1
  Br  Br18  1  0.074307  0.688540  0.213553  1
