# generated using pymatgen
data_Hf18NbRe2As2W5
_symmetry_space_group_name_H-M   'P 1'
_cell_length_a   8.70910154
_cell_length_b   8.69426909
_cell_length_c   8.71782900
_cell_angle_alpha   90.00000000
_cell_angle_beta   90.00000000
_cell_angle_gamma   119.94338767
_symmetry_Int_Tables_number   1
_chemical_formula_structural   Hf18NbRe2As2W5
_chemical_formula_sum   'Hf18 Nb1 Re2 As2 W5'
_cell_volume   571.99584737
_cell_formula_units_Z   1
loop_
 _symmetry_equiv_pos_site_id
 _symmetry_equiv_pos_as_xyz
  1  'x, y, z'
loop_
 _atom_site_type_symbol
 _atom_site_label
 _atom_site_symmetry_multiplicity
 _atom_site_fract_x
 _atom_site_fract_y
 _atom_site_fract_z
 _atom_site_occupancy
  Hf  Hf0  1  0.806393  0.612786  0.547722  1
  Hf  Hf1  1  0.806306  0.193655  0.547723  1
  Hf  Hf2  1  0.387418  0.193684  0.550431  1
  Hf  Hf3  1  0.194185  0.389622  0.455491  1
  Hf  Hf4  1  0.194105  0.804591  0.455493  1
  Hf  Hf5  1  0.611814  0.805894  0.453468  1
  Hf  Hf6  1  0.194185  0.389622  0.044509  1
  Hf  Hf7  1  0.194105  0.804591  0.044507  1
  Hf  Hf8  1  0.611814  0.805894  0.046532  1
  Hf  Hf9  1  0.806393  0.612786  0.952278  1
  Hf  Hf10  1  0.806306  0.193655  0.952277  1
  Hf  Hf11  1  0.387418  0.193684  0.949569  1
  Hf  Hf12  1  0.460061  0.919465  0.750000  1
  Hf  Hf13  1  0.460076  0.540568  0.750000  1
  Hf  Hf14  1  0.079589  0.539794  0.750000  1
  Hf  Hf15  1  0.541072  0.077386  0.250000  1
  Hf  Hf16  1  0.541103  0.463655  0.250000  1
  Hf  Hf17  1  0.921550  0.460775  0.250000  1
  Nb  Nb18  1  0.219448  0.109681  0.250000  1
  Re  Re19  1  0.999115  0.999556  0.499937  1
  Re  Re20  1  0.999115  0.999556  0.000063  1
  As  As21  1  0.667777  0.333898  0.750000  1
  As  As22  1  0.333785  0.666880  0.250000  1
  W  W23  1  0.108987  0.218659  0.750000  1
  W  W24  1  0.108963  0.890311  0.750000  1
  W  W25  1  0.781353  0.890662  0.750000  1
  W  W26  1  0.888790  0.779836  0.250000  1
  W  W27  1  0.888776  0.108855  0.250000  1
