# generated using pymatgen
data_RbTi2RhSe6
_symmetry_space_group_name_H-M   'P 1'
_cell_length_a   9.50491683
_cell_length_b   9.50491637
_cell_length_c   9.50491608
_cell_angle_alpha   37.97914983
_cell_angle_beta   37.97915201
_cell_angle_gamma   37.97915492
_symmetry_Int_Tables_number   1
_chemical_formula_structural   RbTi2RhSe6
_chemical_formula_sum   'Rb1 Ti2 Rh1 Se6'
_cell_volume   291.88526261
_cell_formula_units_Z   1
loop_
 _symmetry_equiv_pos_site_id
 _symmetry_equiv_pos_as_xyz
  1  'x, y, z'
loop_
 _atom_site_type_symbol
 _atom_site_label
 _atom_site_symmetry_multiplicity
 _atom_site_fract_x
 _atom_site_fract_y
 _atom_site_fract_z
 _atom_site_occupancy
  Rb  Rb0  1  0.000005  0.000005  0.000005  1
  Ti  Ti1  1  0.501010  0.501010  0.501010  1
  Ti  Ti2  1  0.832913  0.832913  0.832913  1
  Rh  Rh3  1  0.166268  0.166268  0.166268  1
  Se  Se4  1  0.553003  0.224568  0.894626  1
  Se  Se5  1  0.894626  0.553003  0.224568  1
  Se  Se6  1  0.224568  0.894626  0.553003  1
  Se  Se7  1  0.776039  0.110624  0.440945  1
  Se  Se8  1  0.110624  0.440945  0.776039  1
  Se  Se9  1  0.440945  0.776039  0.110624  1
