# generated using pymatgen
data_Cs4Li2HoInBi4
_symmetry_space_group_name_H-M   'P 1'
_cell_length_a   10.49797015
_cell_length_b   10.49806982
_cell_length_c   10.49806367
_cell_angle_alpha   138.68790947
_cell_angle_beta   59.43611267
_cell_angle_gamma   139.23447885
_symmetry_Int_Tables_number   1
_chemical_formula_structural   Cs4Li2HoInBi4
_chemical_formula_sum   'Cs4 Li2 Ho1 In1 Bi4'
_cell_volume   493.80817312
_cell_formula_units_Z   1
loop_
 _symmetry_equiv_pos_site_id
 _symmetry_equiv_pos_as_xyz
  1  'x, y, z'
loop_
 _atom_site_type_symbol
 _atom_site_label
 _atom_site_symmetry_multiplicity
 _atom_site_fract_x
 _atom_site_fract_y
 _atom_site_fract_z
 _atom_site_occupancy
  Cs  Cs0  1  0.822083  0.264509  0.097888  1
  Cs  Cs1  1  0.677915  0.775799  0.442426  1
  Cs  Cs2  1  0.333365  0.235480  0.557569  1
  Cs  Cs3  1  0.166635  0.724209  0.902117  1
  Li  Li4  1  0.750002  0.250003  0.500002  1
  Li  Li5  1  0.250002  0.750004  0.500004  1
  Ho  Ho6  1  0.249972  0.249971  0.999969  1
  In  In7  1  0.750007  0.750006  0.000003  1
  Bi  Bi8  1  0.411716  0.747046  0.152064  1
  Bi  Bi9  1  0.088289  0.240351  0.335337  1
  Bi  Bi10  1  0.905022  0.752965  0.664678  1
  Bi  Bi11  1  0.594989  0.259657  0.847942  1
