# generated using pymatgen
data_Nd4Ag3Ir
_symmetry_space_group_name_H-M   'P 1'
_cell_length_a   4.76876600
_cell_length_b   5.89808816
_cell_length_c   7.48770787
_cell_angle_alpha   88.74096655
_cell_angle_beta   90.00000000
_cell_angle_gamma   90.00000000
_symmetry_Int_Tables_number   1
_chemical_formula_structural   Nd4Ag3Ir
_chemical_formula_sum   'Nd4 Ag3 Ir1'
_cell_volume   210.55293653
_cell_formula_units_Z   1
loop_
 _symmetry_equiv_pos_site_id
 _symmetry_equiv_pos_as_xyz
  1  'x, y, z'
loop_
 _atom_site_type_symbol
 _atom_site_label
 _atom_site_symmetry_multiplicity
 _atom_site_fract_x
 _atom_site_fract_y
 _atom_site_fract_z
 _atom_site_occupancy
  Nd  Nd0  1  0.250000  0.366344  0.672798  1
  Nd  Nd1  1  0.250000  0.129685  0.196502  1
  Nd  Nd2  1  0.750000  0.658311  0.333352  1
  Nd  Nd3  1  0.750000  0.854523  0.794191  1
  Ag  Ag4  1  0.250000  0.637487  0.037324  1
  Ag  Ag5  1  0.750000  0.155833  0.458128  1
  Ag  Ag6  1  0.750000  0.356528  0.969597  1
  Ir  Ir7  1  0.250000  0.841288  0.538108  1
