# generated using pymatgen
data_Ce2MnAl2Co
_symmetry_space_group_name_H-M   'P 1'
_cell_length_a   6.06385964
_cell_length_b   6.06385966
_cell_length_c   4.65543380
_cell_angle_alpha   73.30130686
_cell_angle_beta   73.30131025
_cell_angle_gamma   43.59454034
_symmetry_Int_Tables_number   1
_chemical_formula_structural   Ce2MnAl2Co
_chemical_formula_sum   'Ce2 Mn1 Al2 Co1'
_cell_volume   112.24433845
_cell_formula_units_Z   1
loop_
 _symmetry_equiv_pos_site_id
 _symmetry_equiv_pos_as_xyz
  1  'x, y, z'
loop_
 _atom_site_type_symbol
 _atom_site_label
 _atom_site_symmetry_multiplicity
 _atom_site_fract_x
 _atom_site_fract_y
 _atom_site_fract_z
 _atom_site_occupancy
  Ce  Ce0  1  0.867948  0.867948  0.336198  1
  Ce  Ce1  1  0.131384  0.131384  0.650317  1
  Mn  Mn2  1  0.191174  0.191174  0.163519  1
  Al  Al3  1  0.583586  0.583586  0.182672  1
  Al  Al4  1  0.415990  0.415990  0.812133  1
  Co  Co5  1  0.809918  0.809918  0.855160  1
