# generated using pymatgen
data_SmDy6Sn23Os6
_symmetry_space_group_name_H-M   'P 1'
_cell_length_a   9.87148900
_cell_length_b   9.87148804
_cell_length_c   10.13418300
_cell_angle_alpha   90.00000000
_cell_angle_beta   90.00000000
_cell_angle_gamma   119.99999318
_symmetry_Int_Tables_number   1
_chemical_formula_structural   SmDy6Sn23Os6
_chemical_formula_sum   'Sm1 Dy6 Sn23 Os6'
_cell_volume   855.23347882
_cell_formula_units_Z   1
loop_
 _symmetry_equiv_pos_site_id
 _symmetry_equiv_pos_as_xyz
  1  'x, y, z'
loop_
 _atom_site_type_symbol
 _atom_site_label
 _atom_site_symmetry_multiplicity
 _atom_site_fract_x
 _atom_site_fract_y
 _atom_site_fract_z
 _atom_site_occupancy
  Sm  Sm0  1  0.000000  0.000000  0.000000  1
  Dy  Dy1  1  0.485467  0.514533  0.301680  1
  Dy  Dy2  1  0.514533  0.485467  0.698320  1
  Dy  Dy3  1  0.485467  0.970933  0.301680  1
  Dy  Dy4  1  0.514533  0.029067  0.698320  1
  Dy  Dy5  1  0.029067  0.514533  0.301680  1
  Dy  Dy6  1  0.970933  0.485467  0.698320  1
  Sn  Sn7  1  0.350054  0.000000  0.000000  1
  Sn  Sn8  1  0.649946  0.000000  0.000000  1
  Sn  Sn9  1  0.000000  0.350054  0.000000  1
  Sn  Sn10  1  0.000000  0.649946  0.000000  1
  Sn  Sn11  1  0.649946  0.649946  0.000000  1
  Sn  Sn12  1  0.350054  0.350054  0.000000  1
  Sn  Sn13  1  0.333333  0.666667  0.825462  1
  Sn  Sn14  1  0.666667  0.333333  0.174538  1
  Sn  Sn15  1  0.000000  0.000000  0.500000  1
  Sn  Sn16  1  0.780092  0.219908  0.463347  1
  Sn  Sn17  1  0.219908  0.780092  0.536653  1
  Sn  Sn18  1  0.780092  0.560185  0.463347  1
  Sn  Sn19  1  0.219908  0.439815  0.536653  1
  Sn  Sn20  1  0.439815  0.219908  0.463347  1
  Sn  Sn21  1  0.560185  0.780092  0.536653  1
  Sn  Sn22  1  0.333333  0.666667  0.129786  1
  Sn  Sn23  1  0.666667  0.333333  0.870214  1
  Sn  Sn24  1  0.117622  0.882378  0.276093  1
  Sn  Sn25  1  0.882378  0.117622  0.723907  1
  Sn  Sn26  1  0.117622  0.235243  0.276093  1
  Sn  Sn27  1  0.882378  0.764757  0.723907  1
  Sn  Sn28  1  0.764757  0.882378  0.276093  1
  Sn  Sn29  1  0.235243  0.117622  0.723907  1
  Os  Os30  1  0.829432  0.170568  0.202551  1
  Os  Os31  1  0.170568  0.829432  0.797449  1
  Os  Os32  1  0.829432  0.658863  0.202551  1
  Os  Os33  1  0.170568  0.341137  0.797449  1
  Os  Os34  1  0.341137  0.170568  0.202551  1
  Os  Os35  1  0.658863  0.829432  0.797449  1
