# generated using pymatgen
data_Dy5Er5Si5Ge
_symmetry_space_group_name_H-M   'P 1'
_cell_length_a   8.41139750
_cell_length_b   8.41306525
_cell_length_c   6.31896600
_cell_angle_alpha   90.00000000
_cell_angle_beta   90.00000000
_cell_angle_gamma   119.95381469
_symmetry_Int_Tables_number   1
_chemical_formula_structural   Dy5Er5Si5Ge
_chemical_formula_sum   'Dy5 Er5 Si5 Ge1'
_cell_volume   387.43691224
_cell_formula_units_Z   1
loop_
 _symmetry_equiv_pos_site_id
 _symmetry_equiv_pos_as_xyz
  1  'x, y, z'
loop_
 _atom_site_type_symbol
 _atom_site_label
 _atom_site_symmetry_multiplicity
 _atom_site_fract_x
 _atom_site_fract_y
 _atom_site_fract_z
 _atom_site_occupancy
  Dy  Dy0  1  0.998746  0.755949  0.750000  1
  Dy  Dy1  1  0.000105  0.243087  0.250000  1
  Dy  Dy2  1  0.756568  0.756674  0.250000  1
  Dy  Dy3  1  0.758066  0.000105  0.750000  1
  Dy  Dy4  1  0.242725  0.000216  0.250000  1
  Er  Er5  1  0.242995  0.244370  0.750000  1
  Er  Er6  1  0.333133  0.665349  0.499325  1
  Er  Er7  1  0.667446  0.334445  0.000608  1
  Er  Er8  1  0.667446  0.334445  0.499392  1
  Er  Er9  1  0.333133  0.665349  0.000675  1
  Si  Si10  1  0.394777  0.394682  0.250000  1
  Si  Si11  1  0.000157  0.605456  0.250000  1
  Si  Si12  1  0.000302  0.394502  0.750000  1
  Si  Si13  1  0.604829  0.604917  0.750000  1
  Si  Si14  1  0.605500  0.000060  0.250000  1
  Ge  Ge15  1  0.394074  0.000394  0.750000  1
