# generated using pymatgen
data_Pr2ReTcI
_symmetry_space_group_name_H-M   'P 1'
_cell_length_a   4.19994700
_cell_length_b   4.19994693
_cell_length_c   18.47970200
_cell_angle_alpha   90.00000000
_cell_angle_beta   90.00000000
_cell_angle_gamma   119.99999271
_symmetry_Int_Tables_number   1
_chemical_formula_structural   Pr2ReTcI
_chemical_formula_sum   'Pr4 Re2 Tc2 I2'
_cell_volume   282.30153496
_cell_formula_units_Z   2
loop_
 _symmetry_equiv_pos_site_id
 _symmetry_equiv_pos_as_xyz
  1  'x, y, z'
loop_
 _atom_site_type_symbol
 _atom_site_label
 _atom_site_symmetry_multiplicity
 _atom_site_fract_x
 _atom_site_fract_y
 _atom_site_fract_z
 _atom_site_occupancy
  Pr  Pr0  1  0.000000  0.000000  0.114152  1
  Pr  Pr1  1  0.000000  0.000000  0.386238  1
  Pr  Pr2  1  0.000000  0.000000  0.885848  1
  Pr  Pr3  1  0.000000  0.000000  0.613762  1
  Re  Re4  1  0.333333  0.666667  0.015423  1
  Re  Re5  1  0.666667  0.333333  0.984577  1
  Tc  Tc6  1  0.333333  0.666667  0.485015  1
  Tc  Tc7  1  0.666667  0.333333  0.514985  1
  I  I8  1  0.333333  0.666667  0.749957  1
  I  I9  1  0.666667  0.333333  0.250043  1
