# generated using pymatgen
data_NdTm7(Si4Mo3)4
_symmetry_space_group_name_H-M   'P 1'
_cell_length_a   6.74725533
_cell_length_b   6.93401674
_cell_length_c   12.89647687
_cell_angle_alpha   90.11932493
_cell_angle_beta   90.02581771
_cell_angle_gamma   90.05984380
_symmetry_Int_Tables_number   1
_chemical_formula_structural   NdTm7(Si4Mo3)4
_chemical_formula_sum   'Nd1 Tm7 Si16 Mo12'
_cell_volume   603.36746927
_cell_formula_units_Z   1
loop_
 _symmetry_equiv_pos_site_id
 _symmetry_equiv_pos_as_xyz
  1  'x, y, z'
loop_
 _atom_site_type_symbol
 _atom_site_label
 _atom_site_symmetry_multiplicity
 _atom_site_fract_x
 _atom_site_fract_y
 _atom_site_fract_z
 _atom_site_occupancy
  Nd  Nd0  1  0.998253  0.165771  0.092567  1
  Tm  Tm1  1  0.496830  0.332770  0.093887  1
  Tm  Tm2  1  0.996892  0.167737  0.406100  1
  Tm  Tm3  1  0.503173  0.667979  0.593955  1
  Tm  Tm4  1  0.003646  0.832530  0.904904  1
  Tm  Tm5  1  0.503577  0.666987  0.905175  1
  Tm  Tm6  1  0.003130  0.832086  0.593921  1
  Tm  Tm7  1  0.496868  0.332456  0.407295  1
  Si  Si8  1  0.660154  0.040570  0.547203  1
  Si  Si9  1  0.160753  0.461763  0.951325  1
  Si  Si10  1  0.345266  0.955972  0.046458  1
  Si  Si11  1  0.840050  0.540470  0.453191  1
  Si  Si12  1  0.339662  0.959431  0.453434  1
  Si  Si13  1  0.838396  0.545459  0.046317  1
  Si  Si14  1  0.657679  0.040326  0.950946  1
  Si  Si15  1  0.160075  0.459180  0.547224  1
  Si  Si16  1  0.534104  0.367593  0.749412  1
  Si  Si17  1  0.034280  0.132812  0.749866  1
  Si  Si18  1  0.465383  0.632304  0.250582  1
  Si  Si19  1  0.964944  0.864087  0.251838  1
  Si  Si20  1  0.801962  0.631521  0.749388  1
  Si  Si21  1  0.302424  0.869020  0.749652  1
  Si  Si22  1  0.200215  0.371746  0.252011  1
  Si  Si23  1  0.694190  0.130401  0.251872  1
  Mo  Mo24  1  0.830079  0.335063  0.624630  1
  Mo  Mo25  1  0.330887  0.165552  0.874184  1
  Mo  Mo26  1  0.170428  0.664894  0.125204  1
  Mo  Mo27  1  0.669233  0.834132  0.376059  1
  Mo  Mo28  1  0.170356  0.664918  0.376237  1
  Mo  Mo29  1  0.668227  0.833266  0.125873  1
  Mo  Mo30  1  0.828794  0.336736  0.873608  1
  Mo  Mo31  1  0.329735  0.165330  0.624814  1
  Mo  Mo32  1  0.666475  0.997613  0.749171  1
  Mo  Mo33  1  0.166249  0.502822  0.749486  1
  Mo  Mo34  1  0.334479  0.000345  0.251367  1
  Mo  Mo35  1  0.833153  0.498356  0.250842  1
