# generated using pymatgen
data_SmDy6FeI12
_symmetry_space_group_name_H-M   'P 1'
_cell_length_a   9.81004424
_cell_length_b   9.81161000
_cell_length_c   9.78201209
_cell_angle_alpha   106.81330289
_cell_angle_beta   107.16852305
_cell_angle_gamma   106.94176050
_symmetry_Int_Tables_number   1
_chemical_formula_structural   SmDy6FeI12
_chemical_formula_sum   'Sm1 Dy6 Fe1 I12'
_cell_volume   784.66292552
_cell_formula_units_Z   1
loop_
 _symmetry_equiv_pos_site_id
 _symmetry_equiv_pos_as_xyz
  1  'x, y, z'
loop_
 _atom_site_type_symbol
 _atom_site_label
 _atom_site_symmetry_multiplicity
 _atom_site_fract_x
 _atom_site_fract_y
 _atom_site_fract_z
 _atom_site_occupancy
  Sm  Sm0  1  0.909573  0.979116  0.716438  1
  Dy  Dy1  1  0.707672  0.906236  0.976836  1
  Dy  Dy2  1  0.978126  0.708825  0.907570  1
  Dy  Dy3  1  0.088343  0.020700  0.274908  1
  Dy  Dy4  1  0.292228  0.094137  0.021282  1
  Dy  Dy5  1  0.022356  0.291841  0.093317  1
  Dy  Dy6  1  0.499863  0.498846  0.501522  1
  Fe  Fe7  1  0.999235  0.000296  0.996658  1
  I  I8  1  0.837933  0.610089  0.538745  1
  I  I9  1  0.532736  0.835343  0.614477  1
  I  I10  1  0.613668  0.536907  0.839494  1
  I  I11  1  0.159969  0.381430  0.460429  1
  I  I12  1  0.458903  0.159183  0.384150  1
  I  I13  1  0.386721  0.463774  0.164059  1
  I  I14  1  0.930481  0.326548  0.780464  1
  I  I15  1  0.778527  0.929469  0.316798  1
  I  I16  1  0.322070  0.776606  0.930999  1
  I  I17  1  0.072253  0.683103  0.225704  1
  I  I18  1  0.230057  0.073294  0.683945  1
  I  I19  1  0.679286  0.224258  0.072205  1
