# generated using pymatgen
data_Ac2PrMg3Ir2Pt
_symmetry_space_group_name_H-M   'P 1'
_cell_length_a   7.71497441
_cell_length_b   7.65901110
_cell_length_c   4.20448400
_cell_angle_alpha   90.00000000
_cell_angle_beta   90.00000000
_cell_angle_gamma   119.76033001
_symmetry_Int_Tables_number   1
_chemical_formula_structural   Ac2PrMg3Ir2Pt
_chemical_formula_sum   'Ac2 Pr1 Mg3 Ir2 Pt1'
_cell_volume   215.67227501
_cell_formula_units_Z   1
loop_
 _symmetry_equiv_pos_site_id
 _symmetry_equiv_pos_as_xyz
  1  'x, y, z'
loop_
 _atom_site_type_symbol
 _atom_site_label
 _atom_site_symmetry_multiplicity
 _atom_site_fract_x
 _atom_site_fract_y
 _atom_site_fract_z
 _atom_site_occupancy
  Ac  Ac0  1  0.420003  0.419888  0.000000  1
  Ac  Ac1  1  0.579997  0.999885  0.000000  1
  Pr  Pr2  1  0.000000  0.584244  0.000000  1
  Mg  Mg3  1  0.000000  0.244892  0.500000  1
  Mg  Mg4  1  0.767499  0.761003  0.500000  1
  Mg  Mg5  1  0.232501  0.993505  0.500000  1
  Ir  Ir6  1  0.672041  0.335567  0.500000  1
  Ir  Ir7  1  0.327959  0.663528  0.500000  1
  Pt  Pt8  1  0.000000  0.997487  0.000000  1
