# generated using pymatgen
data_Th3Al2Co2NiPd
_symmetry_space_group_name_H-M   'P 1'
_cell_length_a   7.06806047
_cell_length_b   7.36161940
_cell_length_c   3.86563500
_cell_angle_alpha   90.00000000
_cell_angle_beta   90.00000000
_cell_angle_gamma   121.38011238
_symmetry_Int_Tables_number   1
_chemical_formula_structural   Th3Al2Co2NiPd
_chemical_formula_sum   'Th3 Al2 Co2 Ni1 Pd1'
_cell_volume   171.71799675
_cell_formula_units_Z   1
loop_
 _symmetry_equiv_pos_site_id
 _symmetry_equiv_pos_as_xyz
  1  'x, y, z'
loop_
 _atom_site_type_symbol
 _atom_site_label
 _atom_site_symmetry_multiplicity
 _atom_site_fract_x
 _atom_site_fract_y
 _atom_site_fract_z
 _atom_site_occupancy
  Th  Th0  1  0.999982  0.424849  0.500000  1
  Th  Th1  1  0.594247  0.588773  0.500000  1
  Th  Th2  1  0.405751  0.994542  0.500000  1
  Al  Al3  1  0.235555  0.235425  0.000000  1
  Al  Al4  1  0.764432  0.999933  0.000000  1
  Co  Co5  1  0.350219  0.649469  0.000000  1
  Co  Co6  1  0.649780  0.299249  0.000000  1
  Ni  Ni7  1  0.000029  0.036375  0.500000  1
  Pd  Pd8  1  0.000006  0.771383  0.000000  1
