# generated using pymatgen
data_LuSc4Tc3(P3Ir4)4
_symmetry_space_group_name_H-M   'P 1'
_cell_length_a   12.58070700
_cell_length_b   12.58070737
_cell_length_c   3.93295400
_cell_angle_alpha   90.00000000
_cell_angle_beta   90.00000000
_cell_angle_gamma   120.00000165
_symmetry_Int_Tables_number   1
_chemical_formula_structural   LuSc4Tc3(P3Ir4)4
_chemical_formula_sum   'Lu1 Sc4 Tc3 P12 Ir16'
_cell_volume   539.08791982
_cell_formula_units_Z   1
loop_
 _symmetry_equiv_pos_site_id
 _symmetry_equiv_pos_as_xyz
  1  'x, y, z'
loop_
 _atom_site_type_symbol
 _atom_site_label
 _atom_site_symmetry_multiplicity
 _atom_site_fract_x
 _atom_site_fract_y
 _atom_site_fract_z
 _atom_site_occupancy
  Lu  Lu0  1  0.333333  0.666667  0.000000  1
  Sc  Sc1  1  0.666667  0.333333  0.000000  1
  Sc  Sc2  1  0.821050  0.999996  0.500000  1
  Sc  Sc3  1  0.000004  0.821054  0.500000  1
  Sc  Sc4  1  0.178946  0.178950  0.500000  1
  Tc  Tc5  1  0.455385  0.999846  0.000000  1
  Tc  Tc6  1  0.000154  0.455539  0.000000  1
  Tc  Tc7  1  0.544461  0.544615  0.000000  1
  P  P8  1  0.174620  0.000259  0.000000  1
  P  P9  1  0.999741  0.174361  0.000000  1
  P  P10  1  0.825639  0.825380  0.000000  1
  P  P11  1  0.168869  0.484316  0.500000  1
  P  P12  1  0.515684  0.684552  0.500000  1
  P  P13  1  0.315448  0.831131  0.500000  1
  P  P14  1  0.684574  0.514283  0.500000  1
  P  P15  1  0.829708  0.315426  0.500000  1
  P  P16  1  0.485717  0.170292  0.500000  1
  P  P17  1  0.641280  0.000319  0.000000  1
  P  P18  1  0.999681  0.640960  0.000000  1
  P  P19  1  0.359040  0.358720  0.000000  1
  Ir  Ir20  1  0.357179  0.490329  0.500000  1
  Ir  Ir21  1  0.509671  0.866850  0.500000  1
  Ir  Ir22  1  0.133150  0.642821  0.500000  1
  Ir  Ir23  1  0.866137  0.509025  0.500000  1
  Ir  Ir24  1  0.642888  0.133863  0.500000  1
  Ir  Ir25  1  0.490975  0.357112  0.500000  1
  Ir  Ir26  1  0.179001  0.369469  0.000000  1
  Ir  Ir27  1  0.630531  0.809533  0.000000  1
  Ir  Ir28  1  0.190467  0.820999  0.000000  1
  Ir  Ir29  1  0.809163  0.630056  0.000000  1
  Ir  Ir30  1  0.820895  0.190837  0.000000  1
  Ir  Ir31  1  0.369944  0.179105  0.000000  1
  Ir  Ir32  1  0.289950  0.000309  0.500000  1
  Ir  Ir33  1  0.999691  0.289641  0.500000  1
  Ir  Ir34  1  0.710359  0.710050  0.500000  1
  Ir  Ir35  1  0.000000  0.000000  0.000000  1
