# generated using pymatgen
data_Nd5YAl24(Ir3Ru)2
_symmetry_space_group_name_H-M   'P 1'
_cell_length_a   8.86777300
_cell_length_b   8.90531174
_cell_length_c   9.60909000
_cell_angle_alpha   90.00000000
_cell_angle_beta   90.00000000
_cell_angle_gamma   119.86065973
_symmetry_Int_Tables_number   1
_chemical_formula_structural   Nd5YAl24(Ir3Ru)2
_chemical_formula_sum   'Nd5 Y1 Al24 Ir6 Ru2'
_cell_volume   658.08904722
_cell_formula_units_Z   1
loop_
 _symmetry_equiv_pos_site_id
 _symmetry_equiv_pos_as_xyz
  1  'x, y, z'
loop_
 _atom_site_type_symbol
 _atom_site_label
 _atom_site_symmetry_multiplicity
 _atom_site_fract_x
 _atom_site_fract_y
 _atom_site_fract_z
 _atom_site_occupancy
  Nd  Nd0  1  0.808925  0.617850  0.750000  1
  Nd  Nd1  1  0.619082  0.809509  0.250000  1
  Nd  Nd2  1  0.381002  0.189992  0.750000  1
  Nd  Nd3  1  0.190428  0.809509  0.250000  1
  Nd  Nd4  1  0.808989  0.189992  0.750000  1
  Y  Y5  1  0.193605  0.387208  0.250000  1
  Al  Al6  1  0.333182  0.666365  0.026198  1
  Al  Al7  1  0.666182  0.332363  0.976594  1
  Al  Al8  1  0.666182  0.332363  0.523406  1
  Al  Al9  1  0.333182  0.666365  0.473802  1
  Al  Al10  1  0.163464  0.326927  0.573016  1
  Al  Al11  1  0.836345  0.672690  0.424399  1
  Al  Al12  1  0.672466  0.835709  0.575580  1
  Al  Al13  1  0.836345  0.672690  0.075601  1
  Al  Al14  1  0.326316  0.164762  0.422861  1
  Al  Al15  1  0.163464  0.326927  0.926984  1
  Al  Al16  1  0.163242  0.835709  0.575580  1
  Al  Al17  1  0.326316  0.164762  0.077139  1
  Al  Al18  1  0.838446  0.164762  0.422861  1
  Al  Al19  1  0.672466  0.835709  0.924420  1
  Al  Al20  1  0.838446  0.164762  0.077139  1
  Al  Al21  1  0.163242  0.835709  0.924420  1
  Al  Al22  1  0.563416  0.126832  0.250000  1
  Al  Al23  1  0.436279  0.872559  0.750000  1
  Al  Al24  1  0.874921  0.436957  0.250000  1
  Al  Al25  1  0.126460  0.562080  0.750000  1
  Al  Al26  1  0.562036  0.436957  0.250000  1
  Al  Al27  1  0.435620  0.562080  0.750000  1
  Al  Al28  1  0.002632  0.005264  0.250000  1
  Al  Al29  1  0.999482  0.998963  0.750000  1
  Ir  Ir30  1  0.499720  0.999440  0.000323  1
  Ir  Ir31  1  0.000680  0.499241  0.001093  1
  Ir  Ir32  1  0.499720  0.999440  0.499677  1
  Ir  Ir33  1  0.498561  0.499241  0.001093  1
  Ir  Ir34  1  0.000680  0.499241  0.498907  1
  Ir  Ir35  1  0.498561  0.499241  0.498907  1
  Ru  Ru36  1  0.999957  0.999915  0.000358  1
  Ru  Ru37  1  0.999957  0.999915  0.499642  1
