# generated using pymatgen
data_Tb8In2RuPt
_symmetry_space_group_name_H-M   'P 1'
_cell_length_a   9.73136914
_cell_length_b   9.73136729
_cell_length_c   9.71571900
_cell_angle_alpha   60.05318221
_cell_angle_beta   60.05318851
_cell_angle_gamma   60.06841886
_symmetry_Int_Tables_number   1
_chemical_formula_structural   Tb8In2RuPt
_chemical_formula_sum   'Tb16 In4 Ru2 Pt2'
_cell_volume   651.44962758
_cell_formula_units_Z   2
loop_
 _symmetry_equiv_pos_site_id
 _symmetry_equiv_pos_as_xyz
  1  'x, y, z'
loop_
 _atom_site_type_symbol
 _atom_site_label
 _atom_site_symmetry_multiplicity
 _atom_site_fract_x
 _atom_site_fract_y
 _atom_site_fract_z
 _atom_site_occupancy
  Tb  Tb0  1  0.348381  0.348381  0.353348  1
  Tb  Tb1  1  0.348381  0.348381  0.949889  1
  Tb  Tb2  1  0.346535  0.953093  0.350187  1
  Tb  Tb3  1  0.953093  0.346535  0.350187  1
  Tb  Tb4  1  0.814970  0.188938  0.190584  1
  Tb  Tb5  1  0.188938  0.814970  0.805509  1
  Tb  Tb6  1  0.188938  0.814970  0.190584  1
  Tb  Tb7  1  0.814970  0.188938  0.805509  1
  Tb  Tb8  1  0.189155  0.189155  0.810845  1
  Tb  Tb9  1  0.808675  0.808675  0.191325  1
  Tb  Tb10  1  0.937878  0.558900  0.564691  1
  Tb  Tb11  1  0.558900  0.937878  0.938531  1
  Tb  Tb12  1  0.558900  0.937878  0.564691  1
  Tb  Tb13  1  0.937878  0.558900  0.938531  1
  Tb  Tb14  1  0.562071  0.562071  0.937929  1
  Tb  Tb15  1  0.939767  0.939767  0.560233  1
  In  In16  1  0.582253  0.582253  0.582948  1
  In  In17  1  0.582253  0.582253  0.252544  1
  In  In18  1  0.582362  0.251984  0.582827  1
  In  In19  1  0.251984  0.582362  0.582827  1
  Ru  Ru20  1  0.142944  0.142944  0.139361  1
  Ru  Ru21  1  0.142944  0.142944  0.574752  1
  Pt  Pt22  1  0.144011  0.573819  0.141085  1
  Pt  Pt23  1  0.573819  0.144011  0.141085  1
