# generated using pymatgen
data_K2PuF5
_symmetry_space_group_name_H-M   'P 1'
_cell_length_a   6.75645100
_cell_length_b   7.65562000
_cell_length_c   11.08022200
_cell_angle_alpha   90.00000000
_cell_angle_beta   90.00000000
_cell_angle_gamma   90.00000000
_symmetry_Int_Tables_number   1
_chemical_formula_structural   K2PuF5
_chemical_formula_sum   'K8 Pu4 F20'
_cell_volume   573.12250407
_cell_formula_units_Z   4
loop_
 _symmetry_equiv_pos_site_id
 _symmetry_equiv_pos_as_xyz
  1  'x, y, z'
loop_
 _atom_site_type_symbol
 _atom_site_label
 _atom_site_symmetry_multiplicity
 _atom_site_fract_x
 _atom_site_fract_y
 _atom_site_fract_z
 _atom_site_occupancy
  K  K0  1  0.525993  0.497775  0.829891  1
  K  K1  1  0.474007  0.502225  0.170109  1
  K  K2  1  0.025993  0.502225  0.670109  1
  K  K3  1  0.474007  0.997775  0.170109  1
  K  K4  1  0.974007  0.497775  0.329891  1
  K  K5  1  0.525993  0.002225  0.829891  1
  K  K6  1  0.974007  0.002225  0.329891  1
  K  K7  1  0.025993  0.997775  0.670109  1
  Pu  Pu8  1  0.556251  0.750000  0.500231  1
  Pu  Pu9  1  0.443749  0.250000  0.499769  1
  Pu  Pu10  1  0.056251  0.250000  0.999769  1
  Pu  Pu11  1  0.943749  0.750000  0.000231  1
  F  F12  1  0.829809  0.750000  0.804820  1
  F  F13  1  0.170191  0.250000  0.195180  1
  F  F14  1  0.329809  0.250000  0.695180  1
  F  F15  1  0.670191  0.750000  0.304820  1
  F  F16  1  0.362626  0.750000  0.670505  1
  F  F17  1  0.637374  0.250000  0.329495  1
  F  F18  1  0.862626  0.250000  0.829495  1
  F  F19  1  0.137374  0.750000  0.170505  1
  F  F20  1  0.903740  0.750000  0.512254  1
  F  F21  1  0.096260  0.250000  0.487746  1
  F  F22  1  0.403740  0.250000  0.987746  1
  F  F23  1  0.596260  0.750000  0.012254  1
  F  F24  1  0.647724  0.028587  0.582858  1
  F  F25  1  0.352276  0.971413  0.417142  1
  F  F26  1  0.147724  0.971413  0.917142  1
  F  F27  1  0.352276  0.528587  0.417142  1
  F  F28  1  0.852276  0.028587  0.082858  1
  F  F29  1  0.647724  0.471413  0.582858  1
  F  F30  1  0.852276  0.471413  0.082858  1
  F  F31  1  0.147724  0.528587  0.917142  1
