# generated using pymatgen
data_TbHo2Al3SiPd2
_symmetry_space_group_name_H-M   'P 1'
_cell_length_a   7.02039717
_cell_length_b   7.02516789
_cell_length_c   4.16192900
_cell_angle_alpha   90.00000000
_cell_angle_beta   90.00000000
_cell_angle_gamma   120.00243502
_symmetry_Int_Tables_number   1
_chemical_formula_structural   TbHo2Al3SiPd2
_chemical_formula_sum   'Tb1 Ho2 Al3 Si1 Pd2'
_cell_volume   177.75958667
_cell_formula_units_Z   1
loop_
 _symmetry_equiv_pos_site_id
 _symmetry_equiv_pos_as_xyz
  1  'x, y, z'
loop_
 _atom_site_type_symbol
 _atom_site_label
 _atom_site_symmetry_multiplicity
 _atom_site_fract_x
 _atom_site_fract_y
 _atom_site_fract_z
 _atom_site_occupancy
  Tb  Tb0  1  0.582812  0.002604  0.500000  1
  Ho  Ho1  1  0.997042  0.580425  0.500000  1
  Ho  Ho2  1  0.419434  0.416653  0.500000  1
  Al  Al3  1  0.764043  0.756693  0.000000  1
  Al  Al4  1  0.242874  0.007166  0.000000  1
  Al  Al5  1  0.993155  0.236218  0.000000  1
  Si  Si6  1  0.332929  0.665989  0.000000  1
  Pd  Pd7  1  0.666918  0.334228  0.000000  1
  Pd  Pd8  1  0.000792  0.000025  0.500000  1
