# generated using pymatgen
data_Ba3NaPuO6
_symmetry_space_group_name_H-M   'P 1'
_cell_length_a   7.38212107
_cell_length_b   7.38212057
_cell_length_c   7.38212039
_cell_angle_alpha   92.26227693
_cell_angle_beta   92.26227996
_cell_angle_gamma   92.26227977
_symmetry_Int_Tables_number   1
_chemical_formula_structural   Ba3NaPuO6
_chemical_formula_sum   'Ba6 Na2 Pu2 O12'
_cell_volume   401.32769352
_cell_formula_units_Z   2
loop_
 _symmetry_equiv_pos_site_id
 _symmetry_equiv_pos_as_xyz
  1  'x, y, z'
loop_
 _atom_site_type_symbol
 _atom_site_label
 _atom_site_symmetry_multiplicity
 _atom_site_fract_x
 _atom_site_fract_y
 _atom_site_fract_z
 _atom_site_occupancy
  Ba  Ba0  1  0.250000  0.904307  0.595693  1
  Ba  Ba1  1  0.750000  0.095693  0.404307  1
  Ba  Ba2  1  0.904307  0.595693  0.250000  1
  Ba  Ba3  1  0.404307  0.750000  0.095693  1
  Ba  Ba4  1  0.095693  0.404307  0.750000  1
  Ba  Ba5  1  0.595693  0.250000  0.904307  1
  Na  Na6  1  0.750000  0.750000  0.750000  1
  Na  Na7  1  0.250000  0.250000  0.250000  1
  Pu  Pu8  1  0.000000  0.000000  0.000000  1
  Pu  Pu9  1  0.500000  0.500000  0.500000  1
  O  O10  1  0.721958  0.924090  0.051293  1
  O  O11  1  0.051293  0.721958  0.924090  1
  O  O12  1  0.075910  0.948707  0.278042  1
  O  O13  1  0.924090  0.051293  0.721958  1
  O  O14  1  0.448707  0.575910  0.778042  1
  O  O15  1  0.575910  0.778042  0.448707  1
  O  O16  1  0.278042  0.075910  0.948707  1
  O  O17  1  0.948707  0.278042  0.075910  1
  O  O18  1  0.221958  0.551293  0.424090  1
  O  O19  1  0.551293  0.424090  0.221958  1
  O  O20  1  0.424090  0.221958  0.551293  1
  O  O21  1  0.778042  0.448707  0.575910  1
