# generated using pymatgen
data_Ba6HoEr(BO3)6
_symmetry_space_group_name_H-M   'P 1'
_cell_length_a   8.19804654
_cell_length_b   8.19804608
_cell_length_c   8.19804666
_cell_angle_alpha   105.62420366
_cell_angle_beta   105.62420029
_cell_angle_gamma   105.62419517
_symmetry_Int_Tables_number   1
_chemical_formula_structural   Ba6HoEr(BO3)6
_chemical_formula_sum   'Ba6 Ho1 Er1 B6 O18'
_cell_volume   475.02695783
_cell_formula_units_Z   1
loop_
 _symmetry_equiv_pos_site_id
 _symmetry_equiv_pos_as_xyz
  1  'x, y, z'
loop_
 _atom_site_type_symbol
 _atom_site_label
 _atom_site_symmetry_multiplicity
 _atom_site_fract_x
 _atom_site_fract_y
 _atom_site_fract_z
 _atom_site_occupancy
  Ba  Ba0  1  0.651462  0.263636  0.160375  1
  Ba  Ba1  1  0.160375  0.651462  0.263636  1
  Ba  Ba2  1  0.736363  0.839626  0.348538  1
  Ba  Ba3  1  0.263637  0.160374  0.651462  1
  Ba  Ba4  1  0.839626  0.348538  0.736364  1
  Ba  Ba5  1  0.348538  0.736364  0.839625  1
  Ho  Ho6  1  0.000000  0.000000  0.000000  1
  Er  Er7  1  0.500000  0.500000  0.500000  1
  B  B8  1  0.291552  0.373384  0.044139  1
  B  B9  1  0.373383  0.044139  0.291552  1
  B  B10  1  0.044139  0.291552  0.373383  1
  B  B11  1  0.955861  0.708449  0.626617  1
  B  B12  1  0.626617  0.955862  0.708448  1
  B  B13  1  0.708449  0.626617  0.955862  1
  O  O14  1  0.741603  0.813815  0.013061  1
  O  O15  1  0.802119  0.555924  0.067117  1
  O  O16  1  0.986939  0.258397  0.186183  1
  O  O17  1  0.444075  0.932883  0.197880  1
  O  O18  1  0.427690  0.489245  0.213675  1
  O  O19  1  0.186184  0.986939  0.258396  1
  O  O20  1  0.489244  0.213675  0.427690  1
  O  O21  1  0.932883  0.197880  0.444076  1
  O  O22  1  0.213675  0.427690  0.489245  1
  O  O23  1  0.786325  0.572310  0.510756  1
  O  O24  1  0.067117  0.802119  0.555924  1
  O  O25  1  0.510756  0.786325  0.572310  1
  O  O26  1  0.813815  0.013060  0.741603  1
  O  O27  1  0.572310  0.510756  0.786326  1
  O  O28  1  0.555924  0.067117  0.802120  1
  O  O29  1  0.013060  0.741602  0.813816  1
  O  O30  1  0.197880  0.444075  0.932883  1
  O  O31  1  0.258397  0.186184  0.986939  1
