# generated using pymatgen
data_Sm10LuPa9Rh16
_symmetry_space_group_name_H-M   'P 1'
_cell_length_a   7.41245101
_cell_length_b   7.51740222
_cell_length_c   14.63402200
_cell_angle_alpha   90.00000000
_cell_angle_beta   90.00000000
_cell_angle_gamma   89.79807808
_symmetry_Int_Tables_number   1
_chemical_formula_structural   Sm10LuPa9Rh16
_chemical_formula_sum   'Sm10 Lu1 Pa9 Rh16'
_cell_volume   815.43740741
_cell_formula_units_Z   1
loop_
 _symmetry_equiv_pos_site_id
 _symmetry_equiv_pos_as_xyz
  1  'x, y, z'
loop_
 _atom_site_type_symbol
 _atom_site_label
 _atom_site_symmetry_multiplicity
 _atom_site_fract_x
 _atom_site_fract_y
 _atom_site_fract_z
 _atom_site_occupancy
  Sm  Sm0  1  0.502118  0.674260  0.592134  1
  Sm  Sm1  1  0.002625  0.825927  0.910838  1
  Sm  Sm2  1  0.494338  0.325387  0.094576  1
  Sm  Sm3  1  0.997749  0.179879  0.405535  1
  Sm  Sm4  1  0.494338  0.325387  0.405424  1
  Sm  Sm5  1  0.997749  0.179879  0.094465  1
  Sm  Sm6  1  0.502118  0.674260  0.907866  1
  Sm  Sm7  1  0.002625  0.825927  0.589162  1
  Sm  Sm8  1  0.308853  0.969031  0.750000  1
  Sm  Sm9  1  0.691756  0.027531  0.250000  1
  Lu  Lu10  1  0.187980  0.478044  0.250000  1
  Pa  Pa11  1  0.655406  0.157350  0.619551  1
  Pa  Pa12  1  0.161439  0.338013  0.880738  1
  Pa  Pa13  1  0.343659  0.842037  0.121496  1
  Pa  Pa14  1  0.842933  0.655672  0.378575  1
  Pa  Pa15  1  0.343659  0.842037  0.378504  1
  Pa  Pa16  1  0.842933  0.655672  0.121425  1
  Pa  Pa17  1  0.655406  0.157350  0.880449  1
  Pa  Pa18  1  0.161439  0.338013  0.619262  1
  Pa  Pa19  1  0.810789  0.530141  0.750000  1
  Rh  Rh20  1  0.681034  0.949750  0.461139  1
  Rh  Rh21  1  0.178788  0.549551  0.041916  1
  Rh  Rh22  1  0.324023  0.052395  0.962962  1
  Rh  Rh23  1  0.826113  0.451075  0.542325  1
  Rh  Rh24  1  0.324023  0.052395  0.537038  1
  Rh  Rh25  1  0.826113  0.451075  0.957675  1
  Rh  Rh26  1  0.681034  0.949750  0.038861  1
  Rh  Rh27  1  0.178788  0.549551  0.458084  1
  Rh  Rh28  1  0.460769  0.361013  0.750000  1
  Rh  Rh29  1  0.939858  0.160712  0.750000  1
  Rh  Rh30  1  0.542192  0.650485  0.250000  1
  Rh  Rh31  1  0.047584  0.843026  0.250000  1
  Rh  Rh32  1  0.703616  0.862688  0.750000  1
  Rh  Rh33  1  0.164508  0.611225  0.750000  1
  Rh  Rh34  1  0.306520  0.112783  0.250000  1
  Rh  Rh35  1  0.815121  0.390732  0.250000  1
