# generated using pymatgen
data_Er8In2CoRu
_symmetry_space_group_name_H-M   'P 1'
_cell_length_a   9.51471289
_cell_length_b   9.53203598
_cell_length_c   9.53040054
_cell_angle_alpha   59.88626376
_cell_angle_beta   59.78814180
_cell_angle_gamma   59.78680178
_symmetry_Int_Tables_number   1
_chemical_formula_structural   Er8In2CoRu
_chemical_formula_sum   'Er16 In4 Co2 Ru2'
_cell_volume   608.69905755
_cell_formula_units_Z   2
loop_
 _symmetry_equiv_pos_site_id
 _symmetry_equiv_pos_as_xyz
  1  'x, y, z'
loop_
 _atom_site_type_symbol
 _atom_site_label
 _atom_site_symmetry_multiplicity
 _atom_site_fract_x
 _atom_site_fract_y
 _atom_site_fract_z
 _atom_site_occupancy
  Er  Er0  1  0.058874  0.059077  0.440103  1
  Er  Er1  1  0.650012  0.038528  0.657174  1
  Er  Er2  1  0.194549  0.810894  0.188990  1
  Er  Er3  1  0.441963  0.060282  0.439184  1
  Er  Er4  1  0.194589  0.188935  0.810933  1
  Er  Er5  1  0.648095  0.653298  0.653366  1
  Er  Er6  1  0.043521  0.653439  0.653559  1
  Er  Er7  1  0.439349  0.063029  0.063087  1
  Er  Er8  1  0.650019  0.657061  0.038644  1
  Er  Er9  1  0.190314  0.810696  0.810752  1
  Er  Er10  1  0.809269  0.188754  0.808879  1
  Er  Er11  1  0.811080  0.191282  0.191383  1
  Er  Er12  1  0.809230  0.808846  0.188796  1
  Er  Er13  1  0.057574  0.443272  0.443567  1
  Er  Er14  1  0.441840  0.439052  0.060377  1
  Er  Er15  1  0.058964  0.439895  0.059187  1
  In  In16  1  0.748640  0.416233  0.415460  1
  In  In17  1  0.417828  0.416746  0.748380  1
  In  In18  1  0.417916  0.748986  0.416130  1
  In  In19  1  0.419756  0.416608  0.416831  1
  Co  Co20  1  0.858569  0.860990  0.861071  1
  Co  Co21  1  0.417664  0.858293  0.858338  1
  Ru  Ru22  1  0.860163  0.857035  0.418844  1
  Ru  Ru23  1  0.860227  0.418768  0.856966  1
