# generated using pymatgen
data_Yb3Er(Al5Pt3)4
_symmetry_space_group_name_H-M   'P 1'
_cell_length_a   4.09899300
_cell_length_b   7.45381360
_cell_length_c   20.49957168
_cell_angle_alpha   90.27620052
_cell_angle_beta   90.00000000
_cell_angle_gamma   90.00000000
_symmetry_Int_Tables_number   1
_chemical_formula_structural   Yb3Er(Al5Pt3)4
_chemical_formula_sum   'Yb3 Er1 Al20 Pt12'
_cell_volume   626.31879669
_cell_formula_units_Z   1
loop_
 _symmetry_equiv_pos_site_id
 _symmetry_equiv_pos_as_xyz
  1  'x, y, z'
loop_
 _atom_site_type_symbol
 _atom_site_label
 _atom_site_symmetry_multiplicity
 _atom_site_fract_x
 _atom_site_fract_y
 _atom_site_fract_z
 _atom_site_occupancy
  Yb  Yb0  1  0.250000  0.114810  0.639364  1
  Yb  Yb1  1  0.750000  0.883803  0.360435  1
  Yb  Yb2  1  0.250000  0.382962  0.139119  1
  Er  Er3  1  0.750000  0.610631  0.860352  1
  Al  Al4  1  0.750000  0.352138  0.381781  1
  Al  Al5  1  0.750000  0.882808  0.983404  1
  Al  Al6  1  0.750000  0.687076  0.200529  1
  Al  Al7  1  0.250000  0.871876  0.493016  1
  Al  Al8  1  0.250000  0.628855  0.991426  1
  Al  Al9  1  0.250000  0.315704  0.799372  1
  Al  Al10  1  0.750000  0.070554  0.209361  1
  Al  Al11  1  0.250000  0.647953  0.619080  1
  Al  Al12  1  0.250000  0.570933  0.290652  1
  Al  Al13  1  0.250000  0.187395  0.299216  1
  Al  Al14  1  0.750000  0.148073  0.882126  1
  Al  Al15  1  0.250000  0.928920  0.790693  1
  Al  Al16  1  0.750000  0.370013  0.007525  1
  Al  Al17  1  0.750000  0.617242  0.483689  1
  Al  Al18  1  0.750000  0.128776  0.507890  1
  Al  Al19  1  0.250000  0.117492  0.015928  1
  Al  Al20  1  0.250000  0.855176  0.117810  1
  Al  Al21  1  0.250000  0.382665  0.516701  1
  Al  Al22  1  0.750000  0.430152  0.709680  1
  Al  Al23  1  0.750000  0.813559  0.700980  1
  Pt  Pt24  1  0.750000  0.381486  0.258416  1
  Pt  Pt25  1  0.250000  0.880579  0.241642  1
  Pt  Pt26  1  0.250000  0.619546  0.742809  1
  Pt  Pt27  1  0.750000  0.120380  0.758930  1
  Pt  Pt28  1  0.250000  0.160889  0.426098  1
  Pt  Pt29  1  0.750000  0.418177  0.584776  1
  Pt  Pt30  1  0.750000  0.081981  0.085103  1
  Pt  Pt31  1  0.250000  0.915295  0.914472  1
  Pt  Pt32  1  0.750000  0.839219  0.573489  1
  Pt  Pt33  1  0.250000  0.339973  0.925606  1
  Pt  Pt34  1  0.750000  0.660532  0.073372  1
  Pt  Pt35  1  0.250000  0.582378  0.415156  1
