# generated using pymatgen
data_Dy4Tl2HgPd3
_symmetry_space_group_name_H-M   'P 1'
_cell_length_a   7.83993500
_cell_length_b   7.83993463
_cell_length_c   3.78049900
_cell_angle_alpha   90.00000000
_cell_angle_beta   90.00000000
_cell_angle_gamma   91.28369703
_symmetry_Int_Tables_number   1
_chemical_formula_structural   Dy4Tl2HgPd3
_chemical_formula_sum   'Dy4 Tl2 Hg1 Pd3'
_cell_volume   232.30845698
_cell_formula_units_Z   1
loop_
 _symmetry_equiv_pos_site_id
 _symmetry_equiv_pos_as_xyz
  1  'x, y, z'
loop_
 _atom_site_type_symbol
 _atom_site_label
 _atom_site_symmetry_multiplicity
 _atom_site_fract_x
 _atom_site_fract_y
 _atom_site_fract_z
 _atom_site_occupancy
  Dy  Dy0  1  0.337285  0.807163  0.500000  1
  Dy  Dy1  1  0.825979  0.674021  0.500000  1
  Dy  Dy2  1  0.153323  0.346677  0.500000  1
  Dy  Dy3  1  0.692837  0.162715  0.500000  1
  Tl  Tl4  1  0.997733  0.995118  0.000000  1
  Tl  Tl5  1  0.504882  0.502267  0.000000  1
  Hg  Hg6  1  0.373036  0.126964  0.000000  1
  Pd  Pd7  1  0.867176  0.377906  0.000000  1
  Pd  Pd8  1  0.122094  0.632824  0.000000  1
  Pd  Pd9  1  0.625655  0.874345  0.000000  1
