# generated using pymatgen
data_TbDy3(TiIr3)2
_symmetry_space_group_name_H-M   'P 1'
_cell_length_a   9.75474447
_cell_length_b   9.51843613
_cell_length_c   9.51843621
_cell_angle_alpha   34.44400288
_cell_angle_beta   31.15243798
_cell_angle_gamma   31.15244370
_symmetry_Int_Tables_number   1
_chemical_formula_structural   TbDy3(TiIr3)2
_chemical_formula_sum   'Tb1 Dy3 Ti2 Ir6'
_cell_volume   222.00473661
_cell_formula_units_Z   1
loop_
 _symmetry_equiv_pos_site_id
 _symmetry_equiv_pos_as_xyz
  1  'x, y, z'
loop_
 _atom_site_type_symbol
 _atom_site_label
 _atom_site_symmetry_multiplicity
 _atom_site_fract_x
 _atom_site_fract_y
 _atom_site_fract_z
 _atom_site_occupancy
  Tb  Tb0  1  0.816853  0.809857  0.809857  1
  Dy  Dy1  1  0.317600  0.309387  0.309387  1
  Dy  Dy2  1  0.682103  0.690684  0.690684  1
  Dy  Dy3  1  0.182232  0.190796  0.190796  1
  Ti  Ti4  1  0.749930  0.249909  0.249909  1
  Ti  Ti5  1  0.250224  0.749999  0.749999  1
  Ir  Ir6  1  0.500431  0.499810  0.499810  1
  Ir  Ir7  1  0.000002  0.999975  0.999975  1
  Ir  Ir8  1  0.250165  0.249715  0.749701  1
  Ir  Ir9  1  0.750149  0.750008  0.250159  1
  Ir  Ir10  1  0.250165  0.749701  0.249715  1
  Ir  Ir11  1  0.750149  0.250159  0.750008  1
