# generated using pymatgen
data_PrEr5(WO7)2
_symmetry_space_group_name_H-M   'P 1'
_cell_length_a   6.48492333
_cell_length_b   6.48492553
_cell_length_c   7.52486900
_cell_angle_alpha   89.89770570
_cell_angle_beta   90.10228549
_cell_angle_gamma   108.87789662
_symmetry_Int_Tables_number   1
_chemical_formula_structural   PrEr5(WO7)2
_chemical_formula_sum   'Pr1 Er5 W2 O14'
_cell_volume   299.43005145
_cell_formula_units_Z   1
loop_
 _symmetry_equiv_pos_site_id
 _symmetry_equiv_pos_as_xyz
  1  'x, y, z'
loop_
 _atom_site_type_symbol
 _atom_site_label
 _atom_site_symmetry_multiplicity
 _atom_site_fract_x
 _atom_site_fract_y
 _atom_site_fract_z
 _atom_site_occupancy
  Pr  Pr0  1  0.501800  0.501800  0.500000  1
  Er  Er1  1  0.470889  0.470889  0.000000  1
  Er  Er2  1  0.000968  0.534377  0.243495  1
  Er  Er3  1  0.996167  0.468936  0.750951  1
  Er  Er4  1  0.534377  0.000968  0.756505  1
  Er  Er5  1  0.468936  0.996167  0.249049  1
  W  W6  1  0.000743  0.000743  0.500000  1
  W  W7  1  0.999504  0.999504  0.000000  1
  O  O8  1  0.926244  0.076324  0.749622  1
  O  O9  1  0.076324  0.926244  0.250378  1
  O  O10  1  0.358952  0.640094  0.238162  1
  O  O11  1  0.640094  0.358952  0.761838  1
  O  O12  1  0.363378  0.634578  0.762044  1
  O  O13  1  0.634578  0.363378  0.237956  1
  O  O14  1  0.326191  0.081626  0.972024  1
  O  O15  1  0.676643  0.927102  0.471489  1
  O  O16  1  0.321947  0.070175  0.533150  1
  O  O17  1  0.684333  0.939028  0.032860  1
  O  O18  1  0.070175  0.321947  0.466850  1
  O  O19  1  0.939028  0.684333  0.967140  1
  O  O20  1  0.927102  0.676643  0.528511  1
  O  O21  1  0.081626  0.326191  0.027976  1
