# generated using pymatgen
data_TbLuP7Ru12
_symmetry_space_group_name_H-M   'P 1'
_cell_length_a   9.40622300
_cell_length_b   9.40622182
_cell_length_c   3.95440600
_cell_angle_alpha   90.00000000
_cell_angle_beta   90.00000000
_cell_angle_gamma   120.00000063
_symmetry_Int_Tables_number   1
_chemical_formula_structural   TbLuP7Ru12
_chemical_formula_sum   'Tb1 Lu1 P7 Ru12'
_cell_volume   302.99982124
_cell_formula_units_Z   1
loop_
 _symmetry_equiv_pos_site_id
 _symmetry_equiv_pos_as_xyz
  1  'x, y, z'
loop_
 _atom_site_type_symbol
 _atom_site_label
 _atom_site_symmetry_multiplicity
 _atom_site_fract_x
 _atom_site_fract_y
 _atom_site_fract_z
 _atom_site_occupancy
  Tb  Tb0  1  0.333333  0.666667  0.000000  1
  Lu  Lu1  1  0.666667  0.333333  0.500000  1
  P  P2  1  0.601216  0.718863  0.500000  1
  P  P3  1  0.000000  0.000000  0.000000  1
  P  P4  1  0.281137  0.882354  0.500000  1
  P  P5  1  0.117646  0.398784  0.500000  1
  P  P6  1  0.884755  0.572775  0.000000  1
  P  P7  1  0.427225  0.311980  0.000000  1
  P  P8  1  0.688020  0.115245  0.000000  1
  Ru  Ru9  1  0.556938  0.951495  0.500000  1
  Ru  Ru10  1  0.394558  0.443062  0.500000  1
  Ru  Ru11  1  0.914874  0.121537  0.500000  1
  Ru  Ru12  1  0.206664  0.085126  0.500000  1
  Ru  Ru13  1  0.878463  0.793336  0.500000  1
  Ru  Ru14  1  0.727602  0.892345  0.000000  1
  Ru  Ru15  1  0.107655  0.835256  0.000000  1
  Ru  Ru16  1  0.164744  0.272398  0.000000  1
  Ru  Ru17  1  0.424037  0.067858  0.000000  1
  Ru  Ru18  1  0.932142  0.356180  0.000000  1
  Ru  Ru19  1  0.643820  0.575963  0.000000  1
  Ru  Ru20  1  0.048505  0.605442  0.500000  1
