# generated using pymatgen
data_DyMn4MoP3
_symmetry_space_group_name_H-M   'P 1'
_cell_length_a   3.66543000
_cell_length_b   10.77348200
_cell_length_c   12.28789500
_cell_angle_alpha   90.00000000
_cell_angle_beta   90.00000000
_cell_angle_gamma   90.00000000
_symmetry_Int_Tables_number   1
_chemical_formula_structural   DyMn4MoP3
_chemical_formula_sum   'Dy4 Mn16 Mo4 P12'
_cell_volume   485.24214304
_cell_formula_units_Z   4
loop_
 _symmetry_equiv_pos_site_id
 _symmetry_equiv_pos_as_xyz
  1  'x, y, z'
loop_
 _atom_site_type_symbol
 _atom_site_label
 _atom_site_symmetry_multiplicity
 _atom_site_fract_x
 _atom_site_fract_y
 _atom_site_fract_z
 _atom_site_occupancy
  Dy  Dy0  1  0.250000  0.587726  0.706730  1
  Dy  Dy1  1  0.250000  0.912274  0.206730  1
  Dy  Dy2  1  0.750000  0.412274  0.293270  1
  Dy  Dy3  1  0.750000  0.087726  0.793270  1
  Mn  Mn4  1  0.250000  0.411073  0.494142  1
  Mn  Mn5  1  0.250000  0.088927  0.994142  1
  Mn  Mn6  1  0.750000  0.588927  0.505858  1
  Mn  Mn7  1  0.750000  0.911073  0.005858  1
  Mn  Mn8  1  0.250000  0.210909  0.182451  1
  Mn  Mn9  1  0.250000  0.289091  0.682451  1
  Mn  Mn10  1  0.750000  0.789091  0.817549  1
  Mn  Mn11  1  0.750000  0.710909  0.317549  1
  Mn  Mn12  1  0.250000  0.884179  0.692856  1
  Mn  Mn13  1  0.250000  0.615821  0.192856  1
  Mn  Mn14  1  0.750000  0.115821  0.307144  1
  Mn  Mn15  1  0.750000  0.384179  0.807144  1
  Mn  Mn16  1  0.250000  0.465732  0.934986  1
  Mn  Mn17  1  0.250000  0.034268  0.434986  1
  Mn  Mn18  1  0.750000  0.534268  0.065014  1
  Mn  Mn19  1  0.750000  0.965732  0.565014  1
  Mo  Mo20  1  0.250000  0.711247  0.981518  1
  Mo  Mo21  1  0.250000  0.788753  0.481518  1
  Mo  Mo22  1  0.750000  0.288753  0.018482  1
  Mo  Mo23  1  0.750000  0.211247  0.518482  1
  P  P24  1  0.250000  0.414045  0.117521  1
  P  P25  1  0.250000  0.085955  0.617521  1
  P  P26  1  0.750000  0.585955  0.882479  1
  P  P27  1  0.750000  0.914045  0.382479  1
  P  P28  1  0.250000  0.264937  0.872804  1
  P  P29  1  0.250000  0.235063  0.372804  1
  P  P30  1  0.750000  0.735063  0.127196  1
  P  P31  1  0.750000  0.764937  0.627196  1
  P  P32  1  0.250000  0.589757  0.382943  1
  P  P33  1  0.250000  0.910243  0.882943  1
  P  P34  1  0.750000  0.410243  0.617057  1
  P  P35  1  0.750000  0.089757  0.117057  1
