# generated using pymatgen
data_Y3In3Ni2Hg
_symmetry_space_group_name_H-M   'P 1'
_cell_length_a   7.68470800
_cell_length_b   7.68470770
_cell_length_c   3.86386800
_cell_angle_alpha   90.00000000
_cell_angle_beta   90.00000000
_cell_angle_gamma   120.00000130
_symmetry_Int_Tables_number   1
_chemical_formula_structural   Y3In3Ni2Hg
_chemical_formula_sum   'Y3 In3 Ni2 Hg1'
_cell_volume   197.60941402
_cell_formula_units_Z   1
loop_
 _symmetry_equiv_pos_site_id
 _symmetry_equiv_pos_as_xyz
  1  'x, y, z'
loop_
 _atom_site_type_symbol
 _atom_site_label
 _atom_site_symmetry_multiplicity
 _atom_site_fract_x
 _atom_site_fract_y
 _atom_site_fract_z
 _atom_site_occupancy
  Y  Y0  1  0.023680  0.604857  0.500000  1
  Y  Y1  1  0.581177  0.976320  0.500000  1
  Y  Y2  1  0.395143  0.418823  0.500000  1
  In  In3  1  0.007769  0.251316  0.000000  1
  In  In4  1  0.243547  0.992231  0.000000  1
  In  In5  1  0.748684  0.756453  0.000000  1
  Ni  Ni6  1  0.000000  0.000000  0.500000  1
  Ni  Ni7  1  0.333333  0.666667  0.000000  1
  Hg  Hg8  1  0.666667  0.333333  0.000000  1
