# generated using pymatgen
data_Li3Ni2AuO6
_symmetry_space_group_name_H-M   'P 1'
_cell_length_a   5.22822256
_cell_length_b   9.04748660
_cell_length_c   5.17161644
_cell_angle_alpha   90.00045471
_cell_angle_beta   80.12015140
_cell_angle_gamma   149.91232022
_symmetry_Int_Tables_number   1
_chemical_formula_structural   Li3Ni2AuO6
_chemical_formula_sum   'Li3 Ni2 Au1 O6'
_cell_volume   115.23261983
_cell_formula_units_Z   1
loop_
 _symmetry_equiv_pos_site_id
 _symmetry_equiv_pos_as_xyz
  1  'x, y, z'
loop_
 _atom_site_type_symbol
 _atom_site_label
 _atom_site_symmetry_multiplicity
 _atom_site_fract_x
 _atom_site_fract_y
 _atom_site_fract_z
 _atom_site_occupancy
  Li  Li0  1  0.999391  0.999664  0.000102  1
  Li  Li1  1  0.000445  0.337584  0.999999  1
  Li  Li2  1  0.000379  0.662863  0.000005  1
  Ni  Ni3  1  0.999859  0.166699  0.499910  1
  Ni  Ni4  1  0.000216  0.833369  0.499976  1
  Au  Au5  1  0.999955  0.499926  0.499978  1
  O  O6  1  0.508580  0.254275  0.267153  1
  O  O7  1  0.481991  0.902897  0.263998  1
  O  O8  1  0.482024  0.579139  0.263990  1
  O  O9  1  0.517994  0.097069  0.735936  1
  O  O10  1  0.517890  0.420862  0.735960  1
  O  O11  1  0.491414  0.745723  0.732880  1
