# generated using pymatgen
data_Tm4Sc8Al(InFe)2
_symmetry_space_group_name_H-M   'P 1'
_cell_length_a   7.98829781
_cell_length_b   7.98829659
_cell_length_c   7.98829736
_cell_angle_alpha   109.28798998
_cell_angle_beta   109.28798748
_cell_angle_gamma   109.83831740
_symmetry_Int_Tables_number   1
_chemical_formula_structural   Tm4Sc8Al(InFe)2
_chemical_formula_sum   'Tm4 Sc8 Al1 In2 Fe2'
_cell_volume   392.39849753
_cell_formula_units_Z   1
loop_
 _symmetry_equiv_pos_site_id
 _symmetry_equiv_pos_as_xyz
  1  'x, y, z'
loop_
 _atom_site_type_symbol
 _atom_site_label
 _atom_site_symmetry_multiplicity
 _atom_site_fract_x
 _atom_site_fract_y
 _atom_site_fract_z
 _atom_site_occupancy
  Tm  Tm0  1  0.300619  0.300619  0.601236  1
  Tm  Tm1  1  0.699381  0.699381  0.398764  1
  Tm  Tm2  1  0.699381  0.300619  0.000000  1
  Tm  Tm3  1  0.300619  0.699381  0.000000  1
  Sc  Sc4  1  0.204813  0.446694  0.241881  1
  Sc  Sc5  1  0.795187  0.553306  0.758119  1
  Sc  Sc6  1  0.204813  0.962933  0.758119  1
  Sc  Sc7  1  0.962933  0.204813  0.758119  1
  Sc  Sc8  1  0.795187  0.037067  0.241881  1
  Sc  Sc9  1  0.037067  0.795187  0.241881  1
  Sc  Sc10  1  0.446694  0.204813  0.241881  1
  Sc  Sc11  1  0.553306  0.795187  0.758119  1
  Al  Al12  1  0.000000  0.000000  0.000000  1
  In  In13  1  0.000000  0.500000  0.500000  1
  In  In14  1  0.500000  0.000000  0.500000  1
  Fe  Fe15  1  0.379637  0.379637  0.000000  1
  Fe  Fe16  1  0.620363  0.620363  0.000000  1
