# generated using pymatgen
data_LiEr6Cd5C2
_symmetry_space_group_name_H-M   'P 1'
_cell_length_a   9.45101159
_cell_length_b   9.48084216
_cell_length_c   9.49806006
_cell_angle_alpha   120.26855390
_cell_angle_beta   89.63781770
_cell_angle_gamma   120.10549262
_symmetry_Int_Tables_number   1
_chemical_formula_structural   LiEr6Cd5C2
_chemical_formula_sum   'Li2 Er12 Cd10 C4'
_cell_volume   600.27789331
_cell_formula_units_Z   2
loop_
 _symmetry_equiv_pos_site_id
 _symmetry_equiv_pos_as_xyz
  1  'x, y, z'
loop_
 _atom_site_type_symbol
 _atom_site_label
 _atom_site_symmetry_multiplicity
 _atom_site_fract_x
 _atom_site_fract_y
 _atom_site_fract_z
 _atom_site_occupancy
  Li  Li0  1  0.000038  0.999923  0.000260  1
  Li  Li1  1  0.499795  0.999810  0.999850  1
  Er  Er2  1  0.939311  0.378649  0.189307  1
  Er  Er3  1  0.935698  0.749012  0.187156  1
  Er  Er4  1  0.311183  0.749757  0.189403  1
  Er  Er5  1  0.686776  0.250830  0.438102  1
  Er  Er6  1  0.687675  0.875332  0.437628  1
  Er  Er7  1  0.061520  0.250249  0.439629  1
  Er  Er8  1  0.312392  0.124776  0.562377  1
  Er  Er9  1  0.313317  0.748992  0.561794  1
  Er  Er10  1  0.938575  0.749756  0.560318  1
  Er  Er11  1  0.688731  0.250254  0.810576  1
  Er  Er12  1  0.060513  0.621014  0.810483  1
  Er  Er13  1  0.064062  0.250827  0.812681  1
  Cd  Cd14  1  0.499827  0.500978  0.000215  1
  Cd  Cd15  1  0.708511  0.919725  0.117988  1
  Cd  Cd16  1  0.288855  0.080146  0.198049  1
  Cd  Cd17  1  0.284360  0.403022  0.201882  1
  Cd  Cd18  1  0.618665  0.403146  0.201482  1
  Cd  Cd19  1  0.500793  0.500198  0.499991  1
  Cd  Cd20  1  0.380776  0.596852  0.799432  1
  Cd  Cd21  1  0.716141  0.596979  0.797698  1
  Cd  Cd22  1  0.711421  0.920069  0.801882  1
  Cd  Cd23  1  0.291111  0.079824  0.881938  1
  C  C24  1  0.999978  0.500085  0.000156  1
  C  C25  1  0.000076  0.999864  0.499895  1
  C  C26  1  0.499792  0.999845  0.499935  1
  C  C27  1  0.000116  0.500099  0.499898  1
