# generated using pymatgen
data_NdB2IrOs
_symmetry_space_group_name_H-M   'P 1'
_cell_length_a   6.94130172
_cell_length_b   6.07896214
_cell_length_c   5.62101635
_cell_angle_alpha   72.66015879
_cell_angle_beta   56.71662485
_cell_angle_gamma   50.62321842
_symmetry_Int_Tables_number   1
_chemical_formula_structural   NdB2IrOs
_chemical_formula_sum   'Nd2 B4 Ir2 Os2'
_cell_volume   152.80526737
_cell_formula_units_Z   2
loop_
 _symmetry_equiv_pos_site_id
 _symmetry_equiv_pos_as_xyz
  1  'x, y, z'
loop_
 _atom_site_type_symbol
 _atom_site_label
 _atom_site_symmetry_multiplicity
 _atom_site_fract_x
 _atom_site_fract_y
 _atom_site_fract_z
 _atom_site_occupancy
  Nd  Nd0  1  0.500000  0.500000  0.500000  1
  Nd  Nd1  1  0.750000  0.750000  0.750000  1
  B  B2  1  0.175838  0.824162  0.175838  1
  B  B3  1  0.063094  0.436906  0.063094  1
  B  B4  1  0.824162  0.175838  0.824162  1
  B  B5  1  0.436906  0.063094  0.436906  1
  Ir  Ir6  1  0.383831  0.383831  0.116169  1
  Ir  Ir7  1  0.116169  0.116169  0.383831  1
  Os  Os8  1  0.865095  0.865095  0.134905  1
  Os  Os9  1  0.134905  0.134905  0.865095  1
