# generated using pymatgen
data_KAl3S5
_symmetry_space_group_name_H-M   'P 1'
_cell_length_a   12.80213000
_cell_length_b   6.94954416
_cell_length_c   10.43366324
_cell_angle_alpha   88.77366852
_cell_angle_beta   90.00000000
_cell_angle_gamma   90.00000000
_symmetry_Int_Tables_number   1
_chemical_formula_structural   KAl3S5
_chemical_formula_sum   'K4 Al12 S20'
_cell_volume   928.05963190
_cell_formula_units_Z   4
loop_
 _symmetry_equiv_pos_site_id
 _symmetry_equiv_pos_as_xyz
  1  'x, y, z'
loop_
 _atom_site_type_symbol
 _atom_site_label
 _atom_site_symmetry_multiplicity
 _atom_site_fract_x
 _atom_site_fract_y
 _atom_site_fract_z
 _atom_site_occupancy
  K  K0  1  0.401234  0.866963  0.361090  1
  K  K1  1  0.098766  0.366963  0.361090  1
  K  K2  1  0.901234  0.633037  0.638910  1
  K  K3  1  0.598766  0.133037  0.638910  1
  Al  Al4  1  0.801662  0.988920  0.339585  1
  Al  Al5  1  0.198338  0.011080  0.660415  1
  Al  Al6  1  0.301662  0.511080  0.660415  1
  Al  Al7  1  0.463207  0.395638  0.132694  1
  Al  Al8  1  0.698338  0.488920  0.339585  1
  Al  Al9  1  0.724219  0.270435  0.013046  1
  Al  Al10  1  0.963207  0.104362  0.867306  1
  Al  Al11  1  0.036793  0.895638  0.132694  1
  Al  Al12  1  0.775781  0.770435  0.013046  1
  Al  Al13  1  0.275781  0.729565  0.986954  1
  Al  Al14  1  0.536793  0.604362  0.867306  1
  Al  Al15  1  0.224219  0.229565  0.986954  1
  S  S16  1  0.285904  0.997116  0.857804  1
  S  S17  1  0.552125  0.292434  0.951610  1
  S  S18  1  0.714096  0.002884  0.142196  1
  S  S19  1  0.202994  0.731042  0.554357  1
  S  S20  1  0.702994  0.768958  0.445643  1
  S  S21  1  0.297006  0.231042  0.554357  1
  S  S22  1  0.785904  0.502884  0.142196  1
  S  S23  1  0.214096  0.497116  0.857804  1
  S  S24  1  0.966254  0.878639  0.325927  1
  S  S25  1  0.533746  0.378639  0.325927  1
  S  S26  1  0.033746  0.121361  0.674073  1
  S  S27  1  0.447875  0.707566  0.048390  1
  S  S28  1  0.947875  0.792434  0.951610  1
  S  S29  1  0.052125  0.207566  0.048390  1
  S  S30  1  0.797006  0.268958  0.445643  1
  S  S31  1  0.812885  0.257979  0.831921  1
  S  S32  1  0.687115  0.757979  0.831921  1
  S  S33  1  0.312885  0.242021  0.168079  1
  S  S34  1  0.187115  0.742021  0.168079  1
  S  S35  1  0.466254  0.621361  0.674073  1
