# generated using pymatgen
data_Tb2Y6Be3Si12Ni
_symmetry_space_group_name_H-M   'P 1'
_cell_length_a   7.88223300
_cell_length_b   7.88223324
_cell_length_c   8.12032400
_cell_angle_alpha   90.00000000
_cell_angle_beta   90.00000000
_cell_angle_gamma   120.00000321
_symmetry_Int_Tables_number   1
_chemical_formula_structural   Tb2Y6Be3Si12Ni
_chemical_formula_sum   'Tb2 Y6 Be3 Si12 Ni1'
_cell_volume   436.92060424
_cell_formula_units_Z   1
loop_
 _symmetry_equiv_pos_site_id
 _symmetry_equiv_pos_as_xyz
  1  'x, y, z'
loop_
 _atom_site_type_symbol
 _atom_site_label
 _atom_site_symmetry_multiplicity
 _atom_site_fract_x
 _atom_site_fract_y
 _atom_site_fract_z
 _atom_site_occupancy
  Tb  Tb0  1  0.000000  0.000000  0.249882  1
  Tb  Tb1  1  0.000000  0.000000  0.750021  1
  Y  Y2  1  0.499989  0.999979  0.249288  1
  Y  Y3  1  0.500303  0.000609  0.750666  1
  Y  Y4  1  0.000021  0.500011  0.249288  1
  Y  Y5  1  0.999391  0.499697  0.750666  1
  Y  Y6  1  0.499989  0.500011  0.249288  1
  Y  Y7  1  0.500303  0.499697  0.750666  1
  Be  Be8  1  0.333333  0.666667  0.000761  1
  Be  Be9  1  0.666667  0.333333  0.000711  1
  Be  Be10  1  0.666667  0.333333  0.498610  1
  Si  Si11  1  0.172265  0.344528  0.999549  1
  Si  Si12  1  0.826766  0.653533  0.000326  1
  Si  Si13  1  0.655472  0.827735  0.999549  1
  Si  Si14  1  0.829057  0.658114  0.500053  1
  Si  Si15  1  0.346467  0.173234  0.000326  1
  Si  Si16  1  0.172721  0.345441  0.499829  1
  Si  Si17  1  0.172265  0.827735  0.999549  1
  Si  Si18  1  0.341886  0.170943  0.500053  1
  Si  Si19  1  0.826766  0.173234  0.000326  1
  Si  Si20  1  0.654559  0.827279  0.499829  1
  Si  Si21  1  0.829057  0.170943  0.500053  1
  Si  Si22  1  0.172721  0.827279  0.499829  1
  Ni  Ni23  1  0.333333  0.666667  0.500874  1
