# generated using pymatgen
data_HfCo21B6Mo
_symmetry_space_group_name_H-M   'P 1'
_cell_length_a   7.41814400
_cell_length_b   7.41814405
_cell_length_c   7.41814400
_cell_angle_alpha   119.99999977
_cell_angle_beta   90.00000000
_cell_angle_gamma   119.99999977
_symmetry_Int_Tables_number   1
_chemical_formula_structural   HfCo21B6Mo
_chemical_formula_sum   'Hf1 Co21 B6 Mo1'
_cell_volume   288.64948494
_cell_formula_units_Z   1
loop_
 _symmetry_equiv_pos_site_id
 _symmetry_equiv_pos_as_xyz
  1  'x, y, z'
loop_
 _atom_site_type_symbol
 _atom_site_label
 _atom_site_symmetry_multiplicity
 _atom_site_fract_x
 _atom_site_fract_y
 _atom_site_fract_z
 _atom_site_occupancy
  Hf  Hf0  1  0.750000  0.500000  0.250000  1
  Co  Co1  1  0.000000  0.000000  0.000000  1
  Co  Co2  1  0.336854  0.997980  0.998990  1
  Co  Co3  1  0.661126  0.997980  0.998990  1
  Co  Co4  1  0.001010  0.337864  0.998990  1
  Co  Co5  1  0.336854  0.337864  0.998990  1
  Co  Co6  1  0.001010  0.662136  0.998990  1
  Co  Co7  1  0.661126  0.662136  0.998990  1
  Co  Co8  1  0.379915  0.759830  0.139743  1
  Co  Co9  1  0.001010  0.002020  0.338874  1
  Co  Co10  1  0.001010  0.337864  0.338874  1
  Co  Co11  1  0.336854  0.337864  0.338874  1
  Co  Co12  1  0.612086  0.224172  0.387914  1
  Co  Co13  1  0.163741  0.775828  0.387914  1
  Co  Co14  1  0.612086  0.775828  0.387914  1
  Co  Co15  1  0.379915  0.240170  0.620085  1
  Co  Co16  1  0.860257  0.240170  0.620085  1
  Co  Co17  1  0.379915  0.759830  0.620085  1
  Co  Co18  1  0.001010  0.002020  0.663146  1
  Co  Co19  1  0.001010  0.662136  0.663146  1
  Co  Co20  1  0.661126  0.662136  0.663146  1
  Co  Co21  1  0.612086  0.224172  0.836259  1
  B  B22  1  0.273661  0.000000  0.273661  1
  B  B23  1  0.726339  0.000000  0.273661  1
  B  B24  1  0.273661  0.547323  0.273661  1
  B  B25  1  0.726339  0.000000  0.726339  1
  B  B26  1  0.273661  0.000000  0.726339  1
  B  B27  1  0.726339  0.452678  0.726339  1
  Mo  Mo28  1  0.250000  0.500000  0.750000  1
