# generated using pymatgen
data_Ta6AlGa5Fe12
_symmetry_space_group_name_H-M   'P 1'
_cell_length_a   4.18174500
_cell_length_b   5.91519000
_cell_length_c   12.54496400
_cell_angle_alpha   90.00000000
_cell_angle_beta   89.99824622
_cell_angle_gamma   90.00000000
_symmetry_Int_Tables_number   1
_chemical_formula_structural   Ta6AlGa5Fe12
_chemical_formula_sum   'Ta6 Al1 Ga5 Fe12'
_cell_volume   310.30992382
_cell_formula_units_Z   1
loop_
 _symmetry_equiv_pos_site_id
 _symmetry_equiv_pos_as_xyz
  1  'x, y, z'
loop_
 _atom_site_type_symbol
 _atom_site_label
 _atom_site_symmetry_multiplicity
 _atom_site_fract_x
 _atom_site_fract_y
 _atom_site_fract_z
 _atom_site_occupancy
  Ta  Ta0  1  0.000000  0.000000  0.000000  1
  Ta  Ta1  1  0.500028  0.500000  0.166745  1
  Ta  Ta2  1  0.000047  0.000000  0.333323  1
  Ta  Ta3  1  0.500000  0.500000  0.500000  1
  Ta  Ta4  1  0.999953  0.000000  0.666677  1
  Ta  Ta5  1  0.499972  0.500000  0.833255  1
  Al  Al6  1  0.000000  0.500000  0.000000  1
  Ga  Ga7  1  0.500084  0.000000  0.166697  1
  Ga  Ga8  1  0.000115  0.500000  0.333282  1
  Ga  Ga9  1  0.500000  0.000000  0.500000  1
  Ga  Ga10  1  0.999885  0.500000  0.666718  1
  Ga  Ga11  1  0.499916  0.000000  0.833304  1
  Fe  Fe12  1  0.500000  0.251790  0.000000  1
  Fe  Fe13  1  0.500000  0.748211  0.000000  1
  Fe  Fe14  1  0.000210  0.250766  0.166091  1
  Fe  Fe15  1  0.000210  0.749235  0.166091  1
  Fe  Fe16  1  0.500127  0.249846  0.333490  1
  Fe  Fe17  1  0.500127  0.750155  0.333490  1
  Fe  Fe18  1  0.000000  0.250010  0.500000  1
  Fe  Fe19  1  0.000000  0.749991  0.500000  1
  Fe  Fe20  1  0.499872  0.249846  0.666509  1
  Fe  Fe21  1  0.499872  0.750155  0.666509  1
  Fe  Fe22  1  0.999790  0.250766  0.833910  1
  Fe  Fe23  1  0.999790  0.749235  0.833910  1
