# generated using pymatgen
data_Li4GaAuO6
_symmetry_space_group_name_H-M   'P 1'
_cell_length_a   5.18364398
_cell_length_b   5.18364886
_cell_length_c   5.18244686
_cell_angle_alpha   99.73941239
_cell_angle_beta   99.73954790
_cell_angle_gamma   119.83721542
_symmetry_Int_Tables_number   1
_chemical_formula_structural   Li4GaAuO6
_chemical_formula_sum   'Li4 Ga1 Au1 O6'
_cell_volume   113.70641261
_cell_formula_units_Z   1
loop_
 _symmetry_equiv_pos_site_id
 _symmetry_equiv_pos_as_xyz
  1  'x, y, z'
loop_
 _atom_site_type_symbol
 _atom_site_label
 _atom_site_symmetry_multiplicity
 _atom_site_fract_x
 _atom_site_fract_y
 _atom_site_fract_z
 _atom_site_occupancy
  Li  Li0  1  0.500206  0.499795  0.000001  1
  Li  Li1  1  0.332021  0.667978  0.500000  1
  Li  Li2  1  0.660374  0.339628  0.500000  1
  Li  Li3  1  0.007498  0.992504  0.500001  1
  Ga  Ga4  1  0.833473  0.166528  0.000001  1
  Au  Au5  1  0.166829  0.833173  0.000001  1
  O  O6  1  0.580575  0.930855  0.232905  1
  O  O7  1  0.927667  0.575186  0.231531  1
  O  O8  1  0.225025  0.227627  0.236556  1
  O  O9  1  0.772375  0.774977  0.763445  1
  O  O10  1  0.424815  0.072335  0.768472  1
  O  O11  1  0.069147  0.419426  0.767098  1
