# generated using pymatgen
data_Tb11Zn(In3Ru)3
_symmetry_space_group_name_H-M   'P 1'
_cell_length_a   3.75798200
_cell_length_b   13.06514856
_cell_length_c   12.99824200
_cell_angle_alpha   111.41137355
_cell_angle_beta   90.00000000
_cell_angle_gamma   90.00000000
_symmetry_Int_Tables_number   1
_chemical_formula_structural   Tb11Zn(In3Ru)3
_chemical_formula_sum   'Tb11 Zn1 In9 Ru3'
_cell_volume   594.14929797
_cell_formula_units_Z   1
loop_
 _symmetry_equiv_pos_site_id
 _symmetry_equiv_pos_as_xyz
  1  'x, y, z'
loop_
 _atom_site_type_symbol
 _atom_site_label
 _atom_site_symmetry_multiplicity
 _atom_site_fract_x
 _atom_site_fract_y
 _atom_site_fract_z
 _atom_site_occupancy
  Tb  Tb0  1  0.000000  0.933888  0.584548  1
  Tb  Tb1  1  0.000000  0.084923  0.421604  1
  Tb  Tb2  1  0.000000  0.579900  0.920476  1
  Tb  Tb3  1  0.000000  0.416671  0.079255  1
  Tb  Tb4  1  0.000000  0.162525  0.838833  1
  Tb  Tb5  1  0.000000  0.837836  0.161787  1
  Tb  Tb6  1  0.000000  0.373711  0.624808  1
  Tb  Tb7  1  0.000000  0.616121  0.360006  1
  Tb  Tb8  1  0.000000  0.679894  0.696302  1
  Tb  Tb9  1  0.000000  0.310737  0.311914  1
  Tb  Tb10  1  0.000000  0.000440  0.000128  1
  Zn  Zn11  1  0.500000  0.750057  0.548550  1
  In  In12  1  0.500000  0.162458  0.632863  1
  In  In13  1  0.500000  0.846706  0.369657  1
  In  In14  1  0.500000  0.630938  0.158941  1
  In  In15  1  0.500000  0.367679  0.842324  1
  In  In16  1  0.500000  0.929478  0.781673  1
  In  In17  1  0.500000  0.072782  0.218819  1
  In  In18  1  0.500000  0.779124  0.923543  1
  In  In19  1  0.500000  0.217821  0.075194  1
  In  In20  1  0.500000  0.500982  0.498540  1
  Ru  Ru21  1  0.500000  0.252721  0.450278  1
  Ru  Ru22  1  0.500000  0.546789  0.750722  1
  Ru  Ru23  1  0.500000  0.445817  0.249236  1
