# generated using pymatgen
data_SmPaRh2Pb
_symmetry_space_group_name_H-M   'P 1'
_cell_length_a   7.87231714
_cell_length_b   7.87231704
_cell_length_c   3.63756000
_cell_angle_alpha   90.00000000
_cell_angle_beta   90.00000000
_cell_angle_gamma   95.63345488
_symmetry_Int_Tables_number   1
_chemical_formula_structural   SmPaRh2Pb
_chemical_formula_sum   'Sm2 Pa2 Rh4 Pb2'
_cell_volume   224.34309587
_cell_formula_units_Z   2
loop_
 _symmetry_equiv_pos_site_id
 _symmetry_equiv_pos_as_xyz
  1  'x, y, z'
loop_
 _atom_site_type_symbol
 _atom_site_label
 _atom_site_symmetry_multiplicity
 _atom_site_fract_x
 _atom_site_fract_y
 _atom_site_fract_z
 _atom_site_occupancy
  Sm  Sm0  1  0.171169  0.328831  0.500000  1
  Sm  Sm1  1  0.828831  0.671169  0.500000  1
  Pa  Pa2  1  0.669181  0.169181  0.500000  1
  Pa  Pa3  1  0.330819  0.830819  0.500000  1
  Rh  Rh4  1  0.147766  0.647766  0.000000  1
  Rh  Rh5  1  0.852234  0.352234  0.000000  1
  Rh  Rh6  1  0.619427  0.880573  0.000000  1
  Rh  Rh7  1  0.380573  0.119427  0.000000  1
  Pb  Pb8  1  0.000000  0.000000  0.000000  1
  Pb  Pb9  1  0.500000  0.500000  0.000000  1
