# generated using pymatgen
data_Tm2BPtRh5
_symmetry_space_group_name_H-M   'P 1'
_cell_length_a   5.82461700
_cell_length_b   5.80118273
_cell_length_c   5.80118352
_cell_angle_alpha   60.26742596
_cell_angle_beta   59.86627847
_cell_angle_gamma   59.86628157
_symmetry_Int_Tables_number   1
_chemical_formula_structural   Tm2BPtRh5
_chemical_formula_sum   'Tm2 B1 Pt1 Rh5'
_cell_volume   138.60255914
_cell_formula_units_Z   1
loop_
 _symmetry_equiv_pos_site_id
 _symmetry_equiv_pos_as_xyz
  1  'x, y, z'
loop_
 _atom_site_type_symbol
 _atom_site_label
 _atom_site_symmetry_multiplicity
 _atom_site_fract_x
 _atom_site_fract_y
 _atom_site_fract_z
 _atom_site_occupancy
  Tm  Tm0  1  0.250377  0.249623  0.249623  1
  Tm  Tm1  1  0.750377  0.749623  0.749623  1
  B  B2  1  0.997040  0.002960  0.002960  1
  Pt  Pt3  1  0.259164  0.740837  0.740837  1
  Rh  Rh4  1  0.256916  0.743085  0.256114  1
  Rh  Rh5  1  0.741438  0.258563  0.258563  1
  Rh  Rh6  1  0.743887  0.743085  0.256114  1
  Rh  Rh7  1  0.256916  0.256114  0.743085  1
  Rh  Rh8  1  0.743887  0.256114  0.743085  1
