# generated using pymatgen
data_Dy2HoIn3HgPt2
_symmetry_space_group_name_H-M   'P 1'
_cell_length_a   7.71547624
_cell_length_b   7.71840060
_cell_length_c   4.00162600
_cell_angle_alpha   90.00000000
_cell_angle_beta   90.00000000
_cell_angle_gamma   120.01589103
_symmetry_Int_Tables_number   1
_chemical_formula_structural   Dy2HoIn3HgPt2
_chemical_formula_sum   'Dy2 Ho1 In3 Hg1 Pt2'
_cell_volume   206.34199063
_cell_formula_units_Z   1
loop_
 _symmetry_equiv_pos_site_id
 _symmetry_equiv_pos_as_xyz
  1  'x, y, z'
loop_
 _atom_site_type_symbol
 _atom_site_label
 _atom_site_symmetry_multiplicity
 _atom_site_fract_x
 _atom_site_fract_y
 _atom_site_fract_z
 _atom_site_occupancy
  Dy  Dy0  1  0.607955  0.019183  0.500000  1
  Dy  Dy1  1  0.411224  0.392102  0.500000  1
  Ho  Ho2  1  0.980689  0.588791  0.500000  1
  In  In3  1  0.747580  0.743603  0.000000  1
  In  In4  1  0.996217  0.252609  0.000000  1
  In  In5  1  0.256222  0.003670  0.000000  1
  Hg  Hg6  1  0.333055  0.666594  0.000000  1
  Pt  Pt7  1  0.667068  0.333641  0.000000  1
  Pt  Pt8  1  0.999989  0.999808  0.500000  1
