# generated using pymatgen
data_Ta3Ti3(Fe5B2)2
_symmetry_space_group_name_H-M   'P 1'
_cell_length_a   8.70556570
_cell_length_b   8.70556582
_cell_length_c   2.92098200
_cell_angle_alpha   90.00000000
_cell_angle_beta   90.00000000
_cell_angle_gamma   89.85629247
_symmetry_Int_Tables_number   1
_chemical_formula_structural   Ta3Ti3(Fe5B2)2
_chemical_formula_sum   'Ta3 Ti3 Fe10 B4'
_cell_volume   221.37140188
_cell_formula_units_Z   1
loop_
 _symmetry_equiv_pos_site_id
 _symmetry_equiv_pos_as_xyz
  1  'x, y, z'
loop_
 _atom_site_type_symbol
 _atom_site_label
 _atom_site_symmetry_multiplicity
 _atom_site_fract_x
 _atom_site_fract_y
 _atom_site_fract_z
 _atom_site_occupancy
  Ta  Ta0  1  0.174725  0.325275  0.000000  1
  Ta  Ta1  1  0.324091  0.823057  0.000000  1
  Ta  Ta2  1  0.676943  0.175909  0.000000  1
  Ti  Ti3  1  0.823928  0.676072  0.000000  1
  Ti  Ti4  1  0.502009  0.500812  0.000000  1
  Ti  Ti5  1  0.999188  0.997991  0.000000  1
  Fe  Fe6  1  0.569039  0.719689  0.500000  1
  Fe  Fe7  1  0.430462  0.280759  0.500000  1
  Fe  Fe8  1  0.069296  0.780065  0.500000  1
  Fe  Fe9  1  0.931953  0.219646  0.500000  1
  Fe  Fe10  1  0.280354  0.568047  0.500000  1
  Fe  Fe11  1  0.719935  0.430704  0.500000  1
  Fe  Fe12  1  0.219241  0.069538  0.500000  1
  Fe  Fe13  1  0.780311  0.930961  0.500000  1
  Fe  Fe14  1  0.499967  0.000033  0.500000  1
  Fe  Fe15  1  0.998262  0.501738  0.500000  1
  B  B16  1  0.623058  0.876942  0.000000  1
  B  B17  1  0.378701  0.121299  0.000000  1
  B  B18  1  0.120073  0.621537  0.000000  1
  B  B19  1  0.878463  0.379927  0.000000  1
