# generated using pymatgen
data_Pr20Si3Ir4Au5
_symmetry_space_group_name_H-M   'P 1'
_cell_length_a   8.05975974
_cell_length_b   9.12321485
_cell_length_c   12.43166390
_cell_angle_alpha   91.36309042
_cell_angle_beta   89.95344701
_cell_angle_gamma   89.66258595
_symmetry_Int_Tables_number   1
_chemical_formula_structural   Pr20Si3Ir4Au5
_chemical_formula_sum   'Pr20 Si3 Ir4 Au5'
_cell_volume   913.83674528
_cell_formula_units_Z   1
loop_
 _symmetry_equiv_pos_site_id
 _symmetry_equiv_pos_as_xyz
  1  'x, y, z'
loop_
 _atom_site_type_symbol
 _atom_site_label
 _atom_site_symmetry_multiplicity
 _atom_site_fract_x
 _atom_site_fract_y
 _atom_site_fract_z
 _atom_site_occupancy
  Pr  Pr0  1  0.671201  0.739689  0.718376  1
  Pr  Pr1  1  0.336117  0.255577  0.278682  1
  Pr  Pr2  1  0.167845  0.260498  0.782501  1
  Pr  Pr3  1  0.825289  0.740448  0.217183  1
  Pr  Pr4  1  0.138022  0.737579  0.807136  1
  Pr  Pr5  1  0.858477  0.255846  0.192821  1
  Pr  Pr6  1  0.640581  0.262730  0.693818  1
  Pr  Pr7  1  0.367973  0.743369  0.305985  1
  Pr  Pr8  1  0.542735  0.739439  0.999734  1
  Pr  Pr9  1  0.455635  0.260002  0.997567  1
  Pr  Pr10  1  0.044402  0.255518  0.498499  1
  Pr  Pr11  1  0.954782  0.748078  0.501750  1
  Pr  Pr12  1  0.817225  0.463377  0.921069  1
  Pr  Pr13  1  0.182080  0.536539  0.080902  1
  Pr  Pr14  1  0.317915  0.536753  0.585658  1
  Pr  Pr15  1  0.174314  0.963970  0.084656  1
  Pr  Pr16  1  0.676834  0.463710  0.420103  1
  Pr  Pr17  1  0.823147  0.033178  0.914889  1
  Pr  Pr18  1  0.674497  0.036579  0.417079  1
  Pr  Pr19  1  0.325983  0.965366  0.587122  1
  Si  Si20  1  0.941063  0.493274  0.671601  1
  Si  Si21  1  0.559454  0.492631  0.169333  1
  Si  Si22  1  0.443315  0.505005  0.827446  1
  Ir  Ir23  1  0.928954  0.750887  0.993807  1
  Ir  Ir24  1  0.069308  0.247831  0.007017  1
  Ir  Ir25  1  0.426393  0.250294  0.506409  1
  Ir  Ir26  1  0.573067  0.751920  0.493372  1
  Au  Au27  1  0.938743  0.012209  0.669533  1
  Au  Au28  1  0.061070  0.987918  0.330870  1
  Au  Au29  1  0.436877  0.986941  0.833742  1
  Au  Au30  1  0.062405  0.510115  0.326119  1
  Au  Au31  1  0.564294  0.012729  0.165223  1
