# generated using pymatgen
data_Ba4TbPdO8
_symmetry_space_group_name_H-M   'P 1'
_cell_length_a   7.40661362
_cell_length_b   7.40661391
_cell_length_c   5.99035300
_cell_angle_alpha   90.00000000
_cell_angle_beta   90.00000000
_cell_angle_gamma   132.43777309
_symmetry_Int_Tables_number   1
_chemical_formula_structural   Ba4TbPdO8
_chemical_formula_sum   'Ba4 Tb1 Pd1 O8'
_cell_volume   242.52383773
_cell_formula_units_Z   1
loop_
 _symmetry_equiv_pos_site_id
 _symmetry_equiv_pos_as_xyz
  1  'x, y, z'
loop_
 _atom_site_type_symbol
 _atom_site_label
 _atom_site_symmetry_multiplicity
 _atom_site_fract_x
 _atom_site_fract_y
 _atom_site_fract_z
 _atom_site_occupancy
  Ba  Ba0  1  0.357498  0.642502  0.000000  1
  Ba  Ba1  1  0.855064  0.144936  0.500000  1
  Ba  Ba2  1  0.144936  0.855064  0.500000  1
  Ba  Ba3  1  0.642502  0.357498  0.000000  1
  Tb  Tb4  1  0.000000  0.000000  0.000000  1
  Pd  Pd5  1  0.500000  0.500000  0.500000  1
  O  O6  1  0.259911  0.259911  0.735897  1
  O  O7  1  0.740089  0.740089  0.264103  1
  O  O8  1  0.740089  0.740089  0.735897  1
  O  O9  1  0.259911  0.259911  0.264103  1
  O  O10  1  0.166975  0.833025  0.000000  1
  O  O11  1  0.653596  0.346404  0.500000  1
  O  O12  1  0.346404  0.653596  0.500000  1
  O  O13  1  0.833025  0.166975  0.000000  1
