# generated using pymatgen
data_Y3Pa(InPd2)2
_symmetry_space_group_name_H-M   'P 1'
_cell_length_a   7.77757848
_cell_length_b   7.77757848
_cell_length_c   3.70988000
_cell_angle_alpha   90.00000000
_cell_angle_beta   90.00000000
_cell_angle_gamma   91.89413190
_symmetry_Int_Tables_number   1
_chemical_formula_structural   Y3Pa(InPd2)2
_chemical_formula_sum   'Y3 Pa1 In2 Pd4'
_cell_volume   224.29072016
_cell_formula_units_Z   1
loop_
 _symmetry_equiv_pos_site_id
 _symmetry_equiv_pos_as_xyz
  1  'x, y, z'
loop_
 _atom_site_type_symbol
 _atom_site_label
 _atom_site_symmetry_multiplicity
 _atom_site_fract_x
 _atom_site_fract_y
 _atom_site_fract_z
 _atom_site_occupancy
  Y  Y0  1  0.323720  0.823720  0.500000  1
  Y  Y1  1  0.176294  0.328202  0.500000  1
  Y  Y2  1  0.828202  0.676294  0.500000  1
  Pa  Pa3  1  0.670397  0.170397  0.500000  1
  In  In4  1  0.500716  0.504138  0.000000  1
  In  In5  1  0.004138  0.000716  0.000000  1
  Pd  Pd6  1  0.121177  0.621177  0.000000  1
  Pd  Pd7  1  0.859595  0.359595  0.000000  1
  Pd  Pd8  1  0.632299  0.883462  0.000000  1
  Pd  Pd9  1  0.383462  0.132299  0.000000  1
