# generated using pymatgen
data_Dy3In4IrRu
_symmetry_space_group_name_H-M   'P 1'
_cell_length_a   8.06482800
_cell_length_b   8.06482770
_cell_length_c   3.63509800
_cell_angle_alpha   90.00000000
_cell_angle_beta   90.00000000
_cell_angle_gamma   120.00000944
_symmetry_Int_Tables_number   1
_chemical_formula_structural   Dy3In4IrRu
_chemical_formula_sum   'Dy3 In4 Ir1 Ru1'
_cell_volume   204.75613206
_cell_formula_units_Z   1
loop_
 _symmetry_equiv_pos_site_id
 _symmetry_equiv_pos_as_xyz
  1  'x, y, z'
loop_
 _atom_site_type_symbol
 _atom_site_label
 _atom_site_symmetry_multiplicity
 _atom_site_fract_x
 _atom_site_fract_y
 _atom_site_fract_z
 _atom_site_occupancy
  Dy  Dy0  1  0.041304  0.296756  0.500000  1
  Dy  Dy1  1  0.703244  0.744547  0.500000  1
  Dy  Dy2  1  0.255453  0.958696  0.500000  1
  In  In3  1  0.662222  0.068709  0.000000  1
  In  In4  1  0.931291  0.593514  0.000000  1
  In  In5  1  0.406486  0.337778  0.000000  1
  In  In6  1  0.333333  0.666667  0.000000  1
  Ir  Ir7  1  0.000000  0.000000  0.000000  1
  Ru  Ru8  1  0.666667  0.333333  0.500000  1
