# generated using pymatgen
data_Zr3Nb2Pt3O
_symmetry_space_group_name_H-M   'P 1'
_cell_length_a   8.18826600
_cell_length_b   8.18826655
_cell_length_c   5.25502300
_cell_angle_alpha   90.00000000
_cell_angle_beta   90.00000000
_cell_angle_gamma   119.99999779
_symmetry_Int_Tables_number   1
_chemical_formula_structural   Zr3Nb2Pt3O
_chemical_formula_sum   'Zr6 Nb4 Pt6 O2'
_cell_volume   305.13299829
_cell_formula_units_Z   2
loop_
 _symmetry_equiv_pos_site_id
 _symmetry_equiv_pos_as_xyz
  1  'x, y, z'
loop_
 _atom_site_type_symbol
 _atom_site_label
 _atom_site_symmetry_multiplicity
 _atom_site_fract_x
 _atom_site_fract_y
 _atom_site_fract_z
 _atom_site_occupancy
  Zr  Zr0  1  0.240457  0.240457  0.750000  1
  Zr  Zr1  1  0.240457  0.000000  0.250000  1
  Zr  Zr2  1  0.759543  0.000000  0.750000  1
  Zr  Zr3  1  0.000000  0.759543  0.750000  1
  Zr  Zr4  1  0.000000  0.240457  0.250000  1
  Zr  Zr5  1  0.759543  0.759543  0.250000  1
  Nb  Nb6  1  0.333333  0.666667  0.500000  1
  Nb  Nb7  1  0.333333  0.666667  0.000000  1
  Nb  Nb8  1  0.666667  0.333333  0.500000  1
  Nb  Nb9  1  0.666667  0.333333  0.000000  1
  Pt  Pt10  1  0.000000  0.404052  0.750000  1
  Pt  Pt11  1  0.000000  0.595948  0.250000  1
  Pt  Pt12  1  0.404052  0.404052  0.250000  1
  Pt  Pt13  1  0.404052  0.000000  0.750000  1
  Pt  Pt14  1  0.595948  0.595948  0.750000  1
  Pt  Pt15  1  0.595948  0.000000  0.250000  1
  O  O16  1  0.000000  0.000000  0.500000  1
  O  O17  1  0.000000  0.000000  0.000000  1
