# generated using pymatgen
data_Tb3Dy(AuCl6)4
_symmetry_space_group_name_H-M   'P 1'
_cell_length_a   7.92009096
_cell_length_b   9.93354280
_cell_length_c   14.09127491
_cell_angle_alpha   103.04134570
_cell_angle_beta   97.25953076
_cell_angle_gamma   112.88347856
_symmetry_Int_Tables_number   1
_chemical_formula_structural   Tb3Dy(AuCl6)4
_chemical_formula_sum   'Tb3 Dy1 Au4 Cl24'
_cell_volume   966.30211537
_cell_formula_units_Z   1
loop_
 _symmetry_equiv_pos_site_id
 _symmetry_equiv_pos_as_xyz
  1  'x, y, z'
loop_
 _atom_site_type_symbol
 _atom_site_label
 _atom_site_symmetry_multiplicity
 _atom_site_fract_x
 _atom_site_fract_y
 _atom_site_fract_z
 _atom_site_occupancy
  Tb  Tb0  1  0.029694  0.685652  0.128211  1
  Tb  Tb1  1  0.421533  0.072798  0.377697  1
  Tb  Tb2  1  0.970248  0.314237  0.871665  1
  Dy  Dy3  1  0.578593  0.927557  0.622390  1
  Au  Au4  1  0.290889  0.634018  0.763504  1
  Au  Au5  1  0.500030  0.500132  0.500064  1
  Au  Au6  1  0.709173  0.366013  0.236454  1
  Au  Au7  1  0.999982  0.999990  0.999987  1
  Cl  Cl8  1  0.786314  0.103145  0.973749  1
  Cl  Cl9  1  0.718220  0.148293  0.265718  1
  Cl  Cl10  1  0.282305  0.851732  0.734088  1
  Cl  Cl11  1  0.775194  0.788315  0.028543  1
  Cl  Cl12  1  0.622027  0.193339  0.743946  1
  Cl  Cl13  1  0.298010  0.412297  0.788219  1
  Cl  Cl14  1  0.701960  0.587673  0.211789  1
  Cl  Cl15  1  0.309068  0.628309  0.498981  1
  Cl  Cl16  1  0.224718  0.211641  0.971375  1
  Cl  Cl17  1  0.754446  0.735410  0.528741  1
  Cl  Cl18  1  0.213689  0.896866  0.026259  1
  Cl  Cl19  1  0.718198  0.048186  0.484053  1
  Cl  Cl20  1  0.600888  0.732608  0.747970  1
  Cl  Cl21  1  0.937707  0.058350  0.731218  1
  Cl  Cl22  1  0.245263  0.264888  0.471439  1
  Cl  Cl23  1  0.377740  0.805822  0.255645  1
  Cl  Cl24  1  0.978741  0.537780  0.775581  1
  Cl  Cl25  1  0.770221  0.435665  0.977616  1
  Cl  Cl26  1  0.229689  0.564206  0.022281  1
  Cl  Cl27  1  0.021282  0.462236  0.224452  1
  Cl  Cl28  1  0.398982  0.267794  0.251742  1
  Cl  Cl29  1  0.282320  0.951350  0.516817  1
  Cl  Cl30  1  0.691778  0.372569  0.501372  1
  Cl  Cl31  1  0.061099  0.941130  0.268435  1
