# generated using pymatgen
data_Er2LuAuO7
_symmetry_space_group_name_H-M   'P 1'
_cell_length_a   6.41467857
_cell_length_b   6.41393634
_cell_length_c   7.34939700
_cell_angle_alpha   90.00000000
_cell_angle_beta   90.00000000
_cell_angle_gamma   108.67900213
_symmetry_Int_Tables_number   1
_chemical_formula_structural   Er2LuAuO7
_chemical_formula_sum   'Er4 Lu2 Au2 O14'
_cell_volume   286.45175968
_cell_formula_units_Z   2
loop_
 _symmetry_equiv_pos_site_id
 _symmetry_equiv_pos_as_xyz
  1  'x, y, z'
loop_
 _atom_site_type_symbol
 _atom_site_label
 _atom_site_symmetry_multiplicity
 _atom_site_fract_x
 _atom_site_fract_y
 _atom_site_fract_z
 _atom_site_occupancy
  Er  Er0  1  0.528793  0.998047  0.750080  1
  Er  Er1  1  0.471207  0.001953  0.250080  1
  Er  Er2  1  0.500216  0.500176  0.500007  1
  Er  Er3  1  0.499784  0.499824  0.000007  1
  Lu  Lu4  1  0.001864  0.471830  0.749904  1
  Lu  Lu5  1  0.998136  0.528170  0.249904  1
  Au  Au6  1  0.999927  0.999934  0.500006  1
  Au  Au7  1  0.000073  0.000066  0.000006  1
  O  O8  1  0.642477  0.362671  0.750012  1
  O  O9  1  0.357523  0.637329  0.250012  1
  O  O10  1  0.920561  0.086421  0.750007  1
  O  O11  1  0.079439  0.913579  0.250007  1
  O  O12  1  0.921565  0.666363  0.524895  1
  O  O13  1  0.078435  0.333637  0.024895  1
  O  O14  1  0.333295  0.087865  0.975905  1
  O  O15  1  0.666705  0.912135  0.475905  1
  O  O16  1  0.362920  0.630783  0.749991  1
  O  O17  1  0.637080  0.369217  0.249991  1
  O  O18  1  0.921841  0.666565  0.974982  1
  O  O19  1  0.078159  0.333435  0.474982  1
  O  O20  1  0.333098  0.087674  0.524211  1
  O  O21  1  0.666902  0.912326  0.024211  1
