# generated using pymatgen
data_Pr3MgAg2Pd3
_symmetry_space_group_name_H-M   'P 1'
_cell_length_a   7.66465904
_cell_length_b   7.50726681
_cell_length_c   4.13962700
_cell_angle_alpha   90.00000000
_cell_angle_beta   90.00000000
_cell_angle_gamma   119.32300076
_symmetry_Int_Tables_number   1
_chemical_formula_structural   Pr3MgAg2Pd3
_chemical_formula_sum   'Pr3 Mg1 Ag2 Pd3'
_cell_volume   207.67728783
_cell_formula_units_Z   1
loop_
 _symmetry_equiv_pos_site_id
 _symmetry_equiv_pos_as_xyz
  1  'x, y, z'
loop_
 _atom_site_type_symbol
 _atom_site_label
 _atom_site_symmetry_multiplicity
 _atom_site_fract_x
 _atom_site_fract_y
 _atom_site_fract_z
 _atom_site_occupancy
  Pr  Pr0  1  0.416722  0.407240  0.500000  1
  Pr  Pr1  1  0.583278  0.990518  0.500000  1
  Pr  Pr2  1  0.000000  0.609349  0.500000  1
  Mg  Mg3  1  0.000000  0.238438  0.000000  1
  Ag  Ag4  1  0.751610  0.754326  0.000000  1
  Ag  Ag5  1  0.248390  0.002716  0.000000  1
  Pd  Pd6  1  0.676336  0.328097  0.000000  1
  Pd  Pd7  1  0.323664  0.651762  0.000000  1
  Pd  Pd8  1  0.000000  0.017555  0.500000  1
