# generated using pymatgen
data_DyTmCo7(P2Ru)3
_symmetry_space_group_name_H-M   'P 1'
_cell_length_a   3.71258800
_cell_length_b   10.43238300
_cell_length_c   11.83779500
_cell_angle_alpha   90.00000000
_cell_angle_beta   90.00000000
_cell_angle_gamma   90.00000000
_symmetry_Int_Tables_number   1
_chemical_formula_structural   DyTmCo7(P2Ru)3
_chemical_formula_sum   'Dy2 Tm2 Co14 P12 Ru6'
_cell_volume   458.49129469
_cell_formula_units_Z   2
loop_
 _symmetry_equiv_pos_site_id
 _symmetry_equiv_pos_as_xyz
  1  'x, y, z'
loop_
 _atom_site_type_symbol
 _atom_site_label
 _atom_site_symmetry_multiplicity
 _atom_site_fract_x
 _atom_site_fract_y
 _atom_site_fract_z
 _atom_site_occupancy
  Dy  Dy0  1  0.250000  0.586254  0.705527  1
  Dy  Dy1  1  0.250000  0.913746  0.205527  1
  Tm  Tm2  1  0.750000  0.414787  0.292083  1
  Tm  Tm3  1  0.750000  0.085213  0.792083  1
  Co  Co4  1  0.750000  0.597181  0.512493  1
  Co  Co5  1  0.750000  0.902819  0.012493  1
  Co  Co6  1  0.250000  0.225445  0.179464  1
  Co  Co7  1  0.250000  0.274555  0.679464  1
  Co  Co8  1  0.750000  0.777327  0.822104  1
  Co  Co9  1  0.750000  0.722673  0.322104  1
  Co  Co10  1  0.250000  0.884997  0.700558  1
  Co  Co11  1  0.250000  0.615003  0.200558  1
  Co  Co12  1  0.750000  0.114597  0.298735  1
  Co  Co13  1  0.750000  0.385403  0.798735  1
  Co  Co14  1  0.250000  0.464508  0.931546  1
  Co  Co15  1  0.250000  0.035492  0.431546  1
  Co  Co16  1  0.750000  0.537113  0.068647  1
  Co  Co17  1  0.750000  0.962887  0.568647  1
  P  P18  1  0.250000  0.422392  0.113015  1
  P  P19  1  0.250000  0.077608  0.613015  1
  P  P20  1  0.750000  0.578874  0.887501  1
  P  P21  1  0.750000  0.921126  0.387501  1
  P  P22  1  0.250000  0.271844  0.866079  1
  P  P23  1  0.250000  0.228156  0.366079  1
  P  P24  1  0.750000  0.729935  0.132377  1
  P  P25  1  0.750000  0.770065  0.632377  1
  P  P26  1  0.250000  0.599957  0.386351  1
  P  P27  1  0.250000  0.900043  0.886351  1
  P  P28  1  0.750000  0.402278  0.612737  1
  P  P29  1  0.750000  0.097722  0.112737  1
  Ru  Ru30  1  0.250000  0.714089  0.989312  1
  Ru  Ru31  1  0.250000  0.785911  0.489312  1
  Ru  Ru32  1  0.750000  0.290173  0.013505  1
  Ru  Ru33  1  0.750000  0.209827  0.513505  1
  Ru  Ru34  1  0.250000  0.408730  0.487967  1
  Ru  Ru35  1  0.250000  0.091270  0.987967  1
