# generated using pymatgen
data_Li3Dy3MgSn4
_symmetry_space_group_name_H-M   'P 1'
_cell_length_a   8.61003543
_cell_length_b   8.73510961
_cell_length_c   8.73510864
_cell_angle_alpha   149.29322590
_cell_angle_beta   130.72616190
_cell_angle_gamma   59.32286578
_symmetry_Int_Tables_number   1
_chemical_formula_structural   Li3Dy3MgSn4
_chemical_formula_sum   'Li3 Dy3 Mg1 Sn4'
_cell_volume   252.03816133
_cell_formula_units_Z   1
loop_
 _symmetry_equiv_pos_site_id
 _symmetry_equiv_pos_as_xyz
  1  'x, y, z'
loop_
 _atom_site_type_symbol
 _atom_site_label
 _atom_site_symmetry_multiplicity
 _atom_site_fract_x
 _atom_site_fract_y
 _atom_site_fract_z
 _atom_site_occupancy
  Li  Li0  1  0.012277  0.326981  0.685298  1
  Li  Li1  1  0.976748  0.673143  0.303605  1
  Li  Li2  1  0.634992  0.325341  0.309650  1
  Dy  Dy3  1  0.000866  0.000977  0.999890  1
  Dy  Dy4  1  0.374574  0.875975  0.498600  1
  Dy  Dy5  1  0.638564  0.125090  0.513473  1
  Mg  Mg6  1  0.365875  0.673316  0.692560  1
  Sn  Sn7  1  0.199423  0.217578  0.981847  1
  Sn  Sn8  1  0.702463  0.498970  0.203493  1
  Sn  Sn9  1  0.297975  0.495341  0.802634  1
  Sn  Sn10  1  0.796241  0.787289  0.008952  1
