# generated using pymatgen
data_Hf4Cu3Si4Os
_symmetry_space_group_name_H-M   'P 1'
_cell_length_a   3.85875800
_cell_length_b   6.52326429
_cell_length_c   7.39731463
_cell_angle_alpha   89.21705364
_cell_angle_beta   90.00000000
_cell_angle_gamma   90.00000000
_symmetry_Int_Tables_number   1
_chemical_formula_structural   Hf4Cu3Si4Os
_chemical_formula_sum   'Hf4 Cu3 Si4 Os1'
_cell_volume   186.18558714
_cell_formula_units_Z   1
loop_
 _symmetry_equiv_pos_site_id
 _symmetry_equiv_pos_as_xyz
  1  'x, y, z'
loop_
 _atom_site_type_symbol
 _atom_site_label
 _atom_site_symmetry_multiplicity
 _atom_site_fract_x
 _atom_site_fract_y
 _atom_site_fract_z
 _atom_site_occupancy
  Hf  Hf0  1  0.250000  0.523952  0.681056  1
  Hf  Hf1  1  0.750000  0.475275  0.320273  1
  Hf  Hf2  1  0.250000  0.011792  0.816966  1
  Hf  Hf3  1  0.750000  0.981584  0.183464  1
  Cu  Cu4  1  0.250000  0.150859  0.436587  1
  Cu  Cu5  1  0.750000  0.345017  0.933293  1
  Cu  Cu6  1  0.250000  0.657566  0.068194  1
  Si  Si7  1  0.250000  0.272461  0.115736  1
  Si  Si8  1  0.750000  0.725306  0.881593  1
  Si  Si9  1  0.250000  0.763281  0.383122  1
  Si  Si10  1  0.750000  0.230833  0.622398  1
  Os  Os11  1  0.750000  0.862074  0.557319  1
