# generated using pymatgen
data_Sc4Mn4Fe5Co11P12
_symmetry_space_group_name_H-M   'P 1'
_cell_length_a   3.57069500
_cell_length_b   10.24010877
_cell_length_c   11.69796402
_cell_angle_alpha   90.06727820
_cell_angle_beta   90.00000000
_cell_angle_gamma   90.00000000
_symmetry_Int_Tables_number   1
_chemical_formula_structural   Sc4Mn4Fe5Co11P12
_chemical_formula_sum   'Sc4 Mn4 Fe5 Co11 P12'
_cell_volume   427.72763123
_cell_formula_units_Z   1
loop_
 _symmetry_equiv_pos_site_id
 _symmetry_equiv_pos_as_xyz
  1  'x, y, z'
loop_
 _atom_site_type_symbol
 _atom_site_label
 _atom_site_symmetry_multiplicity
 _atom_site_fract_x
 _atom_site_fract_y
 _atom_site_fract_z
 _atom_site_occupancy
  Sc  Sc0  1  0.250000  0.581769  0.705130  1
  Sc  Sc1  1  0.250000  0.918917  0.204766  1
  Sc  Sc2  1  0.750000  0.417750  0.294507  1
  Sc  Sc3  1  0.750000  0.081973  0.795512  1
  Mn  Mn4  1  0.250000  0.710151  0.989453  1
  Mn  Mn5  1  0.250000  0.790018  0.489171  1
  Mn  Mn6  1  0.750000  0.290807  0.010242  1
  Mn  Mn7  1  0.750000  0.209783  0.510495  1
  Fe  Fe8  1  0.250000  0.404681  0.487859  1
  Fe  Fe9  1  0.250000  0.095476  0.987165  1
  Fe  Fe10  1  0.750000  0.595537  0.512305  1
  Fe  Fe11  1  0.750000  0.905102  0.012605  1
  Fe  Fe12  1  0.250000  0.220660  0.174902  1
  Co  Co13  1  0.250000  0.277779  0.675573  1
  Co  Co14  1  0.750000  0.777866  0.824385  1
  Co  Co15  1  0.750000  0.722231  0.324369  1
  Co  Co16  1  0.250000  0.883379  0.700412  1
  Co  Co17  1  0.250000  0.616904  0.200312  1
  Co  Co18  1  0.750000  0.115391  0.300459  1
  Co  Co19  1  0.750000  0.383863  0.799016  1
  Co  Co20  1  0.250000  0.463983  0.931728  1
  Co  Co21  1  0.250000  0.036154  0.432534  1
  Co  Co22  1  0.750000  0.536227  0.068297  1
  Co  Co23  1  0.750000  0.963831  0.568728  1
  P  P24  1  0.250000  0.419143  0.116578  1
  P  P25  1  0.250000  0.079522  0.616753  1
  P  P26  1  0.750000  0.579449  0.883735  1
  P  P27  1  0.750000  0.920367  0.383968  1
  P  P28  1  0.250000  0.263900  0.865780  1
  P  P29  1  0.250000  0.235870  0.364853  1
  P  P30  1  0.750000  0.736102  0.134051  1
  P  P31  1  0.750000  0.763957  0.634106  1
  P  P32  1  0.250000  0.591311  0.389654  1
  P  P33  1  0.250000  0.908323  0.889912  1
  P  P34  1  0.750000  0.408392  0.609862  1
  P  P35  1  0.750000  0.093434  0.110822  1
