# generated using pymatgen
data_Ca5Yb7Ce(DySb4)3
_symmetry_space_group_name_H-M   'P 1'
_cell_length_a   9.44322140
_cell_length_b   9.44264406
_cell_length_c   9.44448024
_cell_angle_alpha   90.06889395
_cell_angle_beta   90.10283123
_cell_angle_gamma   89.86404918
_symmetry_Int_Tables_number   1
_chemical_formula_structural   Ca5Yb7Ce(DySb4)3
_chemical_formula_sum   'Ca5 Yb7 Ce1 Dy3 Sb12'
_cell_volume   842.15032290
_cell_formula_units_Z   1
loop_
 _symmetry_equiv_pos_site_id
 _symmetry_equiv_pos_as_xyz
  1  'x, y, z'
loop_
 _atom_site_type_symbol
 _atom_site_label
 _atom_site_symmetry_multiplicity
 _atom_site_fract_x
 _atom_site_fract_y
 _atom_site_fract_z
 _atom_site_occupancy
  Ca  Ca0  1  0.821551  0.321817  0.178047  1
  Ca  Ca1  1  0.929945  0.931213  0.931257  1
  Ca  Ca2  1  0.824844  0.675077  0.325725  1
  Ca  Ca3  1  0.177723  0.822842  0.322793  1
  Ca  Ca4  1  0.175409  0.174589  0.174808  1
  Yb  Yb5  1  0.326351  0.826134  0.674027  1
  Yb  Yb6  1  0.068698  0.430072  0.569136  1
  Yb  Yb7  1  0.323190  0.177277  0.822409  1
  Yb  Yb8  1  0.674037  0.325247  0.824842  1
  Yb  Yb9  1  0.677036  0.677371  0.677254  1
  Yb  Yb10  1  0.568726  0.068780  0.431271  1
  Yb  Yb11  1  0.430920  0.568664  0.069847  1
  Ce  Ce12  1  0.072277  0.571404  0.928193  1
  Dy  Dy13  1  0.929926  0.070422  0.569217  1
  Dy  Dy14  1  0.430485  0.429913  0.429735  1
  Dy  Dy15  1  0.569942  0.930421  0.070235  1
  Sb  Sb16  1  0.745684  0.369313  0.500970  1
  Sb  Sb17  1  0.868925  0.999711  0.254509  1
  Sb  Sb18  1  0.999667  0.756039  0.627980  1
  Sb  Sb19  1  0.245471  0.130004  0.500368  1
  Sb  Sb20  1  0.132101  0.498987  0.250368  1
  Sb  Sb21  1  0.999026  0.250018  0.867747  1
  Sb  Sb22  1  0.256688  0.872068  0.999845  1
  Sb  Sb23  1  0.372521  0.499607  0.743818  1
  Sb  Sb24  1  0.499681  0.245913  0.130311  1
  Sb  Sb25  1  0.749473  0.631406  0.000429  1
  Sb  Sb26  1  0.629448  0.000376  0.754548  1
  Sb  Sb27  1  0.500255  0.745315  0.370309  1
