# generated using pymatgen
data_Y3Ho3Pa2(ReB6)4
_symmetry_space_group_name_H-M   'P 1'
_cell_length_a   3.70026500
_cell_length_b   9.17323607
_cell_length_c   11.54291431
_cell_angle_alpha   90.37125218
_cell_angle_beta   90.00000000
_cell_angle_gamma   90.00000000
_symmetry_Int_Tables_number   1
_chemical_formula_structural   Y3Ho3Pa2(ReB6)4
_chemical_formula_sum   'Y3 Ho3 Pa2 Re4 B24'
_cell_volume   391.79758320
_cell_formula_units_Z   1
loop_
 _symmetry_equiv_pos_site_id
 _symmetry_equiv_pos_as_xyz
  1  'x, y, z'
loop_
 _atom_site_type_symbol
 _atom_site_label
 _atom_site_symmetry_multiplicity
 _atom_site_fract_x
 _atom_site_fract_y
 _atom_site_fract_z
 _atom_site_occupancy
  Y  Y0  1  0.000000  0.823740  0.085635  1
  Y  Y1  1  0.000000  0.176250  0.914217  1
  Y  Y2  1  0.000000  0.944934  0.372886  1
  Ho  Ho3  1  0.000000  0.055267  0.627631  1
  Ho  Ho4  1  0.000000  0.443812  0.126591  1
  Ho  Ho5  1  0.000000  0.556187  0.873313  1
  Pa  Pa6  1  0.000000  0.321945  0.413211  1
  Pa  Pa7  1  0.000000  0.678134  0.587023  1
  Re  Re8  1  0.000000  0.634538  0.324980  1
  Re  Re9  1  0.000000  0.364971  0.675036  1
  Re  Re10  1  0.000000  0.141020  0.181747  1
  Re  Re11  1  0.000000  0.859274  0.817984  1
  B  B12  1  0.500000  0.553325  0.433007  1
  B  B13  1  0.500000  0.446485  0.567075  1
  B  B14  1  0.500000  0.053610  0.067533  1
  B  B15  1  0.500000  0.946442  0.932281  1
  B  B16  1  0.500000  0.747621  0.419838  1
  B  B17  1  0.500000  0.251926  0.580375  1
  B  B18  1  0.500000  0.248123  0.080630  1
  B  B19  1  0.500000  0.751971  0.919285  1
  B  B20  1  0.500000  0.790953  0.265708  1
  B  B21  1  0.500000  0.208676  0.734059  1
  B  B22  1  0.500000  0.292397  0.233884  1
  B  B23  1  0.500000  0.707778  0.766081  1
  B  B24  1  0.500000  0.631017  0.185665  1
  B  B25  1  0.500000  0.368819  0.814235  1
  B  B26  1  0.500000  0.132802  0.314026  1
  B  B27  1  0.500000  0.867661  0.685918  1
  B  B28  1  0.500000  0.982717  0.212141  1
  B  B29  1  0.500000  0.017427  0.787463  1
  B  B30  1  0.500000  0.482850  0.286640  1
  B  B31  1  0.500000  0.517017  0.713324  1
  B  B32  1  0.500000  0.604431  0.029241  1
  B  B33  1  0.500000  0.395561  0.970670  1
  B  B34  1  0.500000  0.111531  0.469567  1
  B  B35  1  0.500000  0.888790  0.531100  1
