# generated using pymatgen
data_DyY4PPb3
_symmetry_space_group_name_H-M   'P 1'
_cell_length_a   9.16619903
_cell_length_b   9.16619841
_cell_length_c   6.80476000
_cell_angle_alpha   90.00000000
_cell_angle_beta   90.00000000
_cell_angle_gamma   119.99070078
_symmetry_Int_Tables_number   1
_chemical_formula_structural   DyY4PPb3
_chemical_formula_sum   'Dy2 Y8 P2 Pb6'
_cell_volume   495.17951366
_cell_formula_units_Z   2
loop_
 _symmetry_equiv_pos_site_id
 _symmetry_equiv_pos_as_xyz
  1  'x, y, z'
loop_
 _atom_site_type_symbol
 _atom_site_label
 _atom_site_symmetry_multiplicity
 _atom_site_fract_x
 _atom_site_fract_y
 _atom_site_fract_z
 _atom_site_occupancy
  Dy  Dy0  1  0.762532  0.000014  0.250000  1
  Dy  Dy1  1  0.000014  0.762532  0.250000  1
  Y  Y2  1  0.762257  0.762257  0.750000  1
  Y  Y3  1  0.237683  0.999969  0.750000  1
  Y  Y4  1  0.999969  0.237683  0.750000  1
  Y  Y5  1  0.237791  0.237791  0.250000  1
  Y  Y6  1  0.666703  0.333332  0.000046  1
  Y  Y7  1  0.333332  0.666703  0.000046  1
  Y  Y8  1  0.333332  0.666703  0.499954  1
  Y  Y9  1  0.666703  0.333332  0.499954  1
  P  P10  1  0.999788  0.999788  0.000355  1
  P  P11  1  0.999788  0.999788  0.499645  1
  Pb  Pb12  1  0.399918  0.399918  0.750000  1
  Pb  Pb13  1  0.600140  0.999994  0.750000  1
  Pb  Pb14  1  0.999994  0.600140  0.750000  1
  Pb  Pb15  1  0.600268  0.600268  0.250000  1
  Pb  Pb16  1  0.399885  0.999905  0.250000  1
  Pb  Pb17  1  0.999905  0.399885  0.250000  1
