# generated using pymatgen
data_TbDy2Ho9Ru4
_symmetry_space_group_name_H-M   'P 1'
_cell_length_a   6.28521200
_cell_length_b   7.29242530
_cell_length_c   9.16072400
_cell_angle_alpha   90.00000000
_cell_angle_beta   90.00000000
_cell_angle_gamma   89.96443252
_symmetry_Int_Tables_number   1
_chemical_formula_structural   TbDy2Ho9Ru4
_chemical_formula_sum   'Tb1 Dy2 Ho9 Ru4'
_cell_volume   419.87656485
_cell_formula_units_Z   1
loop_
 _symmetry_equiv_pos_site_id
 _symmetry_equiv_pos_as_xyz
  1  'x, y, z'
loop_
 _atom_site_type_symbol
 _atom_site_label
 _atom_site_symmetry_multiplicity
 _atom_site_fract_x
 _atom_site_fract_y
 _atom_site_fract_z
 _atom_site_occupancy
  Tb  Tb0  1  0.134513  0.460613  0.750000  1
  Dy  Dy1  1  0.865642  0.539313  0.250000  1
  Dy  Dy2  1  0.634389  0.039222  0.250000  1
  Ho  Ho3  1  0.330496  0.676790  0.064729  1
  Ho  Ho4  1  0.169957  0.175849  0.435359  1
  Ho  Ho5  1  0.669196  0.323342  0.564681  1
  Ho  Ho6  1  0.829738  0.823909  0.935028  1
  Ho  Ho7  1  0.669196  0.323342  0.935319  1
  Ho  Ho8  1  0.829738  0.823909  0.564972  1
  Ho  Ho9  1  0.330496  0.676790  0.435271  1
  Ho  Ho10  1  0.169957  0.175849  0.064641  1
  Ho  Ho11  1  0.365545  0.960795  0.750000  1
  Ru  Ru12  1  0.041051  0.884377  0.250000  1
  Ru  Ru13  1  0.459081  0.384194  0.250000  1
  Ru  Ru14  1  0.960034  0.115321  0.750000  1
  Ru  Ru15  1  0.540971  0.616387  0.750000  1
