# generated using pymatgen
data_Nd3MnMoC6
_symmetry_space_group_name_H-M   'P 1'
_cell_length_a   8.39331400
_cell_length_b   8.39331374
_cell_length_c   5.23572900
_cell_angle_alpha   90.00000000
_cell_angle_beta   90.00000000
_cell_angle_gamma   119.99998526
_symmetry_Int_Tables_number   1
_chemical_formula_structural   Nd3MnMoC6
_chemical_formula_sum   'Nd6 Mn2 Mo2 C12'
_cell_volume   319.42932488
_cell_formula_units_Z   2
loop_
 _symmetry_equiv_pos_site_id
 _symmetry_equiv_pos_as_xyz
  1  'x, y, z'
loop_
 _atom_site_type_symbol
 _atom_site_label
 _atom_site_symmetry_multiplicity
 _atom_site_fract_x
 _atom_site_fract_y
 _atom_site_fract_z
 _atom_site_occupancy
  Nd  Nd0  1  0.617160  0.682175  0.750000  1
  Nd  Nd1  1  0.934985  0.617160  0.250000  1
  Nd  Nd2  1  0.682175  0.065015  0.250000  1
  Nd  Nd3  1  0.317825  0.934985  0.750000  1
  Nd  Nd4  1  0.065015  0.382840  0.750000  1
  Nd  Nd5  1  0.382840  0.317825  0.250000  1
  Mn  Mn6  1  0.666667  0.333333  0.750000  1
  Mn  Mn7  1  0.333333  0.666667  0.250000  1
  Mo  Mo8  1  0.000000  0.000000  0.500000  1
  Mo  Mo9  1  0.000000  0.000000  0.000000  1
  C  C10  1  0.956744  0.758884  0.750000  1
  C  C11  1  0.197860  0.956744  0.250000  1
  C  C12  1  0.758884  0.802140  0.250000  1
  C  C13  1  0.241116  0.197860  0.750000  1
  C  C14  1  0.802140  0.043256  0.750000  1
  C  C15  1  0.043256  0.241116  0.250000  1
  C  C16  1  0.856133  0.570747  0.750000  1
  C  C17  1  0.285385  0.856133  0.250000  1
  C  C18  1  0.570747  0.714615  0.250000  1
  C  C19  1  0.429253  0.285385  0.750000  1
  C  C20  1  0.143867  0.429253  0.250000  1
  C  C21  1  0.714615  0.143867  0.750000  1
