# generated using pymatgen
data_Ho15Tm5Ir7Ru5
_symmetry_space_group_name_H-M   'P 1'
_cell_length_a   10.78335108
_cell_length_b   10.78072598
_cell_length_c   6.37646003
_cell_angle_alpha   89.98661120
_cell_angle_beta   89.97304143
_cell_angle_gamma   90.10447868
_symmetry_Int_Tables_number   1
_chemical_formula_structural   Ho15Tm5Ir7Ru5
_chemical_formula_sum   'Ho15 Tm5 Ir7 Ru5'
_cell_volume   741.27714816
_cell_formula_units_Z   1
loop_
 _symmetry_equiv_pos_site_id
 _symmetry_equiv_pos_as_xyz
  1  'x, y, z'
loop_
 _atom_site_type_symbol
 _atom_site_label
 _atom_site_symmetry_multiplicity
 _atom_site_fract_x
 _atom_site_fract_y
 _atom_site_fract_z
 _atom_site_occupancy
  Ho  Ho0  1  0.292696  0.086308  0.377029  1
  Ho  Ho1  1  0.292302  0.913777  0.877382  1
  Ho  Ho2  1  0.707715  0.086467  0.877483  1
  Ho  Ho3  1  0.707754  0.914109  0.375664  1
  Ho  Ho4  1  0.586064  0.793070  0.877165  1
  Ho  Ho5  1  0.587025  0.207186  0.377505  1
  Ho  Ho6  1  0.413769  0.792911  0.377077  1
  Ho  Ho7  1  0.413563  0.206915  0.876174  1
  Ho  Ho8  1  0.206787  0.413609  0.622708  1
  Ho  Ho9  1  0.206949  0.585725  0.122989  1
  Ho  Ho10  1  0.793203  0.412702  0.122507  1
  Ho  Ho11  1  0.793130  0.586289  0.623898  1
  Ho  Ho12  1  0.914104  0.706857  0.122744  1
  Ho  Ho13  1  0.913852  0.292244  0.622568  1
  Ho  Ho14  1  0.086247  0.707727  0.622462  1
  Tm  Tm15  1  0.085654  0.292842  0.123543  1
  Tm  Tm16  1  0.999692  0.001295  0.499665  1
  Tm  Tm17  1  0.999065  0.000767  0.000720  1
  Tm  Tm18  1  0.500058  0.500089  0.000469  1
  Tm  Tm19  1  0.499697  0.499810  0.499672  1
  Ir  Ir20  1  0.847849  0.847541  0.749748  1
  Ir  Ir21  1  0.152235  0.152790  0.751755  1
  Ir  Ir22  1  0.152049  0.848000  0.249976  1
  Ir  Ir23  1  0.650919  0.349075  0.750051  1
  Ir  Ir24  1  0.652079  0.651656  0.249778  1
  Ir  Ir25  1  0.347520  0.347751  0.249757  1
  Ir  Ir26  1  0.348368  0.651563  0.750110  1
  Ru  Ru27  1  0.849407  0.151708  0.249535  1
  Ru  Ru28  1  0.500185  0.000332  0.122857  1
  Ru  Ru29  1  0.500024  0.000149  0.622830  1
  Ru  Ru30  1  0.000153  0.499451  0.877592  1
  Ru  Ru31  1  0.999886  0.499285  0.376584  1
