# generated using pymatgen
data_Cs6Tb(IrBr6)3
_symmetry_space_group_name_H-M   'P 1'
_cell_length_a   7.86515700
_cell_length_b   7.86515732
_cell_length_c   19.89004800
_cell_angle_alpha   90.00000000
_cell_angle_beta   90.00000000
_cell_angle_gamma   119.99998604
_symmetry_Int_Tables_number   1
_chemical_formula_structural   Cs6Tb(IrBr6)3
_chemical_formula_sum   'Cs6 Tb1 Ir3 Br18'
_cell_volume   1065.56840278
_cell_formula_units_Z   1
loop_
 _symmetry_equiv_pos_site_id
 _symmetry_equiv_pos_as_xyz
  1  'x, y, z'
loop_
 _atom_site_type_symbol
 _atom_site_label
 _atom_site_symmetry_multiplicity
 _atom_site_fract_x
 _atom_site_fract_y
 _atom_site_fract_z
 _atom_site_occupancy
  Cs  Cs0  1  0.333333  0.666667  0.068313  1
  Cs  Cs1  1  0.666667  0.333333  0.939220  1
  Cs  Cs2  1  0.666667  0.333333  0.568125  1
  Cs  Cs3  1  0.333333  0.666667  0.436159  1
  Cs  Cs4  1  0.000000  0.000000  0.250721  1
  Cs  Cs5  1  0.000000  0.000000  0.745134  1
  Tb  Tb6  1  0.333333  0.666667  0.837237  1
  Ir  Ir7  1  0.333333  0.666667  0.666713  1
  Ir  Ir8  1  0.666667  0.333333  0.333327  1
  Ir  Ir9  1  0.666667  0.333333  0.167428  1
  Br  Br10  1  0.182292  0.364583  0.595431  1
  Br  Br11  1  0.817557  0.635113  0.404056  1
  Br  Br12  1  0.635417  0.817708  0.595431  1
  Br  Br13  1  0.817590  0.635180  0.096679  1
  Br  Br14  1  0.364887  0.182443  0.404056  1
  Br  Br15  1  0.164509  0.329018  0.911126  1
  Br  Br16  1  0.182292  0.817708  0.595431  1
  Br  Br17  1  0.364820  0.182410  0.096679  1
  Br  Br18  1  0.817557  0.182443  0.404056  1
  Br  Br19  1  0.670982  0.835491  0.911126  1
  Br  Br20  1  0.817590  0.182410  0.096679  1
  Br  Br21  1  0.164509  0.835491  0.911126  1
  Br  Br22  1  0.523264  0.046528  0.250304  1
  Br  Br23  1  0.489893  0.979784  0.738279  1
  Br  Br24  1  0.953472  0.476736  0.250304  1
  Br  Br25  1  0.020216  0.510107  0.738279  1
  Br  Br26  1  0.523264  0.476736  0.250304  1
  Br  Br27  1  0.489893  0.510107  0.738279  1
