# generated using pymatgen
data_Zn16Cu9Pd
_symmetry_space_group_name_H-M   'P 1'
_cell_length_a   7.64203419
_cell_length_b   7.74042920
_cell_length_c   7.74042904
_cell_angle_alpha   109.72730458
_cell_angle_beta   109.21391643
_cell_angle_gamma   109.21391665
_symmetry_Int_Tables_number   1
_chemical_formula_structural   Zn16Cu9Pd
_chemical_formula_sum   'Zn16 Cu9 Pd1'
_cell_volume   353.57891463
_cell_formula_units_Z   1
loop_
 _symmetry_equiv_pos_site_id
 _symmetry_equiv_pos_as_xyz
  1  'x, y, z'
loop_
 _atom_site_type_symbol
 _atom_site_label
 _atom_site_symmetry_multiplicity
 _atom_site_fract_x
 _atom_site_fract_y
 _atom_site_fract_z
 _atom_site_occupancy
  Zn  Zn0  1  0.227139  0.000000  0.000000  1
  Zn  Zn1  1  0.000681  0.218543  0.000000  1
  Zn  Zn2  1  0.000681  0.000000  0.218543  1
  Zn  Zn3  1  0.782139  0.781457  0.781457  1
  Zn  Zn4  1  0.345155  0.712963  0.000000  1
  Zn  Zn5  1  0.632192  0.287037  0.287037  1
  Zn  Zn6  1  0.345155  0.000000  0.712963  1
  Zn  Zn7  1  0.722777  0.351554  0.000000  1
  Zn  Zn8  1  0.998785  0.347109  0.721437  1
  Zn  Zn9  1  0.277348  0.625672  0.278563  1
  Zn  Zn10  1  0.277348  0.278563  0.625672  1
  Zn  Zn11  1  0.998785  0.721437  0.347109  1
  Zn  Zn12  1  0.722777  0.000000  0.351554  1
  Zn  Zn13  1  0.651676  0.652891  0.374328  1
  Zn  Zn14  1  0.371222  0.648446  0.648446  1
  Zn  Zn15  1  0.651676  0.374328  0.652891  1
  Cu  Cu16  1  0.001398  0.656947  0.000000  1
  Cu  Cu17  1  0.001398  0.000000  0.656947  1
  Cu  Cu18  1  0.344451  0.343053  0.343053  1
  Cu  Cu19  1  0.997477  0.644345  0.644345  1
  Cu  Cu20  1  0.353132  0.000000  0.355655  1
  Cu  Cu21  1  0.353132  0.355655  0.000000  1
  Cu  Cu22  1  0.005550  0.360501  0.360501  1
  Cu  Cu23  1  0.645050  0.000000  0.639499  1
  Cu  Cu24  1  0.645050  0.639499  0.000000  1
  Pd  Pd25  1  0.647827  0.000000  0.000000  1
