# generated using pymatgen
data_HoNb8FeS16
_symmetry_space_group_name_H-M   'P 1'
_cell_length_a   6.69783700
_cell_length_b   6.69783762
_cell_length_c   12.72635300
_cell_angle_alpha   90.00000000
_cell_angle_beta   90.00000000
_cell_angle_gamma   119.99999199
_symmetry_Int_Tables_number   1
_chemical_formula_structural   HoNb8FeS16
_chemical_formula_sum   'Ho1 Nb8 Fe1 S16'
_cell_volume   494.42886943
_cell_formula_units_Z   1
loop_
 _symmetry_equiv_pos_site_id
 _symmetry_equiv_pos_as_xyz
  1  'x, y, z'
loop_
 _atom_site_type_symbol
 _atom_site_label
 _atom_site_symmetry_multiplicity
 _atom_site_fract_x
 _atom_site_fract_y
 _atom_site_fract_z
 _atom_site_occupancy
  Ho  Ho0  1  0.000000  0.000000  0.500000  1
  Nb  Nb1  1  0.000000  0.000000  0.231277  1
  Nb  Nb2  1  0.000000  0.000000  0.768723  1
  Nb  Nb3  1  0.504987  0.009975  0.227736  1
  Nb  Nb4  1  0.990025  0.495013  0.227736  1
  Nb  Nb5  1  0.504987  0.495013  0.227736  1
  Nb  Nb6  1  0.495013  0.990025  0.772264  1
  Nb  Nb7  1  0.009975  0.504987  0.772264  1
  Nb  Nb8  1  0.495013  0.504987  0.772264  1
  Fe  Fe9  1  0.000000  0.000000  0.000000  1
  S  S10  1  0.333333  0.666667  0.897190  1
  S  S11  1  0.666667  0.333333  0.102810  1
  S  S12  1  0.666667  0.333333  0.355127  1
  S  S13  1  0.333333  0.666667  0.644873  1
  S  S14  1  0.169440  0.830560  0.353648  1
  S  S15  1  0.169440  0.338880  0.353648  1
  S  S16  1  0.661120  0.830560  0.353648  1
  S  S17  1  0.830560  0.169440  0.646352  1
  S  S18  1  0.830560  0.661120  0.646352  1
  S  S19  1  0.338880  0.169440  0.646352  1
  S  S20  1  0.836402  0.163598  0.893459  1
  S  S21  1  0.836402  0.672804  0.893459  1
  S  S22  1  0.327196  0.163598  0.893459  1
  S  S23  1  0.163598  0.836402  0.106541  1
  S  S24  1  0.163598  0.327196  0.106541  1
  S  S25  1  0.672804  0.836402  0.106541  1
