# generated using pymatgen
data_Er3ScAu5
_symmetry_space_group_name_H-M   'P 1'
_cell_length_a   7.85794213
_cell_length_b   7.85794136
_cell_length_c   7.85794213
_cell_angle_alpha   66.45724987
_cell_angle_beta   66.45725145
_cell_angle_gamma   66.45724713
_symmetry_Int_Tables_number   1
_chemical_formula_structural   Er3ScAu5
_chemical_formula_sum   'Er6 Sc2 Au10'
_cell_volume   390.82938192
_cell_formula_units_Z   2
loop_
 _symmetry_equiv_pos_site_id
 _symmetry_equiv_pos_as_xyz
  1  'x, y, z'
loop_
 _atom_site_type_symbol
 _atom_site_label
 _atom_site_symmetry_multiplicity
 _atom_site_fract_x
 _atom_site_fract_y
 _atom_site_fract_z
 _atom_site_occupancy
  Er  Er0  1  0.891723  0.191245  0.616250  1
  Er  Er1  1  0.616250  0.891723  0.191245  1
  Er  Er2  1  0.191245  0.616250  0.891723  1
  Er  Er3  1  0.108277  0.808755  0.383750  1
  Er  Er4  1  0.383750  0.108277  0.808755  1
  Er  Er5  1  0.808755  0.383750  0.108277  1
  Sc  Sc6  1  0.660048  0.660048  0.660048  1
  Sc  Sc7  1  0.339952  0.339952  0.339952  1
  Au  Au8  1  0.000000  0.000000  0.000000  1
  Au  Au9  1  0.500000  0.500000  0.500000  1
  Au  Au10  1  0.808736  0.808736  0.808736  1
  Au  Au11  1  0.191264  0.191264  0.191264  1
  Au  Au12  1  0.936855  0.552011  0.316629  1
  Au  Au13  1  0.316629  0.936855  0.552011  1
  Au  Au14  1  0.552011  0.316629  0.936855  1
  Au  Au15  1  0.063145  0.447989  0.683371  1
  Au  Au16  1  0.683371  0.063145  0.447989  1
  Au  Au17  1  0.447989  0.683371  0.063145  1
