# generated using pymatgen
data_Tb4Al18IrRuPt4
_symmetry_space_group_name_H-M   'P 1'
_cell_length_a   7.60303224
_cell_length_b   7.60303187
_cell_length_c   9.44982501
_cell_angle_alpha   89.95395947
_cell_angle_beta   89.95396188
_cell_angle_gamma   119.56708719
_symmetry_Int_Tables_number   1
_chemical_formula_structural   Tb4Al18IrRuPt4
_chemical_formula_sum   'Tb4 Al18 Ir1 Ru1 Pt4'
_cell_volume   475.12243339
_cell_formula_units_Z   1
loop_
 _symmetry_equiv_pos_site_id
 _symmetry_equiv_pos_as_xyz
  1  'x, y, z'
loop_
 _atom_site_type_symbol
 _atom_site_label
 _atom_site_symmetry_multiplicity
 _atom_site_fract_x
 _atom_site_fract_y
 _atom_site_fract_z
 _atom_site_occupancy
  Tb  Tb0  1  0.995092  0.669384  0.249934  1
  Tb  Tb1  1  0.004908  0.330616  0.750066  1
  Tb  Tb2  1  0.669384  0.995092  0.249934  1
  Tb  Tb3  1  0.330616  0.004908  0.750066  1
  Al  Al4  1  0.124761  0.124761  0.248104  1
  Al  Al5  1  0.875239  0.875239  0.751896  1
  Al  Al6  1  0.999832  0.328935  0.075104  1
  Al  Al7  1  0.000168  0.671065  0.924896  1
  Al  Al8  1  0.999538  0.668465  0.576558  1
  Al  Al9  1  0.331535  0.000462  0.423442  1
  Al  Al10  1  0.000462  0.331535  0.423442  1
  Al  Al11  1  0.668465  0.999538  0.576558  1
  Al  Al12  1  0.671065  0.000168  0.924896  1
  Al  Al13  1  0.328935  0.999832  0.075104  1
  Al  Al14  1  0.329966  0.329966  0.554879  1
  Al  Al15  1  0.670034  0.670034  0.445121  1
  Al  Al16  1  0.672246  0.672246  0.053833  1
  Al  Al17  1  0.327754  0.327754  0.946167  1
  Al  Al18  1  0.340799  0.545697  0.249592  1
  Al  Al19  1  0.659201  0.454303  0.750408  1
  Al  Al20  1  0.545697  0.340799  0.249592  1
  Al  Al21  1  0.454303  0.659201  0.750408  1
  Ir  Ir22  1  0.000000  0.000000  0.500000  1
  Ru  Ru23  1  0.000000  0.000000  0.000000  1
  Pt  Pt24  1  0.672271  0.327729  0.000000  1
  Pt  Pt25  1  0.327729  0.672271  0.000000  1
  Pt  Pt26  1  0.327863  0.672137  0.500000  1
  Pt  Pt27  1  0.672137  0.327863  0.500000  1
