# generated using pymatgen
data_Ta3Nb5(AlTe4)2
_symmetry_space_group_name_H-M   'P 1'
_cell_length_a   4.89114100
_cell_length_b   11.29358430
_cell_length_c   19.45856752
_cell_angle_alpha   89.97353918
_cell_angle_beta   90.00000000
_cell_angle_gamma   90.00000000
_symmetry_Int_Tables_number   1
_chemical_formula_structural   Ta3Nb5(AlTe4)2
_chemical_formula_sum   'Ta6 Nb10 Al4 Te16'
_cell_volume   1074.86222435
_cell_formula_units_Z   2
loop_
 _symmetry_equiv_pos_site_id
 _symmetry_equiv_pos_as_xyz
  1  'x, y, z'
loop_
 _atom_site_type_symbol
 _atom_site_label
 _atom_site_symmetry_multiplicity
 _atom_site_fract_x
 _atom_site_fract_y
 _atom_site_fract_z
 _atom_site_occupancy
  Ta  Ta0  1  0.500000  0.934501  0.883608  1
  Ta  Ta1  1  0.500000  0.704110  0.534857  1
  Ta  Ta2  1  0.500000  0.295823  0.465172  1
  Ta  Ta3  1  0.500000  0.203445  0.965377  1
  Ta  Ta4  1  0.500000  0.796249  0.034816  1
  Ta  Ta5  1  0.000000  0.098267  0.892239  1
  Nb  Nb6  1  0.500000  0.565332  0.382595  1
  Nb  Nb7  1  0.500000  0.434876  0.617344  1
  Nb  Nb8  1  0.500000  0.065067  0.117577  1
  Nb  Nb9  1  0.000000  0.689010  0.442369  1
  Nb  Nb10  1  0.000000  0.311043  0.557538  1
  Nb  Nb11  1  0.000000  0.189190  0.057360  1
  Nb  Nb12  1  0.000000  0.812307  0.942179  1
  Nb  Nb13  1  0.000000  0.400786  0.391430  1
  Nb  Nb14  1  0.000000  0.599131  0.608611  1
  Nb  Nb15  1  0.000000  0.900714  0.108888  1
  Al  Al16  1  0.249780  0.500031  0.500025  1
  Al  Al17  1  0.750262  0.999958  0.000687  1
  Al  Al18  1  0.750220  0.500031  0.500025  1
  Al  Al19  1  0.249738  0.999958  0.000687  1
  Te  Te20  1  0.000000  0.839604  0.561169  1
  Te  Te21  1  0.000000  0.160301  0.438823  1
  Te  Te22  1  0.000000  0.339105  0.937724  1
  Te  Te23  1  0.000000  0.660733  0.060732  1
  Te  Te24  1  0.500000  0.335499  0.320363  1
  Te  Te25  1  0.500000  0.664567  0.679700  1
  Te  Te26  1  0.500000  0.834959  0.179838  1
  Te  Te27  1  0.500000  0.163013  0.819993  1
  Te  Te28  1  0.500000  0.816652  0.403688  1
  Te  Te29  1  0.500000  0.183442  0.596345  1
  Te  Te30  1  0.500000  0.316625  0.096181  1
  Te  Te31  1  0.500000  0.683944  0.902939  1
  Te  Te32  1  0.000000  0.604131  0.303752  1
  Te  Te33  1  0.000000  0.395940  0.696242  1
  Te  Te34  1  0.000000  0.104305  0.196153  1
  Te  Te35  1  0.000000  0.897348  0.802975  1
