# generated using pymatgen
data_Tb4Dy5HoSn8
_symmetry_space_group_name_H-M   'P 1'
_cell_length_a   8.04839000
_cell_length_b   8.19555700
_cell_length_c   15.49082900
_cell_angle_alpha   90.00000000
_cell_angle_beta   90.00000000
_cell_angle_gamma   90.00000000
_symmetry_Int_Tables_number   1
_chemical_formula_structural   Tb4Dy5HoSn8
_chemical_formula_sum   'Tb8 Dy10 Ho2 Sn16'
_cell_volume   1021.79117586
_cell_formula_units_Z   2
loop_
 _symmetry_equiv_pos_site_id
 _symmetry_equiv_pos_as_xyz
  1  'x, y, z'
loop_
 _atom_site_type_symbol
 _atom_site_label
 _atom_site_symmetry_multiplicity
 _atom_site_fract_x
 _atom_site_fract_y
 _atom_site_fract_z
 _atom_site_occupancy
  Tb  Tb0  1  0.520387  0.319903  0.902296  1
  Tb  Tb1  1  0.020387  0.180097  0.597704  1
  Tb  Tb2  1  0.479624  0.680099  0.402279  1
  Tb  Tb3  1  0.979624  0.819901  0.097721  1
  Tb  Tb4  1  0.479624  0.680099  0.097721  1
  Tb  Tb5  1  0.979624  0.819901  0.402279  1
  Tb  Tb6  1  0.520387  0.319903  0.597704  1
  Tb  Tb7  1  0.020387  0.180097  0.902296  1
  Dy  Dy8  1  0.367502  0.835882  0.878208  1
  Dy  Dy9  1  0.867502  0.664118  0.621792  1
  Dy  Dy10  1  0.632469  0.164117  0.378190  1
  Dy  Dy11  1  0.132469  0.335883  0.121810  1
  Dy  Dy12  1  0.632469  0.164117  0.121810  1
  Dy  Dy13  1  0.132469  0.335883  0.378190  1
  Dy  Dy14  1  0.367502  0.835882  0.621792  1
  Dy  Dy15  1  0.867502  0.664118  0.878208  1
  Dy  Dy16  1  0.198344  0.502712  0.750000  1
  Dy  Dy17  1  0.698344  0.997288  0.750000  1
  Ho  Ho18  1  0.801606  0.497296  0.250000  1
  Ho  Ho19  1  0.301606  0.002704  0.250000  1
  Sn  Sn20  1  0.292837  0.035181  0.042095  1
  Sn  Sn21  1  0.792837  0.464819  0.457905  1
  Sn  Sn22  1  0.707161  0.964802  0.541988  1
  Sn  Sn23  1  0.207161  0.535198  0.958012  1
  Sn  Sn24  1  0.707161  0.964802  0.958012  1
  Sn  Sn25  1  0.207161  0.535198  0.541988  1
  Sn  Sn26  1  0.292837  0.035181  0.457905  1
  Sn  Sn27  1  0.792837  0.464819  0.042095  1
  Sn  Sn28  1  0.565248  0.619731  0.750000  1
  Sn  Sn29  1  0.065248  0.880269  0.750000  1
  Sn  Sn30  1  0.434928  0.380232  0.250000  1
  Sn  Sn31  1  0.934928  0.119768  0.250000  1
  Sn  Sn32  1  0.328336  0.145934  0.750000  1
  Sn  Sn33  1  0.828336  0.354066  0.750000  1
  Sn  Sn34  1  0.671579  0.853902  0.250000  1
  Sn  Sn35  1  0.171579  0.646098  0.250000  1
