# generated using pymatgen
data_Lu12Al3Fe2
_symmetry_space_group_name_H-M   'P 1'
_cell_length_a   8.15320713
_cell_length_b   8.15320643
_cell_length_c   8.15320689
_cell_angle_alpha   109.84314917
_cell_angle_beta   109.84314500
_cell_angle_gamma   108.72990568
_symmetry_Int_Tables_number   1
_chemical_formula_structural   Lu12Al3Fe2
_chemical_formula_sum   'Lu12 Al3 Fe2'
_cell_volume   417.16610854
_cell_formula_units_Z   1
loop_
 _symmetry_equiv_pos_site_id
 _symmetry_equiv_pos_as_xyz
  1  'x, y, z'
loop_
 _atom_site_type_symbol
 _atom_site_label
 _atom_site_symmetry_multiplicity
 _atom_site_fract_x
 _atom_site_fract_y
 _atom_site_fract_z
 _atom_site_occupancy
  Lu  Lu0  1  0.304056  0.304056  0.608112  1
  Lu  Lu1  1  0.695944  0.695944  0.391888  1
  Lu  Lu2  1  0.304056  0.695944  0.000000  1
  Lu  Lu3  1  0.695944  0.304056  0.000000  1
  Lu  Lu4  1  0.451791  0.203178  0.248613  1
  Lu  Lu5  1  0.548209  0.796822  0.751387  1
  Lu  Lu6  1  0.954565  0.203178  0.751387  1
  Lu  Lu7  1  0.203178  0.954565  0.751387  1
  Lu  Lu8  1  0.045435  0.796822  0.248613  1
  Lu  Lu9  1  0.796822  0.045435  0.248613  1
  Lu  Lu10  1  0.203178  0.451791  0.248613  1
  Lu  Lu11  1  0.796822  0.548209  0.751387  1
  Al  Al12  1  0.000000  0.000000  0.000000  1
  Al  Al13  1  0.500000  0.000000  0.500000  1
  Al  Al14  1  0.000000  0.500000  0.500000  1
  Fe  Fe15  1  0.385311  0.385311  0.000000  1
  Fe  Fe16  1  0.614689  0.614689  0.000000  1
