# generated using pymatgen
data_Nd4Sm2OsI10
_symmetry_space_group_name_H-M   'P 1'
_cell_length_a   7.96591867
_cell_length_b   10.00788000
_cell_length_c   9.99089800
_cell_angle_alpha   107.27263342
_cell_angle_beta   96.33326743
_cell_angle_gamma   104.61439484
_symmetry_Int_Tables_number   1
_chemical_formula_structural   Nd4Sm2OsI10
_chemical_formula_sum   'Nd4 Sm2 Os1 I10'
_cell_volume   721.02756341
_cell_formula_units_Z   1
loop_
 _symmetry_equiv_pos_site_id
 _symmetry_equiv_pos_as_xyz
  1  'x, y, z'
loop_
 _atom_site_type_symbol
 _atom_site_label
 _atom_site_symmetry_multiplicity
 _atom_site_fract_x
 _atom_site_fract_y
 _atom_site_fract_z
 _atom_site_occupancy
  Nd  Nd0  1  0.117062  0.041846  0.758465  1
  Nd  Nd1  1  0.882938  0.958154  0.241535  1
  Nd  Nd2  1  0.967978  0.282020  0.084309  1
  Nd  Nd3  1  0.032022  0.717980  0.915691  1
  Sm  Sm4  1  0.351427  0.124720  0.166755  1
  Sm  Sm5  1  0.648573  0.875280  0.833245  1
  Os  Os6  1  0.000000  0.000000  0.000000  1
  I  I7  1  0.350653  0.446047  0.270309  1
  I  I8  1  0.649347  0.553953  0.729691  1
  I  I9  1  0.258993  0.086208  0.455652  1
  I  I10  1  0.741007  0.913792  0.544348  1
  I  I11  1  0.086893  0.368194  0.818424  1
  I  I12  1  0.913107  0.631806  0.181576  1
  I  I13  1  0.454295  0.818744  0.090277  1
  I  I14  1  0.545705  0.181256  0.909723  1
  I  I15  1  0.775534  0.255157  0.345799  1
  I  I16  1  0.224466  0.744843  0.654201  1
