# generated using pymatgen
data_La8NdLuCo4
_symmetry_space_group_name_H-M   'P 1'
_cell_length_a   9.10874835
_cell_length_b   9.10874930
_cell_length_c   7.05597100
_cell_angle_alpha   86.29939247
_cell_angle_beta   86.29939208
_cell_angle_gamma   42.49408054
_symmetry_Int_Tables_number   1
_chemical_formula_structural   La8NdLuCo4
_chemical_formula_sum   'La8 Nd1 Lu1 Co4'
_cell_volume   394.51613112
_cell_formula_units_Z   1
loop_
 _symmetry_equiv_pos_site_id
 _symmetry_equiv_pos_as_xyz
  1  'x, y, z'
loop_
 _atom_site_type_symbol
 _atom_site_label
 _atom_site_symmetry_multiplicity
 _atom_site_fract_x
 _atom_site_fract_y
 _atom_site_fract_z
 _atom_site_occupancy
  La  La0  1  0.014965  0.801038  0.896712  1
  La  La1  1  0.198962  0.985035  0.603288  1
  La  La2  1  0.981308  0.205814  0.097717  1
  La  La3  1  0.794186  0.018692  0.402283  1
  La  La4  1  0.364907  0.221724  0.833005  1
  La  La5  1  0.778276  0.635093  0.666995  1
  La  La6  1  0.639506  0.782782  0.165925  1
  La  La7  1  0.217218  0.360494  0.334075  1
  Nd  Nd8  1  0.431238  0.568762  0.250000  1
  Lu  Lu9  1  0.567690  0.432310  0.750000  1
  Co  Co10  1  0.186009  0.600360  0.584222  1
  Co  Co11  1  0.399640  0.813991  0.915778  1
  Co  Co12  1  0.820038  0.393944  0.424251  1
  Co  Co13  1  0.606056  0.179962  0.075749  1
