# generated using pymatgen
data_Tb17Lu3(SnPb3)4
_symmetry_space_group_name_H-M   'P 1'
_cell_length_a   8.15880400
_cell_length_b   8.26014903
_cell_length_c   15.66687600
_cell_angle_alpha   90.00000000
_cell_angle_beta   90.00000000
_cell_angle_gamma   89.93116120
_symmetry_Int_Tables_number   1
_chemical_formula_structural   Tb17Lu3(SnPb3)4
_chemical_formula_sum   'Tb17 Lu3 Sn4 Pb12'
_cell_volume   1055.83602487
_cell_formula_units_Z   1
loop_
 _symmetry_equiv_pos_site_id
 _symmetry_equiv_pos_as_xyz
  1  'x, y, z'
loop_
 _atom_site_type_symbol
 _atom_site_label
 _atom_site_symmetry_multiplicity
 _atom_site_fract_x
 _atom_site_fract_y
 _atom_site_fract_z
 _atom_site_occupancy
  Tb  Tb0  1  0.376638  0.839887  0.877711  1
  Tb  Tb1  1  0.876536  0.659985  0.621891  1
  Tb  Tb2  1  0.624056  0.160643  0.378330  1
  Tb  Tb3  1  0.122912  0.340190  0.121686  1
  Tb  Tb4  1  0.624056  0.160643  0.121670  1
  Tb  Tb5  1  0.122912  0.340190  0.378314  1
  Tb  Tb6  1  0.376638  0.839887  0.622289  1
  Tb  Tb7  1  0.876536  0.659985  0.878109  1
  Tb  Tb8  1  0.533777  0.324389  0.899651  1
  Tb  Tb9  1  0.033796  0.175581  0.600675  1
  Tb  Tb10  1  0.466627  0.675102  0.399716  1
  Tb  Tb11  1  0.965936  0.823980  0.100250  1
  Tb  Tb12  1  0.466627  0.675102  0.100284  1
  Tb  Tb13  1  0.965936  0.823980  0.399750  1
  Tb  Tb14  1  0.533777  0.324389  0.600349  1
  Tb  Tb15  1  0.033796  0.175581  0.899325  1
  Tb  Tb16  1  0.290447  0.006332  0.250000  1
  Lu  Lu17  1  0.209965  0.506829  0.750000  1
  Lu  Lu18  1  0.709985  0.992979  0.750000  1
  Lu  Lu19  1  0.789827  0.492898  0.250000  1
  Sn  Sn20  1  0.572417  0.625079  0.750000  1
  Sn  Sn21  1  0.072104  0.874453  0.750000  1
  Sn  Sn22  1  0.428148  0.376149  0.250000  1
  Sn  Sn23  1  0.925496  0.126321  0.250000  1
  Pb  Pb24  1  0.282250  0.033446  0.042583  1
  Pb  Pb25  1  0.782369  0.467094  0.456411  1
  Pb  Pb26  1  0.717627  0.967238  0.543930  1
  Pb  Pb27  1  0.217890  0.533069  0.956134  1
  Pb  Pb28  1  0.717627  0.967238  0.956070  1
  Pb  Pb29  1  0.217890  0.533069  0.543866  1
  Pb  Pb30  1  0.282250  0.033446  0.457417  1
  Pb  Pb31  1  0.782369  0.467094  0.043589  1
  Pb  Pb32  1  0.343511  0.152990  0.750000  1
  Pb  Pb33  1  0.843086  0.347611  0.750000  1
  Pb  Pb34  1  0.657817  0.847124  0.250000  1
  Pb  Pb35  1  0.156370  0.650028  0.250000  1
