# generated using pymatgen
data_Ti8Al14GeRh7
_symmetry_space_group_name_H-M   'P 1'
_cell_length_a   8.63460184
_cell_length_b   8.63460214
_cell_length_c   8.63460156
_cell_angle_alpha   120.03655911
_cell_angle_beta   119.86874669
_cell_angle_gamma   90.08208822
_symmetry_Int_Tables_number   1
_chemical_formula_structural   Ti8Al14GeRh7
_chemical_formula_sum   'Ti8 Al14 Ge1 Rh7'
_cell_volume   455.53421274
_cell_formula_units_Z   1
loop_
 _symmetry_equiv_pos_site_id
 _symmetry_equiv_pos_as_xyz
  1  'x, y, z'
loop_
 _atom_site_type_symbol
 _atom_site_label
 _atom_site_symmetry_multiplicity
 _atom_site_fract_x
 _atom_site_fract_y
 _atom_site_fract_z
 _atom_site_occupancy
  Ti  Ti0  1  0.794078  0.293331  0.079988  1
  Ti  Ti1  1  0.213343  0.293331  0.499253  1
  Ti  Ti2  1  0.205945  0.705945  0.500000  1
  Ti  Ti3  1  0.213343  0.714090  0.920012  1
  Ti  Ti4  1  0.794078  0.714090  0.500747  1
  Ti  Ti5  1  0.787200  0.287200  0.500000  1
  Ti  Ti6  1  0.379436  0.122396  0.742960  1
  Ti  Ti7  1  0.379436  0.636476  0.257040  1
  Al  Al8  1  0.156524  0.340569  0.184045  1
  Al  Al9  1  0.156524  0.972479  0.815955  1
  Al  Al10  1  0.153285  0.343474  0.809811  1
  Al  Al11  1  0.533662  0.343474  0.190189  1
  Al  Al12  1  0.842509  0.656056  0.813548  1
  Al  Al13  1  0.842509  0.028960  0.186452  1
  Al  Al14  1  0.840857  0.657674  0.183183  1
  Al  Al15  1  0.474490  0.657674  0.816817  1
  Al  Al16  1  0.379874  0.120695  0.259179  1
  Al  Al17  1  0.861517  0.120695  0.740821  1
  Al  Al18  1  0.620592  0.878319  0.257727  1
  Al  Al19  1  0.620592  0.362864  0.742273  1
  Al  Al20  1  0.620501  0.878725  0.741777  1
  Al  Al21  1  0.136947  0.878725  0.258223  1
  Ge  Ge22  1  0.997116  0.497116  0.500000  1
  Rh  Rh23  1  0.001334  0.000118  0.501692  1
  Rh  Rh24  1  0.498426  0.000118  0.998784  1
  Rh  Rh25  1  0.497590  0.497590  0.000000  1
  Rh  Rh26  1  0.498426  0.499642  0.498308  1
  Rh  Rh27  1  0.001334  0.499642  0.001216  1
  Rh  Rh28  1  0.999483  0.999483  0.000000  1
  Rh  Rh29  1  0.499047  0.999047  0.500000  1
