# generated using pymatgen
data_LuScB6Ru
_symmetry_space_group_name_H-M   'P 1'
_cell_length_a   3.53398300
_cell_length_b   8.92328000
_cell_length_c   11.27912700
_cell_angle_alpha   90.00000000
_cell_angle_beta   90.00000000
_cell_angle_gamma   90.00000000
_symmetry_Int_Tables_number   1
_chemical_formula_structural   LuScB6Ru
_chemical_formula_sum   'Lu4 Sc4 B24 Ru4'
_cell_volume   355.68410981
_cell_formula_units_Z   4
loop_
 _symmetry_equiv_pos_site_id
 _symmetry_equiv_pos_as_xyz
  1  'x, y, z'
loop_
 _atom_site_type_symbol
 _atom_site_label
 _atom_site_symmetry_multiplicity
 _atom_site_fract_x
 _atom_site_fract_y
 _atom_site_fract_z
 _atom_site_occupancy
  Lu  Lu0  1  0.500000  0.319777  0.413720  1
  Lu  Lu1  1  0.500000  0.680223  0.586280  1
  Lu  Lu2  1  0.500000  0.180223  0.913720  1
  Lu  Lu3  1  0.500000  0.819777  0.086280  1
  Sc  Sc4  1  0.500000  0.445229  0.126018  1
  Sc  Sc5  1  0.500000  0.554771  0.873982  1
  Sc  Sc6  1  0.500000  0.054771  0.626018  1
  Sc  Sc7  1  0.500000  0.945229  0.373982  1
  B  B8  1  0.000000  0.101566  0.472454  1
  B  B9  1  0.000000  0.898434  0.527546  1
  B  B10  1  0.000000  0.398434  0.972454  1
  B  B11  1  0.000000  0.601566  0.027546  1
  B  B12  1  0.000000  0.130084  0.317608  1
  B  B13  1  0.000000  0.869916  0.682392  1
  B  B14  1  0.000000  0.369916  0.817608  1
  B  B15  1  0.000000  0.630084  0.182392  1
  B  B16  1  0.000000  0.054671  0.066064  1
  B  B17  1  0.000000  0.945329  0.933936  1
  B  B18  1  0.000000  0.445329  0.566064  1
  B  B19  1  0.000000  0.554671  0.433936  1
  B  B20  1  0.000000  0.481793  0.286003  1
  B  B21  1  0.000000  0.518207  0.713997  1
  B  B22  1  0.000000  0.018207  0.786003  1
  B  B23  1  0.000000  0.981793  0.213997  1
  B  B24  1  0.000000  0.252739  0.080014  1
  B  B25  1  0.000000  0.747261  0.919986  1
  B  B26  1  0.000000  0.247261  0.580014  1
  B  B27  1  0.000000  0.752739  0.419986  1
  B  B28  1  0.000000  0.294374  0.235190  1
  B  B29  1  0.000000  0.705626  0.764810  1
  B  B30  1  0.000000  0.205626  0.735190  1
  B  B31  1  0.000000  0.794374  0.264810  1
  Ru  Ru32  1  0.500000  0.140152  0.180686  1
  Ru  Ru33  1  0.500000  0.859848  0.819314  1
  Ru  Ru34  1  0.500000  0.359848  0.680686  1
  Ru  Ru35  1  0.500000  0.640152  0.319314  1
