# generated using pymatgen
data_La10Nd6Cd4Co3Au
_symmetry_space_group_name_H-M   'P 1'
_cell_length_a   10.03941955
_cell_length_b   10.04267723
_cell_length_c   10.04267600
_cell_angle_alpha   59.99999747
_cell_angle_beta   59.98926286
_cell_angle_gamma   59.98926304
_symmetry_Int_Tables_number   1
_chemical_formula_structural   La10Nd6Cd4Co3Au
_chemical_formula_sum   'La10 Nd6 Cd4 Co3 Au1'
_cell_volume   715.85003920
_cell_formula_units_Z   1
loop_
 _symmetry_equiv_pos_site_id
 _symmetry_equiv_pos_as_xyz
  1  'x, y, z'
loop_
 _atom_site_type_symbol
 _atom_site_label
 _atom_site_symmetry_multiplicity
 _atom_site_fract_x
 _atom_site_fract_y
 _atom_site_fract_z
 _atom_site_occupancy
  La  La0  1  0.582502  0.604419  0.604419  1
  La  La1  1  0.582502  0.604419  0.208658  1
  La  La2  1  0.582502  0.208658  0.604419  1
  La  La3  1  0.221837  0.592721  0.592721  1
  La  La4  1  0.075296  0.442578  0.442578  1
  La  La5  1  0.440612  0.060276  0.060276  1
  La  La6  1  0.440612  0.060276  0.438837  1
  La  La7  1  0.075296  0.442578  0.039546  1
  La  La8  1  0.440612  0.438837  0.060276  1
  La  La9  1  0.075296  0.039546  0.442578  1
  Nd  Nd10  1  0.180359  0.817109  0.817109  1
  Nd  Nd11  1  0.811629  0.186401  0.186401  1
  Nd  Nd12  1  0.811629  0.186401  0.815570  1
  Nd  Nd13  1  0.180359  0.817109  0.185424  1
  Nd  Nd14  1  0.811629  0.815570  0.186401  1
  Nd  Nd15  1  0.180359  0.185424  0.817109  1
  Cd  Cd16  1  0.830090  0.829563  0.829563  1
  Cd  Cd17  1  0.830090  0.829563  0.510783  1
  Cd  Cd18  1  0.830090  0.510783  0.829563  1
  Cd  Cd19  1  0.508193  0.830602  0.830602  1
  Co  Co20  1  0.392822  0.389557  0.389557  1
  Co  Co21  1  0.392822  0.389557  0.828064  1
  Co  Co22  1  0.392822  0.828064  0.389557  1
  Au  Au23  1  0.830033  0.389989  0.389989  1
