# generated using pymatgen
data_Er3Zn3SiGePd
_symmetry_space_group_name_H-M   'P 1'
_cell_length_a   6.83659900
_cell_length_b   6.83659976
_cell_length_c   4.26680400
_cell_angle_alpha   90.00000000
_cell_angle_beta   90.00000000
_cell_angle_gamma   120.00000115
_symmetry_Int_Tables_number   1
_chemical_formula_structural   Er3Zn3SiGePd
_chemical_formula_sum   'Er3 Zn3 Si1 Ge1 Pd1'
_cell_volume   172.70844854
_cell_formula_units_Z   1
loop_
 _symmetry_equiv_pos_site_id
 _symmetry_equiv_pos_as_xyz
  1  'x, y, z'
loop_
 _atom_site_type_symbol
 _atom_site_label
 _atom_site_symmetry_multiplicity
 _atom_site_fract_x
 _atom_site_fract_y
 _atom_site_fract_z
 _atom_site_occupancy
  Er  Er0  1  0.582955  0.997192  0.000000  1
  Er  Er1  1  0.002808  0.585763  0.000000  1
  Er  Er2  1  0.414237  0.417045  0.000000  1
  Zn  Zn3  1  0.237589  0.997290  0.500000  1
  Zn  Zn4  1  0.002710  0.240299  0.500000  1
  Zn  Zn5  1  0.759701  0.762411  0.500000  1
  Si  Si6  1  0.333333  0.666667  0.500000  1
  Ge  Ge7  1  0.666667  0.333333  0.500000  1
  Pd  Pd8  1  0.000000  0.000000  0.000000  1
