# generated using pymatgen
data_PaH3Os
_symmetry_space_group_name_H-M   'P 1'
_cell_length_a   5.87656601
_cell_length_b   5.87656604
_cell_length_c   4.49308900
_cell_angle_alpha   90.00000000
_cell_angle_beta   90.00000000
_cell_angle_gamma   139.08116715
_symmetry_Int_Tables_number   1
_chemical_formula_structural   PaH3Os
_chemical_formula_sum   'Pa2 H6 Os2'
_cell_volume   101.63105081
_cell_formula_units_Z   2
loop_
 _symmetry_equiv_pos_site_id
 _symmetry_equiv_pos_as_xyz
  1  'x, y, z'
loop_
 _atom_site_type_symbol
 _atom_site_label
 _atom_site_symmetry_multiplicity
 _atom_site_fract_x
 _atom_site_fract_y
 _atom_site_fract_z
 _atom_site_occupancy
  Pa  Pa0  1  0.128021  0.871982  0.250000  1
  Pa  Pa1  1  0.871982  0.128021  0.750001  1
  H  H2  1  0.693502  0.306500  0.032930  1
  H  H3  1  0.912895  0.087108  0.250000  1
  H  H4  1  0.693502  0.306500  0.467072  1
  H  H5  1  0.306500  0.693502  0.532929  1
  H  H6  1  0.087108  0.912895  0.750001  1
  H  H7  1  0.306500  0.693502  0.967071  1
  Os  Os8  1  0.413274  0.586729  0.250000  1
  Os  Os9  1  0.586729  0.413274  0.750001  1
