# generated using pymatgen
data_Pr8Ho11MgSn16
_symmetry_space_group_name_H-M   'P 1'
_cell_length_a   8.10161400
_cell_length_b   8.30050181
_cell_length_c   15.63154900
_cell_angle_alpha   90.00000000
_cell_angle_beta   90.00000000
_cell_angle_gamma   89.96212494
_symmetry_Int_Tables_number   1
_chemical_formula_structural   Pr8Ho11MgSn16
_chemical_formula_sum   'Pr8 Ho11 Mg1 Sn16'
_cell_volume   1051.18176301
_cell_formula_units_Z   1
loop_
 _symmetry_equiv_pos_site_id
 _symmetry_equiv_pos_as_xyz
  1  'x, y, z'
loop_
 _atom_site_type_symbol
 _atom_site_label
 _atom_site_symmetry_multiplicity
 _atom_site_fract_x
 _atom_site_fract_y
 _atom_site_fract_z
 _atom_site_occupancy
  Pr  Pr0  1  0.509505  0.323754  0.903866  1
  Pr  Pr1  1  0.007758  0.177076  0.596474  1
  Pr  Pr2  1  0.488989  0.682942  0.402616  1
  Pr  Pr3  1  0.995074  0.824781  0.096107  1
  Pr  Pr4  1  0.488989  0.682942  0.097384  1
  Pr  Pr5  1  0.995074  0.824781  0.403893  1
  Pr  Pr6  1  0.509505  0.323754  0.596134  1
  Pr  Pr7  1  0.007758  0.177076  0.903526  1
  Ho  Ho8  1  0.351436  0.831997  0.875009  1
  Ho  Ho9  1  0.849847  0.664092  0.623333  1
  Ho  Ho10  1  0.643321  0.165124  0.374835  1
  Ho  Ho11  1  0.150138  0.330953  0.123939  1
  Ho  Ho12  1  0.643321  0.165124  0.125165  1
  Ho  Ho13  1  0.150138  0.330953  0.376061  1
  Ho  Ho14  1  0.351436  0.831997  0.624991  1
  Ho  Ho15  1  0.849847  0.664092  0.876667  1
  Ho  Ho16  1  0.185685  0.500562  0.750000  1
  Ho  Ho17  1  0.684499  0.997680  0.750000  1
  Ho  Ho18  1  0.817693  0.497957  0.250000  1
  Mg  Mg19  1  0.314872  0.000951  0.250000  1
  Sn  Sn20  1  0.312789  0.043180  0.038311  1
  Sn  Sn21  1  0.811334  0.461004  0.456385  1
  Sn  Sn22  1  0.686288  0.958296  0.540526  1
  Sn  Sn23  1  0.187769  0.539584  0.958689  1
  Sn  Sn24  1  0.686288  0.958296  0.959474  1
  Sn  Sn25  1  0.187769  0.539584  0.541311  1
  Sn  Sn26  1  0.312789  0.043180  0.461689  1
  Sn  Sn27  1  0.811334  0.461004  0.043615  1
  Sn  Sn28  1  0.550025  0.622591  0.750000  1
  Sn  Sn29  1  0.048674  0.875560  0.750000  1
  Sn  Sn30  1  0.449250  0.383742  0.250000  1
  Sn  Sn31  1  0.951690  0.120270  0.250000  1
  Sn  Sn32  1  0.316280  0.141605  0.750000  1
  Sn  Sn33  1  0.816634  0.357166  0.750000  1
  Sn  Sn34  1  0.693183  0.857440  0.250000  1
  Sn  Sn35  1  0.183016  0.638906  0.250000  1
