# generated using pymatgen
data_Hf6Zn23P
_symmetry_space_group_name_H-M   'P 1'
_cell_length_a   8.72247592
_cell_length_b   8.72225307
_cell_length_c   8.72249200
_cell_angle_alpha   60.00083561
_cell_angle_beta   59.99824970
_cell_angle_gamma   60.00106791
_symmetry_Int_Tables_number   1
_chemical_formula_structural   Hf6Zn23P
_chemical_formula_sum   'Hf6 Zn23 P1'
_cell_volume   469.23948225
_cell_formula_units_Z   1
loop_
 _symmetry_equiv_pos_site_id
 _symmetry_equiv_pos_as_xyz
  1  'x, y, z'
loop_
 _atom_site_type_symbol
 _atom_site_label
 _atom_site_symmetry_multiplicity
 _atom_site_fract_x
 _atom_site_fract_y
 _atom_site_fract_z
 _atom_site_occupancy
  Hf  Hf0  1  0.705070  0.294930  0.294929  1
  Hf  Hf1  1  0.294930  0.705070  0.705071  1
  Hf  Hf2  1  0.294925  0.705074  0.294926  1
  Hf  Hf3  1  0.705075  0.294926  0.705074  1
  Hf  Hf4  1  0.294929  0.294930  0.705071  1
  Hf  Hf5  1  0.705071  0.705070  0.294929  1
  Zn  Zn6  1  0.121767  0.121787  0.121769  1
  Zn  Zn7  1  0.878233  0.878213  0.878231  1
  Zn  Zn8  1  0.121785  0.121772  0.634677  1
  Zn  Zn9  1  0.121769  0.634677  0.121769  1
  Zn  Zn10  1  0.878215  0.878228  0.365323  1
  Zn  Zn11  1  0.878231  0.365323  0.878231  1
  Zn  Zn12  1  0.634678  0.121767  0.121786  1
  Zn  Zn13  1  0.365322  0.878233  0.878214  1
  Zn  Zn14  1  0.500000  0.000000  0.000000  1
  Zn  Zn15  1  0.000000  0.500000  0.500000  1
  Zn  Zn16  1  0.000000  0.500000  0.000000  1
  Zn  Zn17  1  0.500000  0.000000  0.500000  1
  Zn  Zn18  1  0.000000  0.000000  0.500000  1
  Zn  Zn19  1  0.500000  0.500000  0.000000  1
  Zn  Zn20  1  0.333386  0.333397  0.333386  1
  Zn  Zn21  1  0.666614  0.666603  0.666614  1
  Zn  Zn22  1  0.333396  0.333386  0.999833  1
  Zn  Zn23  1  0.333386  0.999832  0.333386  1
  Zn  Zn24  1  0.666604  0.666614  0.000167  1
  Zn  Zn25  1  0.666614  0.000168  0.666614  1
  Zn  Zn26  1  0.999832  0.333386  0.333396  1
  Zn  Zn27  1  0.000168  0.666614  0.666604  1
  Zn  Zn28  1  0.000000  0.000000  0.000000  1
  P  P29  1  0.500000  0.500000  0.500000  1
