# generated using pymatgen
data_Dy2Sc2VSi7Pt9
_symmetry_space_group_name_H-M   'P 1'
_cell_length_a   9.97523282
_cell_length_b   9.97335569
_cell_length_c   3.95876400
_cell_angle_alpha   90.00000000
_cell_angle_beta   90.00000000
_cell_angle_gamma   119.77218267
_symmetry_Int_Tables_number   1
_chemical_formula_structural   Dy2Sc2VSi7Pt9
_chemical_formula_sum   'Dy2 Sc2 V1 Si7 Pt9'
_cell_volume   341.85899031
_cell_formula_units_Z   1
loop_
 _symmetry_equiv_pos_site_id
 _symmetry_equiv_pos_as_xyz
  1  'x, y, z'
loop_
 _atom_site_type_symbol
 _atom_site_label
 _atom_site_symmetry_multiplicity
 _atom_site_fract_x
 _atom_site_fract_y
 _atom_site_fract_z
 _atom_site_occupancy
  Dy  Dy0  1  0.000913  0.997339  0.000000  1
  Dy  Dy1  1  0.331402  0.666175  0.500000  1
  Sc  Sc2  1  0.564708  0.109173  0.500000  1
  Sc  Sc3  1  0.547900  0.438463  0.500000  1
  V  V4  1  0.885861  0.454833  0.500000  1
  Si  Si5  1  0.246915  0.200288  0.500000  1
  Si  Si6  1  0.804729  0.048922  0.500000  1
  Si  Si7  1  0.951019  0.741583  0.500000  1
  Si  Si8  1  0.554587  0.644544  0.000000  1
  Si  Si9  1  0.354508  0.910590  0.000000  1
  Si  Si10  1  0.081579  0.445513  0.000000  1
  Si  Si11  1  0.677010  0.338063  0.000000  1
  Pt  Pt12  1  0.218581  0.937520  0.500000  1
  Pt  Pt13  1  0.060899  0.285094  0.500000  1
  Pt  Pt14  1  0.719571  0.779268  0.500000  1
  Pt  Pt15  1  0.309167  0.412276  0.000000  1
  Pt  Pt16  1  0.587993  0.900764  0.000000  1
  Pt  Pt17  1  0.096988  0.688906  0.000000  1
  Pt  Pt18  1  0.389705  0.174990  0.000000  1
  Pt  Pt19  1  0.828647  0.211722  0.000000  1
  Pt  Pt20  1  0.787320  0.613973  0.000000  1
