# generated using pymatgen
data_TbYb4Dy5(CuPb3)2
_symmetry_space_group_name_H-M   'P 1'
_cell_length_a   9.22148102
_cell_length_b   9.22148218
_cell_length_c   6.79784800
_cell_angle_alpha   90.00000000
_cell_angle_beta   90.00000000
_cell_angle_gamma   120.00693172
_symmetry_Int_Tables_number   1
_chemical_formula_structural   TbYb4Dy5(CuPb3)2
_chemical_formula_sum   'Tb1 Yb4 Dy5 Cu2 Pb6'
_cell_volume   500.57960355
_cell_formula_units_Z   1
loop_
 _symmetry_equiv_pos_site_id
 _symmetry_equiv_pos_as_xyz
  1  'x, y, z'
loop_
 _atom_site_type_symbol
 _atom_site_label
 _atom_site_symmetry_multiplicity
 _atom_site_fract_x
 _atom_site_fract_y
 _atom_site_fract_z
 _atom_site_occupancy
  Tb  Tb0  1  0.259047  0.259047  0.750000  1
  Yb  Yb1  1  0.333447  0.666700  0.000091  1
  Yb  Yb2  1  0.666700  0.333447  0.000091  1
  Yb  Yb3  1  0.666700  0.333447  0.499909  1
  Yb  Yb4  1  0.333447  0.666700  0.499909  1
  Dy  Dy5  1  0.258821  0.999916  0.250000  1
  Dy  Dy6  1  0.741114  0.000013  0.750000  1
  Dy  Dy7  1  0.999916  0.258821  0.250000  1
  Dy  Dy8  1  0.000013  0.741114  0.750000  1
  Dy  Dy9  1  0.740958  0.740958  0.250000  1
  Cu  Cu10  1  0.999793  0.999793  0.000200  1
  Cu  Cu11  1  0.999793  0.999793  0.499800  1
  Pb  Pb12  1  0.613661  0.000077  0.250000  1
  Pb  Pb13  1  0.386589  0.999658  0.750000  1
  Pb  Pb14  1  0.000077  0.613661  0.250000  1
  Pb  Pb15  1  0.999658  0.386589  0.750000  1
  Pb  Pb16  1  0.386292  0.386292  0.250000  1
  Pb  Pb17  1  0.613975  0.613975  0.750000  1
