# generated using pymatgen
data_Ac(BRu)4
_symmetry_space_group_name_H-M   'P 1'
_cell_length_a   7.68864500
_cell_length_b   7.68864500
_cell_length_c   4.01290500
_cell_angle_alpha   90.00000000
_cell_angle_beta   90.00000000
_cell_angle_gamma   90.00000000
_symmetry_Int_Tables_number   1
_chemical_formula_structural   Ac(BRu)4
_chemical_formula_sum   'Ac2 B8 Ru8'
_cell_volume   237.22393020
_cell_formula_units_Z   2
loop_
 _symmetry_equiv_pos_site_id
 _symmetry_equiv_pos_as_xyz
  1  'x, y, z'
loop_
 _atom_site_type_symbol
 _atom_site_label
 _atom_site_symmetry_multiplicity
 _atom_site_fract_x
 _atom_site_fract_y
 _atom_site_fract_z
 _atom_site_occupancy
  Ac  Ac0  1  0.500000  0.500000  0.000000  1
  Ac  Ac1  1  0.000000  0.000000  0.500000  1
  B  B2  1  0.666317  0.788122  0.608165  1
  B  B3  1  0.288122  0.833683  0.108165  1
  B  B4  1  0.833683  0.711878  0.891835  1
  B  B5  1  0.211878  0.666317  0.391835  1
  B  B6  1  0.788122  0.333683  0.391835  1
  B  B7  1  0.166317  0.288122  0.891835  1
  B  B8  1  0.711878  0.166317  0.108165  1
  B  B9  1  0.333683  0.211878  0.608165  1
  Ru  Ru10  1  0.356231  0.107058  0.107630  1
  Ru  Ru11  1  0.392942  0.856231  0.607630  1
  Ru  Ru12  1  0.107058  0.643769  0.892370  1
  Ru  Ru13  1  0.143769  0.392942  0.392370  1
  Ru  Ru14  1  0.856231  0.607058  0.392370  1
  Ru  Ru15  1  0.892942  0.356231  0.892370  1
  Ru  Ru16  1  0.643769  0.892942  0.107630  1
  Ru  Ru17  1  0.607058  0.143769  0.607630  1
