# generated using pymatgen
data_Tb4Sn6Ir7
_symmetry_space_group_name_H-M   'P 1'
_cell_length_a   7.62134269
_cell_length_b   7.62134293
_cell_length_c   7.62134300
_cell_angle_alpha   109.47121551
_cell_angle_beta   109.47121613
_cell_angle_gamma   109.47122075
_symmetry_Int_Tables_number   1
_chemical_formula_structural   Tb4Sn6Ir7
_chemical_formula_sum   'Tb4 Sn6 Ir7'
_cell_volume   340.77887224
_cell_formula_units_Z   1
loop_
 _symmetry_equiv_pos_site_id
 _symmetry_equiv_pos_as_xyz
  1  'x, y, z'
loop_
 _atom_site_type_symbol
 _atom_site_label
 _atom_site_symmetry_multiplicity
 _atom_site_fract_x
 _atom_site_fract_y
 _atom_site_fract_z
 _atom_site_occupancy
  Tb  Tb0  1  0.000000  0.000000  0.500000  1
  Tb  Tb1  1  0.000000  0.500000  0.000000  1
  Tb  Tb2  1  0.500000  0.000000  0.000000  1
  Tb  Tb3  1  0.500000  0.500000  0.500000  1
  Sn  Sn4  1  0.685321  0.685321  0.000000  1
  Sn  Sn5  1  0.314679  0.000000  0.314679  1
  Sn  Sn6  1  0.000000  0.314679  0.314679  1
  Sn  Sn7  1  0.314679  0.314679  0.000000  1
  Sn  Sn8  1  0.685321  0.000000  0.685321  1
  Sn  Sn9  1  0.000000  0.685321  0.685321  1
  Ir  Ir10  1  0.750000  0.250000  0.500000  1
  Ir  Ir11  1  0.750000  0.500000  0.250000  1
  Ir  Ir12  1  0.500000  0.250000  0.750000  1
  Ir  Ir13  1  0.250000  0.500000  0.750000  1
  Ir  Ir14  1  0.250000  0.750000  0.500000  1
  Ir  Ir15  1  0.500000  0.750000  0.250000  1
  Ir  Ir16  1  0.000000  0.000000  0.000000  1
