# generated using pymatgen
data_V12Co5Si7C2
_symmetry_space_group_name_H-M   'P 1'
_cell_length_a   7.50307785
_cell_length_b   7.50307707
_cell_length_c   7.50307649
_cell_angle_alpha   60.48871418
_cell_angle_beta   60.48871559
_cell_angle_gamma   60.48872026
_symmetry_Int_Tables_number   1
_chemical_formula_structural   V12Co5Si7C2
_chemical_formula_sum   'V12 Co5 Si7 C2'
_cell_volume   301.97712566
_cell_formula_units_Z   1
loop_
 _symmetry_equiv_pos_site_id
 _symmetry_equiv_pos_as_xyz
  1  'x, y, z'
loop_
 _atom_site_type_symbol
 _atom_site_label
 _atom_site_symmetry_multiplicity
 _atom_site_fract_x
 _atom_site_fract_y
 _atom_site_fract_z
 _atom_site_occupancy
  V  V0  1  0.055934  0.055934  0.442674  1
  V  V1  1  0.442652  0.056987  0.442652  1
  V  V2  1  0.056987  0.442652  0.442652  1
  V  V3  1  0.442652  0.442652  0.056987  1
  V  V4  1  0.055934  0.442674  0.055934  1
  V  V5  1  0.442674  0.055934  0.055934  1
  V  V6  1  0.192266  0.192266  0.806665  1
  V  V7  1  0.805443  0.193878  0.805443  1
  V  V8  1  0.193878  0.805443  0.805443  1
  V  V9  1  0.805443  0.805443  0.193878  1
  V  V10  1  0.192266  0.806665  0.192266  1
  V  V11  1  0.806665  0.192266  0.192266  1
  Co  Co12  1  0.840839  0.840839  0.840839  1
  Co  Co13  1  0.620807  0.620807  0.131095  1
  Co  Co14  1  0.620807  0.131095  0.620807  1
  Co  Co15  1  0.131095  0.620807  0.620807  1
  Co  Co16  1  0.625143  0.625143  0.625143  1
  Si  Si17  1  0.412355  0.412355  0.761235  1
  Si  Si18  1  0.412355  0.761235  0.412355  1
  Si  Si19  1  0.761235  0.412355  0.412355  1
  Si  Si20  1  0.412613  0.412613  0.412613  1
  Si  Si21  1  0.837453  0.837453  0.496790  1
  Si  Si22  1  0.837453  0.496790  0.837453  1
  Si  Si23  1  0.496790  0.837453  0.837453  1
  C  C24  1  0.249172  0.249172  0.249172  1
  C  C25  1  0.999089  0.999089  0.999089  1
