# generated using pymatgen
data_Ho3Er9(TcOs)2
_symmetry_space_group_name_H-M   'P 1'
_cell_length_a   6.24983005
_cell_length_b   7.39173506
_cell_length_c   9.00145600
_cell_angle_alpha   90.00000000
_cell_angle_beta   90.00000000
_cell_angle_gamma   89.98556863
_symmetry_Int_Tables_number   1
_chemical_formula_structural   Ho3Er9(TcOs)2
_chemical_formula_sum   'Ho3 Er9 Tc2 Os2'
_cell_volume   415.84104076
_cell_formula_units_Z   1
loop_
 _symmetry_equiv_pos_site_id
 _symmetry_equiv_pos_as_xyz
  1  'x, y, z'
loop_
 _atom_site_type_symbol
 _atom_site_label
 _atom_site_symmetry_multiplicity
 _atom_site_fract_x
 _atom_site_fract_y
 _atom_site_fract_z
 _atom_site_occupancy
  Ho  Ho0  1  0.875973  0.539177  0.250000  1
  Ho  Ho1  1  0.624066  0.039183  0.250000  1
  Ho  Ho2  1  0.129397  0.459735  0.750000  1
  Er  Er3  1  0.337026  0.674793  0.062182  1
  Er  Er4  1  0.163000  0.174759  0.437858  1
  Er  Er5  1  0.664556  0.324844  0.562797  1
  Er  Er6  1  0.835333  0.824860  0.937123  1
  Er  Er7  1  0.664556  0.324844  0.937203  1
  Er  Er8  1  0.835333  0.824860  0.562877  1
  Er  Er9  1  0.337026  0.674793  0.437818  1
  Er  Er10  1  0.163000  0.174759  0.062142  1
  Er  Er11  1  0.370512  0.959746  0.750000  1
  Tc  Tc12  1  0.039385  0.884003  0.250000  1
  Tc  Tc13  1  0.460625  0.383965  0.250000  1
  Os  Os14  1  0.959402  0.117668  0.750000  1
  Os  Os15  1  0.540809  0.618010  0.750000  1
