# generated using pymatgen
data_Zn2Co3Si2P5Ru9
_symmetry_space_group_name_H-M   'P 1'
_cell_length_a   9.32774006
_cell_length_b   9.38140222
_cell_length_c   3.67113300
_cell_angle_alpha   90.00000000
_cell_angle_beta   90.00000000
_cell_angle_gamma   119.77747542
_symmetry_Int_Tables_number   1
_chemical_formula_structural   Zn2Co3Si2P5Ru9
_chemical_formula_sum   'Zn2 Co3 Si2 P5 Ru9'
_cell_volume   278.83314787
_cell_formula_units_Z   1
loop_
 _symmetry_equiv_pos_site_id
 _symmetry_equiv_pos_as_xyz
  1  'x, y, z'
loop_
 _atom_site_type_symbol
 _atom_site_label
 _atom_site_symmetry_multiplicity
 _atom_site_fract_x
 _atom_site_fract_y
 _atom_site_fract_z
 _atom_site_occupancy
  Zn  Zn0  1  0.335507  0.664939  0.000000  1
  Zn  Zn1  1  0.649487  0.331396  0.500000  1
  Co  Co2  1  0.130043  0.278795  0.000000  1
  Co  Co3  1  0.723471  0.858120  0.000000  1
  Co  Co4  1  0.144931  0.863197  0.000000  1
  Si  Si5  1  0.003141  0.002396  0.000000  1
  Si  Si6  1  0.389620  0.307502  0.000000  1
  P  P7  1  0.080046  0.380293  0.500000  1
  P  P8  1  0.620603  0.700075  0.500000  1
  P  P9  1  0.299456  0.917478  0.500000  1
  P  P10  1  0.693926  0.076958  0.000000  1
  P  P11  1  0.924791  0.616245  0.000000  1
  Ru  Ru12  1  0.455449  0.090680  0.000000  1
  Ru  Ru13  1  0.896461  0.356313  0.000000  1
  Ru  Ru14  1  0.652005  0.552871  0.000000  1
  Ru  Ru15  1  0.363633  0.466443  0.500000  1
  Ru  Ru16  1  0.536939  0.897457  0.500000  1
  Ru  Ru17  1  0.099062  0.635151  0.500000  1
  Ru  Ru18  1  0.214859  0.113802  0.500000  1
  Ru  Ru19  1  0.884085  0.101773  0.500000  1
  Ru  Ru20  1  0.902483  0.788115  0.500000  1
