# generated using pymatgen
data_Dy9Sc(SiB4)4
_symmetry_space_group_name_H-M   'P 1'
_cell_length_a   7.20275100
_cell_length_b   7.20275100
_cell_length_c   8.02790800
_cell_angle_alpha   90.00000000
_cell_angle_beta   90.00000000
_cell_angle_gamma   90.00000000
_symmetry_Int_Tables_number   1
_chemical_formula_structural   Dy9Sc(SiB4)4
_chemical_formula_sum   'Dy9 Sc1 Si4 B16'
_cell_volume   416.48483223
_cell_formula_units_Z   1
loop_
 _symmetry_equiv_pos_site_id
 _symmetry_equiv_pos_as_xyz
  1  'x, y, z'
loop_
 _atom_site_type_symbol
 _atom_site_label
 _atom_site_symmetry_multiplicity
 _atom_site_fract_x
 _atom_site_fract_y
 _atom_site_fract_z
 _atom_site_occupancy
  Dy  Dy0  1  0.681060  0.179547  0.226008  1
  Dy  Dy1  1  0.318940  0.820453  0.773992  1
  Dy  Dy2  1  0.318940  0.820453  0.226008  1
  Dy  Dy3  1  0.820453  0.681060  0.226008  1
  Dy  Dy4  1  0.820453  0.681060  0.773992  1
  Dy  Dy5  1  0.681060  0.179547  0.773992  1
  Dy  Dy6  1  0.179547  0.318940  0.773992  1
  Dy  Dy7  1  0.179547  0.318940  0.226008  1
  Dy  Dy8  1  0.500000  0.500000  0.500000  1
  Sc  Sc9  1  0.000000  0.000000  0.500000  1
  Si  Si10  1  0.110037  0.622545  0.500000  1
  Si  Si11  1  0.889963  0.377455  0.500000  1
  Si  Si12  1  0.377455  0.110037  0.500000  1
  Si  Si13  1  0.622545  0.889963  0.500000  1
  B  B14  1  0.172664  0.038984  0.000000  1
  B  B15  1  0.827336  0.961016  0.000000  1
  B  B16  1  0.961016  0.172664  0.000000  1
  B  B17  1  0.327613  0.539272  0.000000  1
  B  B18  1  0.038984  0.827336  0.000000  1
  B  B19  1  0.672387  0.460728  0.000000  1
  B  B20  1  0.539272  0.672387  0.000000  1
  B  B21  1  0.460728  0.327613  0.000000  1
  B  B22  1  0.089571  0.589435  0.000000  1
  B  B23  1  0.910429  0.410565  0.000000  1
  B  B24  1  0.410565  0.089571  0.000000  1
  B  B25  1  0.589435  0.910429  0.000000  1
  B  B26  1  0.000000  0.000000  0.164134  1
  B  B27  1  0.000000  0.000000  0.835866  1
  B  B28  1  0.500000  0.500000  0.836823  1
  B  B29  1  0.500000  0.500000  0.163177  1
