# generated using pymatgen
data_LaNd6MnBr12
_symmetry_space_group_name_H-M   'P 1'
_cell_length_a   9.66052243
_cell_length_b   9.68535976
_cell_length_c   9.34211156
_cell_angle_alpha   106.24032945
_cell_angle_beta   106.85700691
_cell_angle_gamma   107.00111583
_symmetry_Int_Tables_number   1
_chemical_formula_structural   LaNd6MnBr12
_chemical_formula_sum   'La1 Nd6 Mn1 Br12'
_cell_volume   733.81688246
_cell_formula_units_Z   1
loop_
 _symmetry_equiv_pos_site_id
 _symmetry_equiv_pos_as_xyz
  1  'x, y, z'
loop_
 _atom_site_type_symbol
 _atom_site_label
 _atom_site_symmetry_multiplicity
 _atom_site_fract_x
 _atom_site_fract_y
 _atom_site_fract_z
 _atom_site_occupancy
  La  La0  1  0.592885  0.520560  0.784916  1
  Nd  Nd1  1  0.000597  0.003401  0.996388  1
  Nd  Nd2  1  0.520346  0.808740  0.603604  1
  Nd  Nd3  1  0.811702  0.601480  0.521327  1
  Nd  Nd4  1  0.403150  0.477923  0.207529  1
  Nd  Nd5  1  0.479657  0.189320  0.399566  1
  Nd  Nd6  1  0.188390  0.396546  0.483515  1
  Mn  Mn7  1  0.508158  0.500442  0.524753  1
  Br  Br8  1  0.569703  0.175840  0.719484  1
  Br  Br9  1  0.180972  0.714931  0.564449  1
  Br  Br10  1  0.712674  0.566453  0.177486  1
  Br  Br11  1  0.426924  0.809156  0.275446  1
  Br  Br12  1  0.814350  0.280880  0.423018  1
  Br  Br13  1  0.272729  0.426890  0.820770  1
  Br  Br14  1  0.674149  0.891252  0.965514  1
  Br  Br15  1  0.876799  0.956210  0.655199  1
  Br  Br16  1  0.967552  0.678104  0.884820  1
  Br  Br17  1  0.332618  0.125280  0.038471  1
  Br  Br18  1  0.121166  0.042352  0.335250  1
  Br  Br19  1  0.045477  0.334237  0.118493  1
