# generated using pymatgen
data_Ti12V8Si15Ge
_symmetry_space_group_name_H-M   'P 1'
_cell_length_a   6.55064192
_cell_length_b   6.54456939
_cell_length_c   12.05915513
_cell_angle_alpha   90.01284390
_cell_angle_beta   90.04799318
_cell_angle_gamma   89.96279831
_symmetry_Int_Tables_number   1
_chemical_formula_structural   Ti12V8Si15Ge
_chemical_formula_sum   'Ti12 V8 Si15 Ge1'
_cell_volume   516.98931095
_cell_formula_units_Z   1
loop_
 _symmetry_equiv_pos_site_id
 _symmetry_equiv_pos_as_xyz
  1  'x, y, z'
loop_
 _atom_site_type_symbol
 _atom_site_label
 _atom_site_symmetry_multiplicity
 _atom_site_fract_x
 _atom_site_fract_y
 _atom_site_fract_z
 _atom_site_occupancy
  Ti  Ti0  1  0.003720  0.339878  0.220513  1
  Ti  Ti1  1  0.159888  0.503545  0.470229  1
  Ti  Ti2  1  0.836934  0.499082  0.972608  1
  Ti  Ti3  1  0.504076  0.159545  0.529093  1
  Ti  Ti4  1  0.496778  0.839510  0.029671  1
  Ti  Ti5  1  0.996424  0.663522  0.719666  1
  Ti  Ti6  1  0.342030  0.001945  0.779084  1
  Ti  Ti7  1  0.660197  0.996467  0.279554  1
  Ti  Ti8  1  0.166887  0.164980  0.001506  1
  Ti  Ti9  1  0.333835  0.665801  0.250047  1
  Ti  Ti10  1  0.662911  0.333733  0.749450  1
  Ti  Ti11  1  0.834095  0.834103  0.499786  1
  V  V12  1  0.994182  0.154971  0.619452  1
  V  V13  1  0.347797  0.495841  0.872233  1
  V  V14  1  0.655765  0.506065  0.371569  1
  V  V15  1  0.494079  0.344318  0.128431  1
  V  V16  1  0.506101  0.656074  0.628146  1
  V  V17  1  0.005924  0.844099  0.121794  1
  V  V18  1  0.155754  0.994165  0.378342  1
  V  V19  1  0.841503  0.001746  0.879777  1
  Si  Si20  1  0.202313  0.541898  0.062453  1
  Si  Si21  1  0.797647  0.458063  0.562326  1
  Si  Si22  1  0.541742  0.202062  0.937735  1
  Si  Si23  1  0.458159  0.797476  0.437291  1
  Si  Si24  1  0.958202  0.702438  0.312452  1
  Si  Si25  1  0.297973  0.041502  0.188107  1
  Si  Si26  1  0.703349  0.958200  0.687366  1
  Si  Si27  1  0.292831  0.367565  0.670421  1
  Si  Si28  1  0.133291  0.791507  0.922501  1
  Si  Si29  1  0.867142  0.208888  0.421994  1
  Si  Si30  1  0.791176  0.132637  0.077903  1
  Si  Si31  1  0.209409  0.867437  0.577019  1
  Si  Si32  1  0.708397  0.632903  0.173014  1
  Si  Si33  1  0.367451  0.291430  0.327622  1
  Si  Si34  1  0.633243  0.708154  0.826962  1
  Ge  Ge35  1  0.038793  0.298455  0.813883  1
