# generated using pymatgen
data_Lu2MoOsRu2
_symmetry_space_group_name_H-M   'P 1'
_cell_length_a   5.16997548
_cell_length_b   5.46482879
_cell_length_c   8.98199200
_cell_angle_alpha   90.00000000
_cell_angle_beta   90.00000000
_cell_angle_gamma   121.90521870
_symmetry_Int_Tables_number   1
_chemical_formula_structural   Lu2MoOsRu2
_chemical_formula_sum   'Lu4 Mo2 Os2 Ru4'
_cell_volume   215.43005381
_cell_formula_units_Z   2
loop_
 _symmetry_equiv_pos_site_id
 _symmetry_equiv_pos_as_xyz
  1  'x, y, z'
loop_
 _atom_site_type_symbol
 _atom_site_label
 _atom_site_symmetry_multiplicity
 _atom_site_fract_x
 _atom_site_fract_y
 _atom_site_fract_z
 _atom_site_occupancy
  Lu  Lu0  1  0.340989  0.670494  0.433364  1
  Lu  Lu1  1  0.658344  0.329171  0.567662  1
  Lu  Lu2  1  0.658344  0.329171  0.932338  1
  Lu  Lu3  1  0.340989  0.670494  0.066636  1
  Mo  Mo4  1  0.319252  0.159626  0.250000  1
  Mo  Mo5  1  0.680578  0.840289  0.750000  1
  Os  Os6  1  0.175513  0.351711  0.750000  1
  Os  Os7  1  0.175513  0.823802  0.750000  1
  Ru  Ru8  1  0.821563  0.647613  0.250000  1
  Ru  Ru9  1  0.003678  0.001840  0.001187  1
  Ru  Ru10  1  0.821563  0.173948  0.250000  1
  Ru  Ru11  1  0.003678  0.001840  0.498813  1
