# generated using pymatgen
data_Li7Y8MgSn8
_symmetry_space_group_name_H-M   'P 1'
_cell_length_a   9.44158614
_cell_length_b   9.44158573
_cell_length_c   7.30405279
_cell_angle_alpha   90.25282166
_cell_angle_beta   89.74717617
_cell_angle_gamma   119.86871643
_symmetry_Int_Tables_number   1
_chemical_formula_structural   Li7Y8MgSn8
_chemical_formula_sum   'Li7 Y8 Mg1 Sn8'
_cell_volume   564.61420497
_cell_formula_units_Z   1
loop_
 _symmetry_equiv_pos_site_id
 _symmetry_equiv_pos_as_xyz
  1  'x, y, z'
loop_
 _atom_site_type_symbol
 _atom_site_label
 _atom_site_symmetry_multiplicity
 _atom_site_fract_x
 _atom_site_fract_y
 _atom_site_fract_z
 _atom_site_occupancy
  Li  Li0  1  0.334013  0.167180  0.690539  1
  Li  Li1  1  0.832820  0.665987  0.690539  1
  Li  Li2  1  0.166076  0.333378  0.190332  1
  Li  Li3  1  0.666622  0.833924  0.190332  1
  Li  Li4  1  0.832982  0.167018  0.690435  1
  Li  Li5  1  0.333386  0.666614  0.815008  1
  Li  Li6  1  0.667249  0.332751  0.315253  1
  Y  Y7  1  0.512834  0.487166  0.989286  1
  Y  Y8  1  0.025007  0.510440  0.493058  1
  Y  Y9  1  0.489560  0.974993  0.493058  1
  Y  Y10  1  0.518354  0.028953  0.989276  1
  Y  Y11  1  0.971047  0.481646  0.989276  1
  Y  Y12  1  0.487334  0.512666  0.494806  1
  Y  Y13  1  0.996901  0.003099  0.982666  1
  Y  Y14  1  0.999025  0.000975  0.486920  1
  Mg  Mg15  1  0.166670  0.833330  0.194093  1
  Sn  Sn16  1  0.166488  0.833512  0.756415  1
  Sn  Sn17  1  0.336352  0.172735  0.259198  1
  Sn  Sn18  1  0.827265  0.663648  0.259198  1
  Sn  Sn19  1  0.166919  0.333613  0.757551  1
  Sn  Sn20  1  0.666387  0.833081  0.757551  1
  Sn  Sn21  1  0.833379  0.166621  0.257539  1
  Sn  Sn22  1  0.336734  0.663266  0.225096  1
  Sn  Sn23  1  0.666597  0.333403  0.722579  1
