# generated using pymatgen
data_Tb5SnRu2
_symmetry_space_group_name_H-M   'P 1'
_cell_length_a   8.85264242
_cell_length_b   8.85264103
_cell_length_c   8.85264200
_cell_angle_alpha   127.79183294
_cell_angle_beta   127.79183418
_cell_angle_gamma   76.96249870
_symmetry_Int_Tables_number   1
_chemical_formula_structural   Tb5SnRu2
_chemical_formula_sum   'Tb10 Sn2 Ru4'
_cell_volume   420.57907355
_cell_formula_units_Z   2
loop_
 _symmetry_equiv_pos_site_id
 _symmetry_equiv_pos_as_xyz
  1  'x, y, z'
loop_
 _atom_site_type_symbol
 _atom_site_label
 _atom_site_symmetry_multiplicity
 _atom_site_fract_x
 _atom_site_fract_y
 _atom_site_fract_z
 _atom_site_occupancy
  Tb  Tb0  1  0.000000  0.000000  0.000000  1
  Tb  Tb1  1  0.500000  0.500000  0.000000  1
  Tb  Tb2  1  0.790761  0.290761  0.818482  1
  Tb  Tb3  1  0.209239  0.709239  0.181518  1
  Tb  Tb4  1  0.472280  0.972280  0.181518  1
  Tb  Tb5  1  0.290761  0.472280  0.500000  1
  Tb  Tb6  1  0.027720  0.209239  0.500000  1
  Tb  Tb7  1  0.527720  0.027720  0.818482  1
  Tb  Tb8  1  0.709239  0.527720  0.500000  1
  Tb  Tb9  1  0.972280  0.790761  0.500000  1
  Sn  Sn10  1  0.250000  0.250000  0.000000  1
  Sn  Sn11  1  0.750000  0.750000  0.000000  1
  Ru  Ru12  1  0.141434  0.641434  0.782867  1
  Ru  Ru13  1  0.858566  0.358566  0.217133  1
  Ru  Ru14  1  0.641434  0.858566  0.500000  1
  Ru  Ru15  1  0.358566  0.141434  0.500000  1
