# generated using pymatgen
data_Ho20Bi8OsAu3
_symmetry_space_group_name_H-M   'P 1'
_cell_length_a   8.06554931
_cell_length_b   9.17724300
_cell_length_c   12.30299160
_cell_angle_alpha   90.00000000
_cell_angle_beta   90.14690255
_cell_angle_gamma   90.00000000
_symmetry_Int_Tables_number   1
_chemical_formula_structural   Ho20Bi8OsAu3
_chemical_formula_sum   'Ho20 Bi8 Os1 Au3'
_cell_volume   910.65836710
_cell_formula_units_Z   1
loop_
 _symmetry_equiv_pos_site_id
 _symmetry_equiv_pos_as_xyz
  1  'x, y, z'
loop_
 _atom_site_type_symbol
 _atom_site_label
 _atom_site_symmetry_multiplicity
 _atom_site_fract_x
 _atom_site_fract_y
 _atom_site_fract_z
 _atom_site_occupancy
  Ho  Ho0  1  0.839872  0.750000  0.793025  1
  Ho  Ho1  1  0.168630  0.250000  0.216252  1
  Ho  Ho2  1  0.332087  0.250000  0.715871  1
  Ho  Ho3  1  0.673768  0.750000  0.280448  1
  Ho  Ho4  1  0.366440  0.750000  0.699255  1
  Ho  Ho5  1  0.634855  0.250000  0.298502  1
  Ho  Ho6  1  0.864894  0.250000  0.796208  1
  Ho  Ho7  1  0.124550  0.750000  0.196061  1
  Ho  Ho8  1  0.956898  0.750000  0.500904  1
  Ho  Ho9  1  0.041075  0.250000  0.501878  1
  Ho  Ho10  1  0.456945  0.250000  0.000839  1
  Ho  Ho11  1  0.552602  0.750000  0.000189  1
  Ho  Ho12  1  0.680934  0.052563  0.566983  1
  Ho  Ho13  1  0.316536  0.948638  0.431609  1
  Ho  Ho14  1  0.176127  0.941993  0.935867  1
  Ho  Ho15  1  0.316536  0.551362  0.431609  1
  Ho  Ho16  1  0.821389  0.034844  0.065981  1
  Ho  Ho17  1  0.680934  0.447437  0.566983  1
  Ho  Ho18  1  0.821389  0.465156  0.065981  1
  Ho  Ho19  1  0.176127  0.558007  0.935867  1
  Bi  Bi20  1  0.566613  0.491084  0.826509  1
  Bi  Bi21  1  0.431685  0.508798  0.173588  1
  Bi  Bi22  1  0.069444  0.508826  0.673252  1
  Bi  Bi23  1  0.431685  0.991202  0.173588  1
  Bi  Bi24  1  0.931507  0.489635  0.328971  1
  Bi  Bi25  1  0.566613  0.008916  0.826509  1
  Bi  Bi26  1  0.931507  0.010365  0.328971  1
  Bi  Bi27  1  0.069444  0.991174  0.673252  1
  Os  Os28  1  0.919111  0.750000  0.014453  1
  Au  Au29  1  0.584719  0.750000  0.512067  1
  Au  Au30  1  0.411941  0.250000  0.483400  1
  Au  Au31  1  0.083146  0.250000  0.985131  1
