# generated using pymatgen
data_Hf2Ta4Al16Ir7
_symmetry_space_group_name_H-M   'P 1'
_cell_length_a   8.63545334
_cell_length_b   8.63545380
_cell_length_c   8.61371200
_cell_angle_alpha   60.08325116
_cell_angle_beta   60.08324943
_cell_angle_gamma   59.86030635
_symmetry_Int_Tables_number   1
_chemical_formula_structural   Hf2Ta4Al16Ir7
_chemical_formula_sum   'Hf2 Ta4 Al16 Ir7'
_cell_volume   454.28589371
_cell_formula_units_Z   1
loop_
 _symmetry_equiv_pos_site_id
 _symmetry_equiv_pos_as_xyz
  1  'x, y, z'
loop_
 _atom_site_type_symbol
 _atom_site_label
 _atom_site_symmetry_multiplicity
 _atom_site_fract_x
 _atom_site_fract_y
 _atom_site_fract_z
 _atom_site_occupancy
  Hf  Hf0  1  0.686196  0.313804  0.686279  1
  Hf  Hf1  1  0.313804  0.686196  0.686279  1
  Ta  Ta2  1  0.677200  0.677200  0.321135  1
  Ta  Ta3  1  0.328008  0.671992  0.326470  1
  Ta  Ta4  1  0.671992  0.328008  0.326470  1
  Ta  Ta5  1  0.322800  0.322800  0.675534  1
  Al  Al6  1  0.881656  0.881656  0.356012  1
  Al  Al7  1  0.881376  0.358780  0.881717  1
  Al  Al8  1  0.358780  0.881376  0.881717  1
  Al  Al9  1  0.878169  0.878169  0.881837  1
  Al  Al10  1  0.121831  0.121831  0.638174  1
  Al  Al11  1  0.118624  0.641220  0.121872  1
  Al  Al12  1  0.641220  0.118624  0.121872  1
  Al  Al13  1  0.118344  0.118344  0.119324  1
  Al  Al14  1  0.662563  0.662563  0.010650  1
  Al  Al15  1  0.661869  0.012834  0.660584  1
  Al  Al16  1  0.012834  0.661869  0.660584  1
  Al  Al17  1  0.663643  0.663643  0.659418  1
  Al  Al18  1  0.336357  0.336357  0.986706  1
  Al  Al19  1  0.338131  0.987166  0.335288  1
  Al  Al20  1  0.987166  0.338131  0.335288  1
  Al  Al21  1  0.337437  0.337437  0.335776  1
  Ir  Ir22  1  0.000000  0.000000  0.995790  1
  Ir  Ir23  1  0.000000  0.000000  0.497501  1
  Ir  Ir24  1  0.500012  0.002861  0.497359  1
  Ir  Ir25  1  0.002861  0.500012  0.497359  1
  Ir  Ir26  1  0.500000  0.500000  0.002546  1
  Ir  Ir27  1  0.997139  0.499988  0.000232  1
  Ir  Ir28  1  0.499988  0.997139  0.000232  1
