# generated using pymatgen
data_Er8Ta4Ti7Si16Rh
_symmetry_space_group_name_H-M   'P 1'
_cell_length_a   7.00286874
_cell_length_b   7.00703581
_cell_length_c   12.83366307
_cell_angle_alpha   90.14577951
_cell_angle_beta   89.85715705
_cell_angle_gamma   89.64047012
_symmetry_Int_Tables_number   1
_chemical_formula_structural   Er8Ta4Ti7Si16Rh
_chemical_formula_sum   'Er8 Ta4 Ti7 Si16 Rh1'
_cell_volume   629.72311211
_cell_formula_units_Z   1
loop_
 _symmetry_equiv_pos_site_id
 _symmetry_equiv_pos_as_xyz
  1  'x, y, z'
loop_
 _atom_site_type_symbol
 _atom_site_label
 _atom_site_symmetry_multiplicity
 _atom_site_fract_x
 _atom_site_fract_y
 _atom_site_fract_z
 _atom_site_occupancy
  Er  Er0  1  0.341263  0.001402  0.467211  1
  Er  Er1  1  0.496864  0.841798  0.718401  1
  Er  Er2  1  0.501574  0.158399  0.215875  1
  Er  Er3  1  0.842148  0.497690  0.281482  1
  Er  Er4  1  0.158152  0.502184  0.784625  1
  Er  Er5  1  0.656218  0.999784  0.968699  1
  Er  Er6  1  0.001688  0.341124  0.532197  1
  Er  Er7  1  0.997858  0.659033  0.031517  1
  Ta  Ta8  1  0.174121  0.826836  0.247988  1
  Ta  Ta9  1  0.826778  0.174030  0.752230  1
  Ta  Ta10  1  0.674226  0.673235  0.499899  1
  Ta  Ta11  1  0.146977  0.002574  0.874877  1
  Ti  Ti12  1  0.493279  0.656943  0.124675  1
  Ti  Ti13  1  0.508297  0.348361  0.628041  1
  Ti  Ti14  1  0.656882  0.492134  0.875067  1
  Ti  Ti15  1  0.349540  0.508235  0.372117  1
  Ti  Ti16  1  0.848468  0.991710  0.374044  1
  Ti  Ti17  1  0.004431  0.146706  0.124745  1
  Ti  Ti18  1  0.991844  0.847795  0.626524  1
  Si  Si19  1  0.204147  0.134511  0.682804  1
  Si  Si20  1  0.372752  0.702868  0.932959  1
  Si  Si21  1  0.631330  0.296645  0.433704  1
  Si  Si22  1  0.702235  0.371200  0.066950  1
  Si  Si23  1  0.296921  0.631164  0.565963  1
  Si  Si24  1  0.796842  0.867079  0.183251  1
  Si  Si25  1  0.133199  0.202882  0.315783  1
  Si  Si26  1  0.863133  0.795279  0.817696  1
  Si  Si27  1  0.290173  0.950547  0.062602  1
  Si  Si28  1  0.547031  0.793742  0.314512  1
  Si  Si29  1  0.448673  0.210194  0.817028  1
  Si  Si30  1  0.793982  0.546488  0.684958  1
  Si  Si31  1  0.209511  0.449017  0.182200  1
  Si  Si32  1  0.707486  0.047207  0.564494  1
  Si  Si33  1  0.951332  0.291532  0.938437  1
  Si  Si34  1  0.047257  0.706849  0.435275  1
  Rh  Rh35  1  0.333385  0.332821  0.001169  1
