# generated using pymatgen
data_Mn4Nb12Al8C3N
_symmetry_space_group_name_H-M   'P 1'
_cell_length_a   8.25808570
_cell_length_b   8.26733565
_cell_length_c   8.26733700
_cell_angle_alpha   59.99999859
_cell_angle_beta   59.96293879
_cell_angle_gamma   59.96293550
_symmetry_Int_Tables_number   1
_chemical_formula_structural   Mn4Nb12Al8C3N
_chemical_formula_sum   'Mn4 Nb12 Al8 C3 N1'
_cell_volume   398.88901177
_cell_formula_units_Z   1
loop_
 _symmetry_equiv_pos_site_id
 _symmetry_equiv_pos_as_xyz
  1  'x, y, z'
loop_
 _atom_site_type_symbol
 _atom_site_label
 _atom_site_symmetry_multiplicity
 _atom_site_fract_x
 _atom_site_fract_y
 _atom_site_fract_z
 _atom_site_occupancy
  Mn  Mn0  1  0.125000  0.625000  0.625000  1
  Mn  Mn1  1  0.625000  0.125000  0.625000  1
  Mn  Mn2  1  0.625000  0.625000  0.125000  1
  Mn  Mn3  1  0.625000  0.625000  0.625000  1
  Nb  Nb4  1  0.804088  0.805719  0.195096  1
  Nb  Nb5  1  0.196297  0.196397  0.803653  1
  Nb  Nb6  1  0.804088  0.195096  0.805719  1
  Nb  Nb7  1  0.196297  0.803653  0.196397  1
  Nb  Nb8  1  0.196297  0.803653  0.803653  1
  Nb  Nb9  1  0.804088  0.195096  0.195096  1
  Nb  Nb10  1  0.445912  0.444281  0.054904  1
  Nb  Nb11  1  0.053703  0.053603  0.446347  1
  Nb  Nb12  1  0.445912  0.054904  0.444281  1
  Nb  Nb13  1  0.053703  0.446347  0.053603  1
  Nb  Nb14  1  0.053703  0.446347  0.446347  1
  Nb  Nb15  1  0.445912  0.054904  0.054904  1
  Al  Al16  1  0.751161  0.416281  0.416281  1
  Al  Al17  1  0.414446  0.749594  0.417981  1
  Al  Al18  1  0.414446  0.417981  0.749594  1
  Al  Al19  1  0.414446  0.417981  0.417981  1
  Al  Al20  1  0.498839  0.833719  0.833719  1
  Al  Al21  1  0.835554  0.500406  0.832019  1
  Al  Al22  1  0.835554  0.832019  0.500406  1
  Al  Al23  1  0.835554  0.832019  0.832019  1
  C  C24  1  0.125000  0.625000  0.125000  1
  C  C25  1  0.125000  0.125000  0.625000  1
  C  C26  1  0.125000  0.125000  0.125000  1
  N  N27  1  0.625000  0.125000  0.125000  1
