# generated using pymatgen
data_Pa4Ta3Ti3Ge8
_symmetry_space_group_name_H-M   'P 1'
_cell_length_a   7.14667424
_cell_length_b   7.07559741
_cell_length_c   7.18648726
_cell_angle_alpha   70.02000187
_cell_angle_beta   90.03838107
_cell_angle_gamma   90.12478252
_symmetry_Int_Tables_number   1
_chemical_formula_structural   Pa4Ta3Ti3Ge8
_chemical_formula_sum   'Pa4 Ta3 Ti3 Ge8'
_cell_volume   341.52594185
_cell_formula_units_Z   1
loop_
 _symmetry_equiv_pos_site_id
 _symmetry_equiv_pos_as_xyz
  1  'x, y, z'
loop_
 _atom_site_type_symbol
 _atom_site_label
 _atom_site_symmetry_multiplicity
 _atom_site_fract_x
 _atom_site_fract_y
 _atom_site_fract_z
 _atom_site_occupancy
  Pa  Pa0  1  0.669421  0.941232  0.688586  1
  Pa  Pa1  1  0.331127  0.057969  0.310773  1
  Pa  Pa2  1  0.170239  0.558697  0.311828  1
  Pa  Pa3  1  0.829996  0.442043  0.687046  1
  Ta  Ta4  1  0.664772  0.747309  0.251276  1
  Ta  Ta5  1  0.998147  0.999256  0.001397  1
  Ta  Ta6  1  0.500956  0.501225  0.001599  1
  Ti  Ti7  1  0.335096  0.252959  0.749146  1
  Ti  Ti8  1  0.164375  0.752966  0.748986  1
  Ti  Ti9  1  0.834798  0.246244  0.251082  1
  Ge  Ge10  1  0.956066  0.857459  0.413892  1
  Ge  Ge11  1  0.047202  0.143715  0.588318  1
  Ge  Ge12  1  0.450873  0.642948  0.589579  1
  Ge  Ge13  1  0.546739  0.354174  0.413168  1
  Ge  Ge14  1  0.867496  0.632434  0.999590  1
  Ge  Ge15  1  0.134867  0.365657  0.998093  1
  Ge  Ge16  1  0.363611  0.867494  0.995198  1
  Ge  Ge17  1  0.634220  0.136218  0.000443  1
