# generated using pymatgen
data_Tb2ThGa3PdPt2
_symmetry_space_group_name_H-M   'P 1'
_cell_length_a   7.40408274
_cell_length_b   7.41977828
_cell_length_c   3.90419400
_cell_angle_alpha   90.00000000
_cell_angle_beta   90.00000000
_cell_angle_gamma   120.07014440
_symmetry_Int_Tables_number   1
_chemical_formula_structural   Tb2ThGa3PdPt2
_chemical_formula_sum   'Tb2 Th1 Ga3 Pd1 Pt2'
_cell_volume   185.61659844
_cell_formula_units_Z   1
loop_
 _symmetry_equiv_pos_site_id
 _symmetry_equiv_pos_as_xyz
  1  'x, y, z'
loop_
 _atom_site_type_symbol
 _atom_site_label
 _atom_site_symmetry_multiplicity
 _atom_site_fract_x
 _atom_site_fract_y
 _atom_site_fract_z
 _atom_site_occupancy
  Tb  Tb0  1  0.409482  0.410314  0.500000  1
  Tb  Tb1  1  0.590518  0.000832  0.500000  1
  Th  Th2  1  0.000000  0.586335  0.500000  1
  Ga  Ga3  1  0.740520  0.751021  0.000000  1
  Ga  Ga4  1  0.259480  0.010502  0.000000  1
  Ga  Ga5  1  0.000000  0.239782  0.000000  1
  Pd  Pd6  1  0.000000  0.995813  0.500000  1
  Pt  Pt7  1  0.671420  0.338410  0.000000  1
  Pt  Pt8  1  0.328580  0.666992  0.000000  1
