# generated using pymatgen
data_CeNd8Sm(Al2Ru3)2
_symmetry_space_group_name_H-M   'P 1'
_cell_length_a   8.59707536
_cell_length_b   8.60313333
_cell_length_c   8.48357188
_cell_angle_alpha   110.33614604
_cell_angle_beta   109.01823597
_cell_angle_gamma   109.56784739
_symmetry_Int_Tables_number   1
_chemical_formula_structural   CeNd8Sm(Al2Ru3)2
_chemical_formula_sum   'Ce1 Nd8 Sm1 Al4 Ru6'
_cell_volume   479.91548040
_cell_formula_units_Z   1
loop_
 _symmetry_equiv_pos_site_id
 _symmetry_equiv_pos_as_xyz
  1  'x, y, z'
loop_
 _atom_site_type_symbol
 _atom_site_label
 _atom_site_symmetry_multiplicity
 _atom_site_fract_x
 _atom_site_fract_y
 _atom_site_fract_z
 _atom_site_occupancy
  Ce  Ce0  1  0.195041  0.945756  0.249877  1
  Nd  Nd1  1  0.781549  0.788118  0.786505  1
  Nd  Nd2  1  0.310987  0.561111  0.749308  1
  Nd  Nd3  1  0.755730  0.317032  0.565640  1
  Nd  Nd4  1  0.564892  0.749162  0.312366  1
  Nd  Nd5  1  0.718241  0.499926  0.996690  1
  Nd  Nd6  1  0.003146  0.721139  0.502324  1
  Nd  Nd7  1  0.501755  0.995477  0.713843  1
  Nd  Nd8  1  0.250554  0.189214  0.934054  1
  Sm  Sm9  1  0.935088  0.252097  0.186290  1
  Al  Al10  1  0.411269  0.408777  0.404898  1
  Al  Al11  1  0.095021  0.500414  0.009396  1
  Al  Al12  1  0.992361  0.087578  0.491412  1
  Al  Al13  1  0.504688  0.006547  0.094536  1
  Ru  Ru14  1  0.880871  0.131466  0.750910  1
  Ru  Ru15  1  0.738439  0.875812  0.120937  1
  Ru  Ru16  1  0.135182  0.766933  0.921868  1
  Ru  Ru17  1  0.254010  0.615644  0.380220  1
  Ru  Ru18  1  0.346590  0.213842  0.579676  1
  Ru  Ru19  1  0.624583  0.373955  0.249254  1
