# generated using pymatgen
data_K2Si6WO15
_symmetry_space_group_name_H-M   'P 1'
_cell_length_a   7.07249402
_cell_length_b   7.39213262
_cell_length_c   7.75349828
_cell_angle_alpha   99.32901026
_cell_angle_beta   106.51727003
_cell_angle_gamma   112.15213940
_symmetry_Int_Tables_number   1
_chemical_formula_structural   K2Si6WO15
_chemical_formula_sum   'K2 Si6 W1 O15'
_cell_volume   342.99190491
_cell_formula_units_Z   1
loop_
 _symmetry_equiv_pos_site_id
 _symmetry_equiv_pos_as_xyz
  1  'x, y, z'
loop_
 _atom_site_type_symbol
 _atom_site_label
 _atom_site_symmetry_multiplicity
 _atom_site_fract_x
 _atom_site_fract_y
 _atom_site_fract_z
 _atom_site_occupancy
  K  K0  1  0.288234  0.714411  0.820538  1
  K  K1  1  0.711766  0.285589  0.179462  1
  Si  Si2  1  0.696657  0.814564  0.258248  1
  Si  Si3  1  0.303343  0.185436  0.741752  1
  Si  Si4  1  0.147265  0.832869  0.370447  1
  Si  Si5  1  0.852735  0.167131  0.629553  1
  Si  Si6  1  0.319500  0.503257  0.316077  1
  Si  Si7  1  0.680500  0.496743  0.683923  1
  W  W8  1  0.000000  0.000000  0.000000  1
  O  O9  1  0.454215  0.614352  0.190139  1
  O  O10  1  0.545785  0.385648  0.809861  1
  O  O11  1  0.210444  0.643914  0.394535  1
  O  O12  1  0.789556  0.356086  0.605465  1
  O  O13  1  0.877831  0.719105  0.807352  1
  O  O14  1  0.122169  0.280895  0.192648  1
  O  O15  1  0.884873  0.738160  0.345704  1
  O  O16  1  0.115127  0.261840  0.654296  1
  O  O17  1  0.721661  0.898769  0.083456  1
  O  O18  1  0.500000  0.500000  0.500000  1
  O  O19  1  0.294351  0.010711  0.574669  1
  O  O20  1  0.705649  0.989289  0.425331  1
  O  O21  1  0.818560  0.089142  0.805349  1
  O  O22  1  0.181440  0.910858  0.194651  1
  O  O23  1  0.278339  0.101231  0.916544  1
