# generated using pymatgen
data_YbPu3O8
_symmetry_space_group_name_H-M   'P 1'
_cell_length_a   6.44951593
_cell_length_b   6.44951555
_cell_length_c   6.44951500
_cell_angle_alpha   131.76227600
_cell_angle_beta   131.76228488
_cell_angle_gamma   70.60474113
_symmetry_Int_Tables_number   1
_chemical_formula_structural   YbPu3O8
_chemical_formula_sum   'Yb1 Pu3 O8'
_cell_volume   146.23601830
_cell_formula_units_Z   1
loop_
 _symmetry_equiv_pos_site_id
 _symmetry_equiv_pos_as_xyz
  1  'x, y, z'
loop_
 _atom_site_type_symbol
 _atom_site_label
 _atom_site_symmetry_multiplicity
 _atom_site_fract_x
 _atom_site_fract_y
 _atom_site_fract_z
 _atom_site_occupancy
  Yb  Yb0  1  0.500000  0.500000  0.000000  1
  Pu  Pu1  1  0.250000  0.750000  0.500000  1
  Pu  Pu2  1  0.000000  0.000000  0.000000  1
  Pu  Pu3  1  0.750000  0.250000  0.500000  1
  O  O4  1  0.371530  0.371704  0.487147  1
  O  O5  1  0.884555  0.884381  0.512853  1
  O  O6  1  0.884555  0.371704  0.000174  1
  O  O7  1  0.628296  0.115445  0.999826  1
  O  O8  1  0.371530  0.884381  0.999826  1
  O  O9  1  0.115619  0.628470  0.000174  1
  O  O10  1  0.115619  0.115445  0.487147  1
  O  O11  1  0.628296  0.628470  0.512853  1
