# generated using pymatgen
data_La4AsCl6
_symmetry_space_group_name_H-M   'P 1'
_cell_length_a   4.20734700
_cell_length_b   13.53068955
_cell_length_c   14.36397900
_cell_angle_alpha   90.45919893
_cell_angle_beta   90.00000000
_cell_angle_gamma   90.00000000
_symmetry_Int_Tables_number   1
_chemical_formula_structural   La4AsCl6
_chemical_formula_sum   'La8 As2 Cl12'
_cell_volume   817.69073143
_cell_formula_units_Z   2
loop_
 _symmetry_equiv_pos_site_id
 _symmetry_equiv_pos_as_xyz
  1  'x, y, z'
loop_
 _atom_site_type_symbol
 _atom_site_label
 _atom_site_symmetry_multiplicity
 _atom_site_fract_x
 _atom_site_fract_y
 _atom_site_fract_z
 _atom_site_occupancy
  La  La0  1  0.500000  0.377586  0.834865  1
  La  La1  1  0.500000  0.122378  0.335832  1
  La  La2  1  0.500000  0.878653  0.664709  1
  La  La3  1  0.500000  0.622296  0.165042  1
  La  La4  1  0.000000  0.124431  0.581907  1
  La  La5  1  0.000000  0.876130  0.418681  1
  La  La6  1  0.000000  0.623984  0.918820  1
  La  La7  1  0.000000  0.375417  0.080834  1
  As  As8  1  0.500000  0.000376  0.500192  1
  As  As9  1  0.500000  0.499894  0.000034  1
  Cl  Cl10  1  0.500000  0.244083  0.163950  1
  Cl  Cl11  1  0.500000  0.754143  0.834399  1
  Cl  Cl12  1  0.500000  0.744670  0.336242  1
  Cl  Cl13  1  0.500000  0.255075  0.664478  1
  Cl  Cl14  1  0.000000  0.247787  0.410440  1
  Cl  Cl15  1  0.000000  0.753203  0.590174  1
  Cl  Cl16  1  0.000000  0.747696  0.091558  1
  Cl  Cl17  1  0.000000  0.252265  0.907417  1
  Cl  Cl18  1  0.000000  0.004586  0.250696  1
  Cl  Cl19  1  0.000000  0.996241  0.750124  1
  Cl  Cl20  1  0.000000  0.505043  0.249482  1
  Cl  Cl21  1  0.000000  0.494062  0.750125  1
