# generated using pymatgen
data_Tb19Ho(Ir5Au)2
_symmetry_space_group_name_H-M   'P 1'
_cell_length_a   11.09533613
_cell_length_b   11.04349600
_cell_length_c   6.35020903
_cell_angle_alpha   90.00070484
_cell_angle_beta   89.87217041
_cell_angle_gamma   90.00310637
_symmetry_Int_Tables_number   1
_chemical_formula_structural   Tb19Ho(Ir5Au)2
_chemical_formula_sum   'Tb19 Ho1 Ir10 Au2'
_cell_volume   778.09743216
_cell_formula_units_Z   1
loop_
 _symmetry_equiv_pos_site_id
 _symmetry_equiv_pos_as_xyz
  1  'x, y, z'
loop_
 _atom_site_type_symbol
 _atom_site_label
 _atom_site_symmetry_multiplicity
 _atom_site_fract_x
 _atom_site_fract_y
 _atom_site_fract_z
 _atom_site_occupancy
  Tb  Tb0  1  0.291879  0.088836  0.372306  1
  Tb  Tb1  1  0.291866  0.911195  0.872399  1
  Tb  Tb2  1  0.697894  0.092464  0.865524  1
  Tb  Tb3  1  0.697898  0.907477  0.365400  1
  Tb  Tb4  1  0.578195  0.789497  0.877377  1
  Tb  Tb5  1  0.578136  0.210764  0.377563  1
  Tb  Tb6  1  0.408249  0.790541  0.376948  1
  Tb  Tb7  1  0.408112  0.209302  0.876854  1
  Tb  Tb8  1  0.210178  0.411226  0.621049  1
  Tb  Tb9  1  0.209980  0.588890  0.121101  1
  Tb  Tb10  1  0.789526  0.419383  0.123084  1
  Tb  Tb11  1  0.789325  0.580519  0.622988  1
  Tb  Tb12  1  0.917189  0.705313  0.139009  1
  Tb  Tb13  1  0.917119  0.294681  0.639090  1
  Tb  Tb14  1  0.096501  0.702616  0.623765  1
  Tb  Tb15  1  0.096465  0.297408  0.123610  1
  Tb  Tb16  1  0.009054  0.997329  0.499720  1
  Tb  Tb17  1  0.009136  0.002638  0.999746  1
  Tb  Tb18  1  0.499668  0.498698  0.000630  1
  Ho  Ho19  1  0.499660  0.501319  0.500640  1
  Ir  Ir20  1  0.154253  0.154025  0.750629  1
  Ir  Ir21  1  0.154189  0.845879  0.250527  1
  Ir  Ir22  1  0.655526  0.346980  0.747375  1
  Ir  Ir23  1  0.655435  0.653027  0.249179  1
  Ir  Ir24  1  0.348097  0.346591  0.252392  1
  Ir  Ir25  1  0.348146  0.653393  0.750704  1
  Ir  Ir26  1  0.499697  0.999544  0.119836  1
  Ir  Ir27  1  0.499719  0.000419  0.619799  1
  Ir  Ir28  1  0.999641  0.501130  0.880154  1
  Ir  Ir29  1  0.999645  0.498879  0.380159  1
  Au  Au30  1  0.844840  0.155190  0.250251  1
  Au  Au31  1  0.844781  0.844845  0.750194  1
