# generated using pymatgen
data_Tb3Ho5Hf3Si16W9
_symmetry_space_group_name_H-M   'P 1'
_cell_length_a   6.96338704
_cell_length_b   6.96363081
_cell_length_c   12.91237386
_cell_angle_alpha   89.94303850
_cell_angle_beta   90.05814694
_cell_angle_gamma   89.91126133
_symmetry_Int_Tables_number   1
_chemical_formula_structural   Tb3Ho5Hf3Si16W9
_chemical_formula_sum   'Tb3 Ho5 Hf3 Si16 W9'
_cell_volume   626.12551989
_cell_formula_units_Z   1
loop_
 _symmetry_equiv_pos_site_id
 _symmetry_equiv_pos_as_xyz
  1  'x, y, z'
loop_
 _atom_site_type_symbol
 _atom_site_label
 _atom_site_symmetry_multiplicity
 _atom_site_fract_x
 _atom_site_fract_y
 _atom_site_fract_z
 _atom_site_occupancy
  Tb  Tb0  1  0.497905  0.162468  0.531431  1
  Tb  Tb1  1  0.335855  0.000891  0.783068  1
  Tb  Tb2  1  0.663016  0.003486  0.279442  1
  Ho  Ho3  1  0.001429  0.336337  0.216975  1
  Ho  Ho4  1  0.002939  0.662595  0.720577  1
  Ho  Ho5  1  0.161979  0.498442  0.468613  1
  Ho  Ho6  1  0.499446  0.839293  0.030781  1
  Ho  Ho7  1  0.839328  0.499425  0.969217  1
  Hf  Hf8  1  0.832815  0.832685  0.499982  1
  Hf  Hf9  1  0.331172  0.667602  0.247673  1
  Hf  Hf10  1  0.667669  0.331269  0.752290  1
  Si  Si11  1  0.371703  0.294965  0.317741  1
  Si  Si12  1  0.626676  0.706548  0.818218  1
  Si  Si13  1  0.204805  0.872483  0.568399  1
  Si  Si14  1  0.124671  0.801195  0.933493  1
  Si  Si15  1  0.801876  0.125268  0.066639  1
  Si  Si16  1  0.874326  0.205793  0.431608  1
  Si  Si17  1  0.293960  0.373586  0.682132  1
  Si  Si18  1  0.707001  0.625496  0.181632  1
  Si  Si19  1  0.289313  0.044018  0.183899  1
  Si  Si20  1  0.708604  0.959416  0.688651  1
  Si  Si21  1  0.458088  0.790698  0.437582  1
  Si  Si22  1  0.209586  0.532555  0.059386  1
  Si  Si23  1  0.532832  0.210070  0.940830  1
  Si  Si24  1  0.792264  0.458903  0.562547  1
  Si  Si25  1  0.043595  0.290562  0.816002  1
  Si  Si26  1  0.960089  0.707033  0.311498  1
  W  W27  1  0.166273  0.166745  0.000280  1
  W  W28  1  0.162089  0.995122  0.375060  1
  W  W29  1  0.833400  0.004640  0.877685  1
  W  W30  1  0.505905  0.661313  0.626534  1
  W  W31  1  0.340247  0.497395  0.874053  1
  W  W32  1  0.497006  0.340558  0.125866  1
  W  W33  1  0.661926  0.505559  0.373221  1
  W  W34  1  0.995617  0.162673  0.624655  1
  W  W35  1  0.004599  0.832913  0.122339  1
