# generated using pymatgen
data_Tb6BiSbO14
_symmetry_space_group_name_H-M   'P 1'
_cell_length_a   6.51880050
_cell_length_b   6.54001761
_cell_length_c   7.68430532
_cell_angle_alpha   106.71375817
_cell_angle_beta   90.07477991
_cell_angle_gamma   98.18414123
_symmetry_Int_Tables_number   1
_chemical_formula_structural   Tb6BiSbO14
_chemical_formula_sum   'Tb6 Bi1 Sb1 O14'
_cell_volume   310.26132044
_cell_formula_units_Z   1
loop_
 _symmetry_equiv_pos_site_id
 _symmetry_equiv_pos_as_xyz
  1  'x, y, z'
loop_
 _atom_site_type_symbol
 _atom_site_label
 _atom_site_symmetry_multiplicity
 _atom_site_fract_x
 _atom_site_fract_y
 _atom_site_fract_z
 _atom_site_occupancy
  Tb  Tb0  1  0.733812  0.462959  0.115736  1
  Tb  Tb1  1  0.733746  0.473039  0.611373  1
  Tb  Tb2  1  0.539615  0.995264  0.752546  1
  Tb  Tb3  1  0.460385  0.004736  0.247454  1
  Tb  Tb4  1  0.266254  0.526961  0.388627  1
  Tb  Tb5  1  0.266188  0.537041  0.884264  1
  Bi  Bi6  1  0.000000  0.000000  0.500000  1
  Sb  Sb7  1  0.000000  0.000000  0.000000  1
  O  O8  1  0.698858  0.073951  0.490797  1
  O  O9  1  0.928628  0.685580  0.971942  1
  O  O10  1  0.710887  0.069769  0.050682  1
  O  O11  1  0.928942  0.649751  0.385468  1
  O  O12  1  0.887478  0.912255  0.736785  1
  O  O13  1  0.557230  0.352942  0.834712  1
  O  O14  1  0.546539  0.362030  0.343379  1
  O  O15  1  0.453461  0.637970  0.656621  1
  O  O16  1  0.442770  0.647058  0.165288  1
  O  O17  1  0.112522  0.087745  0.263215  1
  O  O18  1  0.071058  0.350249  0.614532  1
  O  O19  1  0.289113  0.930231  0.949318  1
  O  O20  1  0.071372  0.314420  0.028058  1
  O  O21  1  0.301142  0.926049  0.509203  1
