# generated using pymatgen
data_Rb4ZrSe4
_symmetry_space_group_name_H-M   'P 1'
_cell_length_a   8.83842500
_cell_length_b   10.72472800
_cell_length_c   15.60119000
_cell_angle_alpha   90.00000000
_cell_angle_beta   90.00000000
_cell_angle_gamma   90.00000000
_symmetry_Int_Tables_number   1
_chemical_formula_structural   Rb4ZrSe4
_chemical_formula_sum   'Rb16 Zr4 Se16'
_cell_volume   1478.83218329
_cell_formula_units_Z   4
loop_
 _symmetry_equiv_pos_site_id
 _symmetry_equiv_pos_as_xyz
  1  'x, y, z'
loop_
 _atom_site_type_symbol
 _atom_site_label
 _atom_site_symmetry_multiplicity
 _atom_site_fract_x
 _atom_site_fract_y
 _atom_site_fract_z
 _atom_site_occupancy
  Rb  Rb0  1  0.000000  0.000000  0.000000  1
  Rb  Rb1  1  0.500000  0.000000  0.500000  1
  Rb  Rb2  1  0.000000  0.500000  0.000000  1
  Rb  Rb3  1  0.500000  0.500000  0.500000  1
  Rb  Rb4  1  0.987767  0.750000  0.424636  1
  Rb  Rb5  1  0.487767  0.250000  0.075364  1
  Rb  Rb6  1  0.012233  0.250000  0.575364  1
  Rb  Rb7  1  0.512233  0.750000  0.924636  1
  Rb  Rb8  1  0.841717  0.052922  0.274391  1
  Rb  Rb9  1  0.341717  0.947078  0.225609  1
  Rb  Rb10  1  0.158283  0.552922  0.725609  1
  Rb  Rb11  1  0.658283  0.447078  0.774391  1
  Rb  Rb12  1  0.158283  0.947078  0.725609  1
  Rb  Rb13  1  0.658283  0.052922  0.774391  1
  Rb  Rb14  1  0.841717  0.447078  0.274391  1
  Rb  Rb15  1  0.341717  0.552922  0.225609  1
  Zr  Zr16  1  0.758696  0.750000  0.666232  1
  Zr  Zr17  1  0.241304  0.250000  0.333768  1
  Zr  Zr18  1  0.741304  0.750000  0.166232  1
  Zr  Zr19  1  0.258696  0.250000  0.833768  1
  Se  Se20  1  0.969080  0.250000  0.825918  1
  Se  Se21  1  0.530920  0.250000  0.325918  1
  Se  Se22  1  0.469080  0.750000  0.674082  1
  Se  Se23  1  0.030920  0.750000  0.174082  1
  Se  Se24  1  0.651341  0.555082  0.089172  1
  Se  Se25  1  0.151341  0.444918  0.410828  1
  Se  Se26  1  0.348659  0.055082  0.910828  1
  Se  Se27  1  0.848659  0.944918  0.589172  1
  Se  Se28  1  0.348659  0.444918  0.910828  1
  Se  Se29  1  0.848659  0.555082  0.589172  1
  Se  Se30  1  0.651341  0.944918  0.089172  1
  Se  Se31  1  0.151341  0.055082  0.410828  1
  Se  Se32  1  0.627940  0.750000  0.318177  1
  Se  Se33  1  0.127940  0.250000  0.181823  1
  Se  Se34  1  0.372060  0.250000  0.681823  1
  Se  Se35  1  0.872060  0.750000  0.818177  1
