# generated using pymatgen
data_Zr(SiTc2)2
_symmetry_space_group_name_H-M   'P 1'
_cell_length_a   7.29757100
_cell_length_b   7.29757100
_cell_length_c   4.07224400
_cell_angle_alpha   90.00000000
_cell_angle_beta   90.00000000
_cell_angle_gamma   90.00000000
_symmetry_Int_Tables_number   1
_chemical_formula_structural   Zr(SiTc2)2
_chemical_formula_sum   'Zr2 Si4 Tc8'
_cell_volume   216.86549117
_cell_formula_units_Z   2
loop_
 _symmetry_equiv_pos_site_id
 _symmetry_equiv_pos_as_xyz
  1  'x, y, z'
loop_
 _atom_site_type_symbol
 _atom_site_label
 _atom_site_symmetry_multiplicity
 _atom_site_fract_x
 _atom_site_fract_y
 _atom_site_fract_z
 _atom_site_occupancy
  Zr  Zr0  1  0.500000  0.500000  0.000000  1
  Zr  Zr1  1  0.000000  0.000000  0.500000  1
  Si  Si2  1  0.207135  0.792865  0.000000  1
  Si  Si3  1  0.292865  0.292865  0.500000  1
  Si  Si4  1  0.707135  0.707135  0.500000  1
  Si  Si5  1  0.792865  0.207135  0.000000  1
  Tc  Tc6  1  0.592707  0.155078  0.500000  1
  Tc  Tc7  1  0.407293  0.844922  0.500000  1
  Tc  Tc8  1  0.155078  0.592707  0.500000  1
  Tc  Tc9  1  0.844922  0.407293  0.500000  1
  Tc  Tc10  1  0.092707  0.344922  0.000000  1
  Tc  Tc11  1  0.907293  0.655078  0.000000  1
  Tc  Tc12  1  0.655078  0.907293  0.000000  1
  Tc  Tc13  1  0.344922  0.092707  0.000000  1
