# generated using pymatgen
data_Sm4Lu4Tc3B24Os
_symmetry_space_group_name_H-M   'P 1'
_cell_length_a   3.67189200
_cell_length_b   9.14007143
_cell_length_c   11.56999302
_cell_angle_alpha   89.95375876
_cell_angle_beta   90.00000000
_cell_angle_gamma   90.00000000
_symmetry_Int_Tables_number   1
_chemical_formula_structural   Sm4Lu4Tc3B24Os
_chemical_formula_sum   'Sm4 Lu4 Tc3 B24 Os1'
_cell_volume   388.30451832
_cell_formula_units_Z   1
loop_
 _symmetry_equiv_pos_site_id
 _symmetry_equiv_pos_as_xyz
  1  'x, y, z'
loop_
 _atom_site_type_symbol
 _atom_site_label
 _atom_site_symmetry_multiplicity
 _atom_site_fract_x
 _atom_site_fract_y
 _atom_site_fract_z
 _atom_site_occupancy
  Sm  Sm0  1  0.000000  0.322765  0.414080  1
  Sm  Sm1  1  0.000000  0.676313  0.584432  1
  Sm  Sm2  1  0.000000  0.822420  0.086917  1
  Sm  Sm3  1  0.000000  0.178536  0.914776  1
  Lu  Lu4  1  0.000000  0.942889  0.369891  1
  Lu  Lu5  1  0.000000  0.057894  0.630036  1
  Lu  Lu6  1  0.000000  0.443295  0.130355  1
  Lu  Lu7  1  0.000000  0.556530  0.869413  1
  Tc  Tc8  1  0.000000  0.639704  0.318958  1
  Tc  Tc9  1  0.000000  0.360282  0.681530  1
  Tc  Tc10  1  0.000000  0.139257  0.180080  1
  B  B11  1  0.500000  0.554481  0.431228  1
  B  B12  1  0.500000  0.445449  0.568589  1
  B  B13  1  0.500000  0.054496  0.068672  1
  B  B14  1  0.500000  0.944935  0.931188  1
  B  B15  1  0.500000  0.750806  0.416999  1
  B  B16  1  0.500000  0.248869  0.583103  1
  B  B17  1  0.500000  0.251422  0.083097  1
  B  B18  1  0.500000  0.749190  0.916641  1
  B  B19  1  0.500000  0.792406  0.265874  1
  B  B20  1  0.500000  0.207796  0.734637  1
  B  B21  1  0.500000  0.292312  0.234380  1
  B  B22  1  0.500000  0.708338  0.765459  1
  B  B23  1  0.500000  0.629551  0.185177  1
  B  B24  1  0.500000  0.370391  0.815340  1
  B  B25  1  0.500000  0.129111  0.314553  1
  B  B26  1  0.500000  0.870376  0.685217  1
  B  B27  1  0.500000  0.982416  0.213324  1
  B  B28  1  0.500000  0.016448  0.786769  1
  B  B29  1  0.500000  0.482696  0.286526  1
  B  B30  1  0.500000  0.517078  0.713315  1
  B  B31  1  0.500000  0.597664  0.026535  1
  B  B32  1  0.500000  0.403403  0.973252  1
  B  B33  1  0.500000  0.097233  0.473431  1
  B  B34  1  0.500000  0.902846  0.527056  1
  Os  Os35  1  0.000000  0.860401  0.819172  1
