# generated using pymatgen
data_Dy10TcGeBi4
_symmetry_space_group_name_H-M   'P 1'
_cell_length_a   8.00160200
_cell_length_b   9.23073900
_cell_length_c   12.15092900
_cell_angle_alpha   90.00000000
_cell_angle_beta   90.00000000
_cell_angle_gamma   90.00000000
_symmetry_Int_Tables_number   1
_chemical_formula_structural   Dy10TcGeBi4
_chemical_formula_sum   'Dy20 Tc2 Ge2 Bi8'
_cell_volume   897.47611726
_cell_formula_units_Z   2
loop_
 _symmetry_equiv_pos_site_id
 _symmetry_equiv_pos_as_xyz
  1  'x, y, z'
loop_
 _atom_site_type_symbol
 _atom_site_label
 _atom_site_symmetry_multiplicity
 _atom_site_fract_x
 _atom_site_fract_y
 _atom_site_fract_z
 _atom_site_occupancy
  Dy  Dy0  1  0.824235  0.556669  0.061323  1
  Dy  Dy1  1  0.675765  0.943331  0.561323  1
  Dy  Dy2  1  0.178834  0.037894  0.937267  1
  Dy  Dy3  1  0.321166  0.462106  0.437267  1
  Dy  Dy4  1  0.178834  0.462106  0.937267  1
  Dy  Dy5  1  0.321166  0.037894  0.437267  1
  Dy  Dy6  1  0.824235  0.943331  0.061323  1
  Dy  Dy7  1  0.675765  0.556669  0.561323  1
  Dy  Dy8  1  0.162586  0.750000  0.210158  1
  Dy  Dy9  1  0.337414  0.750000  0.710158  1
  Dy  Dy10  1  0.833249  0.250000  0.786579  1
  Dy  Dy11  1  0.666751  0.250000  0.286579  1
  Dy  Dy12  1  0.452228  0.750000  0.997290  1
  Dy  Dy13  1  0.047772  0.750000  0.497290  1
  Dy  Dy14  1  0.534928  0.250000  0.998425  1
  Dy  Dy15  1  0.965072  0.250000  0.498425  1
  Dy  Dy16  1  0.624779  0.750000  0.301734  1
  Dy  Dy17  1  0.875221  0.750000  0.801734  1
  Dy  Dy18  1  0.360951  0.250000  0.707131  1
  Dy  Dy19  1  0.139049  0.250000  0.207131  1
  Tc  Tc20  1  0.412911  0.750000  0.482903  1
  Tc  Tc21  1  0.087089  0.750000  0.982903  1
  Ge  Ge22  1  0.588740  0.250000  0.523267  1
  Ge  Ge23  1  0.911260  0.250000  0.023267  1
  Bi  Bi24  1  0.928544  0.507674  0.325692  1
  Bi  Bi25  1  0.571456  0.992326  0.825692  1
  Bi  Bi26  1  0.068162  0.011384  0.671973  1
  Bi  Bi27  1  0.431838  0.488616  0.171973  1
  Bi  Bi28  1  0.068162  0.488616  0.671973  1
  Bi  Bi29  1  0.431838  0.011384  0.171973  1
  Bi  Bi30  1  0.928544  0.992326  0.325692  1
  Bi  Bi31  1  0.571456  0.507674  0.825692  1
