# generated using pymatgen
data_Pr5Nd(Al3Os)8
_symmetry_space_group_name_H-M   'P 1'
_cell_length_a   8.93915580
_cell_length_b   8.93915452
_cell_length_c   9.70284500
_cell_angle_alpha   90.00000000
_cell_angle_beta   90.00000000
_cell_angle_gamma   120.04853567
_symmetry_Int_Tables_number   1
_chemical_formula_structural   Pr5Nd(Al3Os)8
_chemical_formula_sum   'Pr5 Nd1 Al24 Os8'
_cell_volume   671.13527378
_cell_formula_units_Z   1
loop_
 _symmetry_equiv_pos_site_id
 _symmetry_equiv_pos_as_xyz
  1  'x, y, z'
loop_
 _atom_site_type_symbol
 _atom_site_label
 _atom_site_symmetry_multiplicity
 _atom_site_fract_x
 _atom_site_fract_y
 _atom_site_fract_z
 _atom_site_occupancy
  Pr  Pr0  1  0.192452  0.384789  0.250000  1
  Pr  Pr1  1  0.807548  0.615079  0.750000  1
  Pr  Pr2  1  0.615211  0.807548  0.250000  1
  Pr  Pr3  1  0.384921  0.192452  0.750000  1
  Pr  Pr4  1  0.192371  0.807629  0.250000  1
  Nd  Nd5  1  0.807593  0.192407  0.750000  1
  Al  Al6  1  0.333355  0.666645  0.009262  1
  Al  Al7  1  0.666709  0.333291  0.990625  1
  Al  Al8  1  0.666709  0.333291  0.509375  1
  Al  Al9  1  0.333355  0.666645  0.490738  1
  Al  Al10  1  0.162591  0.325473  0.574511  1
  Al  Al11  1  0.837233  0.674461  0.425531  1
  Al  Al12  1  0.674527  0.837409  0.574511  1
  Al  Al13  1  0.837233  0.674461  0.074469  1
  Al  Al14  1  0.325539  0.162767  0.425531  1
  Al  Al15  1  0.162591  0.325473  0.925489  1
  Al  Al16  1  0.162744  0.837256  0.574463  1
  Al  Al17  1  0.325539  0.162767  0.074469  1
  Al  Al18  1  0.837231  0.162769  0.425680  1
  Al  Al19  1  0.674527  0.837409  0.925489  1
  Al  Al20  1  0.837231  0.162769  0.074320  1
  Al  Al21  1  0.162744  0.837256  0.925537  1
  Al  Al22  1  0.561664  0.123315  0.250000  1
  Al  Al23  1  0.438630  0.876954  0.750000  1
  Al  Al24  1  0.876685  0.438336  0.250000  1
  Al  Al25  1  0.123046  0.561370  0.750000  1
  Al  Al26  1  0.561646  0.438354  0.250000  1
  Al  Al27  1  0.438349  0.561651  0.750000  1
  Al  Al28  1  0.999990  0.000010  0.250000  1
  Al  Al29  1  0.999863  0.000137  0.750000  1
  Os  Os30  1  0.500169  0.000100  0.999851  1
  Os  Os31  1  0.999900  0.499831  0.999851  1
  Os  Os32  1  0.500169  0.000100  0.500149  1
  Os  Os33  1  0.500021  0.499979  0.999953  1
  Os  Os34  1  0.999900  0.499831  0.500149  1
  Os  Os35  1  0.500021  0.499979  0.500047  1
  Os  Os36  1  0.999994  0.000006  0.999889  1
  Os  Os37  1  0.999994  0.000006  0.500111  1
