# generated using pymatgen
data_Er10In8RuPtRh2
_symmetry_space_group_name_H-M   'P 1'
_cell_length_a   3.58495700
_cell_length_b   8.03948768
_cell_length_c   18.21512547
_cell_angle_alpha   90.09689101
_cell_angle_beta   90.00000000
_cell_angle_gamma   90.00000000
_symmetry_Int_Tables_number   1
_chemical_formula_structural   Er10In8RuPtRh2
_chemical_formula_sum   'Er10 In8 Ru1 Pt1 Rh2'
_cell_volume   524.98134465
_cell_formula_units_Z   1
loop_
 _symmetry_equiv_pos_site_id
 _symmetry_equiv_pos_as_xyz
  1  'x, y, z'
loop_
 _atom_site_type_symbol
 _atom_site_label
 _atom_site_symmetry_multiplicity
 _atom_site_fract_x
 _atom_site_fract_y
 _atom_site_fract_z
 _atom_site_occupancy
  Er  Er0  1  0.000000  0.115829  0.412926  1
  Er  Er1  1  0.000000  0.883214  0.587865  1
  Er  Er2  1  0.000000  0.383925  0.912021  1
  Er  Er3  1  0.000000  0.618470  0.085934  1
  Er  Er4  1  0.000000  0.235872  0.222686  1
  Er  Er5  1  0.000000  0.754489  0.778789  1
  Er  Er6  1  0.000000  0.254296  0.721488  1
  Er  Er7  1  0.000000  0.753184  0.279595  1
  Er  Er8  1  0.000000  0.999858  0.999400  1
  Er  Er9  1  0.000000  0.500557  0.500057  1
  In  In10  1  0.500000  0.425481  0.351827  1
  In  In11  1  0.500000  0.571138  0.649443  1
  In  In12  1  0.500000  0.072462  0.850089  1
  In  In13  1  0.500000  0.932273  0.149232  1
  In  In14  1  0.500000  0.292388  0.065122  1
  In  In15  1  0.500000  0.707152  0.932217  1
  In  In16  1  0.500000  0.207990  0.567827  1
  In  In17  1  0.500000  0.793654  0.432471  1
  Ru  Ru18  1  0.500000  0.022102  0.304001  1
  Pt  Pt19  1  0.500000  0.523803  0.196481  1
  Rh  Rh20  1  0.500000  0.975441  0.696211  1
  Rh  Rh21  1  0.500000  0.476423  0.804317  1
