# generated using pymatgen
data_NdSm3(GePd14)2
_symmetry_space_group_name_H-M   'P 1'
_cell_length_a   8.98000500
_cell_length_b   8.98000500
_cell_length_c   7.19503800
_cell_angle_alpha   90.00000000
_cell_angle_beta   90.00000000
_cell_angle_gamma   90.00000000
_symmetry_Int_Tables_number   1
_chemical_formula_structural   NdSm3(GePd14)2
_chemical_formula_sum   'Nd1 Sm3 Ge2 Pd28'
_cell_volume   580.21138845
_cell_formula_units_Z   1
loop_
 _symmetry_equiv_pos_site_id
 _symmetry_equiv_pos_as_xyz
  1  'x, y, z'
loop_
 _atom_site_type_symbol
 _atom_site_label
 _atom_site_symmetry_multiplicity
 _atom_site_fract_x
 _atom_site_fract_y
 _atom_site_fract_z
 _atom_site_occupancy
  Nd  Nd0  1  0.500000  0.000000  0.936128  1
  Sm  Sm1  1  0.000000  0.500000  0.064044  1
  Sm  Sm2  1  0.000000  0.000000  0.500012  1
  Sm  Sm3  1  0.500000  0.500000  0.500012  1
  Ge  Ge4  1  0.500000  0.000000  0.448977  1
  Ge  Ge5  1  0.000000  0.500000  0.550992  1
  Pd  Pd6  1  0.330488  0.830488  0.621194  1
  Pd  Pd7  1  0.330488  0.169512  0.621194  1
  Pd  Pd8  1  0.669512  0.830488  0.621194  1
  Pd  Pd9  1  0.669512  0.169512  0.621194  1
  Pd  Pd10  1  0.169233  0.669233  0.378398  1
  Pd  Pd11  1  0.169233  0.330767  0.378398  1
  Pd  Pd12  1  0.830767  0.669233  0.378398  1
  Pd  Pd13  1  0.830767  0.330767  0.378398  1
  Pd  Pd14  1  0.500000  0.765857  0.253409  1
  Pd  Pd15  1  0.500000  0.234143  0.253409  1
  Pd  Pd16  1  0.265857  0.000000  0.253409  1
  Pd  Pd17  1  0.734143  0.000000  0.253409  1
  Pd  Pd18  1  0.000000  0.733772  0.747068  1
  Pd  Pd19  1  0.000000  0.266228  0.747068  1
  Pd  Pd20  1  0.233772  0.500000  0.747068  1
  Pd  Pd21  1  0.766228  0.500000  0.747068  1
  Pd  Pd22  1  0.500000  0.349176  0.855912  1
  Pd  Pd23  1  0.500000  0.650824  0.855912  1
  Pd  Pd24  1  0.849176  0.000000  0.855912  1
  Pd  Pd25  1  0.150824  0.000000  0.855912  1
  Pd  Pd26  1  0.000000  0.151086  0.143969  1
  Pd  Pd27  1  0.000000  0.848914  0.143969  1
  Pd  Pd28  1  0.651086  0.500000  0.143969  1
  Pd  Pd29  1  0.348914  0.500000  0.143969  1
  Pd  Pd30  1  0.249722  0.749722  0.000010  1
  Pd  Pd31  1  0.249722  0.250278  0.000010  1
  Pd  Pd32  1  0.750278  0.749722  0.000010  1
  Pd  Pd33  1  0.750278  0.250278  0.000010  1
