# generated using pymatgen
data_Sc12Co4TcHg
_symmetry_space_group_name_H-M   'P 1'
_cell_length_a   7.72102186
_cell_length_b   7.72102148
_cell_length_c   7.72102196
_cell_angle_alpha   111.81659789
_cell_angle_beta   111.09618331
_cell_angle_gamma   105.57077676
_symmetry_Int_Tables_number   1
_chemical_formula_structural   Sc12Co4TcHg
_chemical_formula_sum   'Sc12 Co4 Tc1 Hg1'
_cell_volume   353.08985346
_cell_formula_units_Z   1
loop_
 _symmetry_equiv_pos_site_id
 _symmetry_equiv_pos_as_xyz
  1  'x, y, z'
loop_
 _atom_site_type_symbol
 _atom_site_label
 _atom_site_symmetry_multiplicity
 _atom_site_fract_x
 _atom_site_fract_y
 _atom_site_fract_z
 _atom_site_occupancy
  Sc  Sc0  1  0.426338  0.229334  0.197003  1
  Sc  Sc1  1  0.573662  0.770666  0.802997  1
  Sc  Sc2  1  0.032330  0.229334  0.802997  1
  Sc  Sc3  1  0.967670  0.770666  0.197003  1
  Sc  Sc4  1  0.311506  0.612711  0.301205  1
  Sc  Sc5  1  0.688494  0.387289  0.698795  1
  Sc  Sc6  1  0.311506  0.010300  0.698795  1
  Sc  Sc7  1  0.688494  0.989700  0.301205  1
  Sc  Sc8  1  0.182825  0.273938  0.456764  1
  Sc  Sc9  1  0.817175  0.726061  0.543236  1
  Sc  Sc10  1  0.182825  0.726061  0.908886  1
  Sc  Sc11  1  0.817175  0.273938  0.091114  1
  Co  Co12  1  0.367253  0.000000  0.367253  1
  Co  Co13  1  0.632747  0.000000  0.632747  1
  Co  Co14  1  0.118222  0.618222  0.500000  1
  Co  Co15  1  0.881778  0.381778  0.500000  1
  Tc  Tc16  1  0.000000  0.000000  0.000000  1
  Hg  Hg17  1  0.500000  0.500000  0.000000  1
