# generated using pymatgen
data_Y2Tm(SnPd)3
_symmetry_space_group_name_H-M   'P 1'
_cell_length_a   7.68613000
_cell_length_b   7.65542721
_cell_length_c   3.88132300
_cell_angle_alpha   90.00000000
_cell_angle_beta   90.00000000
_cell_angle_gamma   120.13276686
_symmetry_Int_Tables_number   1
_chemical_formula_structural   Y2Tm(SnPd)3
_chemical_formula_sum   'Y2 Tm1 Sn3 Pd3'
_cell_volume   197.51723580
_cell_formula_units_Z   1
loop_
 _symmetry_equiv_pos_site_id
 _symmetry_equiv_pos_as_xyz
  1  'x, y, z'
loop_
 _atom_site_type_symbol
 _atom_site_label
 _atom_site_symmetry_multiplicity
 _atom_site_fract_x
 _atom_site_fract_y
 _atom_site_fract_z
 _atom_site_occupancy
  Y  Y0  1  0.000204  0.400929  0.500000  1
  Y  Y1  1  0.599275  0.599071  0.500000  1
  Tm  Tm2  1  0.400267  0.000000  0.500000  1
  Sn  Sn3  1  0.001339  0.737629  0.000000  1
  Sn  Sn4  1  0.263710  0.262371  0.000000  1
  Sn  Sn5  1  0.736421  0.000000  0.000000  1
  Pd  Pd6  1  0.333769  0.670408  0.000000  1
  Pd  Pd7  1  0.663362  0.329592  0.000000  1
  Pd  Pd8  1  0.001654  0.000000  0.500000  1
