# generated using pymatgen
data_CePrHo6(Si3Rh)4
_symmetry_space_group_name_H-M   'P 1'
_cell_length_a   8.17846100
_cell_length_b   8.17846126
_cell_length_c   8.00022400
_cell_angle_alpha   90.00000000
_cell_angle_beta   90.00000000
_cell_angle_gamma   120.00000300
_symmetry_Int_Tables_number   1
_chemical_formula_structural   CePrHo6(Si3Rh)4
_chemical_formula_sum   'Ce1 Pr1 Ho6 Si12 Rh4'
_cell_volume   463.42125975
_cell_formula_units_Z   1
loop_
 _symmetry_equiv_pos_site_id
 _symmetry_equiv_pos_as_xyz
  1  'x, y, z'
loop_
 _atom_site_type_symbol
 _atom_site_label
 _atom_site_symmetry_multiplicity
 _atom_site_fract_x
 _atom_site_fract_y
 _atom_site_fract_z
 _atom_site_occupancy
  Ce  Ce0  1  0.000000  0.000000  0.750000  1
  Pr  Pr1  1  0.000000  0.000000  0.250000  1
  Ho  Ho2  1  0.508671  0.491329  0.250000  1
  Ho  Ho3  1  0.508671  0.017343  0.250000  1
  Ho  Ho4  1  0.982657  0.491329  0.250000  1
  Ho  Ho5  1  0.491654  0.508346  0.750000  1
  Ho  Ho6  1  0.491654  0.983308  0.750000  1
  Ho  Ho7  1  0.016692  0.508346  0.750000  1
  Si  Si8  1  0.168307  0.831693  0.504031  1
  Si  Si9  1  0.168307  0.336613  0.504031  1
  Si  Si10  1  0.663387  0.831693  0.504031  1
  Si  Si11  1  0.832106  0.167894  0.501740  1
  Si  Si12  1  0.832106  0.664214  0.501740  1
  Si  Si13  1  0.335786  0.167894  0.501740  1
  Si  Si14  1  0.832106  0.167894  0.998260  1
  Si  Si15  1  0.832106  0.664214  0.998260  1
  Si  Si16  1  0.335786  0.167894  0.998260  1
  Si  Si17  1  0.168307  0.831693  0.995969  1
  Si  Si18  1  0.168307  0.336613  0.995969  1
  Si  Si19  1  0.663387  0.831693  0.995969  1
  Rh  Rh20  1  0.333333  0.666667  0.464288  1
  Rh  Rh21  1  0.666667  0.333333  0.533189  1
  Rh  Rh22  1  0.666667  0.333333  0.966811  1
  Rh  Rh23  1  0.333333  0.666667  0.035712  1
