# generated using pymatgen
data_Cs11Rb(FeSe3)4
_symmetry_space_group_name_H-M   'P 1'
_cell_length_a   11.07068956
_cell_length_b   11.07068973
_cell_length_c   14.17153323
_cell_angle_alpha   89.90079568
_cell_angle_beta   89.90079860
_cell_angle_gamma   139.75223182
_symmetry_Int_Tables_number   1
_chemical_formula_structural   Cs11Rb(FeSe3)4
_chemical_formula_sum   'Cs11 Rb1 Fe4 Se12'
_cell_volume   1122.16460836
_cell_formula_units_Z   1
loop_
 _symmetry_equiv_pos_site_id
 _symmetry_equiv_pos_as_xyz
  1  'x, y, z'
loop_
 _atom_site_type_symbol
 _atom_site_label
 _atom_site_symmetry_multiplicity
 _atom_site_fract_x
 _atom_site_fract_y
 _atom_site_fract_z
 _atom_site_occupancy
  Cs  Cs0  1  0.141920  0.141920  0.325578  1
  Cs  Cs1  1  0.640920  0.640920  0.170968  1
  Cs  Cs2  1  0.359375  0.359375  0.823729  1
  Cs  Cs3  1  0.163800  0.517803  0.127971  1
  Cs  Cs4  1  0.484498  0.834265  0.874167  1
  Cs  Cs5  1  0.980023  0.334353  0.629105  1
  Cs  Cs6  1  0.665796  0.016787  0.373713  1
  Cs  Cs7  1  0.834265  0.484498  0.874167  1
  Cs  Cs8  1  0.517803  0.163800  0.127971  1
  Cs  Cs9  1  0.016787  0.665796  0.373713  1
  Cs  Cs10  1  0.334353  0.980023  0.629105  1
  Rb  Rb11  1  0.850866  0.850866  0.665754  1
  Fe  Fe12  1  0.922133  0.083158  0.999155  1
  Fe  Fe13  1  0.416691  0.576695  0.501028  1
  Fe  Fe14  1  0.083158  0.922133  0.999155  1
  Fe  Fe15  1  0.576695  0.416691  0.501028  1
  Se  Se16  1  0.287811  0.287811  0.570259  1
  Se  Se17  1  0.700270  0.700270  0.428935  1
  Se  Se18  1  0.204764  0.204764  0.070084  1
  Se  Se19  1  0.807112  0.807112  0.921727  1
  Se  Se20  1  0.710850  0.001876  0.115004  1
  Se  Se21  1  0.002024  0.297114  0.886923  1
  Se  Se22  1  0.500829  0.787270  0.617554  1
  Se  Se23  1  0.208547  0.502451  0.386863  1
  Se  Se24  1  0.297114  0.002024  0.886923  1
  Se  Se25  1  0.001876  0.710850  0.115004  1
  Se  Se26  1  0.502451  0.208547  0.386863  1
  Se  Se27  1  0.787270  0.500829  0.617554  1
