# generated using pymatgen
data_Er6Zr6Al10Os7
_symmetry_space_group_name_H-M   'P 1'
_cell_length_a   9.25034510
_cell_length_b   9.21830112
_cell_length_c   9.21830100
_cell_angle_alpha   59.77548353
_cell_angle_beta   59.88494559
_cell_angle_gamma   59.88493871
_symmetry_Int_Tables_number   1
_chemical_formula_structural   Er6Zr6Al10Os7
_chemical_formula_sum   'Er6 Zr6 Al10 Os7'
_cell_volume   553.92054894
_cell_formula_units_Z   1
loop_
 _symmetry_equiv_pos_site_id
 _symmetry_equiv_pos_as_xyz
  1  'x, y, z'
loop_
 _atom_site_type_symbol
 _atom_site_label
 _atom_site_symmetry_multiplicity
 _atom_site_fract_x
 _atom_site_fract_y
 _atom_site_fract_z
 _atom_site_occupancy
  Er  Er0  1  0.693511  0.707947  0.301354  1
  Er  Er1  1  0.297188  0.707947  0.301354  1
  Er  Er2  1  0.703314  0.296686  0.296686  1
  Er  Er3  1  0.297188  0.301354  0.707947  1
  Er  Er4  1  0.693511  0.301354  0.707947  1
  Er  Er5  1  0.302111  0.697889  0.697889  1
  Zr  Zr6  1  0.876946  0.885416  0.360691  1
  Zr  Zr7  1  0.876946  0.360691  0.885416  1
  Zr  Zr8  1  0.367407  0.880020  0.880020  1
  Zr  Zr9  1  0.872553  0.880020  0.880020  1
  Zr  Zr10  1  0.123822  0.124600  0.627758  1
  Zr  Zr11  1  0.123822  0.627758  0.124600  1
  Al  Al12  1  0.640901  0.119218  0.119218  1
  Al  Al13  1  0.120662  0.119218  0.119218  1
  Al  Al14  1  0.666453  0.666092  0.001002  1
  Al  Al15  1  0.666453  0.001002  0.666092  1
  Al  Al16  1  0.997476  0.666920  0.666920  1
  Al  Al17  1  0.668685  0.666920  0.666920  1
  Al  Al18  1  0.334128  0.324145  0.007600  1
  Al  Al19  1  0.334128  0.007600  0.324145  1
  Al  Al20  1  0.998428  0.329325  0.329325  1
  Al  Al21  1  0.342922  0.329325  0.329325  1
  Os  Os22  1  0.003776  0.996224  0.996224  1
  Os  Os23  1  0.000345  0.000416  0.500160  1
  Os  Os24  1  0.499080  0.000416  0.500160  1
  Os  Os25  1  0.000187  0.499813  0.499813  1
  Os  Os26  1  0.499080  0.500160  0.000416  1
  Os  Os27  1  0.000345  0.500160  0.000416  1
  Os  Os28  1  0.498637  0.001363  0.001363  1
