# generated using pymatgen
data_Cs3InIrBr9
_symmetry_space_group_name_H-M   'P 1'
_cell_length_a   7.85638400
_cell_length_b   7.85638289
_cell_length_c   20.16250900
_cell_angle_alpha   90.00000000
_cell_angle_beta   90.00000000
_cell_angle_gamma   119.99998783
_symmetry_Int_Tables_number   1
_chemical_formula_structural   Cs3InIrBr9
_chemical_formula_sum   'Cs6 In2 Ir2 Br18'
_cell_volume   1077.75638122
_cell_formula_units_Z   2
loop_
 _symmetry_equiv_pos_site_id
 _symmetry_equiv_pos_as_xyz
  1  'x, y, z'
loop_
 _atom_site_type_symbol
 _atom_site_label
 _atom_site_symmetry_multiplicity
 _atom_site_fract_x
 _atom_site_fract_y
 _atom_site_fract_z
 _atom_site_occupancy
  Cs  Cs0  1  0.333333  0.666667  0.068079  1
  Cs  Cs1  1  0.666667  0.333333  0.931921  1
  Cs  Cs2  1  0.666667  0.333333  0.568402  1
  Cs  Cs3  1  0.333333  0.666667  0.431598  1
  Cs  Cs4  1  0.000000  0.000000  0.255725  1
  Cs  Cs5  1  0.000000  0.000000  0.744275  1
  In  In6  1  0.666667  0.333333  0.158033  1
  In  In7  1  0.333333  0.666667  0.841967  1
  Ir  Ir8  1  0.333333  0.666667  0.665071  1
  Ir  Ir9  1  0.666667  0.333333  0.334929  1
  Br  Br10  1  0.182451  0.364901  0.594515  1
  Br  Br11  1  0.817549  0.635099  0.405485  1
  Br  Br12  1  0.635099  0.817549  0.594515  1
  Br  Br13  1  0.833217  0.666435  0.091343  1
  Br  Br14  1  0.364901  0.182451  0.405485  1
  Br  Br15  1  0.166783  0.333565  0.908657  1
  Br  Br16  1  0.182451  0.817549  0.594515  1
  Br  Br17  1  0.333565  0.166783  0.091343  1
  Br  Br18  1  0.817549  0.182451  0.405485  1
  Br  Br19  1  0.666435  0.833217  0.908657  1
  Br  Br20  1  0.833217  0.166783  0.091343  1
  Br  Br21  1  0.166783  0.833217  0.908657  1
  Br  Br22  1  0.518415  0.036831  0.257314  1
  Br  Br23  1  0.481585  0.963169  0.742686  1
  Br  Br24  1  0.963169  0.481585  0.257314  1
  Br  Br25  1  0.036831  0.518415  0.742686  1
  Br  Br26  1  0.518415  0.481585  0.257314  1
  Br  Br27  1  0.481585  0.518415  0.742686  1
