# generated using pymatgen
data_CsTb10(C2I9)2
_symmetry_space_group_name_H-M   'P 1'
_cell_length_a   11.51622079
_cell_length_b   11.54141239
_cell_length_c   11.56056850
_cell_angle_alpha   113.28813835
_cell_angle_beta   86.85475401
_cell_angle_gamma   119.93443985
_symmetry_Int_Tables_number   1
_chemical_formula_structural   CsTb10(C2I9)2
_chemical_formula_sum   'Cs1 Tb10 C4 I18'
_cell_volume   1203.35230100
_cell_formula_units_Z   1
loop_
 _symmetry_equiv_pos_site_id
 _symmetry_equiv_pos_as_xyz
  1  'x, y, z'
loop_
 _atom_site_type_symbol
 _atom_site_label
 _atom_site_symmetry_multiplicity
 _atom_site_fract_x
 _atom_site_fract_y
 _atom_site_fract_z
 _atom_site_occupancy
  Cs  Cs0  1  0.500000  0.000000  0.500000  1
  Tb  Tb1  1  0.678214  0.724941  0.711723  1
  Tb  Tb2  1  0.276128  0.351658  0.015485  1
  Tb  Tb3  1  0.093281  0.389982  0.291310  1
  Tb  Tb4  1  0.964879  0.038074  0.323212  1
  Tb  Tb5  1  0.906719  0.610018  0.708690  1
  Tb  Tb6  1  0.104554  0.944925  0.000652  1
  Tb  Tb7  1  0.035121  0.961926  0.676788  1
  Tb  Tb8  1  0.321786  0.275059  0.288277  1
  Tb  Tb9  1  0.723872  0.648342  0.984515  1
  Tb  Tb10  1  0.895446  0.055075  0.999348  1
  C  C11  1  0.151377  0.219271  0.120852  1
  C  C12  1  0.848623  0.780729  0.879148  1
  C  C13  1  0.923833  0.856104  0.803603  1
  C  C14  1  0.076167  0.143896  0.196397  1
  I  I15  1  0.450864  0.530975  0.831862  1
  I  I16  1  0.382429  0.039774  0.157551  1
  I  I17  1  0.777849  0.855758  0.502252  1
  I  I18  1  0.838364  0.309294  0.152835  1
  I  I19  1  0.549136  0.469025  0.168138  1
  I  I20  1  0.222151  0.144242  0.497748  1
  I  I21  1  0.315909  0.095674  0.831077  1
  I  I22  1  0.684091  0.904326  0.168923  1
  I  I23  1  0.975613  0.757599  0.168836  1
  I  I24  1  0.934161  0.298385  0.500176  1
  I  I25  1  0.024387  0.242401  0.831164  1
  I  I26  1  0.065839  0.701615  0.499824  1
  I  I27  1  0.260139  0.620491  0.183055  1
  I  I28  1  0.739861  0.379509  0.816945  1
  I  I29  1  0.642568  0.435155  0.500951  1
  I  I30  1  0.161636  0.690706  0.847165  1
  I  I31  1  0.617571  0.960226  0.842449  1
  I  I32  1  0.357432  0.564845  0.499049  1
