# generated using pymatgen
data_Zr6Zn17GeAu6
_symmetry_space_group_name_H-M   'P 1'
_cell_length_a   8.91893704
_cell_length_b   8.92341737
_cell_length_c   8.92344800
_cell_angle_alpha   60.00047988
_cell_angle_beta   59.98360351
_cell_angle_gamma   59.98332550
_symmetry_Int_Tables_number   1
_chemical_formula_structural   Zr6Zn17GeAu6
_chemical_formula_sum   'Zr6 Zn17 Ge1 Au6'
_cell_volume   502.05926709
_cell_formula_units_Z   1
loop_
 _symmetry_equiv_pos_site_id
 _symmetry_equiv_pos_as_xyz
  1  'x, y, z'
loop_
 _atom_site_type_symbol
 _atom_site_label
 _atom_site_symmetry_multiplicity
 _atom_site_fract_x
 _atom_site_fract_y
 _atom_site_fract_z
 _atom_site_occupancy
  Zr  Zr0  1  0.713422  0.288673  0.288670  1
  Zr  Zr1  1  0.286578  0.711327  0.711330  1
  Zr  Zr2  1  0.286579  0.711329  0.290764  1
  Zr  Zr3  1  0.713421  0.288671  0.709236  1
  Zr  Zr4  1  0.286578  0.290764  0.711332  1
  Zr  Zr5  1  0.713422  0.709236  0.288668  1
  Zn  Zn6  1  0.631466  0.122845  0.122844  1
  Zn  Zn7  1  0.368534  0.877155  0.877156  1
  Zn  Zn8  1  0.500000  0.000000  0.000000  1
  Zn  Zn9  1  0.000000  0.500000  0.500000  1
  Zn  Zn10  1  0.000000  0.500000  0.000000  1
  Zn  Zn11  1  0.500000  0.000000  0.500000  1
  Zn  Zn12  1  0.000000  0.000000  0.500000  1
  Zn  Zn13  1  0.500000  0.500000  0.000000  1
  Zn  Zn14  1  0.338592  0.335998  0.335999  1
  Zn  Zn15  1  0.661408  0.664002  0.664001  1
  Zn  Zn16  1  0.338588  0.336000  0.989413  1
  Zn  Zn17  1  0.338589  0.989413  0.335999  1
  Zn  Zn18  1  0.661412  0.664000  0.010587  1
  Zn  Zn19  1  0.661411  0.010587  0.664001  1
  Zn  Zn20  1  0.990631  0.336456  0.336456  1
  Zn  Zn21  1  0.009369  0.663544  0.663544  1
  Zn  Zn22  1  0.000000  0.000000  0.000000  1
  Ge  Ge23  1  0.500000  0.500000  0.500000  1
  Au  Au24  1  0.125060  0.119422  0.119423  1
  Au  Au25  1  0.874940  0.880578  0.880577  1
  Au  Au26  1  0.125063  0.119420  0.636095  1
  Au  Au27  1  0.125062  0.636097  0.119420  1
  Au  Au28  1  0.874937  0.880580  0.363905  1
  Au  Au29  1  0.874938  0.363903  0.880580  1
