# generated using pymatgen
data_Dy2HoBi(AuO5)2
_symmetry_space_group_name_H-M   'P 1'
_cell_length_a   8.53270573
_cell_length_b   8.53270587
_cell_length_c   5.72152389
_cell_angle_alpha   88.89994941
_cell_angle_beta   91.10004719
_cell_angle_gamma   89.89572138
_symmetry_Int_Tables_number   1
_chemical_formula_structural   Dy2HoBi(AuO5)2
_chemical_formula_sum   'Dy4 Ho2 Bi2 Au4 O20'
_cell_volume   416.41284607
_cell_formula_units_Z   2
loop_
 _symmetry_equiv_pos_site_id
 _symmetry_equiv_pos_as_xyz
  1  'x, y, z'
loop_
 _atom_site_type_symbol
 _atom_site_label
 _atom_site_symmetry_multiplicity
 _atom_site_fract_x
 _atom_site_fract_y
 _atom_site_fract_z
 _atom_site_occupancy
  Dy  Dy0  1  0.354256  0.656160  0.247375  1
  Dy  Dy1  1  0.843840  0.145744  0.747375  1
  Dy  Dy2  1  0.651921  0.651690  0.749949  1
  Dy  Dy3  1  0.848310  0.848079  0.249949  1
  Ho  Ho4  1  0.656251  0.354601  0.252624  1
  Ho  Ho5  1  0.145399  0.843749  0.752624  1
  Bi  Bi6  1  0.358906  0.358577  0.750156  1
  Bi  Bi7  1  0.141423  0.141094  0.250156  1
  Au  Au8  1  0.496911  0.000339  0.408171  1
  Au  Au9  1  0.499661  0.003089  0.908171  1
  Au  Au10  1  0.000184  0.496890  0.091795  1
  Au  Au11  1  0.003110  0.499816  0.591795  1
  O  O12  1  0.106359  0.288678  0.599241  1
  O  O13  1  0.910049  0.280057  0.110478  1
  O  O14  1  0.908663  0.716839  0.610186  1
  O  O15  1  0.716520  0.908037  0.890367  1
  O  O16  1  0.219943  0.589951  0.610478  1
  O  O17  1  0.404117  0.787764  0.892789  1
  O  O18  1  0.393813  0.211418  0.400593  1
  O  O19  1  0.783161  0.591337  0.110186  1
  O  O20  1  0.279727  0.910613  0.391068  1
  O  O21  1  0.589387  0.220273  0.891068  1
  O  O22  1  0.494832  0.498924  0.998850  1
  O  O23  1  0.499585  0.493701  0.501208  1
  O  O24  1  0.787299  0.405106  0.605151  1
  O  O25  1  0.094894  0.712701  0.105151  1
  O  O26  1  0.288582  0.106187  0.900593  1
  O  O27  1  0.591963  0.783480  0.390367  1
  O  O28  1  0.211322  0.393641  0.099241  1
  O  O29  1  0.006299  0.000415  0.001208  1
  O  O30  1  0.001076  0.005168  0.498850  1
  O  O31  1  0.712236  0.095883  0.392789  1
