# generated using pymatgen
data_Cs3NbSe3S
_symmetry_space_group_name_H-M   'P 1'
_cell_length_a   10.39274900
_cell_length_b   10.36152500
_cell_length_c   12.22729700
_cell_angle_alpha   90.00000000
_cell_angle_beta   90.00000000
_cell_angle_gamma   90.00000000
_symmetry_Int_Tables_number   1
_chemical_formula_structural   Cs3NbSe3S
_chemical_formula_sum   'Cs12 Nb4 Se12 S4'
_cell_volume   1316.69315874
_cell_formula_units_Z   4
loop_
 _symmetry_equiv_pos_site_id
 _symmetry_equiv_pos_as_xyz
  1  'x, y, z'
loop_
 _atom_site_type_symbol
 _atom_site_label
 _atom_site_symmetry_multiplicity
 _atom_site_fract_x
 _atom_site_fract_y
 _atom_site_fract_z
 _atom_site_occupancy
  Cs  Cs0  1  0.546375  0.208791  0.047222  1
  Cs  Cs1  1  0.046375  0.291209  0.452778  1
  Cs  Cs2  1  0.453625  0.791209  0.547222  1
  Cs  Cs3  1  0.953625  0.708791  0.952778  1
  Cs  Cs4  1  0.453625  0.791209  0.952778  1
  Cs  Cs5  1  0.953625  0.708791  0.547222  1
  Cs  Cs6  1  0.546375  0.208791  0.452778  1
  Cs  Cs7  1  0.046375  0.291209  0.047222  1
  Cs  Cs8  1  0.647706  0.415160  0.750000  1
  Cs  Cs9  1  0.147706  0.084840  0.750000  1
  Cs  Cs10  1  0.352294  0.584840  0.250000  1
  Cs  Cs11  1  0.852294  0.915160  0.250000  1
  Nb  Nb12  1  0.721877  0.979626  0.750000  1
  Nb  Nb13  1  0.221877  0.520374  0.750000  1
  Nb  Nb14  1  0.278123  0.020374  0.250000  1
  Nb  Nb15  1  0.778123  0.479626  0.250000  1
  Se  Se16  1  0.833641  0.048532  0.586214  1
  Se  Se17  1  0.333641  0.451468  0.913786  1
  Se  Se18  1  0.166359  0.951468  0.086214  1
  Se  Se19  1  0.666359  0.548532  0.413786  1
  Se  Se20  1  0.166359  0.951468  0.413786  1
  Se  Se21  1  0.666359  0.548532  0.086214  1
  Se  Se22  1  0.833641  0.048532  0.913786  1
  Se  Se23  1  0.333641  0.451468  0.586214  1
  Se  Se24  1  0.505852  0.069824  0.750000  1
  Se  Se25  1  0.005852  0.430176  0.750000  1
  Se  Se26  1  0.494148  0.930176  0.250000  1
  Se  Se27  1  0.994148  0.569824  0.250000  1
  S  S28  1  0.709328  0.759267  0.750000  1
  S  S29  1  0.209328  0.740733  0.750000  1
  S  S30  1  0.290672  0.240733  0.250000  1
  S  S31  1  0.790672  0.259267  0.250000  1
