# generated using pymatgen
data_Hf2NpF11
_symmetry_space_group_name_H-M   'P 1'
_cell_length_a   8.45700804
_cell_length_b   8.45879013
_cell_length_c   8.46523384
_cell_angle_alpha   125.14208268
_cell_angle_beta   106.64806956
_cell_angle_gamma   97.98180596
_symmetry_Int_Tables_number   1
_chemical_formula_structural   Hf2NpF11
_chemical_formula_sum   'Hf4 Np2 F22'
_cell_volume   437.32040939
_cell_formula_units_Z   2
loop_
 _symmetry_equiv_pos_site_id
 _symmetry_equiv_pos_as_xyz
  1  'x, y, z'
loop_
 _atom_site_type_symbol
 _atom_site_label
 _atom_site_symmetry_multiplicity
 _atom_site_fract_x
 _atom_site_fract_y
 _atom_site_fract_z
 _atom_site_occupancy
  Hf  Hf0  1  0.679017  0.631352  0.313588  1
  Hf  Hf1  1  0.320983  0.368648  0.686412  1
  Hf  Hf2  1  0.181151  0.867513  0.047773  1
  Hf  Hf3  1  0.818849  0.132487  0.952227  1
  Np  Np4  1  0.752250  0.248493  0.500789  1
  Np  Np5  1  0.247750  0.751507  0.499211  1
  F  F6  1  0.705740  0.889546  0.338297  1
  F  F7  1  0.294260  0.110454  0.661703  1
  F  F8  1  0.551536  0.366582  0.659607  1
  F  F9  1  0.947979  0.610061  0.815677  1
  F  F10  1  0.448464  0.633418  0.340393  1
  F  F11  1  0.052021  0.389939  0.184323  1
  F  F12  1  0.792695  0.133473  0.184287  1
  F  F13  1  0.207305  0.866527  0.815713  1
  F  F14  1  0.500000  0.500000  0.000000  1
  F  F15  1  0.000000  0.000000  0.000000  1
  F  F16  1  0.780992  0.870747  0.650035  1
  F  F17  1  0.219008  0.129253  0.349965  1
  F  F18  1  0.280009  0.629913  0.910215  1
  F  F19  1  0.719991  0.370087  0.089785  1
  F  F20  1  0.948846  0.738334  0.417058  1
  F  F21  1  0.051154  0.261666  0.582942  1
  F  F22  1  0.321258  0.533472  0.583536  1
  F  F23  1  0.179236  0.760988  0.210377  1
  F  F24  1  0.678742  0.466528  0.416464  1
  F  F25  1  0.820764  0.239012  0.789623  1
  F  F26  1  0.550646  0.965809  0.787539  1
  F  F27  1  0.449354  0.034191  0.212461  1
