# generated using pymatgen
data_La2NdTh(CoB10)2
_symmetry_space_group_name_H-M   'P 1'
_cell_length_a   4.20589800
_cell_length_b   5.65051935
_cell_length_c   11.26651208
_cell_angle_alpha   89.99727479
_cell_angle_beta   90.00000000
_cell_angle_gamma   90.00000000
_symmetry_Int_Tables_number   1
_chemical_formula_structural   La2NdTh(CoB10)2
_chemical_formula_sum   'La2 Nd1 Th1 Co2 B20'
_cell_volume   267.75438306
_cell_formula_units_Z   1
loop_
 _symmetry_equiv_pos_site_id
 _symmetry_equiv_pos_as_xyz
  1  'x, y, z'
loop_
 _atom_site_type_symbol
 _atom_site_label
 _atom_site_symmetry_multiplicity
 _atom_site_fract_x
 _atom_site_fract_y
 _atom_site_fract_z
 _atom_site_occupancy
  La  La0  1  0.500000  0.300295  0.865215  1
  La  La1  1  0.500000  0.699489  0.134303  1
  Nd  Nd2  1  0.500000  0.801408  0.634039  1
  Th  Th3  1  0.500000  0.200580  0.366922  1
  Co  Co4  1  0.000000  0.498229  0.499574  1
  Co  Co5  1  0.000000  0.000078  0.999957  1
  B  B6  1  0.000000  0.127564  0.539666  1
  B  B7  1  0.000000  0.873109  0.459867  1
  B  B8  1  0.000000  0.627633  0.958679  1
  B  B9  1  0.000000  0.372270  0.041438  1
  B  B10  1  0.000000  0.154854  0.696751  1
  B  B11  1  0.000000  0.847351  0.303704  1
  B  B12  1  0.298352  0.200973  0.113568  1
  B  B13  1  0.297880  0.798821  0.886654  1
  B  B14  1  0.700997  0.700838  0.387052  1
  B  B15  1  0.701049  0.297630  0.612395  1
  B  B16  1  0.702120  0.798821  0.886654  1
  B  B17  1  0.701648  0.200973  0.113568  1
  B  B18  1  0.298951  0.297630  0.612395  1
  B  B19  1  0.299003  0.700838  0.387052  1
  B  B20  1  0.000000  0.036332  0.188017  1
  B  B21  1  0.000000  0.964261  0.812502  1
  B  B22  1  0.000000  0.535514  0.313267  1
  B  B23  1  0.000000  0.464649  0.686519  1
  B  B24  1  0.000000  0.345195  0.197875  1
  B  B25  1  0.000000  0.654663  0.802369  1
