# generated using pymatgen
data_Sm2ErCu3(Ni5B)2
_symmetry_space_group_name_H-M   'P 1'
_cell_length_a   4.98314600
_cell_length_b   4.98314734
_cell_length_c   10.88692300
_cell_angle_alpha   90.00000000
_cell_angle_beta   90.00000000
_cell_angle_gamma   120.00000436
_symmetry_Int_Tables_number   1
_chemical_formula_structural   Sm2ErCu3(Ni5B)2
_chemical_formula_sum   'Sm2 Er1 Cu3 Ni10 B2'
_cell_volume   234.12247374
_cell_formula_units_Z   1
loop_
 _symmetry_equiv_pos_site_id
 _symmetry_equiv_pos_as_xyz
  1  'x, y, z'
loop_
 _atom_site_type_symbol
 _atom_site_label
 _atom_site_symmetry_multiplicity
 _atom_site_fract_x
 _atom_site_fract_y
 _atom_site_fract_z
 _atom_site_occupancy
  Sm  Sm0  1  0.000000  0.000000  0.666856  1
  Sm  Sm1  1  0.000000  0.000000  0.327416  1
  Er  Er2  1  0.000000  0.000000  0.999743  1
  Cu  Cu3  1  0.666667  0.333333  0.683748  1
  Cu  Cu4  1  0.333333  0.666667  0.684103  1
  Cu  Cu5  1  0.333333  0.666667  0.316380  1
  Ni  Ni6  1  0.500401  0.499599  0.499595  1
  Ni  Ni7  1  0.500401  0.000802  0.499595  1
  Ni  Ni8  1  0.999198  0.499599  0.499595  1
  Ni  Ni9  1  0.666667  0.333333  0.318494  1
  Ni  Ni10  1  0.499907  0.500093  0.871236  1
  Ni  Ni11  1  0.499907  0.999814  0.871236  1
  Ni  Ni12  1  0.000186  0.500093  0.871236  1
  Ni  Ni13  1  0.500989  0.499011  0.129914  1
  Ni  Ni14  1  0.500989  0.001980  0.129914  1
  Ni  Ni15  1  0.998020  0.499011  0.129914  1
  B  B16  1  0.666667  0.333333  0.000148  1
  B  B17  1  0.333333  0.666667  0.000877  1
