# generated using pymatgen
data_TbEr9(Hg2Pd)4
_symmetry_space_group_name_H-M   'P 1'
_cell_length_a   3.59704700
_cell_length_b   7.95494475
_cell_length_c   18.18718700
_cell_angle_alpha   90.04768080
_cell_angle_beta   90.00000000
_cell_angle_gamma   90.00000000
_symmetry_Int_Tables_number   1
_chemical_formula_structural   TbEr9(Hg2Pd)4
_chemical_formula_sum   'Tb1 Er9 Hg8 Pd4'
_cell_volume   520.41362964
_cell_formula_units_Z   1
loop_
 _symmetry_equiv_pos_site_id
 _symmetry_equiv_pos_as_xyz
  1  'x, y, z'
loop_
 _atom_site_type_symbol
 _atom_site_label
 _atom_site_symmetry_multiplicity
 _atom_site_fract_x
 _atom_site_fract_y
 _atom_site_fract_z
 _atom_site_occupancy
  Tb  Tb0  1  0.000000  0.500000  0.500000  1
  Er  Er1  1  0.000000  0.000000  0.000000  1
  Er  Er2  1  0.000000  0.735157  0.284020  1
  Er  Er3  1  0.000000  0.264843  0.715980  1
  Er  Er4  1  0.000000  0.765019  0.784951  1
  Er  Er5  1  0.000000  0.234981  0.215049  1
  Er  Er6  1  0.000000  0.613848  0.084074  1
  Er  Er7  1  0.000000  0.386152  0.915926  1
  Er  Er8  1  0.000000  0.885724  0.584651  1
  Er  Er9  1  0.000000  0.114276  0.415349  1
  Hg  Hg10  1  0.500000  0.711501  0.935451  1
  Hg  Hg11  1  0.500000  0.288499  0.064549  1
  Hg  Hg12  1  0.500000  0.790720  0.434633  1
  Hg  Hg13  1  0.500000  0.209280  0.565367  1
  Hg  Hg14  1  0.500000  0.582452  0.648966  1
  Hg  Hg15  1  0.500000  0.417548  0.351034  1
  Hg  Hg16  1  0.500000  0.917756  0.147442  1
  Hg  Hg17  1  0.500000  0.082244  0.852558  1
  Pd  Pd18  1  0.500000  0.525119  0.195493  1
  Pd  Pd19  1  0.500000  0.474881  0.804507  1
  Pd  Pd20  1  0.500000  0.975030  0.696302  1
  Pd  Pd21  1  0.500000  0.024970  0.303698  1
