# generated using pymatgen
data_Tb8Ho12Sn5Pb11
_symmetry_space_group_name_H-M   'P 1'
_cell_length_a   8.15620412
_cell_length_b   8.24450912
_cell_length_c   15.61009400
_cell_angle_alpha   90.00000000
_cell_angle_beta   90.00000000
_cell_angle_gamma   90.01961247
_symmetry_Int_Tables_number   1
_chemical_formula_structural   Tb8Ho12Sn5Pb11
_chemical_formula_sum   'Tb8 Ho12 Sn5 Pb11'
_cell_volume   1049.68352678
_cell_formula_units_Z   1
loop_
 _symmetry_equiv_pos_site_id
 _symmetry_equiv_pos_as_xyz
  1  'x, y, z'
loop_
 _atom_site_type_symbol
 _atom_site_label
 _atom_site_symmetry_multiplicity
 _atom_site_fract_x
 _atom_site_fract_y
 _atom_site_fract_z
 _atom_site_occupancy
  Tb  Tb0  1  0.532756  0.323000  0.898476  1
  Tb  Tb1  1  0.035201  0.175852  0.601049  1
  Tb  Tb2  1  0.466057  0.675890  0.399601  1
  Tb  Tb3  1  0.966047  0.824128  0.100453  1
  Tb  Tb4  1  0.466057  0.675890  0.100399  1
  Tb  Tb5  1  0.966047  0.824128  0.399547  1
  Tb  Tb6  1  0.532756  0.323000  0.601524  1
  Tb  Tb7  1  0.035201  0.175852  0.898951  1
  Ho  Ho8  1  0.376534  0.840689  0.877359  1
  Ho  Ho9  1  0.876553  0.660605  0.622224  1
  Ho  Ho10  1  0.623458  0.160594  0.377915  1
  Ho  Ho11  1  0.123423  0.339392  0.122096  1
  Ho  Ho12  1  0.623458  0.160594  0.122085  1
  Ho  Ho13  1  0.123423  0.339392  0.377904  1
  Ho  Ho14  1  0.376534  0.840689  0.622641  1
  Ho  Ho15  1  0.876553  0.660605  0.877776  1
  Ho  Ho16  1  0.210568  0.505005  0.750000  1
  Ho  Ho17  1  0.707811  0.993940  0.750000  1
  Ho  Ho18  1  0.790506  0.492928  0.250000  1
  Ho  Ho19  1  0.290532  0.006932  0.250000  1
  Sn  Sn20  1  0.573005  0.626487  0.750000  1
  Sn  Sn21  1  0.073784  0.875278  0.750000  1
  Sn  Sn22  1  0.427008  0.373508  0.250000  1
  Sn  Sn23  1  0.927084  0.126404  0.250000  1
  Sn  Sn24  1  0.342387  0.148916  0.750000  1
  Pb  Pb25  1  0.282867  0.034018  0.042591  1
  Pb  Pb26  1  0.782857  0.465917  0.457448  1
  Pb  Pb27  1  0.717194  0.965921  0.542488  1
  Pb  Pb28  1  0.217110  0.534292  0.957472  1
  Pb  Pb29  1  0.717194  0.965921  0.957512  1
  Pb  Pb30  1  0.217110  0.534292  0.542528  1
  Pb  Pb31  1  0.282867  0.034018  0.457409  1
  Pb  Pb32  1  0.782857  0.465917  0.042552  1
  Pb  Pb33  1  0.843101  0.350141  0.750000  1
  Pb  Pb34  1  0.656980  0.849766  0.250000  1
  Pb  Pb35  1  0.157118  0.650097  0.250000  1
