# generated using pymatgen
data_RbPaS6
_symmetry_space_group_name_H-M   'P 1'
_cell_length_a   8.38300375
_cell_length_b   8.38300453
_cell_length_c   7.98012458
_cell_angle_alpha   86.96466354
_cell_angle_beta   86.96465050
_cell_angle_gamma   120.13202493
_symmetry_Int_Tables_number   1
_chemical_formula_structural   RbPaS6
_chemical_formula_sum   'Rb2 Pa2 S12'
_cell_volume   482.28225698
_cell_formula_units_Z   2
loop_
 _symmetry_equiv_pos_site_id
 _symmetry_equiv_pos_as_xyz
  1  'x, y, z'
loop_
 _atom_site_type_symbol
 _atom_site_label
 _atom_site_symmetry_multiplicity
 _atom_site_fract_x
 _atom_site_fract_y
 _atom_site_fract_z
 _atom_site_occupancy
  Rb  Rb0  1  0.670849  0.331402  0.995625  1
  Rb  Rb1  1  0.331402  0.670849  0.495625  1
  Pa  Pa2  1  0.990109  0.013671  0.743301  1
  Pa  Pa3  1  0.013671  0.990109  0.243301  1
  S  S4  1  0.939919  0.206390  0.486026  1
  S  S5  1  0.206390  0.939919  0.986026  1
  S  S6  1  0.297105  0.328844  0.803040  1
  S  S7  1  0.328844  0.297105  0.303040  1
  S  S8  1  0.078825  0.267502  0.979381  1
  S  S9  1  0.267502  0.078825  0.479381  1
  S  S10  1  0.710421  0.065620  0.661942  1
  S  S11  1  0.065620  0.710421  0.161942  1
  S  S12  1  0.966439  0.687878  0.700524  1
  S  S13  1  0.687878  0.966439  0.200524  1
  S  S14  1  0.812312  0.730197  0.527544  1
  S  S15  1  0.730197  0.812312  0.027544  1
