# generated using pymatgen
data_PrMn(NbSe2)8
_symmetry_space_group_name_H-M   'P 1'
_cell_length_a   7.00100100
_cell_length_b   7.00100063
_cell_length_c   13.95946000
_cell_angle_alpha   90.00000000
_cell_angle_beta   90.00000000
_cell_angle_gamma   120.00000648
_symmetry_Int_Tables_number   1
_chemical_formula_structural   PrMn(NbSe2)8
_chemical_formula_sum   'Pr1 Mn1 Nb8 Se16'
_cell_volume   592.54246283
_cell_formula_units_Z   1
loop_
 _symmetry_equiv_pos_site_id
 _symmetry_equiv_pos_as_xyz
  1  'x, y, z'
loop_
 _atom_site_type_symbol
 _atom_site_label
 _atom_site_symmetry_multiplicity
 _atom_site_fract_x
 _atom_site_fract_y
 _atom_site_fract_z
 _atom_site_occupancy
  Pr  Pr0  1  0.000000  0.000000  0.000000  1
  Mn  Mn1  1  0.000000  0.000000  0.500000  1
  Nb  Nb2  1  0.000000  0.000000  0.267730  1
  Nb  Nb3  1  0.000000  0.000000  0.732270  1
  Nb  Nb4  1  0.507795  0.015590  0.270048  1
  Nb  Nb5  1  0.492205  0.984410  0.729952  1
  Nb  Nb6  1  0.984410  0.492205  0.270048  1
  Nb  Nb7  1  0.015590  0.507795  0.729952  1
  Nb  Nb8  1  0.507795  0.492205  0.270048  1
  Nb  Nb9  1  0.492205  0.507795  0.729952  1
  Se  Se10  1  0.333333  0.666667  0.606364  1
  Se  Se11  1  0.666667  0.333333  0.393636  1
  Se  Se12  1  0.666667  0.333333  0.144488  1
  Se  Se13  1  0.333333  0.666667  0.855512  1
  Se  Se14  1  0.170780  0.341559  0.150165  1
  Se  Se15  1  0.829220  0.658441  0.849835  1
  Se  Se16  1  0.658441  0.829220  0.150165  1
  Se  Se17  1  0.831414  0.662827  0.612496  1
  Se  Se18  1  0.341559  0.170780  0.849835  1
  Se  Se19  1  0.168586  0.337173  0.387504  1
  Se  Se20  1  0.170780  0.829220  0.150165  1
  Se  Se21  1  0.337173  0.168586  0.612496  1
  Se  Se22  1  0.829220  0.170780  0.849835  1
  Se  Se23  1  0.662827  0.831414  0.387504  1
  Se  Se24  1  0.831414  0.168586  0.612496  1
  Se  Se25  1  0.168586  0.831414  0.387504  1
