# generated using pymatgen
data_Hf12TaTi4Os7
_symmetry_space_group_name_H-M   'P 1'
_cell_length_a   8.61768563
_cell_length_b   8.60218557
_cell_length_c   8.60218500
_cell_angle_alpha   59.99999834
_cell_angle_beta   60.05947888
_cell_angle_gamma   60.05947946
_symmetry_Int_Tables_number   1
_chemical_formula_structural   Hf12TaTi4Os7
_chemical_formula_sum   'Hf12 Ta1 Ti4 Os7'
_cell_volume   451.31844960
_cell_formula_units_Z   1
loop_
 _symmetry_equiv_pos_site_id
 _symmetry_equiv_pos_as_xyz
  1  'x, y, z'
loop_
 _atom_site_type_symbol
 _atom_site_label
 _atom_site_symmetry_multiplicity
 _atom_site_fract_x
 _atom_site_fract_y
 _atom_site_fract_z
 _atom_site_occupancy
  Hf  Hf0  1  0.810140  0.807433  0.191213  1
  Hf  Hf1  1  0.192077  0.193141  0.807391  1
  Hf  Hf2  1  0.810140  0.191213  0.807433  1
  Hf  Hf3  1  0.192077  0.807391  0.193141  1
  Hf  Hf4  1  0.192077  0.807391  0.807391  1
  Hf  Hf5  1  0.810140  0.191213  0.191213  1
  Hf  Hf6  1  0.443644  0.442896  0.056730  1
  Hf  Hf7  1  0.058755  0.054881  0.443182  1
  Hf  Hf8  1  0.443644  0.056730  0.442896  1
  Hf  Hf9  1  0.058755  0.443182  0.054881  1
  Hf  Hf10  1  0.058755  0.443182  0.443182  1
  Hf  Hf11  1  0.443644  0.056730  0.056730  1
  Ta  Ta12  1  0.751115  0.416294  0.416294  1
  Ti  Ti13  1  0.126061  0.624646  0.624646  1
  Ti  Ti14  1  0.622898  0.119931  0.628585  1
  Ti  Ti15  1  0.622898  0.628585  0.119931  1
  Ti  Ti16  1  0.622898  0.628585  0.628585  1
  Os  Os17  1  0.412115  0.759433  0.414225  1
  Os  Os18  1  0.412115  0.414225  0.759433  1
  Os  Os19  1  0.412115  0.414225  0.414225  1
  Os  Os20  1  0.492378  0.835875  0.835875  1
  Os  Os21  1  0.837186  0.492145  0.835336  1
  Os  Os22  1  0.837186  0.835336  0.492145  1
  Os  Os23  1  0.837186  0.835336  0.835336  1
