# generated using pymatgen
data_Nb12Ga9Fe2NiN4
_symmetry_space_group_name_H-M   'P 1'
_cell_length_a   8.20343892
_cell_length_b   8.23363326
_cell_length_c   8.23363290
_cell_angle_alpha   60.30000020
_cell_angle_beta   60.22065310
_cell_angle_gamma   60.22065310
_symmetry_Int_Tables_number   1
_chemical_formula_structural   Nb12Ga9Fe2NiN4
_chemical_formula_sum   'Nb12 Ga9 Fe2 Ni1 N4'
_cell_volume   395.44485680
_cell_formula_units_Z   1
loop_
 _symmetry_equiv_pos_site_id
 _symmetry_equiv_pos_as_xyz
  1  'x, y, z'
loop_
 _atom_site_type_symbol
 _atom_site_label
 _atom_site_symmetry_multiplicity
 _atom_site_fract_x
 _atom_site_fract_y
 _atom_site_fract_z
 _atom_site_occupancy
  Nb  Nb0  1  0.812575  0.808929  0.188586  1
  Nb  Nb1  1  0.190886  0.196024  0.806415  1
  Nb  Nb2  1  0.812575  0.188586  0.808929  1
  Nb  Nb3  1  0.190886  0.806415  0.196024  1
  Nb  Nb4  1  0.189318  0.806774  0.806774  1
  Nb  Nb5  1  0.813087  0.188741  0.188741  1
  Nb  Nb6  1  0.437425  0.441071  0.061414  1
  Nb  Nb7  1  0.059114  0.053976  0.443585  1
  Nb  Nb8  1  0.437425  0.061414  0.441071  1
  Nb  Nb9  1  0.059114  0.443585  0.053976  1
  Nb  Nb10  1  0.060682  0.443226  0.443226  1
  Nb  Nb11  1  0.436913  0.061259  0.061259  1
  Ga  Ga12  1  0.125000  0.625000  0.625000  1
  Ga  Ga13  1  0.757947  0.414149  0.414149  1
  Ga  Ga14  1  0.429516  0.755807  0.407669  1
  Ga  Ga15  1  0.429516  0.407669  0.755807  1
  Ga  Ga16  1  0.430147  0.407646  0.407646  1
  Ga  Ga17  1  0.492053  0.835851  0.835851  1
  Ga  Ga18  1  0.820484  0.494193  0.842331  1
  Ga  Ga19  1  0.820484  0.842331  0.494193  1
  Ga  Ga20  1  0.819853  0.842354  0.842354  1
  Fe  Fe21  1  0.625000  0.125000  0.625000  1
  Fe  Fe22  1  0.625000  0.625000  0.125000  1
  Ni  Ni23  1  0.625000  0.625000  0.625000  1
  N  N24  1  0.625000  0.125000  0.125000  1
  N  N25  1  0.125000  0.625000  0.125000  1
  N  N26  1  0.125000  0.125000  0.625000  1
  N  N27  1  0.125000  0.125000  0.125000  1
