# generated using pymatgen
data_Sm8Ho12Si15Tc
_symmetry_space_group_name_H-M   'P 1'
_cell_length_a   7.39610778
_cell_length_b   7.80130838
_cell_length_c   14.64244100
_cell_angle_alpha   90.00000000
_cell_angle_beta   90.00000000
_cell_angle_gamma   90.14633334
_symmetry_Int_Tables_number   1
_chemical_formula_structural   Sm8Ho12Si15Tc
_chemical_formula_sum   'Sm8 Ho12 Si15 Tc1'
_cell_volume   844.85609802
_cell_formula_units_Z   1
loop_
 _symmetry_equiv_pos_site_id
 _symmetry_equiv_pos_as_xyz
  1  'x, y, z'
loop_
 _atom_site_type_symbol
 _atom_site_label
 _atom_site_symmetry_multiplicity
 _atom_site_fract_x
 _atom_site_fract_y
 _atom_site_fract_z
 _atom_site_occupancy
  Sm  Sm0  1  0.020333  0.184296  0.097345  1
  Sm  Sm1  1  0.983846  0.826207  0.904221  1
  Sm  Sm2  1  0.481521  0.680520  0.904020  1
  Sm  Sm3  1  0.983846  0.826207  0.595779  1
  Sm  Sm4  1  0.518950  0.318762  0.096605  1
  Sm  Sm5  1  0.020333  0.184296  0.402655  1
  Sm  Sm6  1  0.518950  0.318762  0.403395  1
  Sm  Sm7  1  0.481521  0.680520  0.595980  1
  Ho  Ho8  1  0.154007  0.511323  0.750000  1
  Ho  Ho9  1  0.841753  0.487328  0.250000  1
  Ho  Ho10  1  0.341069  0.015104  0.250000  1
  Ho  Ho11  1  0.665965  0.988548  0.750000  1
  Ho  Ho12  1  0.312050  0.174295  0.627337  1
  Ho  Ho13  1  0.676921  0.823659  0.375492  1
  Ho  Ho14  1  0.176898  0.679902  0.375551  1
  Ho  Ho15  1  0.676921  0.823659  0.124508  1
  Ho  Ho16  1  0.833942  0.314691  0.625598  1
  Ho  Ho17  1  0.312050  0.174295  0.872663  1
  Ho  Ho18  1  0.833942  0.314691  0.874402  1
  Ho  Ho19  1  0.176898  0.679902  0.124449  1
  Si  Si20  1  0.970253  0.892040  0.250000  1
  Si  Si21  1  0.472734  0.607649  0.250000  1
  Si  Si22  1  0.528464  0.394794  0.750000  1
  Si  Si23  1  0.275225  0.869010  0.750000  1
  Si  Si24  1  0.722479  0.126780  0.250000  1
  Si  Si25  1  0.224698  0.374234  0.250000  1
  Si  Si26  1  0.768049  0.621578  0.750000  1
  Si  Si27  1  0.154395  0.472738  0.537707  1
  Si  Si28  1  0.850243  0.532726  0.461924  1
  Si  Si29  1  0.348851  0.968474  0.461133  1
  Si  Si30  1  0.850243  0.532726  0.038076  1
  Si  Si31  1  0.646593  0.030563  0.538136  1
  Si  Si32  1  0.154395  0.472738  0.962293  1
  Si  Si33  1  0.646593  0.030563  0.961864  1
  Si  Si34  1  0.348851  0.968474  0.038867  1
  Tc  Tc35  1  0.026216  0.097945  0.750000  1
