# generated using pymatgen
data_Ca3Fe2Si(SnO6)2
_symmetry_space_group_name_H-M   'P 1'
_cell_length_a   10.99161358
_cell_length_b   10.99161269
_cell_length_c   10.99161342
_cell_angle_alpha   108.92097425
_cell_angle_beta   108.92097128
_cell_angle_gamma   110.57740850
_symmetry_Int_Tables_number   1
_chemical_formula_structural   Ca3Fe2Si(SnO6)2
_chemical_formula_sum   'Ca12 Fe8 Si4 Sn8 O48'
_cell_volume   1021.97611268
_cell_formula_units_Z   4
loop_
 _symmetry_equiv_pos_site_id
 _symmetry_equiv_pos_as_xyz
  1  'x, y, z'
loop_
 _atom_site_type_symbol
 _atom_site_label
 _atom_site_symmetry_multiplicity
 _atom_site_fract_x
 _atom_site_fract_y
 _atom_site_fract_z
 _atom_site_occupancy
  Ca  Ca0  1  0.375000  0.749238  0.874238  1
  Ca  Ca1  1  0.250000  0.250000  0.000000  1
  Ca  Ca2  1  0.999238  0.625000  0.874238  1
  Ca  Ca3  1  0.750762  0.125000  0.125762  1
  Ca  Ca4  1  0.375000  0.249238  0.374238  1
  Ca  Ca5  1  0.750000  0.750000  0.000000  1
  Ca  Ca6  1  0.500000  0.000000  0.500000  1
  Ca  Ca7  1  0.875000  0.500762  0.125762  1
  Ca  Ca8  1  0.499238  0.625000  0.374238  1
  Ca  Ca9  1  0.250762  0.125000  0.625762  1
  Ca  Ca10  1  0.000000  0.500000  0.500000  1
  Ca  Ca11  1  0.875000  0.000762  0.625762  1
  Fe  Fe12  1  0.500863  0.125000  0.875863  1
  Fe  Fe13  1  0.875000  0.250863  0.875863  1
  Fe  Fe14  1  0.375000  0.999137  0.124137  1
  Fe  Fe15  1  0.249137  0.625000  0.124137  1
  Fe  Fe16  1  0.000863  0.125000  0.375863  1
  Fe  Fe17  1  0.875000  0.750863  0.375863  1
  Fe  Fe18  1  0.375000  0.499137  0.624137  1
  Fe  Fe19  1  0.749137  0.625000  0.624137  1
  Si  Si20  1  0.000000  0.000000  0.000000  1
  Si  Si21  1  0.500000  0.500000  0.000000  1
  Si  Si22  1  0.750000  0.250000  0.500000  1
  Si  Si23  1  0.250000  0.750000  0.500000  1
  Sn  Sn24  1  0.125000  0.875000  0.750000  1
  Sn  Sn25  1  0.625000  0.875000  0.750000  1
  Sn  Sn26  1  0.125000  0.375000  0.750000  1
  Sn  Sn27  1  0.625000  0.375000  0.750000  1
  Sn  Sn28  1  0.125000  0.875000  0.250000  1
  Sn  Sn29  1  0.625000  0.875000  0.250000  1
  Sn  Sn30  1  0.125000  0.375000  0.250000  1
  Sn  Sn31  1  0.625000  0.375000  0.250000  1
  O  O32  1  0.326034  0.374183  0.863681  1
  O  O33  1  0.549903  0.975404  0.876793  1
  O  O34  1  0.530922  0.696163  0.779960  1
  O  O35  1  0.303837  0.083796  0.834759  1
  O  O36  1  0.030922  0.250963  0.834759  1
  O  O37  1  0.037647  0.989498  0.863681  1
  O  O38  1  0.225404  0.848610  0.925502  1
  O  O39  1  0.416204  0.196163  0.165241  1
  O  O40  1  0.524596  0.950097  0.123207  1
  O  O41  1  0.537647  0.673966  0.048149  1
  O  O42  1  0.923110  0.299903  0.074498  1
  O  O43  1  0.749037  0.583796  0.779960  1
  O  O44  1  0.200097  0.576890  0.925502  1
  O  O45  1  0.826034  0.962353  0.951851  1
  O  O46  1  0.125817  0.173966  0.136319  1
  O  O47  1  0.651390  0.274596  0.074498  1
  O  O48  1  0.010502  0.874183  0.048149  1
  O  O49  1  0.826890  0.401390  0.876793  1
  O  O50  1  0.510502  0.462353  0.136319  1
  O  O51  1  0.333796  0.999037  0.279960  1
  O  O52  1  0.446163  0.780922  0.279960  1
  O  O53  1  0.098610  0.673110  0.123207  1
  O  O54  1  0.000963  0.280922  0.334759  1
  O  O55  1  0.625817  0.489498  0.951851  1
  O  O56  1  0.249037  0.469078  0.165241  1
  O  O57  1  0.624183  0.260502  0.548149  1
  O  O58  1  0.151390  0.076890  0.376793  1
  O  O59  1  0.803837  0.969078  0.220040  1
  O  O60  1  0.916204  0.750963  0.220040  1
  O  O61  1  0.739498  0.287647  0.363681  1
  O  O62  1  0.423110  0.348610  0.623207  1
  O  O63  1  0.239498  0.875817  0.451851  1
  O  O64  1  0.598610  0.475404  0.425502  1
  O  O65  1  0.124183  0.576034  0.363681  1
  O  O66  1  0.423966  0.787647  0.548149  1
  O  O67  1  0.049903  0.173110  0.574498  1
  O  O68  1  0.500963  0.166204  0.720040  1
  O  O69  1  0.326890  0.450097  0.425502  1
  O  O70  1  0.712353  0.076034  0.451851  1
  O  O71  1  0.725404  0.799903  0.376793  1
  O  O72  1  0.833796  0.553837  0.334759  1
  O  O73  1  0.024596  0.901390  0.574498  1
  O  O74  1  0.212353  0.760502  0.636319  1
  O  O75  1  0.219078  0.499037  0.665241  1
  O  O76  1  0.946163  0.666204  0.665241  1
  O  O77  1  0.719078  0.053837  0.720040  1
  O  O78  1  0.700097  0.774596  0.623207  1
  O  O79  1  0.923966  0.375817  0.636319  1
