# generated using pymatgen
data_Er4GaRu7
_symmetry_space_group_name_H-M   'P 1'
_cell_length_a   5.34688100
_cell_length_b   5.34688094
_cell_length_c   8.60246500
_cell_angle_alpha   90.00000000
_cell_angle_beta   90.00000000
_cell_angle_gamma   119.99999417
_symmetry_Int_Tables_number   1
_chemical_formula_structural   Er4GaRu7
_chemical_formula_sum   'Er4 Ga1 Ru7'
_cell_volume   212.98773939
_cell_formula_units_Z   1
loop_
 _symmetry_equiv_pos_site_id
 _symmetry_equiv_pos_as_xyz
  1  'x, y, z'
loop_
 _atom_site_type_symbol
 _atom_site_label
 _atom_site_symmetry_multiplicity
 _atom_site_fract_x
 _atom_site_fract_y
 _atom_site_fract_z
 _atom_site_occupancy
  Er  Er0  1  0.333333  0.666667  0.434518  1
  Er  Er1  1  0.666667  0.333333  0.565482  1
  Er  Er2  1  0.666667  0.333333  0.929974  1
  Er  Er3  1  0.333333  0.666667  0.070026  1
  Ga  Ga4  1  0.000000  0.000000  0.000000  1
  Ru  Ru5  1  0.171466  0.342932  0.750646  1
  Ru  Ru6  1  0.171466  0.828534  0.750646  1
  Ru  Ru7  1  0.342932  0.171466  0.249354  1
  Ru  Ru8  1  0.828534  0.657068  0.249354  1
  Ru  Ru9  1  0.657068  0.828534  0.750646  1
  Ru  Ru10  1  0.828534  0.171466  0.249354  1
  Ru  Ru11  1  0.000000  0.000000  0.500000  1
