# generated using pymatgen
data_Th3AlGa2RuPt2
_symmetry_space_group_name_H-M   'P 1'
_cell_length_a   7.36090552
_cell_length_b   7.29688071
_cell_length_c   4.08824700
_cell_angle_alpha   90.00000000
_cell_angle_beta   90.00000000
_cell_angle_gamma   120.00390777
_symmetry_Int_Tables_number   1
_chemical_formula_structural   Th3AlGa2RuPt2
_chemical_formula_sum   'Th3 Al1 Ga2 Ru1 Pt2'
_cell_volume   190.15998987
_cell_formula_units_Z   1
loop_
 _symmetry_equiv_pos_site_id
 _symmetry_equiv_pos_as_xyz
  1  'x, y, z'
loop_
 _atom_site_type_symbol
 _atom_site_label
 _atom_site_symmetry_multiplicity
 _atom_site_fract_x
 _atom_site_fract_y
 _atom_site_fract_z
 _atom_site_occupancy
  Th  Th0  1  0.423767  0.414574  0.500000  1
  Th  Th1  1  0.584684  0.006045  0.500000  1
  Th  Th2  1  0.992274  0.581290  0.500000  1
  Al  Al3  1  0.994746  0.232991  0.000000  1
  Ga  Ga4  1  0.761274  0.757130  0.000000  1
  Ga  Ga5  1  0.245583  0.007407  0.000000  1
  Ru  Ru6  1  0.671101  0.331934  0.000000  1
  Pt  Pt7  1  0.326214  0.657899  0.000000  1
  Pt  Pt8  1  0.000357  0.010730  0.500000  1
