# generated using pymatgen
data_La6Mg4Cd19S
_symmetry_space_group_name_H-M   'P 1'
_cell_length_a   10.15791745
_cell_length_b   10.15791734
_cell_length_c   10.17013300
_cell_angle_alpha   60.03972630
_cell_angle_beta   60.03972665
_cell_angle_gamma   60.00000516
_symmetry_Int_Tables_number   1
_chemical_formula_structural   La6Mg4Cd19S
_chemical_formula_sum   'La6 Mg4 Cd19 S1'
_cell_volume   742.47446734
_cell_formula_units_Z   1
loop_
 _symmetry_equiv_pos_site_id
 _symmetry_equiv_pos_as_xyz
  1  'x, y, z'
loop_
 _atom_site_type_symbol
 _atom_site_label
 _atom_site_symmetry_multiplicity
 _atom_site_fract_x
 _atom_site_fract_y
 _atom_site_fract_z
 _atom_site_occupancy
  La  La0  1  0.792217  0.792217  0.206298  1
  La  La1  1  0.209269  0.792217  0.206298  1
  La  La2  1  0.792217  0.209269  0.206298  1
  La  La3  1  0.207783  0.207783  0.793702  1
  La  La4  1  0.790731  0.207783  0.793702  1
  La  La5  1  0.207783  0.790731  0.793702  1
  Mg  Mg6  1  0.000000  0.000000  0.500000  1
  Mg  Mg7  1  0.500000  0.000000  0.500000  1
  Mg  Mg8  1  0.000000  0.500000  0.500000  1
  Mg  Mg9  1  0.500000  0.500000  0.500000  1
  Cd  Cd10  1  0.830545  0.830545  0.508366  1
  Cd  Cd11  1  0.831489  0.507982  0.829044  1
  Cd  Cd12  1  0.507982  0.831489  0.829044  1
  Cd  Cd13  1  0.831489  0.831489  0.829044  1
  Cd  Cd14  1  0.169455  0.169455  0.491634  1
  Cd  Cd15  1  0.168511  0.492018  0.170956  1
  Cd  Cd16  1  0.492018  0.168511  0.170956  1
  Cd  Cd17  1  0.168511  0.168511  0.170956  1
  Cd  Cd18  1  0.620351  0.620351  0.138946  1
  Cd  Cd19  1  0.621870  0.137730  0.618529  1
  Cd  Cd20  1  0.137730  0.621870  0.618529  1
  Cd  Cd21  1  0.621870  0.621870  0.618529  1
  Cd  Cd22  1  0.379649  0.379649  0.861054  1
  Cd  Cd23  1  0.378130  0.862270  0.381471  1
  Cd  Cd24  1  0.862270  0.378130  0.381471  1
  Cd  Cd25  1  0.378130  0.378130  0.381471  1
  Cd  Cd26  1  0.500000  0.500000  0.000000  1
  Cd  Cd27  1  0.000000  0.500000  0.000000  1
  Cd  Cd28  1  0.500000  0.000000  0.000000  1
  S  S29  1  0.000000  0.000000  0.000000  1
