# generated using pymatgen
data_La4Nd4CdHgPt2
_symmetry_space_group_name_H-M   'P 1'
_cell_length_a   10.10651535
_cell_length_b   10.10651552
_cell_length_c   10.12113400
_cell_angle_alpha   59.95213402
_cell_angle_beta   59.95213345
_cell_angle_gamma   60.17957837
_symmetry_Int_Tables_number   1
_chemical_formula_structural   La4Nd4CdHgPt2
_chemical_formula_sum   'La8 Nd8 Cd2 Hg2 Pt4'
_cell_volume   731.45491055
_cell_formula_units_Z   2
loop_
 _symmetry_equiv_pos_site_id
 _symmetry_equiv_pos_as_xyz
  1  'x, y, z'
loop_
 _atom_site_type_symbol
 _atom_site_label
 _atom_site_symmetry_multiplicity
 _atom_site_fract_x
 _atom_site_fract_y
 _atom_site_fract_z
 _atom_site_occupancy
  La  La0  1  0.349598  0.349598  0.350612  1
  La  La1  1  0.349598  0.349598  0.950193  1
  La  La2  1  0.353434  0.945223  0.350671  1
  La  La3  1  0.945223  0.353434  0.350671  1
  La  La4  1  0.808681  0.191545  0.192278  1
  La  La5  1  0.191545  0.808681  0.807495  1
  La  La6  1  0.191545  0.808681  0.192278  1
  La  La7  1  0.808681  0.191545  0.807495  1
  Nd  Nd8  1  0.192645  0.192645  0.807355  1
  Nd  Nd9  1  0.805719  0.805719  0.194281  1
  Nd  Nd10  1  0.935223  0.564623  0.566895  1
  Nd  Nd11  1  0.564623  0.935223  0.933259  1
  Nd  Nd12  1  0.564623  0.935223  0.566895  1
  Nd  Nd13  1  0.935223  0.564623  0.933259  1
  Nd  Nd14  1  0.564025  0.564025  0.935975  1
  Nd  Nd15  1  0.933177  0.933177  0.566823  1
  Cd  Cd16  1  0.578812  0.258198  0.581496  1
  Cd  Cd17  1  0.258198  0.578812  0.581496  1
  Hg  Hg18  1  0.584546  0.584546  0.586590  1
  Hg  Hg19  1  0.584546  0.584546  0.244319  1
  Pt  Pt20  1  0.142312  0.142312  0.143754  1
  Pt  Pt21  1  0.142312  0.142312  0.571623  1
  Pt  Pt22  1  0.142591  0.573125  0.142142  1
  Pt  Pt23  1  0.573125  0.142591  0.142142  1
