# generated using pymatgen
data_YNb2B2Ru5
_symmetry_space_group_name_H-M   'P 1'
_cell_length_a   9.57075284
_cell_length_b   9.57075284
_cell_length_c   3.09556500
_cell_angle_alpha   90.00000000
_cell_angle_beta   90.00000000
_cell_angle_gamma   90.70832100
_symmetry_Int_Tables_number   1
_chemical_formula_structural   YNb2B2Ru5
_chemical_formula_sum   'Y2 Nb4 B4 Ru10'
_cell_volume   283.52995015
_cell_formula_units_Z   2
loop_
 _symmetry_equiv_pos_site_id
 _symmetry_equiv_pos_as_xyz
  1  'x, y, z'
loop_
 _atom_site_type_symbol
 _atom_site_label
 _atom_site_symmetry_multiplicity
 _atom_site_fract_x
 _atom_site_fract_y
 _atom_site_fract_z
 _atom_site_occupancy
  Y  Y0  1  0.823704  0.676296  0.000000  1
  Y  Y1  1  0.176296  0.323704  0.000000  1
  Nb  Nb2  1  0.324422  0.824422  0.000000  1
  Nb  Nb3  1  0.675578  0.175578  0.000000  1
  Nb  Nb4  1  0.500000  0.500000  0.000000  1
  Nb  Nb5  1  0.000000  0.000000  0.000000  1
  B  B6  1  0.620569  0.879431  0.000000  1
  B  B7  1  0.379431  0.120569  0.000000  1
  B  B8  1  0.121133  0.621133  0.000000  1
  B  B9  1  0.878867  0.378867  0.000000  1
  Ru  Ru10  1  0.559127  0.723087  0.500000  1
  Ru  Ru11  1  0.440873  0.276913  0.500000  1
  Ru  Ru12  1  0.081837  0.784995  0.500000  1
  Ru  Ru13  1  0.918163  0.215005  0.500000  1
  Ru  Ru14  1  0.284995  0.581837  0.500000  1
  Ru  Ru15  1  0.715005  0.418163  0.500000  1
  Ru  Ru16  1  0.223087  0.059127  0.500000  1
  Ru  Ru17  1  0.776913  0.940873  0.500000  1
  Ru  Ru18  1  0.500000  0.000000  0.500000  1
  Ru  Ru19  1  0.000000  0.500000  0.500000  1
