# generated using pymatgen
data_YbY19Cd6OsRu
_symmetry_space_group_name_H-M   'P 1'
_cell_length_a   9.66333800
_cell_length_b   9.66333783
_cell_length_c   9.87723400
_cell_angle_alpha   90.00000000
_cell_angle_beta   90.00000000
_cell_angle_gamma   120.00000057
_symmetry_Int_Tables_number   1
_chemical_formula_structural   YbY19Cd6OsRu
_chemical_formula_sum   'Yb1 Y19 Cd6 Os1 Ru1'
_cell_volume   798.76735096
_cell_formula_units_Z   1
loop_
 _symmetry_equiv_pos_site_id
 _symmetry_equiv_pos_as_xyz
  1  'x, y, z'
loop_
 _atom_site_type_symbol
 _atom_site_label
 _atom_site_symmetry_multiplicity
 _atom_site_fract_x
 _atom_site_fract_y
 _atom_site_fract_z
 _atom_site_occupancy
  Yb  Yb0  1  0.000000  0.000000  0.499774  1
  Y  Y1  1  0.000000  0.000000  0.000403  1
  Y  Y2  1  0.210412  0.789588  0.440316  1
  Y  Y3  1  0.210412  0.420825  0.440316  1
  Y  Y4  1  0.579175  0.789588  0.440316  1
  Y  Y5  1  0.789459  0.210541  0.560215  1
  Y  Y6  1  0.789459  0.578916  0.560215  1
  Y  Y7  1  0.421084  0.210541  0.560215  1
  Y  Y8  1  0.789892  0.210108  0.940311  1
  Y  Y9  1  0.789892  0.579783  0.940311  1
  Y  Y10  1  0.420217  0.210108  0.940311  1
  Y  Y11  1  0.210080  0.789920  0.059157  1
  Y  Y12  1  0.210080  0.420162  0.059157  1
  Y  Y13  1  0.579838  0.789920  0.059157  1
  Y  Y14  1  0.540311  0.459689  0.250688  1
  Y  Y15  1  0.540311  0.080622  0.250688  1
  Y  Y16  1  0.919378  0.459689  0.250688  1
  Y  Y17  1  0.458462  0.541538  0.749314  1
  Y  Y18  1  0.458462  0.916924  0.749314  1
  Y  Y19  1  0.083076  0.541538  0.749314  1
  Cd  Cd20  1  0.885189  0.114811  0.250147  1
  Cd  Cd21  1  0.885189  0.770379  0.250147  1
  Cd  Cd22  1  0.229621  0.114811  0.250147  1
  Cd  Cd23  1  0.114731  0.885269  0.749801  1
  Cd  Cd24  1  0.114731  0.229461  0.749801  1
  Cd  Cd25  1  0.770539  0.885269  0.749801  1
  Os  Os26  1  0.333333  0.666667  0.250394  1
  Ru  Ru27  1  0.666667  0.333333  0.749586  1
