# generated using pymatgen
data_TbTm2Fe8Co
_symmetry_space_group_name_H-M   'P 1'
_cell_length_a   5.08906976
_cell_length_b   5.08907036
_cell_length_c   8.56352970
_cell_angle_alpha   72.71431440
_cell_angle_beta   72.71431461
_cell_angle_gamma   59.99999744
_symmetry_Int_Tables_number   1
_chemical_formula_structural   TbTm2Fe8Co
_chemical_formula_sum   'Tb1 Tm2 Fe8 Co1'
_cell_volume   180.41120463
_cell_formula_units_Z   1
loop_
 _symmetry_equiv_pos_site_id
 _symmetry_equiv_pos_as_xyz
  1  'x, y, z'
loop_
 _atom_site_type_symbol
 _atom_site_label
 _atom_site_symmetry_multiplicity
 _atom_site_fract_x
 _atom_site_fract_y
 _atom_site_fract_z
 _atom_site_occupancy
  Tb  Tb0  1  0.000000  0.000000  0.000000  1
  Tm  Tm1  1  0.142170  0.142170  0.573488  1
  Tm  Tm2  1  0.857830  0.857830  0.426512  1
  Fe  Fe3  1  0.081892  0.582598  0.752911  1
  Fe  Fe4  1  0.582598  0.582598  0.752911  1
  Fe  Fe5  1  0.582598  0.081892  0.752911  1
  Fe  Fe6  1  0.918108  0.417402  0.247089  1
  Fe  Fe7  1  0.417402  0.417402  0.247089  1
  Fe  Fe8  1  0.417402  0.918108  0.247089  1
  Fe  Fe9  1  0.332915  0.332915  0.001256  1
  Fe  Fe10  1  0.667085  0.667085  0.998744  1
  Co  Co11  1  0.500000  0.500000  0.500000  1
