# generated using pymatgen
data_Ta12Re7B12Ru5
_symmetry_space_group_name_H-M   'P 1'
_cell_length_a   3.15716800
_cell_length_b   9.07369298
_cell_length_c   15.67301600
_cell_angle_alpha   90.10779612
_cell_angle_beta   90.00000000
_cell_angle_gamma   90.00000000
_symmetry_Int_Tables_number   1
_chemical_formula_structural   Ta12Re7B12Ru5
_chemical_formula_sum   'Ta12 Re7 B12 Ru5'
_cell_volume   448.98680786
_cell_formula_units_Z   1
loop_
 _symmetry_equiv_pos_site_id
 _symmetry_equiv_pos_as_xyz
  1  'x, y, z'
loop_
 _atom_site_type_symbol
 _atom_site_label
 _atom_site_symmetry_multiplicity
 _atom_site_fract_x
 _atom_site_fract_y
 _atom_site_fract_z
 _atom_site_occupancy
  Ta  Ta0  1  0.000000  0.802833  0.494302  1
  Ta  Ta1  1  0.000000  0.199944  0.505719  1
  Ta  Ta2  1  0.000000  0.302561  0.006355  1
  Ta  Ta3  1  0.000000  0.697269  0.993187  1
  Ta  Ta4  1  0.000000  0.517181  0.594288  1
  Ta  Ta5  1  0.000000  0.483164  0.405508  1
  Ta  Ta6  1  0.000000  0.017923  0.905248  1
  Ta  Ta7  1  0.000000  0.981919  0.094578  1
  Ta  Ta8  1  0.000000  0.681358  0.205273  1
  Ta  Ta9  1  0.000000  0.318657  0.794392  1
  Ta  Ta10  1  0.000000  0.180876  0.295048  1
  Ta  Ta11  1  0.000000  0.817400  0.706080  1
  Re  Re12  1  0.500000  0.716394  0.357418  1
  Re  Re13  1  0.500000  0.282466  0.642765  1
  Re  Re14  1  0.500000  0.215325  0.143330  1
  Re  Re15  1  0.500000  0.784313  0.855842  1
  Re  Re16  1  0.500000  0.518112  0.095481  1
  Re  Re17  1  0.500000  0.481666  0.904091  1
  Re  Re18  1  0.500000  0.018703  0.405389  1
  B  B19  1  0.500000  0.606129  0.494933  1
  B  B20  1  0.500000  0.395940  0.505201  1
  B  B21  1  0.500000  0.104491  0.005484  1
  B  B22  1  0.500000  0.895323  0.993903  1
  B  B23  1  0.000000  0.611525  0.833999  1
  B  B24  1  0.000000  0.387897  0.165772  1
  B  B25  1  0.000000  0.113785  0.666988  1
  B  B26  1  0.000000  0.888469  0.334585  1
  B  B27  1  0.500000  0.716702  0.601061  1
  B  B28  1  0.500000  0.283312  0.399317  1
  B  B29  1  0.500000  0.217616  0.898848  1
  B  B30  1  0.500000  0.781530  0.101037  1
  Ru  Ru31  1  0.500000  0.981382  0.595986  1
  Ru  Ru32  1  0.500000  0.568279  0.731261  1
  Ru  Ru33  1  0.500000  0.430944  0.268492  1
  Ru  Ru34  1  0.500000  0.067638  0.766621  1
  Ru  Ru35  1  0.500000  0.930973  0.232219  1
