# generated using pymatgen
data_Pr4SmEr2Lu(Si3Rh)4
_symmetry_space_group_name_H-M   'P 1'
_cell_length_a   8.24689578
_cell_length_b   8.24689692
_cell_length_c   8.13506400
_cell_angle_alpha   90.00000000
_cell_angle_beta   90.00000000
_cell_angle_gamma   119.95013122
_symmetry_Int_Tables_number   1
_chemical_formula_structural   Pr4SmEr2Lu(Si3Rh)4
_chemical_formula_sum   'Pr4 Sm1 Er2 Lu1 Si12 Rh4'
_cell_volume   479.39190520
_cell_formula_units_Z   1
loop_
 _symmetry_equiv_pos_site_id
 _symmetry_equiv_pos_as_xyz
  1  'x, y, z'
loop_
 _atom_site_type_symbol
 _atom_site_label
 _atom_site_symmetry_multiplicity
 _atom_site_fract_x
 _atom_site_fract_y
 _atom_site_fract_z
 _atom_site_occupancy
  Pr  Pr0  1  0.000042  0.999958  0.250000  1
  Pr  Pr1  1  0.499639  0.500361  0.250000  1
  Pr  Pr2  1  0.499474  0.998918  0.250000  1
  Pr  Pr3  1  0.001082  0.500526  0.250000  1
  Sm  Sm4  1  0.999988  0.000012  0.750000  1
  Er  Er5  1  0.992621  0.496405  0.750000  1
  Er  Er6  1  0.503595  0.007379  0.750000  1
  Lu  Lu7  1  0.503429  0.496571  0.750000  1
  Si  Si8  1  0.833493  0.166507  0.507361  1
  Si  Si9  1  0.833648  0.667512  0.507955  1
  Si  Si10  1  0.332488  0.166352  0.507955  1
  Si  Si11  1  0.833493  0.166507  0.992639  1
  Si  Si12  1  0.833648  0.667512  0.992045  1
  Si  Si13  1  0.332488  0.166352  0.992045  1
  Si  Si14  1  0.168101  0.831899  0.991101  1
  Si  Si15  1  0.664342  0.832064  0.990864  1
  Si  Si16  1  0.167936  0.335658  0.990864  1
  Si  Si17  1  0.168101  0.831899  0.508899  1
  Si  Si18  1  0.664342  0.832064  0.509136  1
  Si  Si19  1  0.167936  0.335658  0.509136  1
  Rh  Rh20  1  0.666086  0.333914  0.524585  1
  Rh  Rh21  1  0.666086  0.333914  0.975415  1
  Rh  Rh22  1  0.333971  0.666029  0.954491  1
  Rh  Rh23  1  0.333971  0.666029  0.545509  1
