# generated using pymatgen
data_La8ZrGa7Rh8
_symmetry_space_group_name_H-M   'P 1'
_cell_length_a   4.27590300
_cell_length_b   7.30360371
_cell_length_c   16.52505673
_cell_angle_alpha   90.32865433
_cell_angle_beta   90.00000000
_cell_angle_gamma   90.00000000
_symmetry_Int_Tables_number   1
_chemical_formula_structural   La8ZrGa7Rh8
_chemical_formula_sum   'La8 Zr1 Ga7 Rh8'
_cell_volume   516.06078562
_cell_formula_units_Z   1
loop_
 _symmetry_equiv_pos_site_id
 _symmetry_equiv_pos_as_xyz
  1  'x, y, z'
loop_
 _atom_site_type_symbol
 _atom_site_label
 _atom_site_symmetry_multiplicity
 _atom_site_fract_x
 _atom_site_fract_y
 _atom_site_fract_z
 _atom_site_occupancy
  La  La0  1  0.750000  0.837860  0.068590  1
  La  La1  1  0.750000  0.958602  0.283867  1
  La  La2  1  0.250000  0.544147  0.768865  1
  La  La3  1  0.750000  0.458988  0.219569  1
  La  La4  1  0.250000  0.137570  0.943603  1
  La  La5  1  0.250000  0.046905  0.717499  1
  La  La6  1  0.250000  0.668740  0.556911  1
  La  La7  1  0.750000  0.332987  0.440242  1
  Zr  Zr8  1  0.750000  0.498700  0.935534  1
  Ga  Ga9  1  0.750000  0.001139  0.562579  1
  Ga  Ga10  1  0.250000  0.001395  0.437513  1
  Ga  Ga11  1  0.750000  0.372451  0.645875  1
  Ga  Ga12  1  0.250000  0.499606  0.063783  1
  Ga  Ga13  1  0.250000  0.629573  0.350664  1
  Ga  Ga14  1  0.750000  0.866045  0.848925  1
  Ga  Ga15  1  0.250000  0.133793  0.150431  1
  Rh  Rh16  1  0.250000  0.233079  0.569320  1
  Rh  Rh17  1  0.250000  0.756896  0.186423  1
  Rh  Rh18  1  0.750000  0.767549  0.429907  1
  Rh  Rh19  1  0.250000  0.252300  0.318897  1
  Rh  Rh20  1  0.750000  0.753086  0.682137  1
  Rh  Rh21  1  0.750000  0.273119  0.072240  1
  Rh  Rh22  1  0.250000  0.726225  0.929286  1
  Rh  Rh23  1  0.750000  0.249244  0.817338  1
