# generated using pymatgen
data_Tb8Ti7Nb4Si16Mo
_symmetry_space_group_name_H-M   'P 1'
_cell_length_a   7.06891374
_cell_length_b   7.05735889
_cell_length_c   13.01687626
_cell_angle_alpha   89.92830116
_cell_angle_beta   90.10223063
_cell_angle_gamma   89.96691050
_symmetry_Int_Tables_number   1
_chemical_formula_structural   Tb8Ti7Nb4Si16Mo
_chemical_formula_sum   'Tb8 Ti7 Nb4 Si16 Mo1'
_cell_volume   649.38246546
_cell_formula_units_Z   1
loop_
 _symmetry_equiv_pos_site_id
 _symmetry_equiv_pos_as_xyz
  1  'x, y, z'
loop_
 _atom_site_type_symbol
 _atom_site_label
 _atom_site_symmetry_multiplicity
 _atom_site_fract_x
 _atom_site_fract_y
 _atom_site_fract_z
 _atom_site_occupancy
  Tb  Tb0  1  0.341142  0.001286  0.466629  1
  Tb  Tb1  1  0.497995  0.840677  0.718426  1
  Tb  Tb2  1  0.501417  0.159459  0.215772  1
  Tb  Tb3  1  0.839936  0.497924  0.283097  1
  Tb  Tb4  1  0.160072  0.501590  0.783115  1
  Tb  Tb5  1  0.658745  0.996947  0.966750  1
  Tb  Tb6  1  0.001530  0.339740  0.533808  1
  Tb  Tb7  1  0.998682  0.660960  0.031668  1
  Ti  Ti8  1  0.489468  0.654890  0.123760  1
  Ti  Ti9  1  0.507974  0.345284  0.626705  1
  Ti  Ti10  1  0.653964  0.490170  0.874518  1
  Ti  Ti11  1  0.346858  0.509143  0.375359  1
  Ti  Ti12  1  0.846764  0.990698  0.375197  1
  Ti  Ti13  1  0.007343  0.152877  0.125598  1
  Ti  Ti14  1  0.990731  0.845573  0.624593  1
  Nb  Nb15  1  0.325360  0.326806  0.999572  1
  Nb  Nb16  1  0.171326  0.828448  0.249283  1
  Nb  Nb17  1  0.829407  0.171204  0.750921  1
  Nb  Nb18  1  0.673395  0.672578  0.500025  1
  Si  Si19  1  0.203197  0.128889  0.685905  1
  Si  Si20  1  0.370430  0.704980  0.933203  1
  Si  Si21  1  0.629496  0.297219  0.435147  1
  Si  Si22  1  0.703120  0.370969  0.065119  1
  Si  Si23  1  0.298014  0.629578  0.565686  1
  Si  Si24  1  0.796927  0.869950  0.184529  1
  Si  Si25  1  0.129954  0.202984  0.315296  1
  Si  Si26  1  0.872279  0.798639  0.816281  1
  Si  Si27  1  0.291357  0.954697  0.062668  1
  Si  Si28  1  0.546199  0.791536  0.313362  1
  Si  Si29  1  0.452367  0.208778  0.814027  1
  Si  Si30  1  0.792248  0.546751  0.686370  1
  Si  Si31  1  0.208244  0.453681  0.186265  1
  Si  Si32  1  0.709059  0.046331  0.564034  1
  Si  Si33  1  0.954591  0.289956  0.936268  1
  Si  Si34  1  0.046481  0.708228  0.436197  1
  Mo  Mo35  1  0.153929  0.010580  0.874848  1
