# generated using pymatgen
data_Tb4FeTcRu6
_symmetry_space_group_name_H-M   'P 1'
_cell_length_a   5.17958381
_cell_length_b   5.35212390
_cell_length_c   9.00848300
_cell_angle_alpha   90.00000000
_cell_angle_beta   90.00000000
_cell_angle_gamma   120.26151664
_symmetry_Int_Tables_number   1
_chemical_formula_structural   Tb4FeTcRu6
_chemical_formula_sum   'Tb4 Fe1 Tc1 Ru6'
_cell_volume   215.70132675
_cell_formula_units_Z   1
loop_
 _symmetry_equiv_pos_site_id
 _symmetry_equiv_pos_as_xyz
  1  'x, y, z'
loop_
 _atom_site_type_symbol
 _atom_site_label
 _atom_site_symmetry_multiplicity
 _atom_site_fract_x
 _atom_site_fract_y
 _atom_site_fract_z
 _atom_site_occupancy
  Tb  Tb0  1  0.330933  0.667196  0.432667  1
  Tb  Tb1  1  0.659728  0.327801  0.564168  1
  Tb  Tb2  1  0.659728  0.327801  0.935832  1
  Tb  Tb3  1  0.330933  0.667196  0.067333  1
  Fe  Fe4  1  0.838156  0.162450  0.250000  1
  Tc  Tc5  1  0.674574  0.836243  0.750000  1
  Ru  Ru6  1  0.985216  0.995214  0.498095  1
  Ru  Ru7  1  0.985216  0.995214  0.001905  1
  Ru  Ru8  1  0.827487  0.661641  0.250000  1
  Ru  Ru9  1  0.351816  0.175534  0.250000  1
  Ru  Ru10  1  0.176038  0.831656  0.750000  1
  Ru  Ru11  1  0.180177  0.352056  0.750000  1
