# generated using pymatgen
data_Hf3Al3Co2Ge
_symmetry_space_group_name_H-M   'P 1'
_cell_length_a   6.63685700
_cell_length_b   6.63685659
_cell_length_c   7.59177600
_cell_angle_alpha   90.00000000
_cell_angle_beta   90.00000000
_cell_angle_gamma   120.00000703
_symmetry_Int_Tables_number   1
_chemical_formula_structural   Hf3Al3Co2Ge
_chemical_formula_sum   'Hf6 Al6 Co4 Ge2'
_cell_volume   289.60021509
_cell_formula_units_Z   2
loop_
 _symmetry_equiv_pos_site_id
 _symmetry_equiv_pos_as_xyz
  1  'x, y, z'
loop_
 _atom_site_type_symbol
 _atom_site_label
 _atom_site_symmetry_multiplicity
 _atom_site_fract_x
 _atom_site_fract_y
 _atom_site_fract_z
 _atom_site_occupancy
  Hf  Hf0  1  0.600643  0.018220  0.750000  1
  Hf  Hf1  1  0.981780  0.582423  0.750000  1
  Hf  Hf2  1  0.417577  0.399357  0.750000  1
  Hf  Hf3  1  0.980773  0.581733  0.250000  1
  Hf  Hf4  1  0.600961  0.019227  0.250000  1
  Hf  Hf5  1  0.418267  0.399039  0.250000  1
  Al  Al6  1  0.766905  0.754248  0.000185  1
  Al  Al7  1  0.245752  0.012657  0.000185  1
  Al  Al8  1  0.987343  0.233095  0.000185  1
  Al  Al9  1  0.766905  0.754248  0.499815  1
  Al  Al10  1  0.245752  0.012657  0.499815  1
  Al  Al11  1  0.987343  0.233095  0.499815  1
  Co  Co12  1  0.000000  0.000000  0.750000  1
  Co  Co13  1  0.000000  0.000000  0.250000  1
  Co  Co14  1  0.666667  0.333333  0.999133  1
  Co  Co15  1  0.666667  0.333333  0.500867  1
  Ge  Ge16  1  0.333333  0.666667  0.499392  1
  Ge  Ge17  1  0.333333  0.666667  0.000609  1
