# generated using pymatgen
data_Pr2Cu18Si7Sn
_symmetry_space_group_name_H-M   'P 1'
_cell_length_a   8.23169442
_cell_length_b   8.23169200
_cell_length_c   8.26951613
_cell_angle_alpha   120.66407119
_cell_angle_beta   120.66331413
_cell_angle_gamma   88.87163541
_symmetry_Int_Tables_number   1
_chemical_formula_structural   Pr2Cu18Si7Sn
_chemical_formula_sum   'Pr2 Cu18 Si7 Sn1'
_cell_volume   392.10818152
_cell_formula_units_Z   1
loop_
 _symmetry_equiv_pos_site_id
 _symmetry_equiv_pos_as_xyz
  1  'x, y, z'
loop_
 _atom_site_type_symbol
 _atom_site_label
 _atom_site_symmetry_multiplicity
 _atom_site_fract_x
 _atom_site_fract_y
 _atom_site_fract_z
 _atom_site_occupancy
  Pr  Pr0  1  0.254854  0.249658  0.001244  1
  Pr  Pr1  1  0.749652  0.754854  0.001239  1
  Cu  Cu2  1  0.934215  0.193430  0.141536  1
  Cu  Cu3  1  0.202502  0.062480  0.266553  1
  Cu  Cu4  1  0.795365  0.927828  0.731037  1
  Cu  Cu5  1  0.427836  0.295365  0.731036  1
  Cu  Cu6  1  0.068127  0.801177  0.864732  1
  Cu  Cu7  1  0.805757  0.047279  0.485363  1
  Cu  Cu8  1  0.547280  0.305758  0.485366  1
  Cu  Cu9  1  0.190677  0.947128  0.503552  1
  Cu  Cu10  1  0.447142  0.690690  0.503565  1
  Cu  Cu11  1  0.944138  0.444142  0.728460  1
  Cu  Cu12  1  0.692403  0.192405  0.250553  1
  Cu  Cu13  1  0.076102  0.576100  0.284991  1
  Cu  Cu14  1  0.693429  0.434221  0.141540  1
  Cu  Cu15  1  0.562505  0.702516  0.266554  1
  Cu  Cu16  1  0.491961  0.991971  0.492621  1
  Cu  Cu17  1  0.001366  0.501373  0.498158  1
  Cu  Cu18  1  0.307384  0.807390  0.750680  1
  Cu  Cu19  1  0.301183  0.568129  0.864732  1
  Si  Si20  1  0.553473  0.053473  0.849254  1
  Si  Si21  1  0.056887  0.207581  0.497449  1
  Si  Si22  1  0.293685  0.442880  0.503102  1
  Si  Si23  1  0.942880  0.793681  0.503101  1
  Si  Si24  1  0.443267  0.943264  0.150691  1
  Si  Si25  1  0.200895  0.700892  0.145100  1
  Si  Si26  1  0.707579  0.556885  0.497451  1
  Sn  Sn27  1  0.807457  0.307450  0.860336  1
