# generated using pymatgen
data_La20Si8IrOs3
_symmetry_space_group_name_H-M   'P 1'
_cell_length_a   8.17624518
_cell_length_b   9.03190000
_cell_length_c   12.58658900
_cell_angle_alpha   90.00000000
_cell_angle_beta   89.83925267
_cell_angle_gamma   90.00000000
_symmetry_Int_Tables_number   1
_chemical_formula_structural   La20Si8IrOs3
_chemical_formula_sum   'La20 Si8 Ir1 Os3'
_cell_volume   929.47854265
_cell_formula_units_Z   1
loop_
 _symmetry_equiv_pos_site_id
 _symmetry_equiv_pos_as_xyz
  1  'x, y, z'
loop_
 _atom_site_type_symbol
 _atom_site_label
 _atom_site_symmetry_multiplicity
 _atom_site_fract_x
 _atom_site_fract_y
 _atom_site_fract_z
 _atom_site_occupancy
  La  La0  1  0.678826  0.467662  0.073655  1
  La  La1  1  0.178696  0.532298  0.424717  1
  La  La2  1  0.321951  0.966899  0.926524  1
  La  La3  1  0.819676  0.034256  0.574758  1
  La  La4  1  0.321951  0.533101  0.926524  1
  La  La5  1  0.819676  0.465744  0.574758  1
  La  La6  1  0.678826  0.032338  0.073655  1
  La  La7  1  0.178696  0.967702  0.424717  1
  La  La8  1  0.954302  0.750000  0.998921  1
  La  La9  1  0.454008  0.250000  0.500518  1
  La  La10  1  0.046243  0.250000  0.999917  1
  La  La11  1  0.545039  0.750000  0.500220  1
  La  La12  1  0.356287  0.750000  0.202182  1
  La  La13  1  0.857398  0.250000  0.297982  1
  La  La14  1  0.641815  0.250000  0.798444  1
  La  La15  1  0.147326  0.750000  0.704169  1
  La  La16  1  0.829520  0.750000  0.283253  1
  La  La17  1  0.330721  0.250000  0.213920  1
  La  La18  1  0.168337  0.250000  0.714299  1
  La  La19  1  0.668471  0.750000  0.786782  1
  Si  Si20  1  0.556797  0.495224  0.329714  1
  Si  Si21  1  0.056720  0.504963  0.170875  1
  Si  Si22  1  0.443259  0.994748  0.671179  1
  Si  Si23  1  0.942858  0.004781  0.828563  1
  Si  Si24  1  0.443259  0.505252  0.671179  1
  Si  Si25  1  0.942858  0.495219  0.828563  1
  Si  Si26  1  0.556797  0.004776  0.329714  1
  Si  Si27  1  0.056720  0.995037  0.170875  1
  Ir  Ir28  1  0.921631  0.750000  0.517056  1
  Os  Os29  1  0.582848  0.750000  0.018369  1
  Os  Os30  1  0.080322  0.250000  0.482215  1
  Os  Os31  1  0.418166  0.250000  0.981785  1
