# generated using pymatgen
data_CsRb2AsS4
_symmetry_space_group_name_H-M   'P 1'
_cell_length_a   9.80463287
_cell_length_b   9.94744390
_cell_length_c   11.12883000
_cell_angle_alpha   90.00000000
_cell_angle_beta   90.00000000
_cell_angle_gamma   90.15376120
_symmetry_Int_Tables_number   1
_chemical_formula_structural   CsRb2AsS4
_chemical_formula_sum   'Cs4 Rb8 As4 S16'
_cell_volume   1085.40240538
_cell_formula_units_Z   4
loop_
 _symmetry_equiv_pos_site_id
 _symmetry_equiv_pos_as_xyz
  1  'x, y, z'
loop_
 _atom_site_type_symbol
 _atom_site_label
 _atom_site_symmetry_multiplicity
 _atom_site_fract_x
 _atom_site_fract_y
 _atom_site_fract_z
 _atom_site_occupancy
  Cs  Cs0  1  0.648357  0.918759  0.250000  1
  Cs  Cs1  1  0.152061  0.584969  0.250000  1
  Cs  Cs2  1  0.849444  0.417618  0.750000  1
  Cs  Cs3  1  0.351349  0.079418  0.750000  1
  Rb  Rb4  1  0.050972  0.796030  0.953446  1
  Rb  Rb5  1  0.552385  0.702867  0.545879  1
  Rb  Rb6  1  0.447436  0.295533  0.046071  1
  Rb  Rb7  1  0.949337  0.204925  0.454366  1
  Rb  Rb8  1  0.949337  0.204925  0.045634  1
  Rb  Rb9  1  0.447436  0.295533  0.453929  1
  Rb  Rb10  1  0.552385  0.702867  0.954121  1
  Rb  Rb11  1  0.050972  0.796030  0.546554  1
  As  As12  1  0.778209  0.980899  0.750000  1
  As  As13  1  0.220614  0.019913  0.250000  1
  As  As14  1  0.723970  0.480160  0.250000  1
  As  As15  1  0.276863  0.519078  0.750000  1
  S  S16  1  0.329457  0.959737  0.086597  1
  S  S17  1  0.833188  0.539504  0.413543  1
  S  S18  1  0.167221  0.460785  0.913568  1
  S  S19  1  0.669552  0.040696  0.586480  1
  S  S20  1  0.015727  0.928096  0.250000  1
  S  S21  1  0.519704  0.572755  0.250000  1
  S  S22  1  0.480478  0.425318  0.750000  1
  S  S23  1  0.983111  0.072865  0.750000  1
  S  S24  1  0.669552  0.040696  0.913520  1
  S  S25  1  0.329457  0.959737  0.413403  1
  S  S26  1  0.833188  0.539504  0.086457  1
  S  S27  1  0.167221  0.460785  0.586432  1
  S  S28  1  0.800113  0.760706  0.750000  1
  S  S29  1  0.302295  0.738923  0.750000  1
  S  S30  1  0.699454  0.260281  0.250000  1
  S  S31  1  0.199156  0.240093  0.250000  1
