# generated using pymatgen
data_KTm(SO4)2
_symmetry_space_group_name_H-M   'P 1'
_cell_length_a   5.17291255
_cell_length_b   5.17291267
_cell_length_c   8.26383820
_cell_angle_alpha   87.15988532
_cell_angle_beta   87.15988367
_cell_angle_gamma   63.82428054
_symmetry_Int_Tables_number   1
_chemical_formula_structural   KTm(SO4)2
_chemical_formula_sum   'K1 Tm1 S2 O8'
_cell_volume   198.11574380
_cell_formula_units_Z   1
loop_
 _symmetry_equiv_pos_site_id
 _symmetry_equiv_pos_as_xyz
  1  'x, y, z'
loop_
 _atom_site_type_symbol
 _atom_site_label
 _atom_site_symmetry_multiplicity
 _atom_site_fract_x
 _atom_site_fract_y
 _atom_site_fract_z
 _atom_site_occupancy
  K  K0  1  0.000000  0.000000  0.500000  1
  Tm  Tm1  1  0.000000  0.000000  0.000000  1
  S  S2  1  0.365723  0.365723  0.783840  1
  S  S3  1  0.634277  0.634277  0.216160  1
  O  O4  1  0.310433  0.310433  0.621230  1
  O  O5  1  0.689567  0.689567  0.378770  1
  O  O6  1  0.684402  0.240297  0.809214  1
  O  O7  1  0.315598  0.759703  0.190786  1
  O  O8  1  0.759703  0.315598  0.190786  1
  O  O9  1  0.240297  0.684402  0.809214  1
  O  O10  1  0.239799  0.239799  0.913508  1
  O  O11  1  0.760201  0.760201  0.086492  1
