# generated using pymatgen
data_Y3ErCdCo
_symmetry_space_group_name_H-M   'P 1'
_cell_length_a   9.55863994
_cell_length_b   9.55863990
_cell_length_c   9.55864000
_cell_angle_alpha   59.99999966
_cell_angle_beta   59.99999980
_cell_angle_gamma   60.00000372
_symmetry_Int_Tables_number   1
_chemical_formula_structural   Y3ErCdCo
_chemical_formula_sum   'Y12 Er4 Cd4 Co4'
_cell_volume   617.55170017
_cell_formula_units_Z   4
loop_
 _symmetry_equiv_pos_site_id
 _symmetry_equiv_pos_as_xyz
  1  'x, y, z'
loop_
 _atom_site_type_symbol
 _atom_site_label
 _atom_site_symmetry_multiplicity
 _atom_site_fract_x
 _atom_site_fract_y
 _atom_site_fract_z
 _atom_site_occupancy
  Y  Y0  1  0.061350  0.438650  0.438650  1
  Y  Y1  1  0.438650  0.061350  0.061350  1
  Y  Y2  1  0.438650  0.061350  0.438650  1
  Y  Y3  1  0.061350  0.438650  0.061350  1
  Y  Y4  1  0.438650  0.438650  0.061350  1
  Y  Y5  1  0.061350  0.061350  0.438650  1
  Y  Y6  1  0.188726  0.811274  0.811274  1
  Y  Y7  1  0.811274  0.188726  0.188726  1
  Y  Y8  1  0.811274  0.188726  0.811274  1
  Y  Y9  1  0.188726  0.811274  0.188726  1
  Y  Y10  1  0.811274  0.811274  0.188726  1
  Y  Y11  1  0.188726  0.188726  0.811274  1
  Er  Er12  1  0.595743  0.595743  0.595743  1
  Er  Er13  1  0.595743  0.595743  0.212773  1
  Er  Er14  1  0.595743  0.212773  0.595743  1
  Er  Er15  1  0.212773  0.595743  0.595743  1
  Cd  Cd16  1  0.830273  0.830273  0.830273  1
  Cd  Cd17  1  0.830273  0.830273  0.509180  1
  Cd  Cd18  1  0.830273  0.509180  0.830273  1
  Cd  Cd19  1  0.509180  0.830273  0.830273  1
  Co  Co20  1  0.392476  0.392476  0.392476  1
  Co  Co21  1  0.392476  0.392476  0.822572  1
  Co  Co22  1  0.392476  0.822572  0.392476  1
  Co  Co23  1  0.822572  0.392476  0.392476  1
