# generated using pymatgen
data_Ag3(NF)4
_symmetry_space_group_name_H-M   'P 1'
_cell_length_a   5.77238119
_cell_length_b   7.73278898
_cell_length_c   7.98275400
_cell_angle_alpha   127.14618405
_cell_angle_beta   113.17003721
_cell_angle_gamma   88.15711188
_symmetry_Int_Tables_number   1
_chemical_formula_structural   Ag3(NF)4
_chemical_formula_sum   'Ag3 N4 F4'
_cell_volume   250.64478649
_cell_formula_units_Z   1
loop_
 _symmetry_equiv_pos_site_id
 _symmetry_equiv_pos_as_xyz
  1  'x, y, z'
loop_
 _atom_site_type_symbol
 _atom_site_label
 _atom_site_symmetry_multiplicity
 _atom_site_fract_x
 _atom_site_fract_y
 _atom_site_fract_z
 _atom_site_occupancy
  Ag  Ag0  1  0.765649  0.587507  0.998651  1
  Ag  Ag1  1  0.234351  0.412493  0.001349  1
  Ag  Ag2  1  0.500000  0.000000  0.500000  1
  N  N3  1  0.403091  0.743093  0.753842  1
  N  N4  1  0.596909  0.256907  0.246158  1
  N  N5  1  0.300745  0.742837  0.602802  1
  N  N6  1  0.699255  0.257163  0.397198  1
  F  F7  1  0.601588  0.696071  0.279731  1
  F  F8  1  0.398412  0.303929  0.720269  1
  F  F9  1  0.869200  0.167491  0.814259  1
  F  F10  1  0.130800  0.832509  0.185741  1
