# generated using pymatgen
data_CaSmIr4
_symmetry_space_group_name_H-M   'P 1'
_cell_length_a   5.38879580
_cell_length_b   5.38879628
_cell_length_c   5.38879600
_cell_angle_alpha   60.00000173
_cell_angle_beta   59.99999877
_cell_angle_gamma   60.00000569
_symmetry_Int_Tables_number   1
_chemical_formula_structural   CaSmIr4
_chemical_formula_sum   'Ca1 Sm1 Ir4'
_cell_volume   110.65225232
_cell_formula_units_Z   1
loop_
 _symmetry_equiv_pos_site_id
 _symmetry_equiv_pos_as_xyz
  1  'x, y, z'
loop_
 _atom_site_type_symbol
 _atom_site_label
 _atom_site_symmetry_multiplicity
 _atom_site_fract_x
 _atom_site_fract_y
 _atom_site_fract_z
 _atom_site_occupancy
  Ca  Ca0  1  0.250000  0.250000  0.250000  1
  Sm  Sm1  1  0.000000  0.000000  0.000000  1
  Ir  Ir2  1  0.624904  0.624904  0.125288  1
  Ir  Ir3  1  0.624904  0.125288  0.624904  1
  Ir  Ir4  1  0.125288  0.624904  0.624904  1
  Ir  Ir5  1  0.624904  0.624904  0.624904  1
