# generated using pymatgen
data_NdSmAl2(Co3B)2
_symmetry_space_group_name_H-M   'P 1'
_cell_length_a   5.22722900
_cell_length_b   5.22725596
_cell_length_c   6.68056900
_cell_angle_alpha   90.00000000
_cell_angle_beta   90.00000000
_cell_angle_gamma   120.00072236
_symmetry_Int_Tables_number   1
_chemical_formula_structural   NdSmAl2(Co3B)2
_chemical_formula_sum   'Nd1 Sm1 Al2 Co6 B2'
_cell_volume   158.08338182
_cell_formula_units_Z   1
loop_
 _symmetry_equiv_pos_site_id
 _symmetry_equiv_pos_as_xyz
  1  'x, y, z'
loop_
 _atom_site_type_symbol
 _atom_site_label
 _atom_site_symmetry_multiplicity
 _atom_site_fract_x
 _atom_site_fract_y
 _atom_site_fract_z
 _atom_site_occupancy
  Nd  Nd0  1  0.999976  0.000006  0.000000  1
  Sm  Sm1  1  0.999988  0.999997  0.500000  1
  Al  Al2  1  0.333255  0.666670  0.000000  1
  Al  Al3  1  0.666711  0.333335  0.000000  1
  Co  Co4  1  0.499986  0.000000  0.295463  1
  Co  Co5  1  0.499984  0.500001  0.295472  1
  Co  Co6  1  0.999983  0.499997  0.295495  1
  Co  Co7  1  0.499986  0.000000  0.704537  1
  Co  Co8  1  0.499984  0.500001  0.704527  1
  Co  Co9  1  0.999983  0.499997  0.704504  1
  B  B10  1  0.333327  0.666714  0.500000  1
  B  B11  1  0.666639  0.333283  0.500000  1
