# generated using pymatgen
data_HoTm7Sc12Si15Bi
_symmetry_space_group_name_H-M   'P 1'
_cell_length_a   7.13267113
_cell_length_b   7.37611885
_cell_length_c   14.00174331
_cell_angle_alpha   90.09156522
_cell_angle_beta   88.62454877
_cell_angle_gamma   90.16827627
_symmetry_Int_Tables_number   1
_chemical_formula_structural   HoTm7Sc12Si15Bi
_chemical_formula_sum   'Ho1 Tm7 Sc12 Si15 Bi1'
_cell_volume   736.43544789
_cell_formula_units_Z   1
loop_
 _symmetry_equiv_pos_site_id
 _symmetry_equiv_pos_as_xyz
  1  'x, y, z'
loop_
 _atom_site_type_symbol
 _atom_site_label
 _atom_site_symmetry_multiplicity
 _atom_site_fract_x
 _atom_site_fract_y
 _atom_site_fract_z
 _atom_site_occupancy
  Ho  Ho0  1  0.012209  0.177091  0.095980  1
  Tm  Tm1  1  0.987759  0.823669  0.904199  1
  Tm  Tm2  1  0.488980  0.676376  0.904141  1
  Tm  Tm3  1  0.992892  0.831434  0.598202  1
  Tm  Tm4  1  0.511642  0.323736  0.097169  1
  Tm  Tm5  1  0.998876  0.170280  0.399070  1
  Tm  Tm6  1  0.511774  0.316004  0.397750  1
  Tm  Tm7  1  0.513040  0.687548  0.601087  1
  Sc  Sc8  1  0.164370  0.501435  0.756097  1
  Sc  Sc9  1  0.834441  0.498276  0.251646  1
  Sc  Sc10  1  0.334680  0.002331  0.250359  1
  Sc  Sc11  1  0.667150  0.998098  0.751293  1
  Sc  Sc12  1  0.349271  0.155647  0.631823  1
  Sc  Sc13  1  0.658135  0.827183  0.372576  1
  Sc  Sc14  1  0.153732  0.683363  0.369064  1
  Sc  Sc15  1  0.667127  0.822279  0.123860  1
  Sc  Sc16  1  0.827132  0.326332  0.625772  1
  Sc  Sc17  1  0.330862  0.175812  0.875507  1
  Sc  Sc18  1  0.831047  0.323816  0.875692  1
  Sc  Sc19  1  0.168591  0.676435  0.124841  1
  Si  Si20  1  0.036484  0.117404  0.751314  1
  Si  Si21  1  0.960641  0.886518  0.246058  1
  Si  Si22  1  0.461188  0.614310  0.247622  1
  Si  Si23  1  0.535482  0.386516  0.752819  1
  Si  Si24  1  0.289136  0.865434  0.753140  1
  Si  Si25  1  0.710666  0.128217  0.246608  1
  Si  Si26  1  0.210131  0.371714  0.249167  1
  Si  Si27  1  0.793379  0.630641  0.751797  1
  Si  Si28  1  0.810606  0.540361  0.456975  1
  Si  Si29  1  0.327785  0.963973  0.460027  1
  Si  Si30  1  0.842265  0.534433  0.039643  1
  Si  Si31  1  0.673424  0.038351  0.538343  1
  Si  Si32  1  0.156836  0.466578  0.961159  1
  Si  Si33  1  0.656429  0.034086  0.960264  1
  Si  Si34  1  0.343215  0.966159  0.040020  1
  Bi  Bi35  1  0.188619  0.458162  0.538912  1
