# generated using pymatgen
data_Rb3Pr(NbS4)2
_symmetry_space_group_name_H-M   'P 1'
_cell_length_a   9.47701547
_cell_length_b   10.57353460
_cell_length_c   11.42556572
_cell_angle_alpha   107.08304716
_cell_angle_beta   103.06298769
_cell_angle_gamma   114.05078973
_symmetry_Int_Tables_number   1
_chemical_formula_structural   Rb3Pr(NbS4)2
_chemical_formula_sum   'Rb6 Pr2 Nb4 S16'
_cell_volume   917.64550276
_cell_formula_units_Z   2
loop_
 _symmetry_equiv_pos_site_id
 _symmetry_equiv_pos_as_xyz
  1  'x, y, z'
loop_
 _atom_site_type_symbol
 _atom_site_label
 _atom_site_symmetry_multiplicity
 _atom_site_fract_x
 _atom_site_fract_y
 _atom_site_fract_z
 _atom_site_occupancy
  Rb  Rb0  1  0.500001  0.499996  0.999986  1
  Rb  Rb1  1  0.999989  0.499991  0.999990  1
  Rb  Rb2  1  0.256486  0.006497  0.012954  1
  Rb  Rb3  1  0.487022  0.736988  0.473950  1
  Rb  Rb4  1  0.512988  0.263014  0.526045  1
  Rb  Rb5  1  0.743519  0.993494  0.987037  1
  Pr  Pr6  1  0.990946  0.241037  0.482090  1
  Pr  Pr7  1  0.009045  0.758959  0.517915  1
  Nb  Nb8  1  0.005947  0.905444  0.254396  1
  Nb  Nb9  1  0.748494  0.348976  0.254442  1
  Nb  Nb10  1  0.251515  0.651024  0.745558  1
  Nb  Nb11  1  0.994044  0.094560  0.745610  1
  S  S12  1  0.882673  0.758104  0.030313  1
  S  S13  1  0.647685  0.272303  0.030377  1
  S  S14  1  0.132982  0.161119  0.295399  1
  S  S15  1  0.662370  0.134306  0.295461  1
  S  S16  1  0.815338  0.867796  0.350865  1
  S  S17  1  0.035554  0.482903  0.350763  1
  S  S18  1  0.196682  0.850540  0.356572  1
  S  S19  1  0.660045  0.506092  0.356763  1
  S  S20  1  0.339967  0.493908  0.643241  1
  S  S21  1  0.803315  0.149470  0.643439  1
  S  S22  1  0.964450  0.517096  0.649234  1
  S  S23  1  0.184651  0.132209  0.649143  1
  S  S24  1  0.337633  0.865693  0.704535  1
  S  S25  1  0.867015  0.838889  0.704609  1
  S  S26  1  0.352323  0.727692  0.969622  1
  S  S27  1  0.117323  0.241898  0.969693  1
