# generated using pymatgen
data_Dy4U2(TcRu)3
_symmetry_space_group_name_H-M   'P 1'
_cell_length_a   5.81351800
_cell_length_b   5.81351763
_cell_length_c   8.10856700
_cell_angle_alpha   90.00000000
_cell_angle_beta   90.00000000
_cell_angle_gamma   119.99997935
_symmetry_Int_Tables_number   1
_chemical_formula_structural   Dy4U2(TcRu)3
_chemical_formula_sum   'Dy4 U2 Tc3 Ru3'
_cell_volume   237.33011349
_cell_formula_units_Z   1
loop_
 _symmetry_equiv_pos_site_id
 _symmetry_equiv_pos_as_xyz
  1  'x, y, z'
loop_
 _atom_site_type_symbol
 _atom_site_label
 _atom_site_symmetry_multiplicity
 _atom_site_fract_x
 _atom_site_fract_y
 _atom_site_fract_z
 _atom_site_occupancy
  Dy  Dy0  1  0.333333  0.666667  0.437889  1
  Dy  Dy1  1  0.666667  0.333333  0.555185  1
  Dy  Dy2  1  0.666667  0.333333  0.944815  1
  Dy  Dy3  1  0.333333  0.666667  0.062111  1
  U  U4  1  0.000000  0.000000  0.499185  1
  U  U5  1  0.000000  0.000000  0.000815  1
  Tc  Tc6  1  0.162552  0.837448  0.750000  1
  Tc  Tc7  1  0.162552  0.325102  0.750000  1
  Tc  Tc8  1  0.674898  0.837448  0.750000  1
  Ru  Ru9  1  0.834345  0.165655  0.250000  1
  Ru  Ru10  1  0.834345  0.668691  0.250000  1
  Ru  Ru11  1  0.331309  0.165655  0.250000  1
