# generated using pymatgen
data_Tb4Ga11GeRh
_symmetry_space_group_name_H-M   'P 1'
_cell_length_a   7.49499473
_cell_length_b   7.49499483
_cell_length_c   7.49499504
_cell_angle_alpha   109.66799686
_cell_angle_beta   109.66799486
_cell_angle_gamma   109.07838109
_symmetry_Int_Tables_number   1
_chemical_formula_structural   Tb4Ga11GeRh
_chemical_formula_sum   'Tb4 Ga11 Ge1 Rh1'
_cell_volume   324.09836398
_cell_formula_units_Z   1
loop_
 _symmetry_equiv_pos_site_id
 _symmetry_equiv_pos_as_xyz
  1  'x, y, z'
loop_
 _atom_site_type_symbol
 _atom_site_label
 _atom_site_symmetry_multiplicity
 _atom_site_fract_x
 _atom_site_fract_y
 _atom_site_fract_z
 _atom_site_occupancy
  Tb  Tb0  1  0.501185  0.498815  0.500000  1
  Tb  Tb1  1  0.998815  0.498815  0.997629  1
  Tb  Tb2  1  0.998815  0.001185  0.500000  1
  Tb  Tb3  1  0.501185  0.001185  0.002371  1
  Ga  Ga4  1  0.002790  0.710749  0.707960  1
  Ga  Ga5  1  0.289251  0.997210  0.292040  1
  Ga  Ga6  1  0.498088  0.249975  0.751887  1
  Ga  Ga7  1  0.750025  0.501912  0.248113  1
  Ga  Ga8  1  0.250000  0.750000  0.500000  1
  Ga  Ga9  1  0.253800  0.501912  0.751887  1
  Ga  Ga10  1  0.705170  0.997210  0.707960  1
  Ga  Ga11  1  0.498088  0.746200  0.248113  1
  Ga  Ga12  1  0.707888  0.707888  0.000000  1
  Ga  Ga13  1  0.292112  0.292112  0.000000  1
  Ga  Ga14  1  0.002790  0.294830  0.292040  1
  Ge  Ge15  1  0.750000  0.250000  0.500000  1
  Rh  Rh16  1  0.000000  0.000000  0.000000  1
