# generated using pymatgen
data_Li6Tb11ScOs6
_symmetry_space_group_name_H-M   'P 1'
_cell_length_a   4.95183300
_cell_length_b   6.85577800
_cell_length_c   14.64832700
_cell_angle_alpha   89.99972938
_cell_angle_beta   89.99993791
_cell_angle_gamma   89.99951980
_symmetry_Int_Tables_number   1
_chemical_formula_structural   Li6Tb11ScOs6
_chemical_formula_sum   'Li6 Tb11 Sc1 Os6'
_cell_volume   497.29118627
_cell_formula_units_Z   1
loop_
 _symmetry_equiv_pos_site_id
 _symmetry_equiv_pos_as_xyz
  1  'x, y, z'
loop_
 _atom_site_type_symbol
 _atom_site_label
 _atom_site_symmetry_multiplicity
 _atom_site_fract_x
 _atom_site_fract_y
 _atom_site_fract_z
 _atom_site_occupancy
  Li  Li0  1  0.000008  0.505805  0.995498  1
  Li  Li1  1  0.499760  0.999243  0.166033  1
  Li  Li2  1  0.999794  0.500288  0.333352  1
  Li  Li3  1  0.500008  0.999220  0.500611  1
  Li  Li4  1  0.000219  0.505870  0.671199  1
  Li  Li5  1  0.500156  0.990584  0.833316  1
  Tb  Tb6  1  0.500008  0.253243  0.998645  1
  Tb  Tb7  1  0.500002  0.746476  0.996726  1
  Tb  Tb8  1  0.999875  0.247777  0.165191  1
  Tb  Tb9  1  0.999865  0.753308  0.165093  1
  Tb  Tb10  1  0.499878  0.252497  0.333329  1
  Tb  Tb11  1  0.499874  0.746816  0.333329  1
  Tb  Tb12  1  0.000008  0.247786  0.501478  1
  Tb  Tb13  1  0.000008  0.753293  0.501566  1
  Tb  Tb14  1  0.500125  0.253237  0.668023  1
  Tb  Tb15  1  0.500133  0.746483  0.669935  1
  Tb  Tb16  1  0.000116  0.245562  0.833340  1
  Sc  Sc17  1  0.000134  0.753648  0.833348  1
  Os  Os18  1  0.000014  0.996274  0.996235  1
  Os  Os19  1  0.499841  0.499503  0.166181  1
  Os  Os20  1  0.999859  0.000024  0.333338  1
  Os  Os21  1  0.500003  0.499489  0.500463  1
  Os  Os22  1  0.000150  0.996264  0.670440  1
  Os  Os23  1  0.500165  0.507311  0.833333  1
