# generated using pymatgen
data_Y5Zr3Co9Ni7P12
_symmetry_space_group_name_H-M   'P 1'
_cell_length_a   12.27212300
_cell_length_b   12.27212351
_cell_length_c   3.76505000
_cell_angle_alpha   90.00000000
_cell_angle_beta   90.00000000
_cell_angle_gamma   120.00000671
_symmetry_Int_Tables_number   1
_chemical_formula_structural   Y5Zr3Co9Ni7P12
_chemical_formula_sum   'Y5 Zr3 Co9 Ni7 P12'
_cell_volume   491.06701927
_cell_formula_units_Z   1
loop_
 _symmetry_equiv_pos_site_id
 _symmetry_equiv_pos_as_xyz
  1  'x, y, z'
loop_
 _atom_site_type_symbol
 _atom_site_label
 _atom_site_symmetry_multiplicity
 _atom_site_fract_x
 _atom_site_fract_y
 _atom_site_fract_z
 _atom_site_occupancy
  Y  Y0  1  0.183183  0.183183  0.500000  1
  Y  Y1  1  0.816817  0.000000  0.500000  1
  Y  Y2  1  0.000000  0.816817  0.500000  1
  Y  Y3  1  0.333333  0.666667  0.000000  1
  Y  Y4  1  0.666667  0.333333  0.000000  1
  Zr  Zr5  1  0.560940  0.560940  0.000000  1
  Zr  Zr6  1  0.439060  0.000000  0.000000  1
  Zr  Zr7  1  0.000000  0.439060  0.000000  1
  Co  Co8  1  0.724513  0.724513  0.500000  1
  Co  Co9  1  0.275487  0.000000  0.500000  1
  Co  Co10  1  0.000000  0.275487  0.500000  1
  Co  Co11  1  0.183440  0.376937  0.000000  1
  Co  Co12  1  0.623063  0.806503  0.000000  1
  Co  Co13  1  0.193497  0.816560  0.000000  1
  Co  Co14  1  0.806503  0.623063  0.000000  1
  Co  Co15  1  0.816560  0.193497  0.000000  1
  Co  Co16  1  0.376937  0.183440  0.000000  1
  Ni  Ni17  1  0.359011  0.482972  0.500000  1
  Ni  Ni18  1  0.517028  0.876040  0.500000  1
  Ni  Ni19  1  0.123960  0.640989  0.500000  1
  Ni  Ni20  1  0.876040  0.517028  0.500000  1
  Ni  Ni21  1  0.640989  0.123960  0.500000  1
  Ni  Ni22  1  0.482972  0.359011  0.500000  1
  Ni  Ni23  1  0.000000  0.000000  0.000000  1
  P  P24  1  0.820113  0.820113  0.000000  1
  P  P25  1  0.179887  0.000000  0.000000  1
  P  P26  1  0.000000  0.179887  0.000000  1
  P  P27  1  0.170292  0.472906  0.500000  1
  P  P28  1  0.527094  0.697386  0.500000  1
  P  P29  1  0.302614  0.829708  0.500000  1
  P  P30  1  0.697386  0.527094  0.500000  1
  P  P31  1  0.829708  0.302614  0.500000  1
  P  P32  1  0.472906  0.170292  0.500000  1
  P  P33  1  0.351578  0.351578  0.000000  1
  P  P34  1  0.648422  0.000000  0.000000  1
  P  P35  1  0.000000  0.648422  0.000000  1
