# generated using pymatgen
data_CeEr7CdInRu2
_symmetry_space_group_name_H-M   'P 1'
_cell_length_a   9.63979812
_cell_length_b   9.55711880
_cell_length_c   9.55711867
_cell_angle_alpha   59.68404638
_cell_angle_beta   59.71340927
_cell_angle_gamma   59.71340967
_symmetry_Int_Tables_number   1
_chemical_formula_structural   CeEr7CdInRu2
_chemical_formula_sum   'Ce2 Er14 Cd2 In2 Ru4'
_cell_volume   618.40536652
_cell_formula_units_Z   2
loop_
 _symmetry_equiv_pos_site_id
 _symmetry_equiv_pos_as_xyz
  1  'x, y, z'
loop_
 _atom_site_type_symbol
 _atom_site_label
 _atom_site_symmetry_multiplicity
 _atom_site_fract_x
 _atom_site_fract_y
 _atom_site_fract_z
 _atom_site_occupancy
  Ce  Ce0  1  0.970011  0.341575  0.341575  1
  Ce  Ce1  1  0.346840  0.341575  0.341575  1
  Er  Er2  1  0.561004  0.561258  0.938048  1
  Er  Er3  1  0.939689  0.561258  0.938048  1
  Er  Er4  1  0.561368  0.938632  0.938632  1
  Er  Er5  1  0.939689  0.938048  0.561258  1
  Er  Er6  1  0.561004  0.938048  0.561258  1
  Er  Er7  1  0.939981  0.560019  0.560019  1
  Er  Er8  1  0.190583  0.187763  0.812474  1
  Er  Er9  1  0.809180  0.187763  0.812474  1
  Er  Er10  1  0.187578  0.812422  0.812421  1
  Er  Er11  1  0.809180  0.812475  0.187763  1
  Er  Er12  1  0.190582  0.812474  0.187762  1
  Er  Er13  1  0.809786  0.190214  0.190214  1
  Er  Er14  1  0.349952  0.349076  0.951022  1
  Er  Er15  1  0.349952  0.951022  0.349076  1
  Cd  Cd16  1  0.256049  0.581502  0.581502  1
  Cd  Cd17  1  0.580946  0.581502  0.581502  1
  In  In18  1  0.582956  0.580743  0.253343  1
  In  In19  1  0.582956  0.253343  0.580743  1
  Ru  Ru20  1  0.137851  0.152101  0.572196  1
  Ru  Ru21  1  0.137851  0.572196  0.152101  1
  Ru  Ru22  1  0.572588  0.147496  0.147496  1
  Ru  Ru23  1  0.132420  0.147496  0.147496  1
