# generated using pymatgen
data_Dy4MnAl18IrPt4
_symmetry_space_group_name_H-M   'P 1'
_cell_length_a   7.56278565
_cell_length_b   7.56278615
_cell_length_c   9.41412093
_cell_angle_alpha   89.96299548
_cell_angle_beta   89.96299598
_cell_angle_gamma   119.52915994
_symmetry_Int_Tables_number   1
_chemical_formula_structural   Dy4MnAl18IrPt4
_chemical_formula_sum   'Dy4 Mn1 Al18 Ir1 Pt4'
_cell_volume   468.50548203
_cell_formula_units_Z   1
loop_
 _symmetry_equiv_pos_site_id
 _symmetry_equiv_pos_as_xyz
  1  'x, y, z'
loop_
 _atom_site_type_symbol
 _atom_site_label
 _atom_site_symmetry_multiplicity
 _atom_site_fract_x
 _atom_site_fract_y
 _atom_site_fract_z
 _atom_site_occupancy
  Dy  Dy0  1  0.994133  0.670556  0.748621  1
  Dy  Dy1  1  0.005867  0.329444  0.251379  1
  Dy  Dy2  1  0.670556  0.994133  0.748621  1
  Dy  Dy3  1  0.329444  0.005867  0.251379  1
  Mn  Mn4  1  0.000000  0.000000  0.500000  1
  Al  Al5  1  0.122039  0.122039  0.744633  1
  Al  Al6  1  0.877961  0.877961  0.255367  1
  Al  Al7  1  0.999898  0.325511  0.573898  1
  Al  Al8  1  0.000102  0.674489  0.426102  1
  Al  Al9  1  0.999606  0.668228  0.076742  1
  Al  Al10  1  0.331772  0.000394  0.923258  1
  Al  Al11  1  0.000394  0.331772  0.923258  1
  Al  Al12  1  0.668228  0.999606  0.076742  1
  Al  Al13  1  0.674489  0.000102  0.426102  1
  Al  Al14  1  0.325511  0.999898  0.573898  1
  Al  Al15  1  0.330086  0.330086  0.055088  1
  Al  Al16  1  0.669914  0.669914  0.944912  1
  Al  Al17  1  0.676542  0.676542  0.552097  1
  Al  Al18  1  0.323458  0.323458  0.447903  1
  Al  Al19  1  0.340664  0.545611  0.749283  1
  Al  Al20  1  0.659336  0.454389  0.250717  1
  Al  Al21  1  0.545611  0.340664  0.749283  1
  Al  Al22  1  0.454389  0.659336  0.250717  1
  Ir  Ir23  1  0.000000  0.000000  0.000000  1
  Pt  Pt24  1  0.672427  0.327573  0.500000  1
  Pt  Pt25  1  0.327573  0.672427  0.500000  1
  Pt  Pt26  1  0.327841  0.672159  0.000000  1
  Pt  Pt27  1  0.672159  0.327841  0.000000  1
