# generated using pymatgen
data_U4Al4SiPt7
_symmetry_space_group_name_H-M   'P 1'
_cell_length_a   5.69217870
_cell_length_b   6.76367621
_cell_length_c   7.78944168
_cell_angle_alpha   89.12395614
_cell_angle_beta   89.66157732
_cell_angle_gamma   89.03999621
_symmetry_Int_Tables_number   1
_chemical_formula_structural   U4Al4SiPt7
_chemical_formula_sum   'U4 Al4 Si1 Pt7'
_cell_volume   299.81199019
_cell_formula_units_Z   1
loop_
 _symmetry_equiv_pos_site_id
 _symmetry_equiv_pos_as_xyz
  1  'x, y, z'
loop_
 _atom_site_type_symbol
 _atom_site_label
 _atom_site_symmetry_multiplicity
 _atom_site_fract_x
 _atom_site_fract_y
 _atom_site_fract_z
 _atom_site_occupancy
  U  U0  1  0.343452  0.745648  0.046553  1
  U  U1  1  0.150807  0.750629  0.547873  1
  U  U2  1  0.655214  0.243492  0.949700  1
  U  U3  1  0.839073  0.248404  0.448001  1
  Al  Al4  1  0.659380  0.745362  0.383089  1
  Al  Al5  1  0.838984  0.770063  0.903951  1
  Al  Al6  1  0.342560  0.257680  0.613113  1
  Al  Al7  1  0.166181  0.252324  0.106864  1
  Si  Si8  1  0.645650  0.549204  0.678264  1
  Pt  Pt9  1  0.889364  0.538749  0.170140  1
  Pt  Pt10  1  0.587281  0.927105  0.674477  1
  Pt  Pt11  1  0.102029  0.050561  0.823102  1
  Pt  Pt12  1  0.388642  0.457979  0.326882  1
  Pt  Pt13  1  0.079083  0.464095  0.818427  1
  Pt  Pt14  1  0.397154  0.045210  0.323929  1
  Pt  Pt15  1  0.915144  0.953496  0.185636  1
