# generated using pymatgen
data_Zr4CoCuTc6
_symmetry_space_group_name_H-M   'P 1'
_cell_length_a   5.14012300
_cell_length_b   5.14012267
_cell_length_c   8.72347400
_cell_angle_alpha   90.00000000
_cell_angle_beta   90.00000000
_cell_angle_gamma   119.99999571
_symmetry_Int_Tables_number   1
_chemical_formula_structural   Zr4CoCuTc6
_chemical_formula_sum   'Zr4 Co1 Cu1 Tc6'
_cell_volume   199.60302388
_cell_formula_units_Z   1
loop_
 _symmetry_equiv_pos_site_id
 _symmetry_equiv_pos_as_xyz
  1  'x, y, z'
loop_
 _atom_site_type_symbol
 _atom_site_label
 _atom_site_symmetry_multiplicity
 _atom_site_fract_x
 _atom_site_fract_y
 _atom_site_fract_z
 _atom_site_occupancy
  Zr  Zr0  1  0.333333  0.666667  0.433085  1
  Zr  Zr1  1  0.666667  0.333333  0.566915  1
  Zr  Zr2  1  0.666667  0.333333  0.929998  1
  Zr  Zr3  1  0.333333  0.666667  0.070002  1
  Co  Co4  1  0.000000  0.000000  0.500000  1
  Cu  Cu5  1  0.000000  0.000000  0.000000  1
  Tc  Tc6  1  0.831884  0.168116  0.252066  1
  Tc  Tc7  1  0.831884  0.663769  0.252066  1
  Tc  Tc8  1  0.336231  0.168116  0.252066  1
  Tc  Tc9  1  0.168116  0.831884  0.747934  1
  Tc  Tc10  1  0.168116  0.336231  0.747934  1
  Tc  Tc11  1  0.663769  0.831884  0.747934  1
