# generated using pymatgen
data_Pr4HoPb4
_symmetry_space_group_name_H-M   'P 1'
_cell_length_a   8.42724600
_cell_length_b   16.24796400
_cell_length_c   8.53726200
_cell_angle_alpha   90.00000000
_cell_angle_beta   90.00000000
_cell_angle_gamma   90.00000000
_symmetry_Int_Tables_number   1
_chemical_formula_structural   Pr4HoPb4
_chemical_formula_sum   'Pr16 Ho4 Pb16'
_cell_volume   1168.96963315
_cell_formula_units_Z   4
loop_
 _symmetry_equiv_pos_site_id
 _symmetry_equiv_pos_as_xyz
  1  'x, y, z'
loop_
 _atom_site_type_symbol
 _atom_site_label
 _atom_site_symmetry_multiplicity
 _atom_site_fract_x
 _atom_site_fract_y
 _atom_site_fract_z
 _atom_site_occupancy
  Pr  Pr0  1  0.623543  0.619234  0.157107  1
  Pr  Pr1  1  0.123543  0.880766  0.342893  1
  Pr  Pr2  1  0.376457  0.119234  0.842893  1
  Pr  Pr3  1  0.876457  0.380766  0.657107  1
  Pr  Pr4  1  0.376457  0.380766  0.842893  1
  Pr  Pr5  1  0.876457  0.119234  0.657107  1
  Pr  Pr6  1  0.623543  0.880766  0.157107  1
  Pr  Pr7  1  0.123543  0.619234  0.342893  1
  Pr  Pr8  1  0.466682  0.600334  0.678091  1
  Pr  Pr9  1  0.966682  0.899666  0.821909  1
  Pr  Pr10  1  0.533318  0.100334  0.321909  1
  Pr  Pr11  1  0.033318  0.399666  0.178091  1
  Pr  Pr12  1  0.533318  0.399666  0.321909  1
  Pr  Pr13  1  0.033318  0.100334  0.178091  1
  Pr  Pr14  1  0.466682  0.899666  0.678091  1
  Pr  Pr15  1  0.966682  0.600334  0.821909  1
  Ho  Ho16  1  0.788950  0.750000  0.497243  1
  Ho  Ho17  1  0.288950  0.750000  0.002757  1
  Ho  Ho18  1  0.211050  0.250000  0.502757  1
  Ho  Ho19  1  0.711050  0.250000  0.997243  1
  Pb  Pb20  1  0.718623  0.453142  0.969849  1
  Pb  Pb21  1  0.218623  0.046858  0.530151  1
  Pb  Pb22  1  0.281377  0.953142  0.030151  1
  Pb  Pb23  1  0.781377  0.546858  0.469849  1
  Pb  Pb24  1  0.281377  0.546858  0.030151  1
  Pb  Pb25  1  0.781377  0.953142  0.469849  1
  Pb  Pb26  1  0.718623  0.046858  0.969849  1
  Pb  Pb27  1  0.218623  0.453142  0.530151  1
  Pb  Pb28  1  0.428360  0.750000  0.375282  1
  Pb  Pb29  1  0.928360  0.750000  0.124718  1
  Pb  Pb30  1  0.571640  0.250000  0.624718  1
  Pb  Pb31  1  0.071640  0.250000  0.875282  1
  Pb  Pb32  1  0.657290  0.750000  0.847469  1
  Pb  Pb33  1  0.157290  0.750000  0.652531  1
  Pb  Pb34  1  0.342710  0.250000  0.152531  1
  Pb  Pb35  1  0.842710  0.250000  0.347469  1
