# generated using pymatgen
data_NpU3F15
_symmetry_space_group_name_H-M   'P 1'
_cell_length_a   8.75966436
_cell_length_b   8.75966378
_cell_length_c   8.75336665
_cell_angle_alpha   80.00658798
_cell_angle_beta   80.00659200
_cell_angle_gamma   100.34445625
_symmetry_Int_Tables_number   1
_chemical_formula_structural   NpU3F15
_chemical_formula_sum   'Np2 U6 F30'
_cell_volume   636.02857662
_cell_formula_units_Z   2
loop_
 _symmetry_equiv_pos_site_id
 _symmetry_equiv_pos_as_xyz
  1  'x, y, z'
loop_
 _atom_site_type_symbol
 _atom_site_label
 _atom_site_symmetry_multiplicity
 _atom_site_fract_x
 _atom_site_fract_y
 _atom_site_fract_z
 _atom_site_occupancy
  Np  Np0  1  0.176111  0.823889  0.250000  1
  Np  Np1  1  0.823889  0.176111  0.750000  1
  U  U2  1  0.750117  0.249883  0.250000  1
  U  U3  1  0.249883  0.750117  0.750000  1
  U  U4  1  0.750774  0.676315  0.676125  1
  U  U5  1  0.323685  0.249226  0.823875  1
  U  U6  1  0.249226  0.323685  0.323875  1
  U  U7  1  0.676315  0.750774  0.176125  1
  F  F8  1  0.465654  0.534346  0.250000  1
  F  F9  1  0.748306  0.960551  0.965373  1
  F  F10  1  0.039449  0.251694  0.534627  1
  F  F11  1  0.251694  0.039449  0.034627  1
  F  F12  1  0.960551  0.748306  0.465373  1
  F  F13  1  0.534346  0.465654  0.750000  1
  F  F14  1  0.223321  0.493241  0.775844  1
  F  F15  1  0.225363  0.723225  0.007965  1
  F  F16  1  0.992232  0.725740  0.778144  1
  F  F17  1  0.725740  0.992232  0.278144  1
  F  F18  1  0.723225  0.225363  0.507965  1
  F  F19  1  0.493241  0.223321  0.275844  1
  F  F20  1  0.776680  0.506759  0.224156  1
  F  F21  1  0.774637  0.276775  0.992035  1
  F  F22  1  0.007768  0.274260  0.221856  1
  F  F23  1  0.274260  0.007768  0.721856  1
  F  F24  1  0.276775  0.774637  0.492035  1
  F  F25  1  0.506759  0.776679  0.724156  1
  F  F26  1  0.548633  0.158392  0.813667  1
  F  F27  1  0.188068  0.058314  0.348364  1
  F  F28  1  0.653334  0.685333  0.444880  1
  F  F29  1  0.685333  0.653334  0.944880  1
  F  F30  1  0.058314  0.188068  0.848364  1
  F  F31  1  0.158392  0.548633  0.313667  1
  F  F32  1  0.451367  0.841608  0.186333  1
  F  F33  1  0.811932  0.941686  0.651636  1
  F  F34  1  0.346666  0.314667  0.555120  1
  F  F35  1  0.314667  0.346666  0.055120  1
  F  F36  1  0.941686  0.811932  0.151636  1
  F  F37  1  0.841608  0.451367  0.686333  1
