# generated using pymatgen
data_Zr24Si5Se3
_symmetry_space_group_name_H-M   'P 1'
_cell_length_a   11.01309138
_cell_length_b   11.02446860
_cell_length_c   5.47188876
_cell_angle_alpha   89.89774138
_cell_angle_beta   90.05322880
_cell_angle_gamma   89.97883971
_symmetry_Int_Tables_number   1
_chemical_formula_structural   Zr24Si5Se3
_chemical_formula_sum   'Zr24 Si5 Se3'
_cell_volume   664.35966625
_cell_formula_units_Z   1
loop_
 _symmetry_equiv_pos_site_id
 _symmetry_equiv_pos_as_xyz
  1  'x, y, z'
loop_
 _atom_site_type_symbol
 _atom_site_label
 _atom_site_symmetry_multiplicity
 _atom_site_fract_x
 _atom_site_fract_y
 _atom_site_fract_z
 _atom_site_occupancy
  Zr  Zr0  1  0.917726  0.607194  0.536801  1
  Zr  Zr1  1  0.082916  0.392052  0.535687  1
  Zr  Zr2  1  0.892086  0.417247  0.035679  1
  Zr  Zr3  1  0.108192  0.583029  0.035519  1
  Zr  Zr4  1  0.580963  0.892338  0.958984  1
  Zr  Zr5  1  0.417298  0.106102  0.964283  1
  Zr  Zr6  1  0.605362  0.082776  0.464411  1
  Zr  Zr7  1  0.395128  0.915502  0.470521  1
  Zr  Zr8  1  0.862796  0.973915  0.717966  1
  Zr  Zr9  1  0.137215  0.026924  0.718886  1
  Zr  Zr10  1  0.526613  0.362987  0.218571  1
  Zr  Zr11  1  0.472785  0.639018  0.220652  1
  Zr  Zr12  1  0.639488  0.527983  0.780922  1
  Zr  Zr13  1  0.359547  0.475475  0.781765  1
  Zr  Zr14  1  0.973580  0.140444  0.281531  1
  Zr  Zr15  1  0.027039  0.859431  0.281222  1
  Zr  Zr16  1  0.818941  0.713547  0.008090  1
  Zr  Zr17  1  0.180767  0.286516  0.008533  1
  Zr  Zr18  1  0.786100  0.318896  0.508646  1
  Zr  Zr19  1  0.215577  0.679957  0.511140  1
  Zr  Zr20  1  0.680410  0.782584  0.492317  1
  Zr  Zr21  1  0.317614  0.217189  0.488616  1
  Zr  Zr22  1  0.716594  0.181691  0.988220  1
  Zr  Zr23  1  0.285570  0.818702  0.986336  1
  Si  Si24  1  0.459329  0.704952  0.712984  1
  Si  Si25  1  0.705627  0.541379  0.288546  1
  Si  Si26  1  0.294512  0.458893  0.287914  1
  Si  Si27  1  0.959048  0.205785  0.788371  1
  Si  Si28  1  0.041051  0.794589  0.787345  1
  Se  Se29  1  0.792727  0.958956  0.212551  1
  Se  Se30  1  0.207385  0.039942  0.214074  1
  Se  Se31  1  0.540010  0.294003  0.712916  1
