# generated using pymatgen
data_NdLu(GaNi4)2
_symmetry_space_group_name_H-M   'P 1'
_cell_length_a   4.01815700
_cell_length_b   5.00802700
_cell_length_c   8.46257900
_cell_angle_alpha   90.00000000
_cell_angle_beta   90.00000000
_cell_angle_gamma   90.00000000
_symmetry_Int_Tables_number   1
_chemical_formula_structural   NdLu(GaNi4)2
_chemical_formula_sum   'Nd1 Lu1 Ga2 Ni8'
_cell_volume   170.29280511
_cell_formula_units_Z   1
loop_
 _symmetry_equiv_pos_site_id
 _symmetry_equiv_pos_as_xyz
  1  'x, y, z'
loop_
 _atom_site_type_symbol
 _atom_site_label
 _atom_site_symmetry_multiplicity
 _atom_site_fract_x
 _atom_site_fract_y
 _atom_site_fract_z
 _atom_site_occupancy
  Nd  Nd0  1  0.000000  0.500000  0.500000  1
  Lu  Lu1  1  0.000000  0.000000  0.000000  1
  Ga  Ga2  1  0.500000  0.500000  0.000000  1
  Ga  Ga3  1  0.500000  0.000000  0.500000  1
  Ni  Ni4  1  0.000000  0.000000  0.325913  1
  Ni  Ni5  1  0.000000  0.500000  0.835016  1
  Ni  Ni6  1  0.000000  0.500000  0.164984  1
  Ni  Ni7  1  0.000000  0.000000  0.674087  1
  Ni  Ni8  1  0.500000  0.247100  0.247072  1
  Ni  Ni9  1  0.500000  0.752900  0.752928  1
  Ni  Ni10  1  0.500000  0.752900  0.247072  1
  Ni  Ni11  1  0.500000  0.247100  0.752928  1
