# generated using pymatgen
data_Tm6Co5Ni13As12
_symmetry_space_group_name_H-M   'P 1'
_cell_length_a   3.83926800
_cell_length_b   10.82257769
_cell_length_c   12.69298281
_cell_angle_alpha   89.95907274
_cell_angle_beta   90.00000000
_cell_angle_gamma   90.00000000
_symmetry_Int_Tables_number   1
_chemical_formula_structural   Tm6Co5Ni13As12
_chemical_formula_sum   'Tm6 Co5 Ni13 As12'
_cell_volume   527.40315353
_cell_formula_units_Z   1
loop_
 _symmetry_equiv_pos_site_id
 _symmetry_equiv_pos_as_xyz
  1  'x, y, z'
loop_
 _atom_site_type_symbol
 _atom_site_label
 _atom_site_symmetry_multiplicity
 _atom_site_fract_x
 _atom_site_fract_y
 _atom_site_fract_z
 _atom_site_occupancy
  Tm  Tm0  1  0.000000  0.499717  0.523135  1
  Tm  Tm1  1  0.500000  0.000274  0.477088  1
  Tm  Tm2  1  0.500000  0.816743  0.207397  1
  Tm  Tm3  1  0.500000  0.183840  0.207307  1
  Tm  Tm4  1  0.000000  0.682406  0.792292  1
  Tm  Tm5  1  0.000000  0.316721  0.792856  1
  Co  Co6  1  0.000000  0.500325  0.982221  1
  Co  Co7  1  0.500000  0.999262  0.017155  1
  Co  Co8  1  0.500000  0.333842  0.996225  1
  Co  Co9  1  0.500000  0.667128  0.996352  1
  Co  Co10  1  0.000000  0.165834  0.003546  1
  Ni  Ni11  1  0.500000  0.500294  0.157632  1
  Ni  Ni12  1  0.000000  0.999509  0.842235  1
  Ni  Ni13  1  0.500000  0.499889  0.701781  1
  Ni  Ni14  1  0.000000  0.999896  0.298940  1
  Ni  Ni15  1  0.000000  0.833566  0.003900  1
  Ni  Ni16  1  0.500000  0.303385  0.427867  1
  Ni  Ni17  1  0.500000  0.696460  0.427453  1
  Ni  Ni18  1  0.000000  0.196501  0.572379  1
  Ni  Ni19  1  0.000000  0.803448  0.572236  1
  Ni  Ni20  1  0.500000  0.877778  0.707724  1
  Ni  Ni21  1  0.500000  0.122301  0.708871  1
  Ni  Ni22  1  0.000000  0.621983  0.292352  1
  Ni  Ni23  1  0.000000  0.377827  0.290847  1
  As  As24  1  0.500000  0.500168  0.878865  1
  As  As25  1  0.000000  0.002056  0.122504  1
  As  As26  1  0.500000  0.499823  0.346287  1
  As  As27  1  0.000000  0.000161  0.653528  1
  As  As28  1  0.500000  0.315828  0.614482  1
  As  As29  1  0.500000  0.683825  0.614178  1
  As  As30  1  0.000000  0.184348  0.385709  1
  As  As31  1  0.000000  0.816185  0.386008  1
  As  As32  1  0.500000  0.847386  0.890082  1
  As  As33  1  0.500000  0.153901  0.892641  1
  As  As34  1  0.000000  0.651344  0.108979  1
  As  As35  1  0.000000  0.346045  0.106942  1
