# generated using pymatgen
data_Ca13Ho7Si15Ag
_symmetry_space_group_name_H-M   'P 1'
_cell_length_a   7.49987195
_cell_length_b   7.79894144
_cell_length_c   15.27538600
_cell_angle_alpha   90.25116670
_cell_angle_beta   89.20005780
_cell_angle_gamma   90.28103556
_symmetry_Int_Tables_number   1
_chemical_formula_structural   Ca13Ho7Si15Ag
_chemical_formula_sum   'Ca13 Ho7 Si15 Ag1'
_cell_volume   893.36740632
_cell_formula_units_Z   1
loop_
 _symmetry_equiv_pos_site_id
 _symmetry_equiv_pos_as_xyz
  1  'x, y, z'
loop_
 _atom_site_type_symbol
 _atom_site_label
 _atom_site_symmetry_multiplicity
 _atom_site_fract_x
 _atom_site_fract_y
 _atom_site_fract_z
 _atom_site_occupancy
  Ca  Ca0  1  0.650240  0.981112  0.251306  1
  Ca  Ca1  1  0.154302  0.517385  0.250403  1
  Ca  Ca2  1  0.845214  0.485388  0.746875  1
  Ca  Ca3  1  0.350633  0.016803  0.747543  1
  Ca  Ca4  1  0.987001  0.822975  0.099812  1
  Ca  Ca5  1  0.473367  0.682439  0.404827  1
  Ca  Ca6  1  0.505684  0.318676  0.901442  1
  Ca  Ca7  1  0.027443  0.183999  0.595276  1
  Ca  Ca8  1  0.025924  0.174548  0.902219  1
  Ca  Ca9  1  0.527822  0.316917  0.595368  1
  Ca  Ca10  1  0.474870  0.681777  0.095494  1
  Ca  Ca11  1  0.973648  0.817012  0.404269  1
  Ca  Ca12  1  0.670355  0.828299  0.874765  1
  Ho  Ho13  1  0.181281  0.677474  0.619936  1
  Ho  Ho14  1  0.827544  0.317518  0.127572  1
  Ho  Ho15  1  0.318766  0.176529  0.380272  1
  Ho  Ho16  1  0.323275  0.179916  0.123508  1
  Ho  Ho17  1  0.817480  0.323004  0.379931  1
  Ho  Ho18  1  0.187996  0.675923  0.878819  1
  Ho  Ho19  1  0.681557  0.823471  0.620454  1
  Si  Si20  1  0.757759  0.603887  0.249402  1
  Si  Si21  1  0.257315  0.895510  0.252287  1
  Si  Si22  1  0.748291  0.110160  0.744742  1
  Si  Si23  1  0.236085  0.393519  0.747928  1
  Si  Si24  1  0.029869  0.116669  0.251912  1
  Si  Si25  1  0.530877  0.380396  0.254354  1
  Si  Si26  1  0.466633  0.613554  0.743705  1
  Si  Si27  1  0.974187  0.884173  0.749925  1
  Si  Si28  1  0.359401  0.965029  0.537706  1
  Si  Si29  1  0.644223  0.041127  0.037904  1
  Si  Si30  1  0.140256  0.466060  0.461102  1
  Si  Si31  1  0.156020  0.463674  0.038813  1
  Si  Si32  1  0.641143  0.034072  0.461596  1
  Si  Si33  1  0.353445  0.967422  0.966286  1
  Si  Si34  1  0.859025  0.535868  0.537079  1
  Ag  Ag35  1  0.841068  0.527718  0.965171  1
