# generated using pymatgen
data_Ho3Tl3CuIrPd
_symmetry_space_group_name_H-M   'P 1'
_cell_length_a   7.86983800
_cell_length_b   7.86983882
_cell_length_c   3.65880000
_cell_angle_alpha   90.00000000
_cell_angle_beta   90.00000000
_cell_angle_gamma   119.99999768
_symmetry_Int_Tables_number   1
_chemical_formula_structural   Ho3Tl3CuIrPd
_chemical_formula_sum   'Ho3 Tl3 Cu1 Ir1 Pd1'
_cell_volume   196.24605831
_cell_formula_units_Z   1
loop_
 _symmetry_equiv_pos_site_id
 _symmetry_equiv_pos_as_xyz
  1  'x, y, z'
loop_
 _atom_site_type_symbol
 _atom_site_label
 _atom_site_symmetry_multiplicity
 _atom_site_fract_x
 _atom_site_fract_y
 _atom_site_fract_z
 _atom_site_occupancy
  Ho  Ho0  1  0.581457  0.599932  0.000000  1
  Ho  Ho1  1  0.400068  0.981525  0.000000  1
  Ho  Ho2  1  0.018475  0.418543  0.000000  1
  Tl  Tl3  1  0.991902  0.735106  0.500000  1
  Tl  Tl4  1  0.264894  0.256796  0.500000  1
  Tl  Tl5  1  0.743204  0.008098  0.500000  1
  Cu  Cu6  1  0.000000  0.000000  0.000000  1
  Ir  Ir7  1  0.333333  0.666667  0.500000  1
  Pd  Pd8  1  0.666667  0.333333  0.500000  1
