# generated using pymatgen
data_Ac2Fe2Se2O3
_symmetry_space_group_name_H-M   'P 1'
_cell_length_a   10.14269696
_cell_length_b   4.20495391
_cell_length_c   4.20498100
_cell_angle_alpha   90.00000000
_cell_angle_beta   101.96364617
_cell_angle_gamma   101.96356524
_symmetry_Int_Tables_number   1
_chemical_formula_structural   Ac2Fe2Se2O3
_chemical_formula_sum   'Ac2 Fe2 Se2 O3'
_cell_volume   171.46142223
_cell_formula_units_Z   1
loop_
 _symmetry_equiv_pos_site_id
 _symmetry_equiv_pos_as_xyz
  1  'x, y, z'
loop_
 _atom_site_type_symbol
 _atom_site_label
 _atom_site_symmetry_multiplicity
 _atom_site_fract_x
 _atom_site_fract_y
 _atom_site_fract_z
 _atom_site_occupancy
  Ac  Ac0  1  0.633948  0.316975  0.316975  1
  Ac  Ac1  1  0.366052  0.683025  0.683025  1
  Fe  Fe2  1  0.000000  0.499999  0.000000  1
  Fe  Fe3  1  0.000000  0.000000  0.499999  1
  Se  Se4  1  0.188176  0.094088  0.094088  1
  Se  Se5  1  0.811824  0.905912  0.905912  1
  O  O6  1  0.499997  0.749999  0.249999  1
  O  O7  1  0.000000  0.499999  0.499999  1
  O  O8  1  0.500003  0.250001  0.750001  1
