# generated using pymatgen
data_Hf16TaNi4Os3
_symmetry_space_group_name_H-M   'P 1'
_cell_length_a   8.66562497
_cell_length_b   8.66562370
_cell_length_c   8.66562618
_cell_angle_alpha   59.71699480
_cell_angle_beta   59.71699801
_cell_angle_gamma   59.71699686
_symmetry_Int_Tables_number   1
_chemical_formula_structural   Hf16TaNi4Os3
_chemical_formula_sum   'Hf16 Ta1 Ni4 Os3'
_cell_volume   457.17674872
_cell_formula_units_Z   1
loop_
 _symmetry_equiv_pos_site_id
 _symmetry_equiv_pos_as_xyz
  1  'x, y, z'
loop_
 _atom_site_type_symbol
 _atom_site_label
 _atom_site_symmetry_multiplicity
 _atom_site_fract_x
 _atom_site_fract_y
 _atom_site_fract_z
 _atom_site_occupancy
  Hf  Hf0  1  0.689815  0.102822  0.102822  1
  Hf  Hf1  1  0.102822  0.689815  0.102822  1
  Hf  Hf2  1  0.102822  0.102822  0.689815  1
  Hf  Hf3  1  0.104665  0.104665  0.104665  1
  Hf  Hf4  1  0.315717  0.315717  0.683940  1
  Hf  Hf5  1  0.684369  0.684369  0.315239  1
  Hf  Hf6  1  0.315717  0.683940  0.315717  1
  Hf  Hf7  1  0.684369  0.315239  0.684369  1
  Hf  Hf8  1  0.683940  0.315717  0.315717  1
  Hf  Hf9  1  0.315239  0.684369  0.684369  1
  Hf  Hf10  1  0.954791  0.954791  0.545122  1
  Hf  Hf11  1  0.548765  0.548765  0.950893  1
  Hf  Hf12  1  0.954791  0.545122  0.954791  1
  Hf  Hf13  1  0.548765  0.950893  0.548765  1
  Hf  Hf14  1  0.545122  0.954791  0.954791  1
  Hf  Hf15  1  0.950893  0.548765  0.548765  1
  Ta  Ta16  1  0.330550  0.330550  0.330550  1
  Ni  Ni17  1  0.324307  0.892718  0.892718  1
  Ni  Ni18  1  0.892718  0.324307  0.892718  1
  Ni  Ni19  1  0.892718  0.892718  0.324307  1
  Ni  Ni20  1  0.891336  0.891336  0.891336  1
  Os  Os21  1  0.996914  0.334426  0.334426  1
  Os  Os22  1  0.334426  0.996914  0.334426  1
  Os  Os23  1  0.334426  0.334426  0.996914  1
