# generated using pymatgen
data_Yb12Sm7ErSn16
_symmetry_space_group_name_H-M   'P 1'
_cell_length_a   7.92751364
_cell_length_b   8.48023600
_cell_length_c   16.21099367
_cell_angle_alpha   90.03142055
_cell_angle_beta   90.05777189
_cell_angle_gamma   90.04579141
_symmetry_Int_Tables_number   1
_chemical_formula_structural   Yb12Sm7ErSn16
_chemical_formula_sum   'Yb12 Sm7 Er1 Sn16'
_cell_volume   1089.81842905
_cell_formula_units_Z   1
loop_
 _symmetry_equiv_pos_site_id
 _symmetry_equiv_pos_as_xyz
  1  'x, y, z'
loop_
 _atom_site_type_symbol
 _atom_site_label
 _atom_site_symmetry_multiplicity
 _atom_site_fract_x
 _atom_site_fract_y
 _atom_site_fract_z
 _atom_site_occupancy
  Yb  Yb0  1  0.506996  0.689240  0.593361  1
  Yb  Yb1  1  0.006695  0.811085  0.906558  1
  Yb  Yb2  1  0.493163  0.310958  0.093373  1
  Yb  Yb3  1  0.993062  0.188930  0.406690  1
  Yb  Yb4  1  0.493465  0.310878  0.406892  1
  Yb  Yb5  1  0.993244  0.188995  0.093375  1
  Yb  Yb6  1  0.506809  0.689044  0.906557  1
  Yb  Yb7  1  0.006399  0.811236  0.593456  1
  Yb  Yb8  1  0.839514  0.510673  0.749768  1
  Yb  Yb9  1  0.339986  0.989248  0.749810  1
  Yb  Yb10  1  0.160290  0.488946  0.249982  1
  Yb  Yb11  1  0.660338  0.011114  0.250071  1
  Sm  Sm12  1  0.174199  0.332844  0.877697  1
  Sm  Sm13  1  0.325907  0.833015  0.122093  1
  Sm  Sm14  1  0.825914  0.667002  0.378141  1
  Sm  Sm15  1  0.326116  0.833068  0.378098  1
  Sm  Sm16  1  0.825927  0.667001  0.122112  1
  Sm  Sm17  1  0.673902  0.167131  0.877610  1
  Sm  Sm18  1  0.173999  0.332524  0.622220  1
  Er  Er19  1  0.674180  0.166711  0.622198  1
  Sn  Sn20  1  0.669745  0.967371  0.459783  1
  Sn  Sn21  1  0.169449  0.533633  0.041278  1
  Sn  Sn22  1  0.330459  0.033715  0.958731  1
  Sn  Sn23  1  0.828883  0.464980  0.541697  1
  Sn  Sn24  1  0.332429  0.034246  0.541693  1
  Sn  Sn25  1  0.830621  0.466378  0.958661  1
  Sn  Sn26  1  0.669471  0.966360  0.041250  1
  Sn  Sn27  1  0.169321  0.533520  0.458775  1
  Sn  Sn28  1  0.474562  0.380748  0.749485  1
  Sn  Sn29  1  0.972524  0.118593  0.749213  1
  Sn  Sn30  1  0.526393  0.618121  0.250026  1
  Sn  Sn31  1  0.026362  0.881972  0.250007  1
  Sn  Sn32  1  0.718489  0.870763  0.749411  1
  Sn  Sn33  1  0.219170  0.629876  0.749882  1
  Sn  Sn34  1  0.281052  0.130053  0.250021  1
  Sn  Sn35  1  0.780965  0.370029  0.250027  1
