# generated using pymatgen
data_Lu2Si3PbO10
_symmetry_space_group_name_H-M   'P 1'
_cell_length_a   12.16953600
_cell_length_b   5.40946285
_cell_length_c   6.81909587
_cell_angle_alpha   72.44393981
_cell_angle_beta   90.00000000
_cell_angle_gamma   90.00000000
_symmetry_Int_Tables_number   1
_chemical_formula_structural   Lu2Si3PbO10
_chemical_formula_sum   'Lu4 Si6 Pb2 O20'
_cell_volume   427.99653442
_cell_formula_units_Z   2
loop_
 _symmetry_equiv_pos_site_id
 _symmetry_equiv_pos_as_xyz
  1  'x, y, z'
loop_
 _atom_site_type_symbol
 _atom_site_label
 _atom_site_symmetry_multiplicity
 _atom_site_fract_x
 _atom_site_fract_y
 _atom_site_fract_z
 _atom_site_occupancy
  Lu  Lu0  1  0.099465  0.838579  0.680766  1
  Lu  Lu1  1  0.599465  0.161421  0.319234  1
  Lu  Lu2  1  0.900535  0.161421  0.319234  1
  Lu  Lu3  1  0.400535  0.838579  0.680766  1
  Si  Si4  1  0.250000  0.428025  0.483105  1
  Si  Si5  1  0.750000  0.571975  0.516895  1
  Si  Si6  1  0.057480  0.698570  0.212823  1
  Si  Si7  1  0.557480  0.301430  0.787177  1
  Si  Si8  1  0.942520  0.301430  0.787177  1
  Si  Si9  1  0.442520  0.698570  0.212823  1
  Pb  Pb10  1  0.250000  0.196407  0.987389  1
  Pb  Pb11  1  0.750000  0.803593  0.012611  1
  O  O12  1  0.250000  0.649644  0.601985  1
  O  O13  1  0.750000  0.350356  0.398015  1
  O  O14  1  0.250000  0.130843  0.646209  1
  O  O15  1  0.750000  0.869157  0.353791  1
  O  O16  1  0.140740  0.455546  0.337994  1
  O  O17  1  0.640740  0.544454  0.662006  1
  O  O18  1  0.859260  0.544454  0.662006  1
  O  O19  1  0.359260  0.455546  0.337994  1
  O  O20  1  0.942599  0.559088  0.187628  1
  O  O21  1  0.442599  0.440912  0.812372  1
  O  O22  1  0.057401  0.440912  0.812372  1
  O  O23  1  0.557401  0.559088  0.187628  1
  O  O24  1  0.118547  0.854697  0.996247  1
  O  O25  1  0.618547  0.145303  0.003753  1
  O  O26  1  0.881453  0.145303  0.003753  1
  O  O27  1  0.381453  0.854697  0.996247  1
  O  O28  1  0.042695  0.892463  0.357815  1
  O  O29  1  0.542695  0.107537  0.642185  1
  O  O30  1  0.957305  0.107537  0.642185  1
  O  O31  1  0.457305  0.892463  0.357815  1
