# generated using pymatgen
data_Tb3SmTm2CoBr10
_symmetry_space_group_name_H-M   'P 1'
_cell_length_a   7.33838784
_cell_length_b   9.11901633
_cell_length_c   9.13678002
_cell_angle_alpha   107.51711581
_cell_angle_beta   96.69340255
_cell_angle_gamma   105.92124067
_symmetry_Int_Tables_number   1
_chemical_formula_structural   Tb3SmTm2CoBr10
_chemical_formula_sum   'Tb3 Sm1 Tm2 Co1 Br10'
_cell_volume   547.32536038
_cell_formula_units_Z   1
loop_
 _symmetry_equiv_pos_site_id
 _symmetry_equiv_pos_as_xyz
  1  'x, y, z'
loop_
 _atom_site_type_symbol
 _atom_site_label
 _atom_site_symmetry_multiplicity
 _atom_site_fract_x
 _atom_site_fract_y
 _atom_site_fract_z
 _atom_site_occupancy
  Tb  Tb0  1  0.119899  0.045552  0.264932  1
  Tb  Tb1  1  0.357918  0.134965  0.676952  1
  Tb  Tb2  1  0.642335  0.865438  0.322700  1
  Sm  Sm3  1  0.878704  0.953736  0.738155  1
  Tm  Tm4  1  0.027081  0.706310  0.407312  1
  Tm  Tm5  1  0.973470  0.293658  0.590919  1
  Co  Co6  1  0.999717  0.999702  0.500178  1
  Br  Br7  1  0.447166  0.818260  0.583338  1
  Br  Br8  1  0.547716  0.179733  0.413596  1
  Br  Br9  1  0.917083  0.621521  0.667773  1
  Br  Br10  1  0.084360  0.373578  0.329105  1
  Br  Br11  1  0.258076  0.086664  0.961238  1
  Br  Br12  1  0.747664  0.915491  0.044064  1
  Br  Br13  1  0.348548  0.456496  0.772486  1
  Br  Br14  1  0.651374  0.543757  0.227660  1
  Br  Br15  1  0.790548  0.264729  0.845145  1
  Br  Br16  1  0.208343  0.740409  0.154447  1
