# generated using pymatgen
data_Zr6Zn19Ag4C
_symmetry_space_group_name_H-M   'P 1'
_cell_length_a   8.79927640
_cell_length_b   8.77242321
_cell_length_c   8.77242278
_cell_angle_alpha   60.04258311
_cell_angle_beta   59.96807299
_cell_angle_gamma   59.96807043
_symmetry_Int_Tables_number   1
_chemical_formula_structural   Zr6Zn19Ag4C
_chemical_formula_sum   'Zr6 Zn19 Ag4 C1'
_cell_volume   478.74116168
_cell_formula_units_Z   1
loop_
 _symmetry_equiv_pos_site_id
 _symmetry_equiv_pos_as_xyz
  1  'x, y, z'
loop_
 _atom_site_type_symbol
 _atom_site_label
 _atom_site_symmetry_multiplicity
 _atom_site_fract_x
 _atom_site_fract_y
 _atom_site_fract_z
 _atom_site_occupancy
  Zr  Zr0  1  0.690046  0.310880  0.310880  1
  Zr  Zr1  1  0.312692  0.687065  0.687065  1
  Zr  Zr2  1  0.312588  0.686849  0.313453  1
  Zr  Zr3  1  0.688592  0.313338  0.685982  1
  Zr  Zr4  1  0.312588  0.313453  0.686849  1
  Zr  Zr5  1  0.688592  0.685982  0.313338  1
  Zn  Zn6  1  0.880572  0.877584  0.363821  1
  Zn  Zn7  1  0.880572  0.363821  0.877584  1
  Zn  Zn8  1  0.633767  0.120995  0.120995  1
  Zn  Zn9  1  0.360927  0.879539  0.879539  1
  Zn  Zn10  1  0.498645  0.999563  0.999563  1
  Zn  Zn11  1  0.998854  0.501304  0.501304  1
  Zn  Zn12  1  0.999288  0.497770  0.999196  1
  Zn  Zn13  1  0.505941  0.999460  0.495609  1
  Zn  Zn14  1  0.999288  0.999196  0.497770  1
  Zn  Zn15  1  0.505941  0.495609  0.999460  1
  Zn  Zn16  1  0.333610  0.331641  0.331641  1
  Zn  Zn17  1  0.666334  0.668080  0.668080  1
  Zn  Zn18  1  0.332340  0.332555  0.003548  1
  Zn  Zn19  1  0.332340  0.003548  0.332555  1
  Zn  Zn20  1  0.667980  0.667992  0.994333  1
  Zn  Zn21  1  0.667980  0.994333  0.667992  1
  Zn  Zn22  1  0.005941  0.331331  0.331331  1
  Zn  Zn23  1  0.994277  0.668742  0.668742  1
  Zn  Zn24  1  0.988748  0.006681  0.006681  1
  Ag  Ag25  1  0.120411  0.117516  0.117516  1
  Ag  Ag26  1  0.877783  0.882545  0.882545  1
  Ag  Ag27  1  0.121096  0.118722  0.644907  1
  Ag  Ag28  1  0.121096  0.644907  0.118722  1
  C  C29  1  0.501171  0.498999  0.498999  1
