# generated using pymatgen
data_Ta12Al7OsN4
_symmetry_space_group_name_H-M   'P 1'
_cell_length_a   7.04134913
_cell_length_b   7.04134976
_cell_length_c   7.04135000
_cell_angle_alpha   89.76084991
_cell_angle_beta   90.23914847
_cell_angle_gamma   90.23915665
_symmetry_Int_Tables_number   1
_chemical_formula_structural   Ta12Al7OsN4
_chemical_formula_sum   'Ta12 Al7 Os1 N4'
_cell_volume   349.10527391
_cell_formula_units_Z   1
loop_
 _symmetry_equiv_pos_site_id
 _symmetry_equiv_pos_as_xyz
  1  'x, y, z'
loop_
 _atom_site_type_symbol
 _atom_site_label
 _atom_site_symmetry_multiplicity
 _atom_site_fract_x
 _atom_site_fract_y
 _atom_site_fract_z
 _atom_site_occupancy
  Ta  Ta0  1  0.795095  0.956216  0.373603  1
  Ta  Ta1  1  0.706299  0.044409  0.876782  1
  Ta  Ta2  1  0.206809  0.456435  0.123684  1
  Ta  Ta3  1  0.293437  0.546518  0.625458  1
  Ta  Ta4  1  0.955591  0.376782  0.793701  1
  Ta  Ta5  1  0.043784  0.873603  0.704905  1
  Ta  Ta6  1  0.453482  0.125458  0.206563  1
  Ta  Ta7  1  0.543565  0.623684  0.293191  1
  Ta  Ta8  1  0.376316  0.793191  0.956435  1
  Ta  Ta9  1  0.874542  0.706563  0.046518  1
  Ta  Ta10  1  0.126397  0.204905  0.456216  1
  Ta  Ta11  1  0.623218  0.293701  0.544409  1
  Al  Al12  1  0.321159  0.177012  0.819986  1
  Al  Al13  1  0.822988  0.319986  0.178841  1
  Al  Al14  1  0.680014  0.678841  0.677012  1
  Al  Al15  1  0.570396  0.429604  0.929604  1
  Al  Al16  1  0.424450  0.927153  0.564373  1
  Al  Al17  1  0.935627  0.575550  0.427153  1
  Al  Al18  1  0.072847  0.064373  0.075550  1
  Os  Os19  1  0.178475  0.821525  0.321525  1
  N  N20  1  0.876185  0.123815  0.623815  1
  N  N21  1  0.623823  0.876449  0.128050  1
  N  N22  1  0.123551  0.628050  0.876177  1
  N  N23  1  0.371950  0.376177  0.376449  1
