# generated using pymatgen
data_LiY8CdCo2
_symmetry_space_group_name_H-M   'P 1'
_cell_length_a   9.55586114
_cell_length_b   9.55586134
_cell_length_c   9.57488000
_cell_angle_alpha   59.93413388
_cell_angle_beta   59.93413319
_cell_angle_gamma   59.90808674
_symmetry_Int_Tables_number   1
_chemical_formula_structural   LiY8CdCo2
_chemical_formula_sum   'Li2 Y16 Cd2 Co4'
_cell_volume   617.19576699
_cell_formula_units_Z   2
loop_
 _symmetry_equiv_pos_site_id
 _symmetry_equiv_pos_as_xyz
  1  'x, y, z'
loop_
 _atom_site_type_symbol
 _atom_site_label
 _atom_site_symmetry_multiplicity
 _atom_site_fract_x
 _atom_site_fract_y
 _atom_site_fract_z
 _atom_site_occupancy
  Li  Li0  1  0.821810  0.821810  0.530405  1
  Li  Li1  1  0.821810  0.821810  0.825972  1
  Y  Y2  1  0.439612  0.439612  0.060388  1
  Y  Y3  1  0.595164  0.595164  0.598422  1
  Y  Y4  1  0.187636  0.813496  0.812917  1
  Y  Y5  1  0.066081  0.066081  0.433919  1
  Y  Y6  1  0.436080  0.064173  0.062130  1
  Y  Y7  1  0.813496  0.187636  0.812917  1
  Y  Y8  1  0.436080  0.064173  0.437617  1
  Y  Y9  1  0.593231  0.217456  0.594657  1
  Y  Y10  1  0.810966  0.810966  0.189034  1
  Y  Y11  1  0.217456  0.593231  0.594657  1
  Y  Y12  1  0.813496  0.187636  0.185951  1
  Y  Y13  1  0.064173  0.436080  0.437617  1
  Y  Y14  1  0.187636  0.813496  0.185951  1
  Y  Y15  1  0.595164  0.595164  0.211251  1
  Y  Y16  1  0.186484  0.186484  0.813516  1
  Y  Y17  1  0.064173  0.436080  0.062130  1
  Cd  Cd18  1  0.508775  0.832784  0.829219  1
  Cd  Cd19  1  0.832784  0.508775  0.829219  1
  Co  Co20  1  0.392561  0.392561  0.388343  1
  Co  Co21  1  0.828173  0.394598  0.388614  1
  Co  Co22  1  0.394598  0.828173  0.388614  1
  Co  Co23  1  0.392561  0.392561  0.826536  1
