# generated using pymatgen
data_Zr6TiCo17P12
_symmetry_space_group_name_H-M   'P 1'
_cell_length_a   3.62034700
_cell_length_b   10.35326800
_cell_length_c   11.97159100
_cell_angle_alpha   90.00000000
_cell_angle_beta   90.00000000
_cell_angle_gamma   90.00000000
_symmetry_Int_Tables_number   1
_chemical_formula_structural   Zr6TiCo17P12
_chemical_formula_sum   'Zr6 Ti1 Co17 P12'
_cell_volume   448.72423478
_cell_formula_units_Z   1
loop_
 _symmetry_equiv_pos_site_id
 _symmetry_equiv_pos_as_xyz
  1  'x, y, z'
loop_
 _atom_site_type_symbol
 _atom_site_label
 _atom_site_symmetry_multiplicity
 _atom_site_fract_x
 _atom_site_fract_y
 _atom_site_fract_z
 _atom_site_occupancy
  Zr  Zr0  1  0.000000  0.500000  0.530085  1
  Zr  Zr1  1  0.500000  0.000000  0.473247  1
  Zr  Zr2  1  0.500000  0.821495  0.207846  1
  Zr  Zr3  1  0.500000  0.178505  0.207846  1
  Zr  Zr4  1  0.000000  0.678220  0.795101  1
  Zr  Zr5  1  0.000000  0.321780  0.795101  1
  Ti  Ti6  1  0.500000  0.500000  0.155890  1
  Co  Co7  1  0.000000  0.500000  0.988183  1
  Co  Co8  1  0.500000  0.000000  0.013517  1
  Co  Co9  1  0.500000  0.298045  0.433959  1
  Co  Co10  1  0.500000  0.701955  0.433959  1
  Co  Co11  1  0.000000  0.200274  0.567330  1
  Co  Co12  1  0.000000  0.799726  0.567330  1
  Co  Co13  1  0.500000  0.876450  0.706287  1
  Co  Co14  1  0.500000  0.123550  0.706287  1
  Co  Co15  1  0.000000  0.623606  0.294750  1
  Co  Co16  1  0.000000  0.376394  0.294750  1
  Co  Co17  1  0.500000  0.330237  0.991201  1
  Co  Co18  1  0.500000  0.669763  0.991201  1
  Co  Co19  1  0.000000  0.165005  0.004243  1
  Co  Co20  1  0.000000  0.834995  0.004243  1
  Co  Co21  1  0.000000  0.000000  0.834351  1
  Co  Co22  1  0.500000  0.500000  0.702433  1
  Co  Co23  1  0.000000  0.000000  0.297157  1
  P  P24  1  0.500000  0.315651  0.618532  1
  P  P25  1  0.500000  0.684349  0.618532  1
  P  P26  1  0.000000  0.183221  0.383230  1
  P  P27  1  0.000000  0.816779  0.383230  1
  P  P28  1  0.500000  0.500000  0.879489  1
  P  P29  1  0.000000  0.000000  0.120234  1
  P  P30  1  0.500000  0.848318  0.887268  1
  P  P31  1  0.500000  0.151682  0.887268  1
  P  P32  1  0.000000  0.662377  0.108734  1
  P  P33  1  0.000000  0.337623  0.108734  1
  P  P34  1  0.500000  0.500000  0.360033  1
  P  P35  1  0.000000  0.000000  0.648419  1
