# generated using pymatgen
data_Rb5Pu4F21
_symmetry_space_group_name_H-M   'P 1'
_cell_length_a   12.02350100
_cell_length_b   8.42681211
_cell_length_c   12.33938600
_cell_angle_alpha   81.75543690
_cell_angle_beta   90.00000000
_cell_angle_gamma   90.00000000
_symmetry_Int_Tables_number   1
_chemical_formula_structural   Rb5Pu4F21
_chemical_formula_sum   'Rb10 Pu8 F42'
_cell_volume   1237.30285688
_cell_formula_units_Z   2
loop_
 _symmetry_equiv_pos_site_id
 _symmetry_equiv_pos_as_xyz
  1  'x, y, z'
loop_
 _atom_site_type_symbol
 _atom_site_label
 _atom_site_symmetry_multiplicity
 _atom_site_fract_x
 _atom_site_fract_y
 _atom_site_fract_z
 _atom_site_occupancy
  Rb  Rb0  1  0.518802  0.687762  0.105898  1
  Rb  Rb1  1  0.018802  0.312238  0.894102  1
  Rb  Rb2  1  0.489171  0.977592  0.736036  1
  Rb  Rb3  1  0.989171  0.022408  0.263964  1
  Rb  Rb4  1  0.825439  0.832616  0.909601  1
  Rb  Rb5  1  0.325439  0.167384  0.090399  1
  Rb  Rb6  1  0.642662  0.801948  0.457401  1
  Rb  Rb7  1  0.142662  0.198052  0.542599  1
  Rb  Rb8  1  0.959286  0.705358  0.614425  1
  Rb  Rb9  1  0.459286  0.294642  0.385575  1
  Pu  Pu10  1  0.836086  0.540183  0.274866  1
  Pu  Pu11  1  0.336086  0.459817  0.725134  1
  Pu  Pu12  1  0.692481  0.171571  0.095489  1
  Pu  Pu13  1  0.192481  0.828429  0.904511  1
  Pu  Pu14  1  0.660203  0.513190  0.768228  1
  Pu  Pu15  1  0.160203  0.486810  0.231772  1
  Pu  Pu16  1  0.805738  0.208421  0.592574  1
  Pu  Pu17  1  0.305738  0.791579  0.407426  1
  F  F18  1  0.880372  0.041845  0.720553  1
  F  F19  1  0.380372  0.958155  0.279447  1
  F  F20  1  0.948044  0.354381  0.608114  1
  F  F21  1  0.448044  0.645619  0.391886  1
  F  F22  1  0.899973  0.061784  0.495500  1
  F  F23  1  0.399973  0.938216  0.504500  1
  F  F24  1  0.835136  0.518826  0.810291  1
  F  F25  1  0.335136  0.481174  0.189709  1
  F  F26  1  0.653649  0.089341  0.559341  1
  F  F27  1  0.153649  0.910659  0.440659  1
  F  F28  1  0.660411  0.562489  0.293506  1
  F  F29  1  0.160411  0.437511  0.706494  1
  F  F30  1  0.709690  0.475530  0.595954  1
  F  F31  1  0.209690  0.524470  0.404046  1
  F  F32  1  0.796169  0.683410  0.122741  1
  F  F33  1  0.609243  0.663597  0.890208  1
  F  F34  1  0.860207  0.719302  0.380364  1
  F  F35  1  0.360207  0.280698  0.619636  1
  F  F36  1  0.996952  0.372883  0.311061  1
  F  F37  1  0.496952  0.627117  0.688939  1
  F  F38  1  0.104787  0.000195  0.982637  1
  F  F39  1  0.604787  0.999805  0.017363  1
  F  F40  1  0.210107  0.995866  0.759553  1
  F  F41  1  0.710107  0.004134  0.240447  1
  F  F42  1  0.004016  0.650230  0.211029  1
  F  F43  1  0.504016  0.349770  0.788971  1
  F  F44  1  0.348249  0.904437  0.964716  1
  F  F45  1  0.848249  0.095563  0.035284  1
  F  F46  1  0.215379  0.752949  0.250447  1
  F  F47  1  0.715379  0.247051  0.749553  1
  F  F48  1  0.044897  0.735006  0.839117  1
  F  F49  1  0.544897  0.264994  0.160883  1
  F  F50  1  0.302949  0.665920  0.820793  1
  F  F51  1  0.802949  0.334080  0.179207  1
  F  F52  1  0.295256  0.648164  0.579471  1
  F  F53  1  0.795256  0.351836  0.420529  1
  F  F54  1  0.211667  0.250311  0.316797  1
  F  F55  1  0.711667  0.749689  0.683203  1
  F  F56  1  0.175977  0.646514  0.047290  1
  F  F57  1  0.675977  0.353486  0.952710  1
  F  F58  1  0.296169  0.316590  0.877259  1
  F  F59  1  0.109243  0.336403  0.109792  1
