# generated using pymatgen
data_La12Ge11AsPd12
_symmetry_space_group_name_H-M   'P 1'
_cell_length_a   4.57067400
_cell_length_b   7.75400905
_cell_length_c   22.51505900
_cell_angle_alpha   89.86969167
_cell_angle_beta   90.00000000
_cell_angle_gamma   90.00000000
_symmetry_Int_Tables_number   1
_chemical_formula_structural   La12Ge11AsPd12
_chemical_formula_sum   'La12 Ge11 As1 Pd12'
_cell_volume   797.95521352
_cell_formula_units_Z   1
loop_
 _symmetry_equiv_pos_site_id
 _symmetry_equiv_pos_as_xyz
  1  'x, y, z'
loop_
 _atom_site_type_symbol
 _atom_site_label
 _atom_site_symmetry_multiplicity
 _atom_site_fract_x
 _atom_site_fract_y
 _atom_site_fract_z
 _atom_site_occupancy
  La  La0  1  0.250000  0.712281  0.333166  1
  La  La1  1  0.750000  0.288265  0.666094  1
  La  La2  1  0.750000  0.212370  0.167258  1
  La  La3  1  0.250000  0.784941  0.832341  1
  La  La4  1  0.250000  0.792494  0.166840  1
  La  La5  1  0.750000  0.210652  0.833630  1
  La  La6  1  0.750000  0.292113  0.333535  1
  La  La7  1  0.250000  0.710218  0.665517  1
  La  La8  1  0.250000  0.719909  0.002822  1
  La  La9  1  0.750000  0.284681  0.998648  1
  La  La10  1  0.750000  0.216877  0.497163  1
  La  La11  1  0.250000  0.783033  0.502528  1
  Ge  Ge12  1  0.250000  0.090605  0.069949  1
  Ge  Ge13  1  0.750000  0.912032  0.925701  1
  Ge  Ge14  1  0.750000  0.589535  0.429045  1
  Ge  Ge15  1  0.250000  0.409891  0.572067  1
  Ge  Ge16  1  0.250000  0.085510  0.270510  1
  Ge  Ge17  1  0.750000  0.914519  0.729795  1
  Ge  Ge18  1  0.750000  0.585221  0.229639  1
  Ge  Ge19  1  0.250000  0.412811  0.764777  1
  Ge  Ge20  1  0.250000  0.084940  0.395611  1
  Ge  Ge21  1  0.750000  0.914648  0.604151  1
  Ge  Ge22  1  0.750000  0.585162  0.104460  1
  As  As23  1  0.250000  0.410581  0.898291  1
  Pd  Pd24  1  0.250000  0.419217  0.238737  1
  Pd  Pd25  1  0.750000  0.578781  0.761437  1
  Pd  Pd26  1  0.750000  0.919438  0.261313  1
  Pd  Pd27  1  0.250000  0.080208  0.738951  1
  Pd  Pd28  1  0.250000  0.416790  0.433365  1
  Pd  Pd29  1  0.750000  0.582621  0.565797  1
  Pd  Pd30  1  0.750000  0.917276  0.068905  1
  Pd  Pd31  1  0.250000  0.079209  0.936684  1
  Pd  Pd32  1  0.250000  0.422040  0.093258  1
  Pd  Pd33  1  0.750000  0.581395  0.907960  1
  Pd  Pd34  1  0.750000  0.921170  0.407100  1
  Pd  Pd35  1  0.250000  0.078565  0.592954  1
