# generated using pymatgen
data_Er2Al9PtRh2
_symmetry_space_group_name_H-M   'P 1'
_cell_length_a   7.56190425
_cell_length_b   7.56190423
_cell_length_c   9.43329756
_cell_angle_alpha   89.98027892
_cell_angle_beta   89.98027724
_cell_angle_gamma   119.58588364
_symmetry_Int_Tables_number   1
_chemical_formula_structural   Er2Al9PtRh2
_chemical_formula_sum   'Er4 Al18 Pt2 Rh4'
_cell_volume   469.08721829
_cell_formula_units_Z   2
loop_
 _symmetry_equiv_pos_site_id
 _symmetry_equiv_pos_as_xyz
  1  'x, y, z'
loop_
 _atom_site_type_symbol
 _atom_site_label
 _atom_site_symmetry_multiplicity
 _atom_site_fract_x
 _atom_site_fract_y
 _atom_site_fract_z
 _atom_site_occupancy
  Er  Er0  1  0.995225  0.670008  0.750317  1
  Er  Er1  1  0.004775  0.329992  0.249683  1
  Er  Er2  1  0.670008  0.995225  0.750317  1
  Er  Er3  1  0.329992  0.004775  0.249683  1
  Al  Al4  1  0.125864  0.125864  0.750756  1
  Al  Al5  1  0.874136  0.874136  0.249244  1
  Al  Al6  1  0.000259  0.330997  0.577496  1
  Al  Al7  1  0.999741  0.669003  0.422504  1
  Al  Al8  1  0.000376  0.665324  0.074634  1
  Al  Al9  1  0.334676  0.999624  0.925366  1
  Al  Al10  1  0.999624  0.334676  0.925366  1
  Al  Al11  1  0.665324  0.000376  0.074634  1
  Al  Al12  1  0.669003  0.999741  0.422504  1
  Al  Al13  1  0.330997  0.000259  0.577496  1
  Al  Al14  1  0.332047  0.332047  0.052868  1
  Al  Al15  1  0.667953  0.667953  0.947132  1
  Al  Al16  1  0.669952  0.669952  0.556661  1
  Al  Al17  1  0.330048  0.330048  0.443339  1
  Al  Al18  1  0.339602  0.547130  0.753633  1
  Al  Al19  1  0.660398  0.452870  0.246367  1
  Al  Al20  1  0.547130  0.339602  0.753633  1
  Al  Al21  1  0.452870  0.660398  0.246367  1
  Pt  Pt22  1  0.672284  0.327716  0.500000  1
  Pt  Pt23  1  0.327716  0.672284  0.500000  1
  Rh  Rh24  1  0.327654  0.672346  0.000000  1
  Rh  Rh25  1  0.672346  0.327654  0.000000  1
  Rh  Rh26  1  0.000000  0.000000  0.500000  1
  Rh  Rh27  1  0.000000  0.000000  0.000000  1
