# generated using pymatgen
data_TbDyHoMgCd2Ga3
_symmetry_space_group_name_H-M   'P 1'
_cell_length_a   7.25450642
_cell_length_b   7.25095444
_cell_length_c   4.42643000
_cell_angle_alpha   90.00000000
_cell_angle_beta   90.00000000
_cell_angle_gamma   120.07992931
_symmetry_Int_Tables_number   1
_chemical_formula_structural   TbDyHoMgCd2Ga3
_chemical_formula_sum   'Tb1 Dy1 Ho1 Mg1 Cd2 Ga3'
_cell_volume   201.48231137
_cell_formula_units_Z   1
loop_
 _symmetry_equiv_pos_site_id
 _symmetry_equiv_pos_as_xyz
  1  'x, y, z'
loop_
 _atom_site_type_symbol
 _atom_site_label
 _atom_site_symmetry_multiplicity
 _atom_site_fract_x
 _atom_site_fract_y
 _atom_site_fract_z
 _atom_site_occupancy
  Tb  Tb0  1  0.424492  0.424360  0.500000  1
  Dy  Dy1  1  0.001619  0.573237  0.500000  1
  Ho  Ho2  1  0.573239  0.001492  0.500000  1
  Mg  Mg3  1  0.759618  0.759857  0.000000  1
  Cd  Cd4  1  0.247127  0.997954  0.000000  1
  Cd  Cd5  1  0.997915  0.246827  0.000000  1
  Ga  Ga6  1  0.665523  0.336023  0.000000  1
  Ga  Ga7  1  0.336976  0.666350  0.000000  1
  Ga  Ga8  1  0.993489  0.993900  0.500000  1
