# generated using pymatgen
data_Tm5LuHfCo17P12
_symmetry_space_group_name_H-M   'P 1'
_cell_length_a   3.68312500
_cell_length_b   10.54003603
_cell_length_c   12.21881904
_cell_angle_alpha   89.99122335
_cell_angle_beta   90.00000000
_cell_angle_gamma   90.00000000
_symmetry_Int_Tables_number   1
_chemical_formula_structural   Tm5LuHfCo17P12
_chemical_formula_sum   'Tm5 Lu1 Hf1 Co17 P12'
_cell_volume   474.33785101
_cell_formula_units_Z   1
loop_
 _symmetry_equiv_pos_site_id
 _symmetry_equiv_pos_as_xyz
  1  'x, y, z'
loop_
 _atom_site_type_symbol
 _atom_site_label
 _atom_site_symmetry_multiplicity
 _atom_site_fract_x
 _atom_site_fract_y
 _atom_site_fract_z
 _atom_site_occupancy
  Tm  Tm0  1  0.000000  0.500001  0.529417  1
  Tm  Tm1  1  0.500000  0.000000  0.476339  1
  Tm  Tm2  1  0.500000  0.822279  0.207544  1
  Tm  Tm3  1  0.000000  0.682047  0.796170  1
  Tm  Tm4  1  0.000000  0.317969  0.796153  1
  Lu  Lu5  1  0.500000  0.177812  0.207586  1
  Hf  Hf6  1  0.500000  0.499837  0.154921  1
  Co  Co7  1  0.000000  0.000001  0.835556  1
  Co  Co8  1  0.500000  0.499983  0.702799  1
  Co  Co9  1  0.000000  0.000530  0.296365  1
  Co  Co10  1  0.000000  0.499933  0.984709  1
  Co  Co11  1  0.500000  0.000161  0.013859  1
  Co  Co12  1  0.500000  0.327349  0.988966  1
  Co  Co13  1  0.500000  0.672506  0.988858  1
  Co  Co14  1  0.000000  0.161967  0.001978  1
  Co  Co15  1  0.000000  0.838129  0.001818  1
  Co  Co16  1  0.500000  0.294484  0.434395  1
  Co  Co17  1  0.500000  0.705465  0.434569  1
  Co  Co18  1  0.000000  0.201895  0.570122  1
  Co  Co19  1  0.000000  0.798130  0.570171  1
  Co  Co20  1  0.500000  0.879478  0.706847  1
  Co  Co21  1  0.500000  0.120522  0.706837  1
  Co  Co22  1  0.000000  0.623383  0.295870  1
  Co  Co23  1  0.000000  0.376193  0.295675  1
  P  P24  1  0.500000  0.500009  0.881163  1
  P  P25  1  0.000000  0.000382  0.117334  1
  P  P26  1  0.500000  0.500053  0.362682  1
  P  P27  1  0.000000  0.999990  0.652654  1
  P  P28  1  0.500000  0.310684  0.618337  1
  P  P29  1  0.500000  0.689308  0.618360  1
  P  P30  1  0.000000  0.187232  0.385471  1
  P  P31  1  0.000000  0.812728  0.385898  1
  P  P32  1  0.500000  0.851795  0.887824  1
  P  P33  1  0.500000  0.148196  0.887766  1
  P  P34  1  0.000000  0.665280  0.102320  1
  P  P35  1  0.000000  0.334290  0.102665  1
