# generated using pymatgen
data_Ho2Sc2Al17GaIr6
_symmetry_space_group_name_H-M   'P 1'
_cell_length_a   7.50751319
_cell_length_b   7.50751356
_cell_length_c   9.40261200
_cell_angle_alpha   90.00000000
_cell_angle_beta   90.00000000
_cell_angle_gamma   119.47444915
_symmetry_Int_Tables_number   1
_chemical_formula_structural   Ho2Sc2Al17GaIr6
_chemical_formula_sum   'Ho2 Sc2 Al17 Ga1 Ir6'
_cell_volume   461.36754179
_cell_formula_units_Z   1
loop_
 _symmetry_equiv_pos_site_id
 _symmetry_equiv_pos_as_xyz
  1  'x, y, z'
loop_
 _atom_site_type_symbol
 _atom_site_label
 _atom_site_symmetry_multiplicity
 _atom_site_fract_x
 _atom_site_fract_y
 _atom_site_fract_z
 _atom_site_occupancy
  Ho  Ho0  1  0.993519  0.675339  0.250000  1
  Ho  Ho1  1  0.675339  0.993519  0.250000  1
  Sc  Sc2  1  0.004055  0.326567  0.750000  1
  Sc  Sc3  1  0.326567  0.004055  0.750000  1
  Al  Al4  1  0.875763  0.875763  0.750000  1
  Al  Al5  1  0.002231  0.335912  0.069093  1
  Al  Al6  1  0.002036  0.664098  0.918621  1
  Al  Al7  1  0.002036  0.664098  0.581379  1
  Al  Al8  1  0.335912  0.002231  0.430907  1
  Al  Al9  1  0.002231  0.335912  0.430907  1
  Al  Al10  1  0.664098  0.002036  0.581379  1
  Al  Al11  1  0.664098  0.002036  0.918621  1
  Al  Al12  1  0.335912  0.002231  0.069093  1
  Al  Al13  1  0.330405  0.330405  0.563406  1
  Al  Al14  1  0.665147  0.665147  0.453566  1
  Al  Al15  1  0.665147  0.665147  0.046434  1
  Al  Al16  1  0.330405  0.330405  0.936594  1
  Al  Al17  1  0.338200  0.548862  0.250000  1
  Al  Al18  1  0.659716  0.444377  0.750000  1
  Al  Al19  1  0.548862  0.338200  0.250000  1
  Al  Al20  1  0.444377  0.659716  0.750000  1
  Ga  Ga21  1  0.136499  0.136499  0.250000  1
  Ir  Ir22  1  0.671592  0.327651  0.999613  1
  Ir  Ir23  1  0.327651  0.671592  0.999613  1
  Ir  Ir24  1  0.327651  0.671592  0.500387  1
  Ir  Ir25  1  0.671592  0.327651  0.500387  1
  Ir  Ir26  1  0.999480  0.999480  0.997108  1
  Ir  Ir27  1  0.999480  0.999480  0.502892  1
