# generated using pymatgen
data_TbZr7Ti11Si16Mo
_symmetry_space_group_name_H-M   'P 1'
_cell_length_a   6.86134418
_cell_length_b   6.86149823
_cell_length_c   12.60185072
_cell_angle_alpha   89.91838628
_cell_angle_beta   90.17386946
_cell_angle_gamma   89.90518075
_symmetry_Int_Tables_number   1
_chemical_formula_structural   TbZr7Ti11Si16Mo
_chemical_formula_sum   'Tb1 Zr7 Ti11 Si16 Mo1'
_cell_volume   593.27965206
_cell_formula_units_Z   1
loop_
 _symmetry_equiv_pos_site_id
 _symmetry_equiv_pos_as_xyz
  1  'x, y, z'
loop_
 _atom_site_type_symbol
 _atom_site_label
 _atom_site_symmetry_multiplicity
 _atom_site_fract_x
 _atom_site_fract_y
 _atom_site_fract_z
 _atom_site_occupancy
  Tb  Tb0  1  0.997021  0.661007  0.031136  1
  Zr  Zr1  1  0.343514  0.998513  0.468337  1
  Zr  Zr2  1  0.501234  0.844570  0.717612  1
  Zr  Zr3  1  0.497883  0.156223  0.218648  1
  Zr  Zr4  1  0.844197  0.500180  0.284071  1
  Zr  Zr5  1  0.157571  0.498883  0.782452  1
  Zr  Zr6  1  0.652910  0.001783  0.965516  1
  Zr  Zr7  1  0.999839  0.343305  0.532641  1
  Ti  Ti8  1  0.327926  0.325594  0.998881  1
  Ti  Ti9  1  0.171718  0.830153  0.250879  1
  Ti  Ti10  1  0.830036  0.170178  0.749183  1
  Ti  Ti11  1  0.672277  0.670863  0.499582  1
  Ti  Ti12  1  0.495204  0.653527  0.123513  1
  Ti  Ti13  1  0.503129  0.346246  0.623475  1
  Ti  Ti14  1  0.651750  0.492642  0.874406  1
  Ti  Ti15  1  0.348123  0.503652  0.379249  1
  Ti  Ti16  1  0.847952  0.996635  0.374985  1
  Ti  Ti17  1  0.003475  0.152322  0.128367  1
  Ti  Ti18  1  0.995993  0.846877  0.625282  1
  Si  Si19  1  0.206397  0.134470  0.677552  1
  Si  Si20  1  0.370228  0.707988  0.925996  1
  Si  Si21  1  0.635390  0.293710  0.427781  1
  Si  Si22  1  0.701122  0.361290  0.072071  1
  Si  Si23  1  0.295790  0.635796  0.572565  1
  Si  Si24  1  0.790884  0.868781  0.181989  1
  Si  Si25  1  0.135519  0.204805  0.323438  1
  Si  Si26  1  0.865032  0.797881  0.818332  1
  Si  Si27  1  0.295618  0.956804  0.064130  1
  Si  Si28  1  0.544079  0.793169  0.315071  1
  Si  Si29  1  0.453166  0.207459  0.812296  1
  Si  Si30  1  0.793338  0.546588  0.685133  1
  Si  Si31  1  0.208858  0.451697  0.188286  1
  Si  Si32  1  0.706897  0.045755  0.563790  1
  Si  Si33  1  0.953880  0.287421  0.935914  1
  Si  Si34  1  0.046139  0.706867  0.436125  1
  Mo  Mo35  1  0.155908  0.006367  0.871316  1
