# generated using pymatgen
data_Ce2GaRh3
_symmetry_space_group_name_H-M   'P 1'
_cell_length_a   5.15182932
_cell_length_b   5.67041009
_cell_length_c   5.67041100
_cell_angle_alpha   59.99998883
_cell_angle_beta   56.61034778
_cell_angle_gamma   56.61034991
_symmetry_Int_Tables_number   1
_chemical_formula_structural   Ce2GaRh3
_chemical_formula_sum   'Ce2 Ga1 Rh3'
_cell_volume   110.76708445
_cell_formula_units_Z   1
loop_
 _symmetry_equiv_pos_site_id
 _symmetry_equiv_pos_as_xyz
  1  'x, y, z'
loop_
 _atom_site_type_symbol
 _atom_site_label
 _atom_site_symmetry_multiplicity
 _atom_site_fract_x
 _atom_site_fract_y
 _atom_site_fract_z
 _atom_site_occupancy
  Ce  Ce0  1  0.503408  0.498864  0.498864  1
  Ce  Ce1  1  0.746592  0.751136  0.751136  1
  Ga  Ga2  1  0.625000  0.125000  0.125000  1
  Rh  Rh3  1  0.125000  0.125000  0.125000  1
  Rh  Rh4  1  0.125000  0.625000  0.125000  1
  Rh  Rh5  1  0.125000  0.125000  0.625000  1
