# generated using pymatgen
data_Hf4Sc4Co11Si16Rh
_symmetry_space_group_name_H-M   'P 1'
_cell_length_a   5.22572885
_cell_length_b   6.77833595
_cell_length_c   13.67785106
_cell_angle_alpha   90.12434638
_cell_angle_beta   90.03170534
_cell_angle_gamma   89.89859200
_symmetry_Int_Tables_number   1
_chemical_formula_structural   Hf4Sc4Co11Si16Rh
_chemical_formula_sum   'Hf4 Sc4 Co11 Si16 Rh1'
_cell_volume   484.49138958
_cell_formula_units_Z   1
loop_
 _symmetry_equiv_pos_site_id
 _symmetry_equiv_pos_as_xyz
  1  'x, y, z'
loop_
 _atom_site_type_symbol
 _atom_site_label
 _atom_site_symmetry_multiplicity
 _atom_site_fract_x
 _atom_site_fract_y
 _atom_site_fract_z
 _atom_site_occupancy
  Hf  Hf0  1  0.231031  0.599684  0.355765  1
  Hf  Hf1  1  0.731788  0.900625  0.355402  1
  Hf  Hf2  1  0.266541  0.903061  0.854416  1
  Hf  Hf3  1  0.771137  0.601143  0.852373  1
  Sc  Sc4  1  0.232879  0.398749  0.147102  1
  Sc  Sc5  1  0.728634  0.100257  0.145855  1
  Sc  Sc6  1  0.270849  0.099952  0.642465  1
  Sc  Sc7  1  0.767225  0.400551  0.642063  1
  Co  Co8  1  0.505490  0.225670  0.482159  1
  Co  Co9  1  0.772780  0.998790  0.750214  1
  Co  Co10  1  0.493721  0.221917  0.982377  1
  Co  Co11  1  0.724084  0.501160  0.252214  1
  Co  Co12  1  0.493877  0.774035  0.517697  1
  Co  Co13  1  0.005402  0.274308  0.481881  1
  Co  Co14  1  0.006524  0.724020  0.018621  1
  Co  Co15  1  0.225153  0.998206  0.252086  1
  Co  Co16  1  0.277797  0.502762  0.749962  1
  Co  Co17  1  0.506418  0.774106  0.018959  1
  Co  Co18  1  0.993490  0.725729  0.517763  1
  Si  Si19  1  0.221676  0.012568  0.071152  1
  Si  Si20  1  0.717306  0.518819  0.432673  1
  Si  Si21  1  0.783638  0.018619  0.567224  1
  Si  Si22  1  0.480509  0.752752  0.188483  1
  Si  Si23  1  0.021586  0.253496  0.805141  1
  Si  Si24  1  0.519720  0.247547  0.812578  1
  Si  Si25  1  0.217577  0.981003  0.432953  1
  Si  Si26  1  0.293636  0.525072  0.932168  1
  Si  Si27  1  0.978628  0.747017  0.188049  1
  Si  Si28  1  0.708654  0.486087  0.070446  1
  Si  Si29  1  0.282777  0.481800  0.567327  1
  Si  Si30  1  0.479779  0.246779  0.313869  1
  Si  Si31  1  0.020631  0.747685  0.686480  1
  Si  Si32  1  0.775820  0.973926  0.931518  1
  Si  Si33  1  0.519860  0.753307  0.686559  1
  Si  Si34  1  0.979393  0.253179  0.313236  1
  Rh  Rh35  1  0.993991  0.275619  0.980773  1
