# generated using pymatgen
data_GdPuF7
_symmetry_space_group_name_H-M   'P 1'
_cell_length_a   5.98896500
_cell_length_b   6.31201018
_cell_length_c   8.59800986
_cell_angle_alpha   103.11623848
_cell_angle_beta   90.00000000
_cell_angle_gamma   90.00000000
_symmetry_Int_Tables_number   1
_chemical_formula_structural   GdPuF7
_chemical_formula_sum   'Gd2 Pu2 F14'
_cell_volume   316.54611218
_cell_formula_units_Z   2
loop_
 _symmetry_equiv_pos_site_id
 _symmetry_equiv_pos_as_xyz
  1  'x, y, z'
loop_
 _atom_site_type_symbol
 _atom_site_label
 _atom_site_symmetry_multiplicity
 _atom_site_fract_x
 _atom_site_fract_y
 _atom_site_fract_z
 _atom_site_occupancy
  Gd  Gd0  1  0.699678  0.652498  0.684641  1
  Gd  Gd1  1  0.199678  0.347502  0.315359  1
  Pu  Pu2  1  0.706884  0.812308  0.226149  1
  Pu  Pu3  1  0.206884  0.187692  0.773851  1
  F  F4  1  0.909273  0.471928  0.482058  1
  F  F5  1  0.409273  0.528072  0.517942  1
  F  F6  1  0.432381  0.918244  0.765216  1
  F  F7  1  0.932381  0.081756  0.234784  1
  F  F8  1  0.943213  0.946243  0.757988  1
  F  F9  1  0.443213  0.053757  0.242012  1
  F  F10  1  0.982865  0.460477  0.788945  1
  F  F11  1  0.482865  0.539523  0.211055  1
  F  F12  1  0.697660  0.758939  0.971371  1
  F  F13  1  0.197660  0.241061  0.028629  1
  F  F14  1  0.700988  0.866388  0.482111  1
  F  F15  1  0.200988  0.133612  0.517889  1
  F  F16  1  0.503418  0.390126  0.783642  1
  F  F17  1  0.003418  0.609874  0.216358  1
