# generated using pymatgen
data_Y4Cd3GaRh4
_symmetry_space_group_name_H-M   'P 1'
_cell_length_a   4.13191800
_cell_length_b   7.11057768
_cell_length_c   8.53623451
_cell_angle_alpha   89.23082004
_cell_angle_beta   90.00000000
_cell_angle_gamma   90.00000000
_symmetry_Int_Tables_number   1
_chemical_formula_structural   Y4Cd3GaRh4
_chemical_formula_sum   'Y4 Cd3 Ga1 Rh4'
_cell_volume   250.77473548
_cell_formula_units_Z   1
loop_
 _symmetry_equiv_pos_site_id
 _symmetry_equiv_pos_as_xyz
  1  'x, y, z'
loop_
 _atom_site_type_symbol
 _atom_site_label
 _atom_site_symmetry_multiplicity
 _atom_site_fract_x
 _atom_site_fract_y
 _atom_site_fract_z
 _atom_site_occupancy
  Y  Y0  1  0.250000  0.960061  0.316001  1
  Y  Y1  1  0.250000  0.456354  0.176749  1
  Y  Y2  1  0.750000  0.038526  0.679600  1
  Y  Y3  1  0.750000  0.540263  0.825615  1
  Cd  Cd4  1  0.250000  0.357311  0.564323  1
  Cd  Cd5  1  0.250000  0.862731  0.937634  1
  Cd  Cd6  1  0.750000  0.632285  0.438156  1
  Ga  Ga7  1  0.750000  0.144821  0.060286  1
  Rh  Rh8  1  0.250000  0.252976  0.889059  1
  Rh  Rh9  1  0.250000  0.758182  0.629603  1
  Rh  Rh10  1  0.750000  0.757505  0.129662  1
  Rh  Rh11  1  0.750000  0.238985  0.353310  1
