# generated using pymatgen
data_Dy3Y6HoPb6
_symmetry_space_group_name_H-M   'P 1'
_cell_length_a   9.07158500
_cell_length_b   9.07158606
_cell_length_c   6.65900100
_cell_angle_alpha   90.00000000
_cell_angle_beta   90.00000000
_cell_angle_gamma   119.99999977
_symmetry_Int_Tables_number   1
_chemical_formula_structural   Dy3Y6HoPb6
_chemical_formula_sum   'Dy3 Y6 Ho1 Pb6'
_cell_volume   474.57637214
_cell_formula_units_Z   1
loop_
 _symmetry_equiv_pos_site_id
 _symmetry_equiv_pos_as_xyz
  1  'x, y, z'
loop_
 _atom_site_type_symbol
 _atom_site_label
 _atom_site_symmetry_multiplicity
 _atom_site_fract_x
 _atom_site_fract_y
 _atom_site_fract_z
 _atom_site_occupancy
  Dy  Dy0  1  0.333333  0.666667  0.000000  1
  Dy  Dy1  1  0.666667  0.333333  0.500000  1
  Dy  Dy2  1  0.666667  0.333333  0.000000  1
  Y  Y3  1  0.237992  0.999968  0.250028  1
  Y  Y4  1  0.237992  0.238025  0.749972  1
  Y  Y5  1  0.000032  0.762008  0.749972  1
  Y  Y6  1  0.000032  0.238025  0.250028  1
  Y  Y7  1  0.761975  0.762008  0.250028  1
  Y  Y8  1  0.761975  0.999968  0.749972  1
  Ho  Ho9  1  0.333333  0.666667  0.500000  1
  Pb  Pb10  1  0.604745  0.999892  0.250088  1
  Pb  Pb11  1  0.604745  0.604853  0.749912  1
  Pb  Pb12  1  0.000108  0.395255  0.749912  1
  Pb  Pb13  1  0.000108  0.604853  0.250088  1
  Pb  Pb14  1  0.395147  0.395255  0.250088  1
  Pb  Pb15  1  0.395147  0.999892  0.749912  1
