# generated using pymatgen
data_TiBe(BW)3
_symmetry_space_group_name_H-M   'P 1'
_cell_length_a   3.12909400
_cell_length_b   3.21021600
_cell_length_c   8.51813300
_cell_angle_alpha   90.00000000
_cell_angle_beta   90.00000000
_cell_angle_gamma   90.00000000
_symmetry_Int_Tables_number   1
_chemical_formula_structural   TiBe(BW)3
_chemical_formula_sum   'Ti1 Be1 B3 W3'
_cell_volume   85.56522202
_cell_formula_units_Z   1
loop_
 _symmetry_equiv_pos_site_id
 _symmetry_equiv_pos_as_xyz
  1  'x, y, z'
loop_
 _atom_site_type_symbol
 _atom_site_label
 _atom_site_symmetry_multiplicity
 _atom_site_fract_x
 _atom_site_fract_y
 _atom_site_fract_z
 _atom_site_occupancy
  Ti  Ti0  1  0.000000  0.000000  0.144338  1
  Be  Be1  1  0.500000  0.000000  0.562406  1
  B  B2  1  0.000000  0.000000  0.430653  1
  B  B3  1  0.000000  0.500000  0.941901  1
  B  B4  1  0.500000  0.500000  0.063426  1
  W  W5  1  0.000000  0.500000  0.651307  1
  W  W6  1  0.500000  0.500000  0.349677  1
  W  W7  1  0.500000  0.000000  0.856293  1
