# generated using pymatgen
data_Y4Zn3GaPd4
_symmetry_space_group_name_H-M   'P 1'
_cell_length_a   4.33167800
_cell_length_b   6.98926018
_cell_length_c   7.94676961
_cell_angle_alpha   89.11589542
_cell_angle_beta   90.00000000
_cell_angle_gamma   90.00000000
_symmetry_Int_Tables_number   1
_chemical_formula_structural   Y4Zn3GaPd4
_chemical_formula_sum   'Y4 Zn3 Ga1 Pd4'
_cell_volume   240.56159274
_cell_formula_units_Z   1
loop_
 _symmetry_equiv_pos_site_id
 _symmetry_equiv_pos_as_xyz
  1  'x, y, z'
loop_
 _atom_site_type_symbol
 _atom_site_label
 _atom_site_symmetry_multiplicity
 _atom_site_fract_x
 _atom_site_fract_y
 _atom_site_fract_z
 _atom_site_occupancy
  Y  Y0  1  0.250000  0.029233  0.309977  1
  Y  Y1  1  0.250000  0.532323  0.189608  1
  Y  Y2  1  0.750000  0.970131  0.691630  1
  Y  Y3  1  0.750000  0.469152  0.809367  1
  Zn  Zn4  1  0.250000  0.149566  0.933077  1
  Zn  Zn5  1  0.750000  0.345162  0.431293  1
  Zn  Zn6  1  0.750000  0.846742  0.067814  1
  Ga  Ga7  1  0.250000  0.654494  0.566418  1
  Pd  Pd8  1  0.250000  0.271457  0.612470  1
  Pd  Pd9  1  0.250000  0.763712  0.883230  1
  Pd  Pd10  1  0.750000  0.733610  0.390967  1
  Pd  Pd11  1  0.750000  0.234419  0.114150  1
