# generated using pymatgen
data_Gd2Th6TiS17
_symmetry_space_group_name_H-M   'P 1'
_cell_length_a   8.03144341
_cell_length_b   8.03144385
_cell_length_c   10.64952500
_cell_angle_alpha   80.82658518
_cell_angle_beta   80.82658468
_cell_angle_gamma   65.47971926
_symmetry_Int_Tables_number   1
_chemical_formula_structural   Gd2Th6TiS17
_chemical_formula_sum   'Gd2 Th6 Ti1 S17'
_cell_volume   613.65767085
_cell_formula_units_Z   1
loop_
 _symmetry_equiv_pos_site_id
 _symmetry_equiv_pos_as_xyz
  1  'x, y, z'
loop_
 _atom_site_type_symbol
 _atom_site_label
 _atom_site_symmetry_multiplicity
 _atom_site_fract_x
 _atom_site_fract_y
 _atom_site_fract_z
 _atom_site_occupancy
  Gd  Gd0  1  0.812814  0.303578  0.296835  1
  Gd  Gd1  1  0.303578  0.812814  0.296835  1
  Th  Th2  1  0.186471  0.698071  0.701101  1
  Th  Th3  1  0.698071  0.186471  0.701101  1
  Th  Th4  1  0.205720  0.205720  0.539002  1
  Th  Th5  1  0.793283  0.793283  0.455163  1
  Th  Th6  1  0.680610  0.680610  0.982518  1
  Th  Th7  1  0.319835  0.319835  0.025089  1
  Ti  Ti8  1  0.004841  0.004841  0.006770  1
  S  S9  1  0.823438  0.429326  0.534186  1
  S  S10  1  0.429326  0.823438  0.534186  1
  S  S11  1  0.175306  0.571236  0.467431  1
  S  S12  1  0.571236  0.175306  0.467431  1
  S  S13  1  0.942302  0.319887  0.024862  1
  S  S14  1  0.319887  0.942302  0.024862  1
  S  S15  1  0.058398  0.680664  0.972166  1
  S  S16  1  0.680664  0.058398  0.972166  1
  S  S17  1  0.206960  0.206960  0.276167  1
  S  S18  1  0.790661  0.790661  0.724327  1
  S  S19  1  0.057475  0.057475  0.776395  1
  S  S20  1  0.941455  0.941455  0.224078  1
  S  S21  1  0.302697  0.302697  0.755754  1
  S  S22  1  0.695636  0.695636  0.243973  1
  S  S23  1  0.519458  0.519458  0.832443  1
  S  S24  1  0.481806  0.481806  0.162351  1
  S  S25  1  0.998074  0.998074  0.502810  1
