# generated using pymatgen
data_Pr4Er6Ga3Sn5
_symmetry_space_group_name_H-M   'P 1'
_cell_length_a   7.79830000
_cell_length_b   8.25573500
_cell_length_c   15.53460800
_cell_angle_alpha   90.00000000
_cell_angle_beta   90.00000000
_cell_angle_gamma   90.00000000
_symmetry_Int_Tables_number   1
_chemical_formula_structural   Pr4Er6Ga3Sn5
_chemical_formula_sum   'Pr8 Er12 Ga6 Sn10'
_cell_volume   1000.12891009
_cell_formula_units_Z   2
loop_
 _symmetry_equiv_pos_site_id
 _symmetry_equiv_pos_as_xyz
  1  'x, y, z'
loop_
 _atom_site_type_symbol
 _atom_site_label
 _atom_site_symmetry_multiplicity
 _atom_site_fract_x
 _atom_site_fract_y
 _atom_site_fract_z
 _atom_site_occupancy
  Pr  Pr0  1  0.503425  0.317312  0.899425  1
  Pr  Pr1  1  0.003425  0.182688  0.600575  1
  Pr  Pr2  1  0.496710  0.677940  0.405073  1
  Pr  Pr3  1  0.996710  0.822060  0.094927  1
  Pr  Pr4  1  0.496710  0.677940  0.094927  1
  Pr  Pr5  1  0.996710  0.822060  0.405073  1
  Pr  Pr6  1  0.503425  0.317312  0.600575  1
  Pr  Pr7  1  0.003425  0.182688  0.899425  1
  Er  Er8  1  0.343498  0.830432  0.867653  1
  Er  Er9  1  0.843498  0.669568  0.632347  1
  Er  Er10  1  0.656990  0.173119  0.372488  1
  Er  Er11  1  0.156990  0.326881  0.127512  1
  Er  Er12  1  0.656990  0.173119  0.127512  1
  Er  Er13  1  0.156990  0.326881  0.372488  1
  Er  Er14  1  0.343498  0.830432  0.632347  1
  Er  Er15  1  0.843498  0.669568  0.867653  1
  Er  Er16  1  0.189900  0.489488  0.750000  1
  Er  Er17  1  0.689900  0.010512  0.750000  1
  Er  Er18  1  0.807696  0.496701  0.250000  1
  Er  Er19  1  0.307696  0.003299  0.250000  1
  Ga  Ga20  1  0.548899  0.612404  0.750000  1
  Ga  Ga21  1  0.048899  0.887596  0.750000  1
  Ga  Ga22  1  0.452408  0.374616  0.250000  1
  Ga  Ga23  1  0.952408  0.125384  0.250000  1
  Ga  Ga24  1  0.298232  0.125911  0.750000  1
  Ga  Ga25  1  0.798232  0.374089  0.750000  1
  Sn  Sn26  1  0.321776  0.038875  0.037146  1
  Sn  Sn27  1  0.821776  0.461125  0.462854  1
  Sn  Sn28  1  0.680758  0.958834  0.539777  1
  Sn  Sn29  1  0.180758  0.541166  0.960223  1
  Sn  Sn30  1  0.680758  0.958834  0.960223  1
  Sn  Sn31  1  0.180758  0.541166  0.539777  1
  Sn  Sn32  1  0.321776  0.038875  0.462854  1
  Sn  Sn33  1  0.821776  0.461125  0.037146  1
  Sn  Sn34  1  0.696551  0.868705  0.250000  1
  Sn  Sn35  1  0.196551  0.631295  0.250000  1
