# generated using pymatgen
data_SrPa(AgBi2)2
_symmetry_space_group_name_H-M   'P 1'
_cell_length_a   4.67882000
_cell_length_b   4.67882000
_cell_length_c   10.64233600
_cell_angle_alpha   90.00000000
_cell_angle_beta   90.00000000
_cell_angle_gamma   90.00000000
_symmetry_Int_Tables_number   1
_chemical_formula_structural   SrPa(AgBi2)2
_chemical_formula_sum   'Sr1 Pa1 Ag2 Bi4'
_cell_volume   232.97517235
_cell_formula_units_Z   1
loop_
 _symmetry_equiv_pos_site_id
 _symmetry_equiv_pos_as_xyz
  1  'x, y, z'
loop_
 _atom_site_type_symbol
 _atom_site_label
 _atom_site_symmetry_multiplicity
 _atom_site_fract_x
 _atom_site_fract_y
 _atom_site_fract_z
 _atom_site_occupancy
  Sr  Sr0  1  0.500000  0.000000  0.747009  1
  Pa  Pa1  1  0.000000  0.500000  0.240585  1
  Ag  Ag2  1  0.000000  0.000000  0.009880  1
  Ag  Ag3  1  0.500000  0.500000  0.009880  1
  Bi  Bi4  1  0.000000  0.500000  0.842501  1
  Bi  Bi5  1  0.500000  0.000000  0.197422  1
  Bi  Bi6  1  0.000000  0.000000  0.476360  1
  Bi  Bi7  1  0.500000  0.500000  0.476360  1
