# generated using pymatgen
data_Lu4CrB12Ir
_symmetry_space_group_name_H-M   'P 1'
_cell_length_a   3.54689300
_cell_length_b   9.04031455
_cell_length_c   11.41324836
_cell_angle_alpha   89.83503199
_cell_angle_beta   90.00000000
_cell_angle_gamma   90.00000000
_symmetry_Int_Tables_number   1
_chemical_formula_structural   Lu4CrB12Ir
_chemical_formula_sum   'Lu8 Cr2 B24 Ir2'
_cell_volume   365.96461584
_cell_formula_units_Z   2
loop_
 _symmetry_equiv_pos_site_id
 _symmetry_equiv_pos_as_xyz
  1  'x, y, z'
loop_
 _atom_site_type_symbol
 _atom_site_label
 _atom_site_symmetry_multiplicity
 _atom_site_fract_x
 _atom_site_fract_y
 _atom_site_fract_z
 _atom_site_occupancy
  Lu  Lu0  1  0.000000  0.326251  0.417771  1
  Lu  Lu1  1  0.000000  0.673749  0.582229  1
  Lu  Lu2  1  0.000000  0.815340  0.089513  1
  Lu  Lu3  1  0.000000  0.184660  0.910487  1
  Lu  Lu4  1  0.000000  0.940087  0.373902  1
  Lu  Lu5  1  0.000000  0.059913  0.626098  1
  Lu  Lu6  1  0.000000  0.447342  0.128871  1
  Lu  Lu7  1  0.000000  0.552658  0.871129  1
  Cr  Cr8  1  0.000000  0.639289  0.318772  1
  Cr  Cr9  1  0.000000  0.360711  0.681228  1
  B  B10  1  0.500000  0.552771  0.433208  1
  B  B11  1  0.500000  0.447229  0.566792  1
  B  B12  1  0.500000  0.053492  0.065498  1
  B  B13  1  0.500000  0.946508  0.934502  1
  B  B14  1  0.500000  0.747560  0.419696  1
  B  B15  1  0.500000  0.252440  0.580304  1
  B  B16  1  0.500000  0.251075  0.078723  1
  B  B17  1  0.500000  0.748925  0.921277  1
  B  B18  1  0.500000  0.792468  0.265254  1
  B  B19  1  0.500000  0.207532  0.734746  1
  B  B20  1  0.500000  0.292811  0.235795  1
  B  B21  1  0.500000  0.707189  0.764205  1
  B  B22  1  0.500000  0.631434  0.184775  1
  B  B23  1  0.500000  0.368566  0.815225  1
  B  B24  1  0.500000  0.131072  0.317014  1
  B  B25  1  0.500000  0.868928  0.682986  1
  B  B26  1  0.500000  0.980051  0.213002  1
  B  B27  1  0.500000  0.019949  0.786998  1
  B  B28  1  0.500000  0.481781  0.287920  1
  B  B29  1  0.500000  0.518219  0.712080  1
  B  B30  1  0.500000  0.605883  0.028499  1
  B  B31  1  0.500000  0.394117  0.971501  1
  B  B32  1  0.500000  0.105925  0.470436  1
  B  B33  1  0.500000  0.894075  0.529564  1
  Ir  Ir34  1  0.000000  0.137409  0.178162  1
  Ir  Ir35  1  0.000000  0.862591  0.821838  1
