# generated using pymatgen
data_Dy2ErNiSn3Pt2
_symmetry_space_group_name_H-M   'P 1'
_cell_length_a   7.57080823
_cell_length_b   7.58292502
_cell_length_c   3.83864400
_cell_angle_alpha   90.00000000
_cell_angle_beta   90.00000000
_cell_angle_gamma   120.05295632
_symmetry_Int_Tables_number   1
_chemical_formula_structural   Dy2ErNiSn3Pt2
_chemical_formula_sum   'Dy2 Er1 Ni1 Sn3 Pt2'
_cell_volume   190.74601758
_cell_formula_units_Z   1
loop_
 _symmetry_equiv_pos_site_id
 _symmetry_equiv_pos_as_xyz
  1  'x, y, z'
loop_
 _atom_site_type_symbol
 _atom_site_label
 _atom_site_symmetry_multiplicity
 _atom_site_fract_x
 _atom_site_fract_y
 _atom_site_fract_z
 _atom_site_occupancy
  Dy  Dy0  1  0.404085  0.403847  0.500000  1
  Dy  Dy1  1  0.595915  0.999762  0.500000  1
  Er  Er2  1  0.000000  0.596271  0.500000  1
  Ni  Ni3  1  0.000000  0.999326  0.500000  1
  Sn  Sn4  1  0.749796  0.749573  0.000000  1
  Sn  Sn5  1  0.250204  0.999777  0.000000  1
  Sn  Sn6  1  0.000000  0.250417  0.000000  1
  Pt  Pt7  1  0.669301  0.335164  0.000000  1
  Pt  Pt8  1  0.330699  0.665864  0.000000  1
