# generated using pymatgen
data_Sc2SiRh5
_symmetry_space_group_name_H-M   'P 1'
_cell_length_a   4.08786100
_cell_length_b   5.47282900
_cell_length_c   10.69066700
_cell_angle_alpha   90.00000000
_cell_angle_beta   90.00000000
_cell_angle_gamma   90.00000000
_symmetry_Int_Tables_number   1
_chemical_formula_structural   Sc2SiRh5
_chemical_formula_sum   'Sc4 Si2 Rh10'
_cell_volume   239.17335784
_cell_formula_units_Z   2
loop_
 _symmetry_equiv_pos_site_id
 _symmetry_equiv_pos_as_xyz
  1  'x, y, z'
loop_
 _atom_site_type_symbol
 _atom_site_label
 _atom_site_symmetry_multiplicity
 _atom_site_fract_x
 _atom_site_fract_y
 _atom_site_fract_z
 _atom_site_occupancy
  Sc  Sc0  1  0.500000  0.166210  0.640867  1
  Sc  Sc1  1  0.500000  0.833790  0.359133  1
  Sc  Sc2  1  0.500000  0.666210  0.859133  1
  Sc  Sc3  1  0.500000  0.333790  0.140867  1
  Si  Si4  1  0.000000  0.500000  0.500000  1
  Si  Si5  1  0.000000  0.000000  0.000000  1
  Rh  Rh6  1  0.500000  0.326739  0.397214  1
  Rh  Rh7  1  0.500000  0.673261  0.602786  1
  Rh  Rh8  1  0.500000  0.826739  0.102786  1
  Rh  Rh9  1  0.500000  0.173261  0.897214  1
  Rh  Rh10  1  0.000000  0.417953  0.738195  1
  Rh  Rh11  1  0.000000  0.582047  0.261805  1
  Rh  Rh12  1  0.000000  0.917953  0.761805  1
  Rh  Rh13  1  0.000000  0.082047  0.238195  1
  Rh  Rh14  1  0.000000  0.500000  0.000000  1
  Rh  Rh15  1  0.000000  0.000000  0.500000  1
