# generated using pymatgen
data_Ac19Si16Hg
_symmetry_space_group_name_H-M   'P 1'
_cell_length_a   8.29642393
_cell_length_b   8.29642429
_cell_length_c   16.22184165
_cell_angle_alpha   90.10409455
_cell_angle_beta   89.89590598
_cell_angle_gamma   90.13497649
_symmetry_Int_Tables_number   1
_chemical_formula_structural   Ac19Si16Hg
_chemical_formula_sum   'Ac19 Si16 Hg1'
_cell_volume   1116.55317921
_cell_formula_units_Z   1
loop_
 _symmetry_equiv_pos_site_id
 _symmetry_equiv_pos_as_xyz
  1  'x, y, z'
loop_
 _atom_site_type_symbol
 _atom_site_label
 _atom_site_symmetry_multiplicity
 _atom_site_fract_x
 _atom_site_fract_y
 _atom_site_fract_z
 _atom_site_occupancy
  Ac  Ac0  1  0.191300  0.809973  0.250548  1
  Ac  Ac1  1  0.809973  0.191300  0.749452  1
  Ac  Ac2  1  0.694361  0.694361  0.500000  1
  Ac  Ac3  1  0.382628  0.015461  0.446009  1
  Ac  Ac4  1  0.487365  0.876001  0.699537  1
  Ac  Ac5  1  0.506458  0.118652  0.187322  1
  Ac  Ac6  1  0.876001  0.487365  0.300463  1
  Ac  Ac7  1  0.118652  0.506458  0.812678  1
  Ac  Ac8  1  0.609493  0.997145  0.947505  1
  Ac  Ac9  1  0.015461  0.382628  0.553991  1
  Ac  Ac10  1  0.997145  0.609493  0.052495  1
  Ac  Ac11  1  0.130196  0.989700  0.882049  1
  Ac  Ac12  1  0.516377  0.614928  0.124978  1
  Ac  Ac13  1  0.473719  0.380340  0.626991  1
  Ac  Ac14  1  0.614928  0.516377  0.875022  1
  Ac  Ac15  1  0.380340  0.473719  0.373009  1
  Ac  Ac16  1  0.872794  0.027247  0.374595  1
  Ac  Ac17  1  0.989700  0.130196  0.117951  1
  Ac  Ac18  1  0.027247  0.872794  0.625405  1
  Si  Si19  1  0.195574  0.173319  0.709978  1
  Si  Si20  1  0.334976  0.707407  0.954646  1
  Si  Si21  1  0.673450  0.304662  0.460161  1
  Si  Si22  1  0.707407  0.334976  0.045354  1
  Si  Si23  1  0.304662  0.673450  0.539839  1
  Si  Si24  1  0.803435  0.830538  0.202221  1
  Si  Si25  1  0.173319  0.195574  0.290022  1
  Si  Si26  1  0.830538  0.803435  0.797779  1
  Si  Si27  1  0.283221  0.895298  0.063484  1
  Si  Si28  1  0.584113  0.790845  0.305277  1
  Si  Si29  1  0.422852  0.206775  0.804782  1
  Si  Si30  1  0.790845  0.584113  0.694723  1
  Si  Si31  1  0.206775  0.422852  0.195218  1
  Si  Si32  1  0.708827  0.080269  0.560514  1
  Si  Si33  1  0.895298  0.283221  0.936516  1
  Si  Si34  1  0.080269  0.708827  0.439486  1
  Hg  Hg35  1  0.310303  0.310303  0.000000  1
