# generated using pymatgen
data_YLu(NiAs)2
_symmetry_space_group_name_H-M   'P 1'
_cell_length_a   4.01372500
_cell_length_b   4.01372405
_cell_length_c   15.40863700
_cell_angle_alpha   90.00000000
_cell_angle_beta   90.00000000
_cell_angle_gamma   119.99999963
_symmetry_Int_Tables_number   1
_chemical_formula_structural   YLu(NiAs)2
_chemical_formula_sum   'Y2 Lu2 Ni4 As4'
_cell_volume   214.97600164
_cell_formula_units_Z   2
loop_
 _symmetry_equiv_pos_site_id
 _symmetry_equiv_pos_as_xyz
  1  'x, y, z'
loop_
 _atom_site_type_symbol
 _atom_site_label
 _atom_site_symmetry_multiplicity
 _atom_site_fract_x
 _atom_site_fract_y
 _atom_site_fract_z
 _atom_site_occupancy
  Y  Y0  1  0.000000  0.000000  0.000000  1
  Y  Y1  1  0.000000  0.000000  0.500000  1
  Lu  Lu2  1  0.000000  0.000000  0.250000  1
  Lu  Lu3  1  0.000000  0.000000  0.750000  1
  Ni  Ni4  1  0.333333  0.666667  0.138112  1
  Ni  Ni5  1  0.666667  0.333333  0.861888  1
  Ni  Ni6  1  0.666667  0.333333  0.638112  1
  Ni  Ni7  1  0.333333  0.666667  0.361888  1
  As  As8  1  0.333333  0.666667  0.622037  1
  As  As9  1  0.666667  0.333333  0.377963  1
  As  As10  1  0.666667  0.333333  0.122037  1
  As  As11  1  0.333333  0.666667  0.877963  1
