# generated using pymatgen
data_AgBiRu4(PbO7)2
_symmetry_space_group_name_H-M   'P 1'
_cell_length_a   7.34865690
_cell_length_b   7.38017802
_cell_length_c   7.27700337
_cell_angle_alpha   59.76145230
_cell_angle_beta   59.67373826
_cell_angle_gamma   60.14118906
_symmetry_Int_Tables_number   1
_chemical_formula_structural   AgBiRu4(PbO7)2
_chemical_formula_sum   'Ag1 Bi1 Ru4 Pb2 O14'
_cell_volume   278.16474017
_cell_formula_units_Z   1
loop_
 _symmetry_equiv_pos_site_id
 _symmetry_equiv_pos_as_xyz
  1  'x, y, z'
loop_
 _atom_site_type_symbol
 _atom_site_label
 _atom_site_symmetry_multiplicity
 _atom_site_fract_x
 _atom_site_fract_y
 _atom_site_fract_z
 _atom_site_occupancy
  Ag  Ag0  1  0.125000  0.125000  0.625000  1
  Bi  Bi1  1  0.125000  0.625000  0.125000  1
  Ru  Ru2  1  0.625000  0.625000  0.125000  1
  Ru  Ru3  1  0.625000  0.125000  0.625000  1
  Ru  Ru4  1  0.125000  0.625000  0.625000  1
  Ru  Ru5  1  0.625000  0.625000  0.625000  1
  Pb  Pb6  1  0.625000  0.125000  0.125000  1
  Pb  Pb7  1  0.125000  0.125000  0.125000  1
  O  O8  1  0.237182  0.251043  0.274592  1
  O  O9  1  0.012818  0.998957  0.975408  1
  O  O10  1  0.563499  0.941113  0.552059  1
  O  O11  1  0.299062  0.696842  0.296696  1
  O  O12  1  0.542600  0.553158  0.953304  1
  O  O13  1  0.945547  0.565875  0.543031  1
  O  O14  1  0.549960  0.947782  0.952297  1
  O  O15  1  0.943329  0.941113  0.552059  1
  O  O16  1  0.950938  0.553158  0.953304  1
  O  O17  1  0.700040  0.302218  0.297703  1
  O  O18  1  0.304453  0.684125  0.706969  1
  O  O19  1  0.686501  0.308887  0.697941  1
  O  O20  1  0.306671  0.308887  0.697941  1
  O  O21  1  0.707400  0.696842  0.296696  1
