# generated using pymatgen
data_TaAl4Zn3Rh8
_symmetry_space_group_name_H-M   'P 1'
_cell_length_a   6.08515100
_cell_length_b   6.08346500
_cell_length_c   6.07802200
_cell_angle_alpha   90.00000000
_cell_angle_beta   89.99854914
_cell_angle_gamma   90.00000000
_symmetry_Int_Tables_number   1
_chemical_formula_structural   TaAl4Zn3Rh8
_chemical_formula_sum   'Ta1 Al4 Zn3 Rh8'
_cell_volume   225.00109979
_cell_formula_units_Z   1
loop_
 _symmetry_equiv_pos_site_id
 _symmetry_equiv_pos_as_xyz
  1  'x, y, z'
loop_
 _atom_site_type_symbol
 _atom_site_label
 _atom_site_symmetry_multiplicity
 _atom_site_fract_x
 _atom_site_fract_y
 _atom_site_fract_z
 _atom_site_occupancy
  Ta  Ta0  1  0.249830  0.250000  0.999997  1
  Al  Al1  1  0.750221  0.250000  0.000003  1
  Al  Al2  1  0.249755  0.750001  0.000001  1
  Al  Al3  1  0.250262  0.750001  0.499990  1
  Al  Al4  1  0.749733  0.250000  0.500004  1
  Zn  Zn5  1  0.750194  0.750001  0.999999  1
  Zn  Zn6  1  0.250197  0.250000  0.499988  1
  Zn  Zn7  1  0.749801  0.750001  0.500014  1
  Rh  Rh8  1  0.500522  0.999468  0.250387  1
  Rh  Rh9  1  0.500522  0.500534  0.250387  1
  Rh  Rh10  1  0.999472  0.999473  0.250680  1
  Rh  Rh11  1  0.999472  0.500526  0.250680  1
  Rh  Rh12  1  0.999477  0.999476  0.749324  1
  Rh  Rh13  1  0.999477  0.500524  0.749324  1
  Rh  Rh14  1  0.500531  0.999466  0.749612  1
  Rh  Rh15  1  0.500531  0.500531  0.749612  1
