# generated using pymatgen
data_La2Yb6SbPd24
_symmetry_space_group_name_H-M   'P 1'
_cell_length_a   8.41042471
_cell_length_b   8.45291600
_cell_length_c   8.41042471
_cell_angle_alpha   90.00000000
_cell_angle_beta   90.16490274
_cell_angle_gamma   90.00000000
_symmetry_Int_Tables_number   1
_chemical_formula_structural   La2Yb6SbPd24
_chemical_formula_sum   'La2 Yb6 Sb1 Pd24'
_cell_volume   597.91659746
_cell_formula_units_Z   1
loop_
 _symmetry_equiv_pos_site_id
 _symmetry_equiv_pos_as_xyz
  1  'x, y, z'
loop_
 _atom_site_type_symbol
 _atom_site_label
 _atom_site_symmetry_multiplicity
 _atom_site_fract_x
 _atom_site_fract_y
 _atom_site_fract_z
 _atom_site_occupancy
  La  La0  1  0.253942  0.745028  0.253942  1
  La  La1  1  0.253942  0.254972  0.253942  1
  Yb  Yb2  1  0.747741  0.748656  0.252364  1
  Yb  Yb3  1  0.747780  0.253793  0.747780  1
  Yb  Yb4  1  0.252364  0.748656  0.747741  1
  Yb  Yb5  1  0.747780  0.746207  0.747780  1
  Yb  Yb6  1  0.747741  0.251344  0.252364  1
  Yb  Yb7  1  0.252364  0.251344  0.747741  1
  Sb  Sb8  1  0.998208  0.000000  0.998208  1
  Pd  Pd9  1  0.993911  0.000000  0.312920  1
  Pd  Pd10  1  0.732886  0.000000  0.501101  1
  Pd  Pd11  1  0.732824  0.500000  0.002076  1
  Pd  Pd12  1  0.501101  0.000000  0.732886  1
  Pd  Pd13  1  0.996261  0.733104  0.502414  1
  Pd  Pd14  1  0.504534  0.000000  0.266707  1
  Pd  Pd15  1  0.996261  0.266896  0.502414  1
  Pd  Pd16  1  0.502414  0.733104  0.996261  1
  Pd  Pd17  1  0.255862  0.500000  0.507049  1
  Pd  Pd18  1  0.499723  0.500000  0.744743  1
  Pd  Pd19  1  0.507049  0.500000  0.255862  1
  Pd  Pd20  1  0.503331  0.255453  0.503331  1
  Pd  Pd21  1  0.503331  0.744547  0.503331  1
  Pd  Pd22  1  0.744743  0.500000  0.499723  1
  Pd  Pd23  1  0.312920  0.000000  0.993911  1
  Pd  Pd24  1  0.000233  0.000000  0.688423  1
  Pd  Pd25  1  0.991210  0.500000  0.265948  1
  Pd  Pd26  1  0.996989  0.311634  0.996989  1
  Pd  Pd27  1  0.996989  0.688366  0.996989  1
  Pd  Pd28  1  0.688423  0.000000  0.000233  1
  Pd  Pd29  1  0.265948  0.500000  0.991210  1
  Pd  Pd30  1  0.266707  0.000000  0.504534  1
  Pd  Pd31  1  0.002076  0.500000  0.732824  1
  Pd  Pd32  1  0.502414  0.266896  0.996261  1
