# generated using pymatgen
data_Na10TiSnAs6
_symmetry_space_group_name_H-M   'P 1'
_cell_length_a   7.62871800
_cell_length_b   8.50127966
_cell_length_c   16.11254410
_cell_angle_alpha   57.80061344
_cell_angle_beta   90.00000000
_cell_angle_gamma   90.00000000
_symmetry_Int_Tables_number   1
_chemical_formula_structural   Na10TiSnAs6
_chemical_formula_sum   'Na20 Ti2 Sn2 As12'
_cell_volume   884.24461805
_cell_formula_units_Z   2
loop_
 _symmetry_equiv_pos_site_id
 _symmetry_equiv_pos_as_xyz
  1  'x, y, z'
loop_
 _atom_site_type_symbol
 _atom_site_label
 _atom_site_symmetry_multiplicity
 _atom_site_fract_x
 _atom_site_fract_y
 _atom_site_fract_z
 _atom_site_occupancy
  Na  Na0  1  0.161985  0.995645  0.579287  1
  Na  Na1  1  0.493460  0.912326  0.758230  1
  Na  Na2  1  0.993460  0.087674  0.741770  1
  Na  Na3  1  0.509120  0.083917  0.240902  1
  Na  Na4  1  0.009120  0.916083  0.259098  1
  Na  Na5  1  0.034754  0.590937  0.586149  1
  Na  Na6  1  0.534754  0.409063  0.913851  1
  Na  Na7  1  0.959899  0.416628  0.413115  1
  Na  Na8  1  0.459899  0.583372  0.086885  1
  Na  Na9  1  0.524033  0.747409  0.585992  1
  Na  Na10  1  0.024033  0.252591  0.914008  1
  Na  Na11  1  0.481302  0.258768  0.409795  1
  Na  Na12  1  0.855741  0.687405  0.744180  1
  Na  Na13  1  0.355741  0.312595  0.755820  1
  Na  Na14  1  0.146221  0.315238  0.260656  1
  Na  Na15  1  0.646221  0.684762  0.239344  1
  Na  Na16  1  0.843302  0.010873  0.415032  1
  Na  Na17  1  0.343302  0.989127  0.084968  1
  Na  Na18  1  0.661985  0.004355  0.920713  1
  Na  Na19  1  0.981302  0.741232  0.090205  1
  Ti  Ti20  1  0.860509  0.349006  0.083323  1
  Ti  Ti21  1  0.360509  0.650994  0.416677  1
  Sn  Sn22  1  0.138294  0.651971  0.916050  1
  Sn  Sn23  1  0.638294  0.348029  0.583950  1
  As  As24  1  0.764081  0.362156  0.227289  1
  As  As25  1  0.693850  0.680384  0.420416  1
  As  As26  1  0.193850  0.319616  0.079584  1
  As  As27  1  0.284144  0.337514  0.567943  1
  As  As28  1  0.784144  0.662486  0.932057  1
  As  As29  1  0.765315  0.061896  0.579643  1
  As  As30  1  0.265315  0.938104  0.920357  1
  As  As31  1  0.241002  0.923139  0.418818  1
  As  As32  1  0.741002  0.076861  0.081182  1
  As  As33  1  0.742987  0.366071  0.735184  1
  As  As34  1  0.242987  0.633929  0.764816  1
  As  As35  1  0.264081  0.637844  0.272711  1
