# generated using pymatgen
data_Dy4Y4Ti11NbSi16
_symmetry_space_group_name_H-M   'P 1'
_cell_length_a   7.05930265
_cell_length_b   7.05948229
_cell_length_c   12.98562573
_cell_angle_alpha   90.02702579
_cell_angle_beta   89.97478970
_cell_angle_gamma   90.02177869
_symmetry_Int_Tables_number   1
_chemical_formula_structural   Dy4Y4Ti11NbSi16
_chemical_formula_sum   'Dy4 Y4 Ti11 Nb1 Si16'
_cell_volume   647.13876370
_cell_formula_units_Z   1
loop_
 _symmetry_equiv_pos_site_id
 _symmetry_equiv_pos_as_xyz
  1  'x, y, z'
loop_
 _atom_site_type_symbol
 _atom_site_label
 _atom_site_symmetry_multiplicity
 _atom_site_fract_x
 _atom_site_fract_y
 _atom_site_fract_z
 _atom_site_occupancy
  Dy  Dy0  1  0.840566  0.497866  0.283610  1
  Dy  Dy1  1  0.502576  0.160044  0.216790  1
  Dy  Dy2  1  0.497921  0.840670  0.716353  1
  Dy  Dy3  1  0.340959  0.001977  0.466625  1
  Y  Y4  1  0.997236  0.659856  0.033280  1
  Y  Y5  1  0.002117  0.340806  0.533300  1
  Y  Y6  1  0.659841  0.997245  0.966753  1
  Y  Y7  1  0.160096  0.502643  0.783184  1
  Ti  Ti8  1  0.348624  0.508789  0.374379  1
  Ti  Ti9  1  0.846625  0.990756  0.376576  1
  Ti  Ti10  1  0.008186  0.152361  0.123736  1
  Ti  Ti11  1  0.990837  0.846735  0.623367  1
  Ti  Ti12  1  0.508900  0.348508  0.625559  1
  Ti  Ti13  1  0.152351  0.008210  0.876237  1
  Ti  Ti14  1  0.826539  0.173047  0.750085  1
  Ti  Ti15  1  0.173114  0.826683  0.249959  1
  Ti  Ti16  1  0.327120  0.327041  0.000061  1
  Ti  Ti17  1  0.491448  0.651737  0.126251  1
  Ti  Ti18  1  0.651743  0.491456  0.873721  1
  Nb  Nb19  1  0.673151  0.673327  0.500003  1
  Si  Si20  1  0.047899  0.709129  0.434843  1
  Si  Si21  1  0.953085  0.290805  0.935223  1
  Si  Si22  1  0.708910  0.047829  0.565143  1
  Si  Si23  1  0.208950  0.452962  0.185053  1
  Si  Si24  1  0.791704  0.546259  0.686468  1
  Si  Si25  1  0.453068  0.208847  0.814947  1
  Si  Si26  1  0.546194  0.791954  0.313590  1
  Si  Si27  1  0.290903  0.953207  0.064851  1
  Si  Si28  1  0.797833  0.870195  0.184710  1
  Si  Si29  1  0.296996  0.630081  0.565506  1
  Si  Si30  1  0.702199  0.370027  0.065284  1
  Si  Si31  1  0.629820  0.296832  0.434467  1
  Si  Si32  1  0.370130  0.702274  0.934784  1
  Si  Si33  1  0.129928  0.202221  0.315069  1
  Si  Si34  1  0.202358  0.129685  0.684929  1
  Si  Si35  1  0.870073  0.797932  0.815306  1
