# generated using pymatgen
data_Tm4NbAl5Tc2
_symmetry_space_group_name_H-M   'P 1'
_cell_length_a   5.54074392
_cell_length_b   5.59037421
_cell_length_c   8.78054400
_cell_angle_alpha   90.00000000
_cell_angle_beta   90.00000000
_cell_angle_gamma   120.29677156
_symmetry_Int_Tables_number   1
_chemical_formula_structural   Tm4NbAl5Tc2
_chemical_formula_sum   'Tm4 Nb1 Al5 Tc2'
_cell_volume   234.83049174
_cell_formula_units_Z   1
loop_
 _symmetry_equiv_pos_site_id
 _symmetry_equiv_pos_as_xyz
  1  'x, y, z'
loop_
 _atom_site_type_symbol
 _atom_site_label
 _atom_site_symmetry_multiplicity
 _atom_site_fract_x
 _atom_site_fract_y
 _atom_site_fract_z
 _atom_site_occupancy
  Tm  Tm0  1  0.333472  0.666737  0.441966  1
  Tm  Tm1  1  0.667054  0.333527  0.551929  1
  Tm  Tm2  1  0.667054  0.333527  0.948071  1
  Tm  Tm3  1  0.333472  0.666737  0.058034  1
  Nb  Nb4  1  0.685704  0.842853  0.750000  1
  Al  Al5  1  0.831133  0.161420  0.250000  1
  Al  Al6  1  0.831133  0.669715  0.250000  1
  Al  Al7  1  0.320421  0.160211  0.250000  1
  Al  Al8  1  0.185533  0.847678  0.750000  1
  Al  Al9  1  0.185533  0.337855  0.750000  1
  Tc  Tc10  1  0.979744  0.989872  0.503759  1
  Tc  Tc11  1  0.979744  0.989872  0.996241  1
