# generated using pymatgen
data_Dy3(CuSi2)2
_symmetry_space_group_name_H-M   'P 1'
_cell_length_a   4.03744300
_cell_length_b   5.68057974
_cell_length_c   8.02938255
_cell_angle_alpha   100.75374758
_cell_angle_beta   90.00000000
_cell_angle_gamma   110.81626689
_symmetry_Int_Tables_number   1
_chemical_formula_structural   Dy3(CuSi2)2
_chemical_formula_sum   'Dy3 Cu2 Si4'
_cell_volume   168.66893167
_cell_formula_units_Z   1
loop_
 _symmetry_equiv_pos_site_id
 _symmetry_equiv_pos_as_xyz
  1  'x, y, z'
loop_
 _atom_site_type_symbol
 _atom_site_label
 _atom_site_symmetry_multiplicity
 _atom_site_fract_x
 _atom_site_fract_y
 _atom_site_fract_z
 _atom_site_occupancy
  Dy  Dy0  1  0.000000  0.000000  0.000000  1
  Dy  Dy1  1  0.338832  0.677666  0.331065  1
  Dy  Dy2  1  0.661167  0.322333  0.668933  1
  Cu  Cu3  1  0.612652  0.225305  0.282422  1
  Cu  Cu4  1  0.387347  0.774695  0.717578  1
  Si  Si5  1  0.716852  0.433705  0.058576  1
  Si  Si6  1  0.060430  0.120860  0.389996  1
  Si  Si7  1  0.939569  0.879139  0.610004  1
  Si  Si8  1  0.283149  0.566296  0.941424  1
