# generated using pymatgen
data_Sc4Cu(SiRh)6
_symmetry_space_group_name_H-M   'P 1'
_cell_length_a   6.95058088
_cell_length_b   6.95058119
_cell_length_c   6.95058064
_cell_angle_alpha   109.36499381
_cell_angle_beta   109.36498894
_cell_angle_gamma   109.68388587
_symmetry_Int_Tables_number   1
_chemical_formula_structural   Sc4Cu(SiRh)6
_chemical_formula_sum   'Sc4 Cu1 Si6 Rh6'
_cell_volume   258.48595067
_cell_formula_units_Z   1
loop_
 _symmetry_equiv_pos_site_id
 _symmetry_equiv_pos_as_xyz
  1  'x, y, z'
loop_
 _atom_site_type_symbol
 _atom_site_label
 _atom_site_symmetry_multiplicity
 _atom_site_fract_x
 _atom_site_fract_y
 _atom_site_fract_z
 _atom_site_occupancy
  Sc  Sc0  1  0.001800  0.998200  0.500000  1
  Sc  Sc1  1  0.001800  0.501800  0.003601  1
  Sc  Sc2  1  0.498200  0.998200  0.996399  1
  Sc  Sc3  1  0.498200  0.501800  0.500000  1
  Cu  Cu4  1  0.750000  0.250000  0.500000  1
  Si  Si5  1  0.681035  0.681035  0.000000  1
  Si  Si6  1  0.315628  0.998141  0.317487  1
  Si  Si7  1  0.001859  0.319346  0.317487  1
  Si  Si8  1  0.318965  0.318965  0.000000  1
  Si  Si9  1  0.680654  0.998141  0.682513  1
  Si  Si10  1  0.001859  0.684372  0.682513  1
  Rh  Rh11  1  0.746997  0.494584  0.252413  1
  Rh  Rh12  1  0.505416  0.253003  0.747587  1
  Rh  Rh13  1  0.242171  0.494584  0.747587  1
  Rh  Rh14  1  0.250000  0.750000  0.500000  1
  Rh  Rh15  1  0.505416  0.757829  0.252413  1
  Rh  Rh16  1  0.000000  0.000000  0.000000  1
