# generated using pymatgen
data_PrDy4(FeB3)2
_symmetry_space_group_name_H-M   'P 1'
_cell_length_a   5.42907896
_cell_length_b   5.42907910
_cell_length_c   8.27495243
_cell_angle_alpha   70.84996652
_cell_angle_beta   70.84996490
_cell_angle_gamma   59.99998893
_symmetry_Int_Tables_number   1
_chemical_formula_structural   PrDy4(FeB3)2
_chemical_formula_sum   'Pr1 Dy4 Fe2 B6'
_cell_volume   195.48634902
_cell_formula_units_Z   1
loop_
 _symmetry_equiv_pos_site_id
 _symmetry_equiv_pos_as_xyz
  1  'x, y, z'
loop_
 _atom_site_type_symbol
 _atom_site_label
 _atom_site_symmetry_multiplicity
 _atom_site_fract_x
 _atom_site_fract_y
 _atom_site_fract_z
 _atom_site_occupancy
  Pr  Pr0  1  0.000000  0.000000  0.000000  1
  Dy  Dy1  1  0.250572  0.250572  0.248283  1
  Dy  Dy2  1  0.749428  0.749428  0.751717  1
  Dy  Dy3  1  0.416915  0.416915  0.749254  1
  Dy  Dy4  1  0.583085  0.583085  0.250746  1
  Fe  Fe5  1  0.116826  0.116826  0.649522  1
  Fe  Fe6  1  0.883174  0.883174  0.350478  1
  B  B7  1  0.167777  0.832223  0.500000  1
  B  B8  1  0.832223  0.500000  0.500000  1
  B  B9  1  0.500000  0.167777  0.500000  1
  B  B10  1  0.167777  0.500000  0.500000  1
  B  B11  1  0.500000  0.832223  0.500000  1
  B  B12  1  0.832223  0.167777  0.500000  1
