# generated using pymatgen
data_YHo5Co2(P3Ir4)4
_symmetry_space_group_name_H-M   'P 1'
_cell_length_a   3.92218000
_cell_length_b   11.08213300
_cell_length_c   12.76383400
_cell_angle_alpha   90.00000000
_cell_angle_beta   90.00000000
_cell_angle_gamma   90.00000000
_symmetry_Int_Tables_number   1
_chemical_formula_structural   YHo5Co2(P3Ir4)4
_chemical_formula_sum   'Y1 Ho5 Co2 P12 Ir16'
_cell_volume   554.79434554
_cell_formula_units_Z   1
loop_
 _symmetry_equiv_pos_site_id
 _symmetry_equiv_pos_as_xyz
  1  'x, y, z'
loop_
 _atom_site_type_symbol
 _atom_site_label
 _atom_site_symmetry_multiplicity
 _atom_site_fract_x
 _atom_site_fract_y
 _atom_site_fract_z
 _atom_site_occupancy
  Y  Y0  1  0.500000  0.000000  0.477566  1
  Ho  Ho1  1  0.000000  0.500000  0.522524  1
  Ho  Ho2  1  0.500000  0.815853  0.200461  1
  Ho  Ho3  1  0.500000  0.184147  0.200461  1
  Ho  Ho4  1  0.000000  0.684130  0.799562  1
  Ho  Ho5  1  0.000000  0.315870  0.799562  1
  Co  Co6  1  0.000000  0.500000  0.976980  1
  Co  Co7  1  0.500000  0.000000  0.022998  1
  P  P8  1  0.500000  0.500000  0.880226  1
  P  P9  1  0.000000  0.000000  0.119607  1
  P  P10  1  0.500000  0.500000  0.358380  1
  P  P11  1  0.000000  0.000000  0.642027  1
  P  P12  1  0.500000  0.315790  0.619325  1
  P  P13  1  0.500000  0.684210  0.619325  1
  P  P14  1  0.000000  0.184328  0.380469  1
  P  P15  1  0.000000  0.815672  0.380469  1
  P  P16  1  0.500000  0.851864  0.896524  1
  P  P17  1  0.500000  0.148136  0.896524  1
  P  P18  1  0.000000  0.648136  0.103508  1
  P  P19  1  0.000000  0.351864  0.103508  1
  Ir  Ir20  1  0.500000  0.500000  0.177903  1
  Ir  Ir21  1  0.000000  0.000000  0.822233  1
  Ir  Ir22  1  0.500000  0.500000  0.702339  1
  Ir  Ir23  1  0.000000  0.000000  0.297100  1
  Ir  Ir24  1  0.500000  0.339076  0.997870  1
  Ir  Ir25  1  0.500000  0.660924  0.997870  1
  Ir  Ir26  1  0.000000  0.160930  0.002138  1
  Ir  Ir27  1  0.000000  0.839070  0.002138  1
  Ir  Ir28  1  0.500000  0.293158  0.429357  1
  Ir  Ir29  1  0.500000  0.706842  0.429357  1
  Ir  Ir30  1  0.000000  0.207375  0.570775  1
  Ir  Ir31  1  0.000000  0.792625  0.570775  1
  Ir  Ir32  1  0.500000  0.870005  0.714861  1
  Ir  Ir33  1  0.500000  0.129995  0.714861  1
  Ir  Ir34  1  0.000000  0.629938  0.285211  1
  Ir  Ir35  1  0.000000  0.370062  0.285211  1
