# generated using pymatgen
data_Sc(Ti3Bi2)2
_symmetry_space_group_name_H-M   'P 1'
_cell_length_a   8.40651303
_cell_length_b   8.40651294
_cell_length_c   8.40651242
_cell_angle_alpha   40.80733645
_cell_angle_beta   40.80733913
_cell_angle_gamma   40.80734069
_symmetry_Int_Tables_number   1
_chemical_formula_structural   Sc(Ti3Bi2)2
_chemical_formula_sum   'Sc1 Ti6 Bi4'
_cell_volume   228.97055122
_cell_formula_units_Z   1
loop_
 _symmetry_equiv_pos_site_id
 _symmetry_equiv_pos_as_xyz
  1  'x, y, z'
loop_
 _atom_site_type_symbol
 _atom_site_label
 _atom_site_symmetry_multiplicity
 _atom_site_fract_x
 _atom_site_fract_y
 _atom_site_fract_z
 _atom_site_occupancy
  Sc  Sc0  1  0.000000  0.000000  0.000000  1
  Ti  Ti1  1  0.598521  0.598521  0.120311  1
  Ti  Ti2  1  0.879688  0.401479  0.401479  1
  Ti  Ti3  1  0.401479  0.879688  0.401479  1
  Ti  Ti4  1  0.598521  0.120312  0.598521  1
  Ti  Ti5  1  0.120312  0.598521  0.598521  1
  Ti  Ti6  1  0.401479  0.401479  0.879688  1
  Bi  Bi7  1  0.126123  0.126123  0.126123  1
  Bi  Bi8  1  0.331649  0.331649  0.331649  1
  Bi  Bi9  1  0.668351  0.668351  0.668351  1
  Bi  Bi10  1  0.873877  0.873877  0.873877  1
