# generated using pymatgen
data_Er11Tm9Sn7Pb9
_symmetry_space_group_name_H-M   'P 1'
_cell_length_a   8.08468540
_cell_length_b   8.13157731
_cell_length_c   15.42535000
_cell_angle_alpha   90.00270118
_cell_angle_beta   89.99998134
_cell_angle_gamma   90.03374918
_symmetry_Int_Tables_number   1
_chemical_formula_structural   Er11Tm9Sn7Pb9
_chemical_formula_sum   'Er11 Tm9 Sn7 Pb9'
_cell_volume   1014.08152672
_cell_formula_units_Z   1
loop_
 _symmetry_equiv_pos_site_id
 _symmetry_equiv_pos_as_xyz
  1  'x, y, z'
loop_
 _atom_site_type_symbol
 _atom_site_label
 _atom_site_symmetry_multiplicity
 _atom_site_fract_x
 _atom_site_fract_y
 _atom_site_fract_z
 _atom_site_occupancy
  Er  Er0  1  0.119672  0.337331  0.376975  1
  Er  Er1  1  0.380161  0.838464  0.623350  1
  Er  Er2  1  0.880472  0.661087  0.876559  1
  Er  Er3  1  0.537985  0.324839  0.895882  1
  Er  Er4  1  0.038449  0.174599  0.604384  1
  Er  Er5  1  0.464640  0.675185  0.397116  1
  Er  Er6  1  0.959796  0.827115  0.101584  1
  Er  Er7  1  0.464630  0.675153  0.102809  1
  Er  Er8  1  0.959815  0.827133  0.398451  1
  Er  Er9  1  0.537981  0.324907  0.604133  1
  Er  Er10  1  0.038470  0.174565  0.895633  1
  Tm  Tm11  1  0.380129  0.838497  0.876573  1
  Tm  Tm12  1  0.880443  0.661021  0.623530  1
  Tm  Tm13  1  0.619829  0.161104  0.377113  1
  Tm  Tm14  1  0.119656  0.337414  0.123021  1
  Tm  Tm15  1  0.619805  0.161140  0.122908  1
  Tm  Tm16  1  0.210923  0.503601  0.750005  1
  Tm  Tm17  1  0.710864  0.996282  0.749996  1
  Tm  Tm18  1  0.787276  0.494620  0.249972  1
  Tm  Tm19  1  0.291287  0.006704  0.249962  1
  Sn  Sn20  1  0.575652  0.623048  0.750025  1
  Sn  Sn21  1  0.075858  0.876398  0.749982  1
  Sn  Sn22  1  0.425015  0.375977  0.249965  1
  Sn  Sn23  1  0.924025  0.122146  0.249930  1
  Sn  Sn24  1  0.346163  0.149295  0.750037  1
  Sn  Sn25  1  0.846105  0.350810  0.749964  1
  Sn  Sn26  1  0.654940  0.850398  0.249995  1
  Pb  Pb27  1  0.280481  0.031785  0.040935  1
  Pb  Pb28  1  0.781454  0.467368  0.459182  1
  Pb  Pb29  1  0.718531  0.968431  0.541944  1
  Pb  Pb30  1  0.219142  0.531531  0.958838  1
  Pb  Pb31  1  0.718261  0.968567  0.958058  1
  Pb  Pb32  1  0.218931  0.531528  0.541279  1
  Pb  Pb33  1  0.280502  0.031712  0.458985  1
  Pb  Pb34  1  0.781567  0.467187  0.040963  1
  Pb  Pb35  1  0.151086  0.653057  0.249963  1
