# generated using pymatgen
data_Ti2GeIr5
_symmetry_space_group_name_H-M   'P 1'
_cell_length_a   3.97154000
_cell_length_b   5.46302500
_cell_length_c   10.82639400
_cell_angle_alpha   90.00000000
_cell_angle_beta   90.00000000
_cell_angle_gamma   90.00000000
_symmetry_Int_Tables_number   1
_chemical_formula_structural   Ti2GeIr5
_chemical_formula_sum   'Ti4 Ge2 Ir10'
_cell_volume   234.89618158
_cell_formula_units_Z   2
loop_
 _symmetry_equiv_pos_site_id
 _symmetry_equiv_pos_as_xyz
  1  'x, y, z'
loop_
 _atom_site_type_symbol
 _atom_site_label
 _atom_site_symmetry_multiplicity
 _atom_site_fract_x
 _atom_site_fract_y
 _atom_site_fract_z
 _atom_site_occupancy
  Ti  Ti0  1  0.500000  0.313790  0.139526  1
  Ti  Ti1  1  0.500000  0.686210  0.860474  1
  Ti  Ti2  1  0.500000  0.813790  0.360474  1
  Ti  Ti3  1  0.500000  0.186210  0.639526  1
  Ge  Ge4  1  0.000000  0.000000  0.000000  1
  Ge  Ge5  1  0.000000  0.500000  0.500000  1
  Ir  Ir6  1  0.000000  0.000000  0.500000  1
  Ir  Ir7  1  0.000000  0.500000  0.000000  1
  Ir  Ir8  1  0.000000  0.054672  0.249891  1
  Ir  Ir9  1  0.000000  0.945328  0.750109  1
  Ir  Ir10  1  0.000000  0.554672  0.250109  1
  Ir  Ir11  1  0.000000  0.445328  0.749891  1
  Ir  Ir12  1  0.500000  0.301906  0.387000  1
  Ir  Ir13  1  0.500000  0.698094  0.613000  1
  Ir  Ir14  1  0.500000  0.801906  0.113000  1
  Ir  Ir15  1  0.500000  0.198094  0.887000  1
