# generated using pymatgen
data_Sm2Zn2Ni5
_symmetry_space_group_name_H-M   'P 1'
_cell_length_a   5.14900242
_cell_length_b   5.14900185
_cell_length_c   12.32323299
_cell_angle_alpha   77.94125865
_cell_angle_beta   77.94125894
_cell_angle_gamma   59.99999756
_symmetry_Int_Tables_number   1
_chemical_formula_structural   Sm2Zn2Ni5
_chemical_formula_sum   'Sm4 Zn4 Ni10'
_cell_volume   274.58843023
_cell_formula_units_Z   2
loop_
 _symmetry_equiv_pos_site_id
 _symmetry_equiv_pos_as_xyz
  1  'x, y, z'
loop_
 _atom_site_type_symbol
 _atom_site_label
 _atom_site_symmetry_multiplicity
 _atom_site_fract_x
 _atom_site_fract_y
 _atom_site_fract_z
 _atom_site_occupancy
  Sm  Sm0  1  0.950952  0.950952  0.147145  1
  Sm  Sm1  1  0.049048  0.049048  0.852855  1
  Sm  Sm2  1  0.852692  0.852692  0.441926  1
  Sm  Sm3  1  0.147308  0.147308  0.558074  1
  Zn  Zn4  1  0.722517  0.722517  0.832450  1
  Zn  Zn5  1  0.277483  0.277483  0.167550  1
  Zn  Zn6  1  0.611330  0.611330  0.166009  1
  Zn  Zn7  1  0.388670  0.388670  0.833991  1
  Ni  Ni8  1  0.500000  0.500000  0.500000  1
  Ni  Ni9  1  0.000000  0.500000  0.000000  1
  Ni  Ni10  1  0.500000  0.000000  0.000000  1
  Ni  Ni11  1  0.500000  0.500000  0.000000  1
  Ni  Ni12  1  0.390148  0.390148  0.332080  1
  Ni  Ni13  1  0.887624  0.390148  0.332080  1
  Ni  Ni14  1  0.390148  0.887624  0.332080  1
  Ni  Ni15  1  0.609852  0.609852  0.667920  1
  Ni  Ni16  1  0.112376  0.609852  0.667920  1
  Ni  Ni17  1  0.609852  0.112376  0.667920  1
