# generated using pymatgen
data_Li3Ho2LuSn3
_symmetry_space_group_name_H-M   'P 1'
_cell_length_a   7.21270026
_cell_length_b   7.21269953
_cell_length_c   4.60462600
_cell_angle_alpha   90.00000000
_cell_angle_beta   90.00000000
_cell_angle_gamma   119.57650844
_symmetry_Int_Tables_number   1
_chemical_formula_structural   Li3Ho2LuSn3
_chemical_formula_sum   'Li3 Ho2 Lu1 Sn3'
_cell_volume   208.33308523
_cell_formula_units_Z   1
loop_
 _symmetry_equiv_pos_site_id
 _symmetry_equiv_pos_as_xyz
  1  'x, y, z'
loop_
 _atom_site_type_symbol
 _atom_site_label
 _atom_site_symmetry_multiplicity
 _atom_site_fract_x
 _atom_site_fract_y
 _atom_site_fract_z
 _atom_site_occupancy
  Li  Li0  1  0.770502  0.999897  0.500001  1
  Li  Li1  1  0.229585  0.229584  0.500001  1
  Li  Li2  1  0.999897  0.770502  0.500001  1
  Ho  Ho3  1  0.443835  0.999998  0.000000  1
  Ho  Ho4  1  0.999998  0.443835  0.000000  1
  Lu  Lu5  1  0.557075  0.557076  0.000000  1
  Sn  Sn6  1  0.997998  0.997998  0.000000  1
  Sn  Sn7  1  0.666082  0.335030  0.500001  1
  Sn  Sn8  1  0.335030  0.666082  0.500001  1
