# generated using pymatgen
data_La2Pr5Th(MgIr)2
_symmetry_space_group_name_H-M   'P 1'
_cell_length_a   10.08584297
_cell_length_b   10.14032196
_cell_length_c   10.15153089
_cell_angle_alpha   59.60856670
_cell_angle_beta   60.14046400
_cell_angle_gamma   60.28459443
_symmetry_Int_Tables_number   1
_chemical_formula_structural   La2Pr5Th(MgIr)2
_chemical_formula_sum   'La4 Pr10 Th2 Mg4 Ir4'
_cell_volume   734.27274605
_cell_formula_units_Z   2
loop_
 _symmetry_equiv_pos_site_id
 _symmetry_equiv_pos_as_xyz
  1  'x, y, z'
loop_
 _atom_site_type_symbol
 _atom_site_label
 _atom_site_symmetry_multiplicity
 _atom_site_fract_x
 _atom_site_fract_y
 _atom_site_fract_z
 _atom_site_occupancy
  La  La0  1  0.348303  0.959198  0.344602  1
  La  La1  1  0.959198  0.348303  0.347899  1
  La  La2  1  0.813141  0.187133  0.186938  1
  La  La3  1  0.187133  0.813141  0.812788  1
  Pr  Pr4  1  0.189965  0.808918  0.190569  1
  Pr  Pr5  1  0.808918  0.189965  0.810547  1
  Pr  Pr6  1  0.189154  0.189154  0.810846  1
  Pr  Pr7  1  0.808472  0.808472  0.191528  1
  Pr  Pr8  1  0.940254  0.562127  0.565394  1
  Pr  Pr9  1  0.562127  0.940254  0.932225  1
  Pr  Pr10  1  0.560073  0.943965  0.562678  1
  Pr  Pr11  1  0.943965  0.560073  0.933284  1
  Pr  Pr12  1  0.561707  0.561707  0.938293  1
  Pr  Pr13  1  0.938354  0.938354  0.561646  1
  Th  Th14  1  0.341528  0.344763  0.345471  1
  Th  Th15  1  0.344763  0.341528  0.968239  1
  Mg  Mg16  1  0.578296  0.577318  0.582888  1
  Mg  Mg17  1  0.577318  0.578296  0.261497  1
  Mg  Mg18  1  0.574680  0.262855  0.582261  1
  Mg  Mg19  1  0.262855  0.574680  0.580205  1
  Ir  Ir20  1  0.141979  0.148869  0.139721  1
  Ir  Ir21  1  0.148869  0.141979  0.569431  1
  Ir  Ir22  1  0.152899  0.566050  0.136999  1
  Ir  Ir23  1  0.566050  0.152899  0.144051  1
