# generated using pymatgen
data_Nd7Dy11(ErSi8)2
_symmetry_space_group_name_H-M   'P 1'
_cell_length_a   7.74374075
_cell_length_b   7.74823043
_cell_length_c   14.34647572
_cell_angle_alpha   89.99164957
_cell_angle_beta   89.92297252
_cell_angle_gamma   90.07639542
_symmetry_Int_Tables_number   1
_chemical_formula_structural   Nd7Dy11(ErSi8)2
_chemical_formula_sum   'Nd7 Dy11 Er2 Si16'
_cell_volume   860.79111895
_cell_formula_units_Z   1
loop_
 _symmetry_equiv_pos_site_id
 _symmetry_equiv_pos_as_xyz
  1  'x, y, z'
loop_
 _atom_site_type_symbol
 _atom_site_label
 _atom_site_symmetry_multiplicity
 _atom_site_fract_x
 _atom_site_fract_y
 _atom_site_fract_z
 _atom_site_occupancy
  Nd  Nd0  1  0.358977  0.007291  0.957966  1
  Nd  Nd1  1  0.992434  0.642281  0.540903  1
  Nd  Nd2  1  0.490848  0.858972  0.209136  1
  Nd  Nd3  1  0.509254  0.139250  0.707059  1
  Nd  Nd4  1  0.860152  0.490749  0.791876  1
  Nd  Nd5  1  0.139379  0.508556  0.293051  1
  Nd  Nd6  1  0.007363  0.358618  0.042828  1
  Dy  Dy7  1  0.490935  0.361088  0.124961  1
  Dy  Dy8  1  0.991479  0.136672  0.624231  1
  Dy  Dy9  1  0.862083  0.008546  0.874813  1
  Dy  Dy10  1  0.137244  0.992882  0.375137  1
  Dy  Dy11  1  0.511417  0.639484  0.623108  1
  Dy  Dy12  1  0.361369  0.490916  0.875266  1
  Dy  Dy13  1  0.639479  0.510080  0.376063  1
  Dy  Dy14  1  0.006887  0.861434  0.126425  1
  Dy  Dy15  1  0.636450  0.995864  0.456006  1
  Dy  Dy16  1  0.317673  0.316889  0.499866  1
  Dy  Dy17  1  0.184439  0.816087  0.749130  1
  Er  Er18  1  0.814842  0.183027  0.250420  1
  Er  Er19  1  0.682988  0.682148  0.000407  1
  Si  Si20  1  0.294305  0.937840  0.559958  1
  Si  Si21  1  0.708938  0.063481  0.061956  1
  Si  Si22  1  0.933116  0.288658  0.438117  1
  Si  Si23  1  0.437788  0.208670  0.312297  1
  Si  Si24  1  0.565395  0.788874  0.811687  1
  Si  Si25  1  0.210965  0.435595  0.688145  1
  Si  Si26  1  0.788881  0.565102  0.188896  1
  Si  Si27  1  0.064361  0.709477  0.939085  1
  Si  Si28  1  0.798642  0.844466  0.690743  1
  Si  Si29  1  0.202730  0.153633  0.190119  1
  Si  Si30  1  0.842969  0.801098  0.313520  1
  Si  Si31  1  0.349731  0.707340  0.438124  1
  Si  Si32  1  0.653749  0.296087  0.940003  1
  Si  Si33  1  0.702215  0.342443  0.558799  1
  Si  Si34  1  0.295931  0.653700  0.060525  1
  Si  Si35  1  0.154592  0.202705  0.809374  1
