# generated using pymatgen
data_La4Pr(Cd2Pt)2
_symmetry_space_group_name_H-M   'P 1'
_cell_length_a   3.88159200
_cell_length_b   8.36471500
_cell_length_c   18.83912100
_cell_angle_alpha   90.00000000
_cell_angle_beta   90.00000000
_cell_angle_gamma   90.00000000
_symmetry_Int_Tables_number   1
_chemical_formula_structural   La4Pr(Cd2Pt)2
_chemical_formula_sum   'La8 Pr2 Cd8 Pt4'
_cell_volume   611.67632023
_cell_formula_units_Z   2
loop_
 _symmetry_equiv_pos_site_id
 _symmetry_equiv_pos_as_xyz
  1  'x, y, z'
loop_
 _atom_site_type_symbol
 _atom_site_label
 _atom_site_symmetry_multiplicity
 _atom_site_fract_x
 _atom_site_fract_y
 _atom_site_fract_z
 _atom_site_occupancy
  La  La0  1  0.000000  0.116843  0.413963  1
  La  La1  1  0.000000  0.883157  0.586037  1
  La  La2  1  0.000000  0.383157  0.913963  1
  La  La3  1  0.000000  0.616843  0.086037  1
  La  La4  1  0.000000  0.240293  0.218091  1
  La  La5  1  0.000000  0.759707  0.781909  1
  La  La6  1  0.000000  0.259707  0.718091  1
  La  La7  1  0.000000  0.740293  0.281909  1
  Pr  Pr8  1  0.000000  0.000000  0.000000  1
  Pr  Pr9  1  0.000000  0.500000  0.500000  1
  Cd  Cd10  1  0.500000  0.429955  0.352329  1
  Cd  Cd11  1  0.500000  0.570045  0.647671  1
  Cd  Cd12  1  0.500000  0.070045  0.852329  1
  Cd  Cd13  1  0.500000  0.929955  0.147671  1
  Cd  Cd14  1  0.500000  0.286259  0.066891  1
  Cd  Cd15  1  0.500000  0.713741  0.933109  1
  Cd  Cd16  1  0.500000  0.213741  0.566891  1
  Cd  Cd17  1  0.500000  0.786259  0.433109  1
  Pt  Pt18  1  0.500000  0.022978  0.302851  1
  Pt  Pt19  1  0.500000  0.977022  0.697149  1
  Pt  Pt20  1  0.500000  0.477022  0.802851  1
  Pt  Pt21  1  0.500000  0.522978  0.197149  1
