# generated using pymatgen
data_Zr2Co3Si6PRu9
_symmetry_space_group_name_H-M   'P 1'
_cell_length_a   9.37432207
_cell_length_b   9.42416456
_cell_length_c   3.81080900
_cell_angle_alpha   90.00000000
_cell_angle_beta   90.00000000
_cell_angle_gamma   120.25081768
_symmetry_Int_Tables_number   1
_chemical_formula_structural   Zr2Co3Si6PRu9
_chemical_formula_sum   'Zr2 Co3 Si6 P1 Ru9'
_cell_volume   290.82206207
_cell_formula_units_Z   1
loop_
 _symmetry_equiv_pos_site_id
 _symmetry_equiv_pos_as_xyz
  1  'x, y, z'
loop_
 _atom_site_type_symbol
 _atom_site_label
 _atom_site_symmetry_multiplicity
 _atom_site_fract_x
 _atom_site_fract_y
 _atom_site_fract_z
 _atom_site_occupancy
  Zr  Zr0  1  0.337427  0.668080  0.000000  1
  Zr  Zr1  1  0.663618  0.328541  0.500000  1
  Co  Co2  1  0.152776  0.276095  0.000000  1
  Co  Co3  1  0.724587  0.877323  0.000000  1
  Co  Co4  1  0.116920  0.843761  0.000000  1
  Si  Si5  1  0.112556  0.397811  0.500000  1
  Si  Si6  1  0.604735  0.715548  0.500000  1
  Si  Si7  1  0.280820  0.886583  0.500000  1
  Si  Si8  1  0.000594  0.002106  0.000000  1
  Si  Si9  1  0.407627  0.295985  0.000000  1
  Si  Si10  1  0.704959  0.110297  0.000000  1
  P  P11  1  0.892277  0.591665  0.000000  1
  Ru  Ru12  1  0.426870  0.058883  0.000000  1
  Ru  Ru13  1  0.940344  0.370828  0.000000  1
  Ru  Ru14  1  0.641690  0.571837  0.000000  1
  Ru  Ru15  1  0.383825  0.440702  0.500000  1
  Ru  Ru16  1  0.559453  0.940357  0.500000  1
  Ru  Ru17  1  0.048839  0.617016  0.500000  1
  Ru  Ru18  1  0.207409  0.098617  0.500000  1
  Ru  Ru19  1  0.900703  0.109809  0.500000  1
  Ru  Ru20  1  0.891974  0.798156  0.500000  1
