# generated using pymatgen
data_TbYb11(AgGe)12
_symmetry_space_group_name_H-M   'P 1'
_cell_length_a   4.56322700
_cell_length_b   7.86121900
_cell_length_c   21.33621190
_cell_angle_alpha   89.98217186
_cell_angle_beta   90.00000000
_cell_angle_gamma   90.00000000
_symmetry_Int_Tables_number   1
_chemical_formula_structural   TbYb11(AgGe)12
_chemical_formula_sum   'Tb1 Yb11 Ag12 Ge12'
_cell_volume   765.38379603
_cell_formula_units_Z   1
loop_
 _symmetry_equiv_pos_site_id
 _symmetry_equiv_pos_as_xyz
  1  'x, y, z'
loop_
 _atom_site_type_symbol
 _atom_site_label
 _atom_site_symmetry_multiplicity
 _atom_site_fract_x
 _atom_site_fract_y
 _atom_site_fract_z
 _atom_site_occupancy
  Tb  Tb0  1  0.750000  0.713735  0.833958  1
  Yb  Yb1  1  0.250000  0.224888  0.001161  1
  Yb  Yb2  1  0.250000  0.277340  0.499703  1
  Yb  Yb3  1  0.750000  0.772454  0.001470  1
  Yb  Yb4  1  0.750000  0.722163  0.499647  1
  Yb  Yb5  1  0.250000  0.211204  0.333883  1
  Yb  Yb6  1  0.250000  0.285713  0.833381  1
  Yb  Yb7  1  0.750000  0.786851  0.665294  1
  Yb  Yb8  1  0.750000  0.710516  0.166260  1
  Yb  Yb9  1  0.250000  0.214425  0.665879  1
  Yb  Yb10  1  0.250000  0.287150  0.167000  1
  Yb  Yb11  1  0.750000  0.787676  0.333096  1
  Ag  Ag12  1  0.250000  0.914301  0.761144  1
  Ag  Ag13  1  0.250000  0.586556  0.261885  1
  Ag  Ag14  1  0.750000  0.087255  0.238341  1
  Ag  Ag15  1  0.750000  0.411433  0.738112  1
  Ag  Ag16  1  0.250000  0.923171  0.907287  1
  Ag  Ag17  1  0.250000  0.581518  0.405935  1
  Ag  Ag18  1  0.750000  0.081095  0.093707  1
  Ag  Ag19  1  0.750000  0.418700  0.593960  1
  Ag  Ag20  1  0.250000  0.917149  0.565640  1
  Ag  Ag21  1  0.250000  0.582067  0.068984  1
  Ag  Ag22  1  0.750000  0.082609  0.434329  1
  Ag  Ag23  1  0.750000  0.418258  0.938302  1
  Ge  Ge24  1  0.250000  0.582926  0.730693  1
  Ge  Ge25  1  0.250000  0.917742  0.228045  1
  Ge  Ge26  1  0.750000  0.417439  0.271994  1
  Ge  Ge27  1  0.750000  0.079991  0.771274  1
  Ge  Ge28  1  0.250000  0.911537  0.102182  1
  Ge  Ge29  1  0.250000  0.586957  0.602870  1
  Ge  Ge30  1  0.750000  0.089344  0.897361  1
  Ge  Ge31  1  0.750000  0.412962  0.397985  1
  Ge  Ge32  1  0.250000  0.592548  0.916120  1
  Ge  Ge33  1  0.250000  0.910431  0.427319  1
  Ge  Ge34  1  0.750000  0.409973  0.072647  1
  Ge  Ge35  1  0.750000  0.089920  0.573154  1
