# generated using pymatgen
data_ThSc2(Si3Pd10)2
_symmetry_space_group_name_H-M   'P 1'
_cell_length_a   8.67746900
_cell_length_b   8.67799423
_cell_length_c   8.67614300
_cell_angle_alpha   59.98698617
_cell_angle_beta   59.99942435
_cell_angle_gamma   59.98924809
_symmetry_Int_Tables_number   1
_chemical_formula_structural   ThSc2(Si3Pd10)2
_chemical_formula_sum   'Th1 Sc2 Si6 Pd20'
_cell_volume   461.89601522
_cell_formula_units_Z   1
loop_
 _symmetry_equiv_pos_site_id
 _symmetry_equiv_pos_as_xyz
  1  'x, y, z'
loop_
 _atom_site_type_symbol
 _atom_site_label
 _atom_site_symmetry_multiplicity
 _atom_site_fract_x
 _atom_site_fract_y
 _atom_site_fract_z
 _atom_site_occupancy
  Th  Th0  1  0.250008  0.249988  0.249984  1
  Sc  Sc1  1  0.750018  0.750029  0.750046  1
  Sc  Sc2  1  0.999985  0.000004  0.999993  1
  Si  Si3  1  0.733594  0.266395  0.266402  1
  Si  Si4  1  0.266410  0.733598  0.733601  1
  Si  Si5  1  0.266400  0.733588  0.266411  1
  Si  Si6  1  0.733589  0.266419  0.733594  1
  Si  Si7  1  0.266379  0.266384  0.733613  1
  Si  Si8  1  0.733617  0.733618  0.266397  1
  Pd  Pd9  1  0.385857  0.385869  0.385860  1
  Pd  Pd10  1  0.621019  0.621028  0.621012  1
  Pd  Pd11  1  0.385894  0.385876  0.842343  1
  Pd  Pd12  1  0.385880  0.842364  0.385868  1
  Pd  Pd13  1  0.620991  0.620988  0.137043  1
  Pd  Pd14  1  0.620986  0.137008  0.620998  1
  Pd  Pd15  1  0.842382  0.385872  0.385880  1
  Pd  Pd16  1  0.136990  0.620995  0.621011  1
  Pd  Pd17  1  0.342954  0.001080  0.001126  1
  Pd  Pd18  1  0.654870  0.001089  0.001042  1
  Pd  Pd19  1  0.001076  0.342920  0.654877  1
  Pd  Pd20  1  0.001115  0.654885  0.342929  1
  Pd  Pd21  1  0.001102  0.342945  0.001126  1
  Pd  Pd22  1  0.654862  0.001108  0.342941  1
  Pd  Pd23  1  0.001082  0.654867  0.001054  1
  Pd  Pd24  1  0.342939  0.001087  0.654861  1
  Pd  Pd25  1  0.001115  0.001094  0.342932  1
  Pd  Pd26  1  0.001059  0.001082  0.654889  1
  Pd  Pd27  1  0.654868  0.342952  0.001076  1
  Pd  Pd28  1  0.342961  0.654870  0.001095  1
