# generated using pymatgen
data_YbEu(CdPb)2
_symmetry_space_group_name_H-M   'P 1'
_cell_length_a   5.07074000
_cell_length_b   5.07074030
_cell_length_c   7.94293400
_cell_angle_alpha   90.00000000
_cell_angle_beta   90.00000000
_cell_angle_gamma   119.99999806
_symmetry_Int_Tables_number   1
_chemical_formula_structural   YbEu(CdPb)2
_chemical_formula_sum   'Yb1 Eu1 Cd2 Pb2'
_cell_volume   176.87005274
_cell_formula_units_Z   1
loop_
 _symmetry_equiv_pos_site_id
 _symmetry_equiv_pos_as_xyz
  1  'x, y, z'
loop_
 _atom_site_type_symbol
 _atom_site_label
 _atom_site_symmetry_multiplicity
 _atom_site_fract_x
 _atom_site_fract_y
 _atom_site_fract_z
 _atom_site_occupancy
  Yb  Yb0  1  0.000000  0.000000  0.751288  1
  Eu  Eu1  1  0.000000  0.000000  0.251420  1
  Cd  Cd2  1  0.666667  0.333333  0.945513  1
  Cd  Cd3  1  0.333333  0.666667  0.455372  1
  Pb  Pb4  1  0.666667  0.333333  0.549243  1
  Pb  Pb5  1  0.333333  0.666667  0.041164  1
