# generated using pymatgen
data_Er6Lu6AlCo4Sn
_symmetry_space_group_name_H-M   'P 1'
_cell_length_a   8.22146513
_cell_length_b   8.22146516
_cell_length_c   8.21070701
_cell_angle_alpha   112.04376734
_cell_angle_beta   109.52941752
_cell_angle_gamma   106.93718313
_symmetry_Int_Tables_number   1
_chemical_formula_structural   Er6Lu6AlCo4Sn
_chemical_formula_sum   'Er6 Lu6 Al1 Co4 Sn1'
_cell_volume   426.07958831
_cell_formula_units_Z   1
loop_
 _symmetry_equiv_pos_site_id
 _symmetry_equiv_pos_as_xyz
  1  'x, y, z'
loop_
 _atom_site_type_symbol
 _atom_site_label
 _atom_site_symmetry_multiplicity
 _atom_site_fract_x
 _atom_site_fract_y
 _atom_site_fract_z
 _atom_site_occupancy
  Er  Er0  1  0.438318  0.235138  0.202932  1
  Er  Er1  1  0.561682  0.764862  0.797068  1
  Er  Er2  1  0.032206  0.235385  0.797068  1
  Er  Er3  1  0.967794  0.764615  0.202932  1
  Er  Er4  1  0.181203  0.281419  0.462624  1
  Er  Er5  1  0.818797  0.718581  0.537376  1
  Lu  Lu6  1  0.180698  0.719419  0.900117  1
  Lu  Lu7  1  0.819302  0.280581  0.099883  1
  Lu  Lu8  1  0.323554  0.638682  0.312663  1
  Lu  Lu9  1  0.676446  0.361318  0.687337  1
  Lu  Lu10  1  0.326020  0.010892  0.687337  1
  Lu  Lu11  1  0.673980  0.989108  0.312663  1
  Al  Al12  1  0.000000  0.000000  0.000000  1
  Co  Co13  1  0.339924  0.998642  0.338564  1
  Co  Co14  1  0.660076  0.001358  0.661436  1
  Co  Co15  1  0.115250  0.615250  0.500000  1
  Co  Co16  1  0.884750  0.384750  0.500000  1
  Sn  Sn17  1  0.500000  0.500000  0.000000  1
