# generated using pymatgen
data_BaNi9Sn2As3
_symmetry_space_group_name_H-M   'P 1'
_cell_length_a   6.95613000
_cell_length_b   6.95612925
_cell_length_c   11.64122900
_cell_angle_alpha   90.00000000
_cell_angle_beta   90.00000000
_cell_angle_gamma   119.99999407
_symmetry_Int_Tables_number   1
_chemical_formula_structural   BaNi9Sn2As3
_chemical_formula_sum   'Ba2 Ni18 Sn4 As6'
_cell_volume   487.82586427
_cell_formula_units_Z   2
loop_
 _symmetry_equiv_pos_site_id
 _symmetry_equiv_pos_as_xyz
  1  'x, y, z'
loop_
 _atom_site_type_symbol
 _atom_site_label
 _atom_site_symmetry_multiplicity
 _atom_site_fract_x
 _atom_site_fract_y
 _atom_site_fract_z
 _atom_site_occupancy
  Ba  Ba0  1  0.000000  0.000000  0.000000  1
  Ba  Ba1  1  0.000000  0.000000  0.500000  1
  Ni  Ni2  1  0.541234  0.458766  0.119014  1
  Ni  Ni3  1  0.082468  0.541234  0.619014  1
  Ni  Ni4  1  0.458766  0.917532  0.619014  1
  Ni  Ni5  1  0.541234  0.082468  0.119014  1
  Ni  Ni6  1  0.917532  0.458766  0.119014  1
  Ni  Ni7  1  0.082468  0.541234  0.880986  1
  Ni  Ni8  1  0.458766  0.917532  0.880986  1
  Ni  Ni9  1  0.458766  0.541234  0.619014  1
  Ni  Ni10  1  0.458766  0.541234  0.880986  1
  Ni  Ni11  1  0.541234  0.458766  0.380986  1
  Ni  Ni12  1  0.917532  0.458766  0.380986  1
  Ni  Ni13  1  0.541234  0.082468  0.380986  1
  Ni  Ni14  1  0.206411  0.793589  0.250000  1
  Ni  Ni15  1  0.412823  0.206411  0.750000  1
  Ni  Ni16  1  0.793589  0.587177  0.750000  1
  Ni  Ni17  1  0.206411  0.412823  0.250000  1
  Ni  Ni18  1  0.587177  0.793589  0.250000  1
  Ni  Ni19  1  0.793589  0.206411  0.750000  1
  Sn  Sn20  1  0.333333  0.666667  0.060795  1
  Sn  Sn21  1  0.666667  0.333333  0.560795  1
  Sn  Sn22  1  0.666667  0.333333  0.939205  1
  Sn  Sn23  1  0.333333  0.666667  0.439205  1
  As  As24  1  0.831324  0.168676  0.250000  1
  As  As25  1  0.662647  0.831324  0.750000  1
  As  As26  1  0.168676  0.337353  0.750000  1
  As  As27  1  0.831324  0.662647  0.250000  1
  As  As28  1  0.337353  0.168676  0.250000  1
  As  As29  1  0.168676  0.831324  0.750000  1
