# generated using pymatgen
data_Sr6Re2HN6
_symmetry_space_group_name_H-M   'P 1'
_cell_length_a   6.46037393
_cell_length_b   6.46037251
_cell_length_c   6.46037383
_cell_angle_alpha   95.35440992
_cell_angle_beta   95.35441446
_cell_angle_gamma   95.35440516
_symmetry_Int_Tables_number   1
_chemical_formula_structural   Sr6Re2HN6
_chemical_formula_sum   'Sr6 Re2 H1 N6'
_cell_volume   265.86556723
_cell_formula_units_Z   1
loop_
 _symmetry_equiv_pos_site_id
 _symmetry_equiv_pos_as_xyz
  1  'x, y, z'
loop_
 _atom_site_type_symbol
 _atom_site_label
 _atom_site_symmetry_multiplicity
 _atom_site_fract_x
 _atom_site_fract_y
 _atom_site_fract_z
 _atom_site_occupancy
  Sr  Sr0  1  0.629018  0.116531  0.787988  1
  Sr  Sr1  1  0.116531  0.787988  0.629018  1
  Sr  Sr2  1  0.787988  0.629018  0.116531  1
  Sr  Sr3  1  0.370982  0.883469  0.212012  1
  Sr  Sr4  1  0.883469  0.212012  0.370982  1
  Sr  Sr5  1  0.212012  0.370982  0.883469  1
  Re  Re6  1  0.621617  0.621617  0.621617  1
  Re  Re7  1  0.378383  0.378383  0.378383  1
  H  H8  1  0.000000  0.000000  0.000000  1
  N  N9  1  0.728218  0.850857  0.480087  1
  N  N10  1  0.850857  0.480087  0.728218  1
  N  N11  1  0.480087  0.728218  0.850857  1
  N  N12  1  0.271782  0.149143  0.519913  1
  N  N13  1  0.149143  0.519913  0.271782  1
  N  N14  1  0.519913  0.271782  0.149143  1
