# generated using pymatgen
data_LaSm5RuBr10
_symmetry_space_group_name_H-M   'P 1'
_cell_length_a   7.60891516
_cell_length_b   9.31467410
_cell_length_c   9.61954171
_cell_angle_alpha   108.94038083
_cell_angle_beta   96.90194802
_cell_angle_gamma   105.56362235
_symmetry_Int_Tables_number   1
_chemical_formula_structural   LaSm5RuBr10
_chemical_formula_sum   'La1 Sm5 Ru1 Br10'
_cell_volume   604.93744834
_cell_formula_units_Z   1
loop_
 _symmetry_equiv_pos_site_id
 _symmetry_equiv_pos_as_xyz
  1  'x, y, z'
loop_
 _atom_site_type_symbol
 _atom_site_label
 _atom_site_symmetry_multiplicity
 _atom_site_fract_x
 _atom_site_fract_y
 _atom_site_fract_z
 _atom_site_occupancy
  La  La0  1  0.971771  0.287441  0.089416  1
  Sm  Sm1  1  0.128875  0.049599  0.749455  1
  Sm  Sm2  1  0.629717  0.854506  0.812117  1
  Sm  Sm3  1  0.868960  0.950213  0.249704  1
  Sm  Sm4  1  0.029469  0.716130  0.911541  1
  Sm  Sm5  1  0.370050  0.142065  0.187163  1
  Ru  Ru6  1  0.997505  0.011755  0.003496  1
  Br  Br7  1  0.202390  0.741701  0.653587  1
  Br  Br8  1  0.650255  0.540599  0.728074  1
  Br  Br9  1  0.247480  0.080741  0.451968  1
  Br  Br10  1  0.789389  0.252459  0.353615  1
  Br  Br11  1  0.544282  0.170747  0.916374  1
  Br  Br12  1  0.750247  0.916197  0.547032  1
  Br  Br13  1  0.910830  0.632700  0.167047  1
  Br  Br14  1  0.368544  0.461017  0.278058  1
  Br  Br15  1  0.094302  0.369878  0.823420  1
  Br  Br16  1  0.445933  0.822252  0.077932  1
