# generated using pymatgen
data_Ce8MnFe(Si6Ni)2
_symmetry_space_group_name_H-M   'P 1'
_cell_length_a   8.08720900
_cell_length_b   8.08720924
_cell_length_c   8.24217800
_cell_angle_alpha   90.00000000
_cell_angle_beta   90.00000000
_cell_angle_gamma   119.99999495
_symmetry_Int_Tables_number   1
_chemical_formula_structural   Ce8MnFe(Si6Ni)2
_chemical_formula_sum   'Ce8 Mn1 Fe1 Si12 Ni2'
_cell_volume   466.84207374
_cell_formula_units_Z   1
loop_
 _symmetry_equiv_pos_site_id
 _symmetry_equiv_pos_as_xyz
  1  'x, y, z'
loop_
 _atom_site_type_symbol
 _atom_site_label
 _atom_site_symmetry_multiplicity
 _atom_site_fract_x
 _atom_site_fract_y
 _atom_site_fract_z
 _atom_site_occupancy
  Ce  Ce0  1  0.000000  0.000000  0.251528  1
  Ce  Ce1  1  0.000000  0.000000  0.748579  1
  Ce  Ce2  1  0.500190  0.499810  0.242673  1
  Ce  Ce3  1  0.500190  0.000380  0.242673  1
  Ce  Ce4  1  0.999620  0.499810  0.242673  1
  Ce  Ce5  1  0.500908  0.499092  0.757893  1
  Ce  Ce6  1  0.500908  0.001816  0.757893  1
  Ce  Ce7  1  0.998184  0.499092  0.757893  1
  Mn  Mn8  1  0.333333  0.666667  0.003871  1
  Fe  Fe9  1  0.666667  0.333333  0.990096  1
  Si  Si10  1  0.170049  0.829951  0.500519  1
  Si  Si11  1  0.170049  0.340099  0.500519  1
  Si  Si12  1  0.659901  0.829951  0.500519  1
  Si  Si13  1  0.830193  0.169807  0.500028  1
  Si  Si14  1  0.830193  0.660384  0.500028  1
  Si  Si15  1  0.339616  0.169807  0.500028  1
  Si  Si16  1  0.830465  0.169535  0.001217  1
  Si  Si17  1  0.830465  0.660929  0.001217  1
  Si  Si18  1  0.339071  0.169535  0.001217  1
  Si  Si19  1  0.167290  0.832710  0.998952  1
  Si  Si20  1  0.167290  0.334583  0.998952  1
  Si  Si21  1  0.665417  0.832710  0.998952  1
  Ni  Ni22  1  0.333333  0.666667  0.498003  1
  Ni  Ni23  1  0.666667  0.333333  0.504080  1
