# generated using pymatgen
data_Dy3Ho(Tm3Sn4)2
_symmetry_space_group_name_H-M   'P 1'
_cell_length_a   7.97319500
_cell_length_b   8.10392401
_cell_length_c   15.31540403
_cell_angle_alpha   90.00671404
_cell_angle_beta   90.00000000
_cell_angle_gamma   90.00000000
_symmetry_Int_Tables_number   1
_chemical_formula_structural   Dy3Ho(Tm3Sn4)2
_chemical_formula_sum   'Dy6 Ho2 Tm12 Sn16'
_cell_volume   989.59205787
_cell_formula_units_Z   2
loop_
 _symmetry_equiv_pos_site_id
 _symmetry_equiv_pos_as_xyz
  1  'x, y, z'
loop_
 _atom_site_type_symbol
 _atom_site_label
 _atom_site_symmetry_multiplicity
 _atom_site_fract_x
 _atom_site_fract_y
 _atom_site_fract_z
 _atom_site_occupancy
  Dy  Dy0  1  0.478470  0.679496  0.402767  1
  Dy  Dy1  1  0.978470  0.820504  0.097233  1
  Dy  Dy2  1  0.478468  0.679493  0.097222  1
  Dy  Dy3  1  0.978468  0.820507  0.402778  1
  Dy  Dy4  1  0.521512  0.320490  0.597214  1
  Dy  Dy5  1  0.021512  0.179510  0.902786  1
  Ho  Ho6  1  0.521553  0.320509  0.902725  1
  Ho  Ho7  1  0.021553  0.179491  0.597275  1
  Tm  Tm8  1  0.367565  0.836426  0.877424  1
  Tm  Tm9  1  0.867565  0.663574  0.622576  1
  Tm  Tm10  1  0.632429  0.163611  0.377427  1
  Tm  Tm11  1  0.132429  0.336389  0.122573  1
  Tm  Tm12  1  0.632417  0.163622  0.122550  1
  Tm  Tm13  1  0.132417  0.336378  0.377450  1
  Tm  Tm14  1  0.367551  0.836442  0.622585  1
  Tm  Tm15  1  0.867551  0.663558  0.877415  1
  Tm  Tm16  1  0.198200  0.503965  0.750006  1
  Tm  Tm17  1  0.698200  0.996035  0.749994  1
  Tm  Tm18  1  0.801815  0.495973  0.250008  1
  Tm  Tm19  1  0.301815  0.004027  0.249992  1
  Sn  Sn20  1  0.293689  0.036573  0.041729  1
  Sn  Sn21  1  0.793689  0.463427  0.458271  1
  Sn  Sn22  1  0.706459  0.963526  0.541753  1
  Sn  Sn23  1  0.206459  0.536474  0.958247  1
  Sn  Sn24  1  0.706265  0.963500  0.958259  1
  Sn  Sn25  1  0.206265  0.536500  0.541741  1
  Sn  Sn26  1  0.293579  0.036605  0.458318  1
  Sn  Sn27  1  0.793579  0.463395  0.041682  1
  Sn  Sn28  1  0.564577  0.620284  0.750006  1
  Sn  Sn29  1  0.064577  0.879716  0.749994  1
  Sn  Sn30  1  0.435406  0.379679  0.249993  1
  Sn  Sn31  1  0.935406  0.120321  0.250007  1
  Sn  Sn32  1  0.330357  0.147616  0.750042  1
  Sn  Sn33  1  0.830357  0.352384  0.749958  1
  Sn  Sn34  1  0.669688  0.852479  0.249996  1
  Sn  Sn35  1  0.169688  0.647521  0.250004  1
