# generated using pymatgen
data_Zr3Tl10Hg(MoO4)12
_symmetry_space_group_name_H-M   'P 1'
_cell_length_a   14.64398600
_cell_length_b   14.64398596
_cell_length_c   14.64398548
_cell_angle_alpha   43.98147660
_cell_angle_beta   43.98147604
_cell_angle_gamma   43.98147666
_symmetry_Int_Tables_number   1
_chemical_formula_structural   Zr3Tl10Hg(MoO4)12
_chemical_formula_sum   'Zr3 Tl10 Hg1 Mo12 O48'
_cell_volume   1375.39831126
_cell_formula_units_Z   1
loop_
 _symmetry_equiv_pos_site_id
 _symmetry_equiv_pos_as_xyz
  1  'x, y, z'
loop_
 _atom_site_type_symbol
 _atom_site_label
 _atom_site_symmetry_multiplicity
 _atom_site_fract_x
 _atom_site_fract_y
 _atom_site_fract_z
 _atom_site_occupancy
  Zr  Zr0  1  0.000000  0.000000  0.000000  1
  Zr  Zr1  1  0.250326  0.250326  0.250326  1
  Zr  Zr2  1  0.749674  0.749674  0.749674  1
  Tl  Tl3  1  0.106837  0.106837  0.106837  1
  Tl  Tl4  1  0.399805  0.399805  0.399805  1
  Tl  Tl5  1  0.500000  0.128644  0.871356  1
  Tl  Tl6  1  0.871356  0.500000  0.128644  1
  Tl  Tl7  1  0.128644  0.871356  0.500000  1
  Tl  Tl8  1  0.600195  0.600195  0.600195  1
  Tl  Tl9  1  0.000000  0.394967  0.605033  1
  Tl  Tl10  1  0.394967  0.605033  0.000000  1
  Tl  Tl11  1  0.605033  0.000000  0.394967  1
  Tl  Tl12  1  0.893163  0.893163  0.893163  1
  Hg  Hg13  1  0.500000  0.500000  0.500000  1
  Mo  Mo14  1  0.366882  0.008110  0.775299  1
  Mo  Mo15  1  0.775299  0.366882  0.008110  1
  Mo  Mo16  1  0.728754  0.126883  0.487380  1
  Mo  Mo17  1  0.008110  0.775299  0.366882  1
  Mo  Mo18  1  0.126883  0.487380  0.728754  1
  Mo  Mo19  1  0.487380  0.728754  0.126883  1
  Mo  Mo20  1  0.873117  0.271246  0.512620  1
  Mo  Mo21  1  0.271246  0.512620  0.873117  1
  Mo  Mo22  1  0.633118  0.224701  0.991890  1
  Mo  Mo23  1  0.512620  0.873117  0.271246  1
  Mo  Mo24  1  0.991890  0.633118  0.224701  1
  Mo  Mo25  1  0.224701  0.991890  0.633118  1
  O  O26  1  0.359078  0.055182  0.244531  1
  O  O27  1  0.055182  0.244531  0.359078  1
  O  O28  1  0.244531  0.359078  0.055182  1
  O  O29  1  0.246177  0.147796  0.455454  1
  O  O30  1  0.076610  0.045995  0.786638  1
  O  O31  1  0.786638  0.076610  0.045995  1
  O  O32  1  0.455454  0.246177  0.147796  1
  O  O33  1  0.147796  0.455454  0.246177  1
  O  O34  1  0.352537  0.129200  0.608381  1
  O  O35  1  0.045995  0.786638  0.076610  1
  O  O36  1  0.608381  0.352537  0.129200  1
  O  O37  1  0.680334  0.136257  0.399047  1
  O  O38  1  0.359827  0.094988  0.822041  1
  O  O39  1  0.129200  0.608381  0.352537  1
  O  O40  1  0.136257  0.399047  0.680334  1
  O  O41  1  0.822041  0.359827  0.094988  1
  O  O42  1  0.890306  0.152636  0.364372  1
  O  O43  1  0.399047  0.680334  0.136257  1
  O  O44  1  0.577506  0.262333  0.558981  1
  O  O45  1  0.152636  0.364372  0.890306  1
  O  O46  1  0.094988  0.822041  0.359827  1
  O  O47  1  0.262333  0.558981  0.577506  1
  O  O48  1  0.847364  0.109694  0.635628  1
  O  O49  1  0.558981  0.577506  0.262333  1
  O  O50  1  0.737667  0.422494  0.441019  1
  O  O51  1  0.364372  0.890306  0.152636  1
  O  O52  1  0.422494  0.441019  0.737667  1
  O  O53  1  0.640173  0.177959  0.905012  1
  O  O54  1  0.109694  0.635628  0.847364  1
  O  O55  1  0.441019  0.737667  0.422494  1
  O  O56  1  0.863743  0.319666  0.600953  1
  O  O57  1  0.635628  0.847364  0.109694  1
  O  O58  1  0.905012  0.640173  0.177959  1
  O  O59  1  0.319666  0.600953  0.863743  1
  O  O60  1  0.647463  0.391619  0.870800  1
  O  O61  1  0.177959  0.905012  0.640173  1
  O  O62  1  0.600953  0.863743  0.319666  1
  O  O63  1  0.870800  0.647463  0.391619  1
  O  O64  1  0.923390  0.213362  0.954005  1
  O  O65  1  0.391619  0.870800  0.647463  1
  O  O66  1  0.753823  0.544546  0.852204  1
  O  O67  1  0.852204  0.753823  0.544546  1
  O  O68  1  0.954005  0.923390  0.213362  1
  O  O69  1  0.213362  0.954005  0.923390  1
  O  O70  1  0.544546  0.852204  0.753823  1
  O  O71  1  0.944818  0.640922  0.755469  1
  O  O72  1  0.640922  0.755469  0.944818  1
  O  O73  1  0.755469  0.944818  0.640922  1
