# generated using pymatgen
data_Pr17Nd3(Ir2Ru)4
_symmetry_space_group_name_H-M   'P 1'
_cell_length_a   11.29743300
_cell_length_b   11.29743300
_cell_length_c   6.66882400
_cell_angle_alpha   90.00000000
_cell_angle_beta   90.00000000
_cell_angle_gamma   90.00000000
_symmetry_Int_Tables_number   1
_chemical_formula_structural   Pr17Nd3(Ir2Ru)4
_chemical_formula_sum   'Pr17 Nd3 Ir8 Ru4'
_cell_volume   851.15529401
_cell_formula_units_Z   1
loop_
 _symmetry_equiv_pos_site_id
 _symmetry_equiv_pos_as_xyz
  1  'x, y, z'
loop_
 _atom_site_type_symbol
 _atom_site_label
 _atom_site_symmetry_multiplicity
 _atom_site_fract_x
 _atom_site_fract_y
 _atom_site_fract_z
 _atom_site_occupancy
  Pr  Pr0  1  0.293014  0.088059  0.381669  1
  Pr  Pr1  1  0.293036  0.911919  0.881664  1
  Pr  Pr2  1  0.706964  0.088081  0.881664  1
  Pr  Pr3  1  0.706986  0.911941  0.381669  1
  Pr  Pr4  1  0.588094  0.793114  0.881716  1
  Pr  Pr5  1  0.588101  0.206790  0.381584  1
  Pr  Pr6  1  0.411899  0.793210  0.381584  1
  Pr  Pr7  1  0.411906  0.206886  0.881716  1
  Pr  Pr8  1  0.206790  0.411899  0.618416  1
  Pr  Pr9  1  0.206886  0.588094  0.118284  1
  Pr  Pr10  1  0.793114  0.411906  0.118284  1
  Pr  Pr11  1  0.793210  0.588101  0.618416  1
  Pr  Pr12  1  0.911919  0.706964  0.118336  1
  Pr  Pr13  1  0.911941  0.293014  0.618331  1
  Pr  Pr14  1  0.088059  0.706986  0.618331  1
  Pr  Pr15  1  0.088081  0.293036  0.118336  1
  Pr  Pr16  1  0.500000  0.500000  0.500000  1
  Nd  Nd17  1  0.000000  0.000000  0.500000  1
  Nd  Nd18  1  0.000000  0.000000  0.000000  1
  Nd  Nd19  1  0.500000  0.500000  0.000000  1
  Ir  Ir20  1  0.847609  0.152376  0.250010  1
  Ir  Ir21  1  0.847624  0.847609  0.749990  1
  Ir  Ir22  1  0.152376  0.152391  0.749990  1
  Ir  Ir23  1  0.152391  0.847624  0.250010  1
  Ir  Ir24  1  0.652642  0.347361  0.750453  1
  Ir  Ir25  1  0.652639  0.652642  0.249547  1
  Ir  Ir26  1  0.347361  0.347358  0.249547  1
  Ir  Ir27  1  0.347358  0.652639  0.750453  1
  Ru  Ru28  1  0.500000  0.000000  0.115701  1
  Ru  Ru29  1  0.500000  0.000000  0.615693  1
  Ru  Ru30  1  0.000000  0.500000  0.884299  1
  Ru  Ru31  1  0.000000  0.500000  0.384307  1
