# generated using pymatgen
data_Zr2Ti3(GeP)2
_symmetry_space_group_name_H-M   'P 1'
_cell_length_a   6.64022800
_cell_length_b   6.77544300
_cell_length_c   13.03577700
_cell_angle_alpha   90.00000000
_cell_angle_beta   90.00000000
_cell_angle_gamma   90.00000000
_symmetry_Int_Tables_number   1
_chemical_formula_structural   Zr2Ti3(GeP)2
_chemical_formula_sum   'Zr8 Ti12 Ge8 P8'
_cell_volume   586.48594680
_cell_formula_units_Z   4
loop_
 _symmetry_equiv_pos_site_id
 _symmetry_equiv_pos_as_xyz
  1  'x, y, z'
loop_
 _atom_site_type_symbol
 _atom_site_label
 _atom_site_symmetry_multiplicity
 _atom_site_fract_x
 _atom_site_fract_y
 _atom_site_fract_z
 _atom_site_occupancy
  Zr  Zr0  1  0.487197  0.668707  0.103150  1
  Zr  Zr1  1  0.987197  0.831293  0.396850  1
  Zr  Zr2  1  0.512803  0.331293  0.603150  1
  Zr  Zr3  1  0.012803  0.168707  0.896850  1
  Zr  Zr4  1  0.512803  0.331293  0.896850  1
  Zr  Zr5  1  0.012803  0.168707  0.603150  1
  Zr  Zr6  1  0.487197  0.668707  0.396850  1
  Zr  Zr7  1  0.987197  0.831293  0.103150  1
  Ti  Ti8  1  0.331145  0.001382  0.250000  1
  Ti  Ti9  1  0.831145  0.498618  0.250000  1
  Ti  Ti10  1  0.668855  0.998618  0.750000  1
  Ti  Ti11  1  0.168855  0.501382  0.750000  1
  Ti  Ti12  1  0.667470  0.161976  0.130503  1
  Ti  Ti13  1  0.167470  0.338024  0.369497  1
  Ti  Ti14  1  0.332530  0.838024  0.630503  1
  Ti  Ti15  1  0.832530  0.661976  0.869497  1
  Ti  Ti16  1  0.332530  0.838024  0.869497  1
  Ti  Ti17  1  0.832530  0.661976  0.630503  1
  Ti  Ti18  1  0.667470  0.161976  0.369497  1
  Ti  Ti19  1  0.167470  0.338024  0.130503  1
  Ge  Ge20  1  0.677738  0.956902  0.962764  1
  Ge  Ge21  1  0.177738  0.543098  0.537236  1
  Ge  Ge22  1  0.322262  0.043098  0.462764  1
  Ge  Ge23  1  0.822262  0.456902  0.037236  1
  Ge  Ge24  1  0.322262  0.043098  0.037236  1
  Ge  Ge25  1  0.822262  0.456902  0.462764  1
  Ge  Ge26  1  0.677738  0.956902  0.537236  1
  Ge  Ge27  1  0.177738  0.543098  0.962764  1
  P  P28  1  0.688174  0.859645  0.250000  1
  P  P29  1  0.188174  0.640355  0.250000  1
  P  P30  1  0.311826  0.140355  0.750000  1
  P  P31  1  0.811826  0.359645  0.750000  1
  P  P32  1  0.466812  0.366646  0.250000  1
  P  P33  1  0.966812  0.133354  0.250000  1
  P  P34  1  0.533188  0.633354  0.750000  1
  P  P35  1  0.033188  0.866646  0.750000  1
