# generated using pymatgen
data_Sc8Ti5Al9Co8
_symmetry_space_group_name_H-M   'P 1'
_cell_length_a   8.72555257
_cell_length_b   8.74207401
_cell_length_c   8.72555300
_cell_angle_alpha   59.89614380
_cell_angle_beta   59.84017555
_cell_angle_gamma   59.89616221
_symmetry_Int_Tables_number   1
_chemical_formula_structural   Sc8Ti5Al9Co8
_chemical_formula_sum   'Sc8 Ti5 Al9 Co8'
_cell_volume   469.32775116
_cell_formula_units_Z   1
loop_
 _symmetry_equiv_pos_site_id
 _symmetry_equiv_pos_as_xyz
  1  'x, y, z'
loop_
 _atom_site_type_symbol
 _atom_site_label
 _atom_site_symmetry_multiplicity
 _atom_site_fract_x
 _atom_site_fract_y
 _atom_site_fract_z
 _atom_site_occupancy
  Sc  Sc0  1  0.209967  0.206818  0.796321  1
  Sc  Sc1  1  0.796321  0.206818  0.209967  1
  Sc  Sc2  1  0.204076  0.797423  0.204076  1
  Sc  Sc3  1  0.802291  0.797668  0.189379  1
  Sc  Sc4  1  0.189379  0.797668  0.802291  1
  Sc  Sc5  1  0.796030  0.191398  0.796030  1
  Sc  Sc6  1  0.381992  0.384259  0.381992  1
  Sc  Sc7  1  0.383815  0.853747  0.383815  1
  Ti  Ti8  1  0.856600  0.383105  0.383098  1
  Ti  Ti9  1  0.383098  0.383105  0.856600  1
  Ti  Ti10  1  0.835834  0.486260  0.835834  1
  Ti  Ti11  1  0.491799  0.834816  0.833457  1
  Ti  Ti12  1  0.833457  0.834816  0.491799  1
  Al  Al13  1  0.165900  0.170027  0.165900  1
  Al  Al14  1  0.165706  0.501833  0.165706  1
  Al  Al15  1  0.507755  0.167361  0.162602  1
  Al  Al16  1  0.162602  0.167361  0.507755  1
  Al  Al17  1  0.619834  0.614717  0.619834  1
  Al  Al18  1  0.619875  0.144414  0.619875  1
  Al  Al19  1  0.143709  0.617277  0.622444  1
  Al  Al20  1  0.622444  0.617277  0.143709  1
  Al  Al21  1  0.826356  0.825608  0.826356  1
  Co  Co22  1  0.992160  0.007450  0.496583  1
  Co  Co23  1  0.496583  0.007450  0.992160  1
  Co  Co24  1  0.000783  0.496181  0.000783  1
  Co  Co25  1  0.504113  0.504509  0.990065  1
  Co  Co26  1  0.990065  0.504509  0.504113  1
  Co  Co27  1  0.506333  0.996149  0.506333  1
  Co  Co28  1  0.508821  0.491694  0.508821  1
  Co  Co29  1  0.002299  0.008280  0.002299  1
