# generated using pymatgen
data_SrLaTb(Si3Pd10)2
_symmetry_space_group_name_H-M   'P 1'
_cell_length_a   8.78550790
_cell_length_b   8.78550760
_cell_length_c   8.78550800
_cell_angle_alpha   59.99999849
_cell_angle_beta   59.99999963
_cell_angle_gamma   60.00000296
_symmetry_Int_Tables_number   1
_chemical_formula_structural   SrLaTb(Si3Pd10)2
_chemical_formula_sum   'Sr1 La1 Tb1 Si6 Pd20'
_cell_volume   479.49669337
_cell_formula_units_Z   1
loop_
 _symmetry_equiv_pos_site_id
 _symmetry_equiv_pos_as_xyz
  1  'x, y, z'
loop_
 _atom_site_type_symbol
 _atom_site_label
 _atom_site_symmetry_multiplicity
 _atom_site_fract_x
 _atom_site_fract_y
 _atom_site_fract_z
 _atom_site_occupancy
  Sr  Sr0  1  0.750000  0.750000  0.750000  1
  La  La1  1  0.250000  0.250000  0.250000  1
  Tb  Tb2  1  0.000000  0.000000  0.000000  1
  Si  Si3  1  0.732983  0.732983  0.267017  1
  Si  Si4  1  0.267017  0.267017  0.732983  1
  Si  Si5  1  0.732983  0.267017  0.732983  1
  Si  Si6  1  0.267017  0.732983  0.267017  1
  Si  Si7  1  0.267017  0.732983  0.732983  1
  Si  Si8  1  0.732983  0.267017  0.267017  1
  Pd  Pd9  1  0.613490  0.613490  0.613490  1
  Pd  Pd10  1  0.385187  0.385187  0.385187  1
  Pd  Pd11  1  0.159528  0.613490  0.613490  1
  Pd  Pd12  1  0.613490  0.159528  0.613490  1
  Pd  Pd13  1  0.844440  0.385187  0.385187  1
  Pd  Pd14  1  0.385187  0.844440  0.385187  1
  Pd  Pd15  1  0.613490  0.613490  0.159528  1
  Pd  Pd16  1  0.385187  0.385187  0.844440  1
  Pd  Pd17  1  0.000880  0.000880  0.654482  1
  Pd  Pd18  1  0.000880  0.000880  0.343759  1
  Pd  Pd19  1  0.343759  0.654482  0.000880  1
  Pd  Pd20  1  0.654482  0.343759  0.000880  1
  Pd  Pd21  1  0.000880  0.654482  0.000880  1
  Pd  Pd22  1  0.654482  0.000880  0.343759  1
  Pd  Pd23  1  0.000880  0.343759  0.000880  1
  Pd  Pd24  1  0.343759  0.000880  0.654482  1
  Pd  Pd25  1  0.654482  0.000880  0.000880  1
  Pd  Pd26  1  0.343759  0.000880  0.000880  1
  Pd  Pd27  1  0.000880  0.654482  0.343759  1
  Pd  Pd28  1  0.000880  0.343759  0.654482  1
