# generated using pymatgen
data_KTlNi3S4
_symmetry_space_group_name_H-M   'P 1'
_cell_length_a   5.71153567
_cell_length_b   5.71153518
_cell_length_c   8.01792600
_cell_angle_alpha   100.57484785
_cell_angle_beta   100.57484693
_cell_angle_gamma   118.99576242
_symmetry_Int_Tables_number   1
_chemical_formula_structural   KTlNi3S4
_chemical_formula_sum   'K1 Tl1 Ni3 S4'
_cell_volume   213.29580633
_cell_formula_units_Z   1
loop_
 _symmetry_equiv_pos_site_id
 _symmetry_equiv_pos_as_xyz
  1  'x, y, z'
loop_
 _atom_site_type_symbol
 _atom_site_label
 _atom_site_symmetry_multiplicity
 _atom_site_fract_x
 _atom_site_fract_y
 _atom_site_fract_z
 _atom_site_occupancy
  K  K0  1  0.329838  0.329838  0.659677  1
  Tl  Tl1  1  0.617840  0.617840  0.235679  1
  Ni  Ni2  1  0.006852  0.006852  0.013702  1
  Ni  Ni3  1  0.007901  0.507901  0.015801  1
  Ni  Ni4  1  0.507901  0.007901  0.015801  1
  S  S5  1  0.741303  0.077930  0.819234  1
  S  S6  1  0.938152  0.272283  0.210436  1
  S  S7  1  0.077930  0.741303  0.819234  1
  S  S8  1  0.272283  0.938152  0.210436  1
