# generated using pymatgen
data_Nd3ZrZn2Rh3
_symmetry_space_group_name_H-M   'P 1'
_cell_length_a   7.24888900
_cell_length_b   7.37429501
_cell_length_c   4.16130600
_cell_angle_alpha   90.00000000
_cell_angle_beta   90.00000000
_cell_angle_gamma   119.43903267
_symmetry_Int_Tables_number   1
_chemical_formula_structural   Nd3ZrZn2Rh3
_chemical_formula_sum   'Nd3 Zr1 Zn2 Rh3'
_cell_volume   193.72225623
_cell_formula_units_Z   1
loop_
 _symmetry_equiv_pos_site_id
 _symmetry_equiv_pos_as_xyz
  1  'x, y, z'
loop_
 _atom_site_type_symbol
 _atom_site_label
 _atom_site_symmetry_multiplicity
 _atom_site_fract_x
 _atom_site_fract_y
 _atom_site_fract_z
 _atom_site_occupancy
  Nd  Nd0  1  0.613679  0.000000  0.500000  1
  Nd  Nd1  1  0.419569  0.438596  0.500000  1
  Nd  Nd2  1  0.980973  0.561404  0.500000  1
  Zr  Zr3  1  0.235253  0.000000  0.000000  1
  Zn  Zn4  1  0.759487  0.755849  0.000000  1
  Zn  Zn5  1  0.003638  0.244151  0.000000  1
  Rh  Rh6  1  0.014047  0.000000  0.500000  1
  Rh  Rh7  1  0.325518  0.677681  0.000000  1
  Rh  Rh8  1  0.647836  0.322319  0.000000  1
