# generated using pymatgen
data_YbCd3(Sb2O7)2
_symmetry_space_group_name_H-M   'P 1'
_cell_length_a   7.33932311
_cell_length_b   7.42107586
_cell_length_c   7.33932300
_cell_angle_alpha   60.36374791
_cell_angle_beta   59.99999598
_cell_angle_gamma   60.36374923
_symmetry_Int_Tables_number   1
_chemical_formula_structural   YbCd3(Sb2O7)2
_chemical_formula_sum   'Yb1 Cd3 Sb4 O14'
_cell_volume   284.20380740
_cell_formula_units_Z   1
loop_
 _symmetry_equiv_pos_site_id
 _symmetry_equiv_pos_as_xyz
  1  'x, y, z'
loop_
 _atom_site_type_symbol
 _atom_site_label
 _atom_site_symmetry_multiplicity
 _atom_site_fract_x
 _atom_site_fract_y
 _atom_site_fract_z
 _atom_site_occupancy
  Yb  Yb0  1  0.125000  0.625000  0.125000  1
  Cd  Cd1  1  0.625000  0.125000  0.125000  1
  Cd  Cd2  1  0.125000  0.125000  0.625000  1
  Cd  Cd3  1  0.125000  0.125000  0.125000  1
  Sb  Sb4  1  0.125000  0.625000  0.625000  1
  Sb  Sb5  1  0.625000  0.125000  0.625000  1
  Sb  Sb6  1  0.625000  0.625000  0.125000  1
  Sb  Sb7  1  0.625000  0.625000  0.625000  1
  O  O8  1  0.708265  0.692828  0.299453  1
  O  O9  1  0.300594  0.303674  0.697866  1
  O  O10  1  0.697866  0.303674  0.697866  1
  O  O11  1  0.299453  0.692828  0.299453  1
  O  O12  1  0.299453  0.692828  0.708265  1
  O  O13  1  0.697866  0.303674  0.300594  1
  O  O14  1  0.541735  0.557172  0.950547  1
  O  O15  1  0.949406  0.946326  0.552134  1
  O  O16  1  0.552134  0.946326  0.552134  1
  O  O17  1  0.950547  0.557172  0.950547  1
  O  O18  1  0.950547  0.557172  0.541735  1
  O  O19  1  0.552134  0.946326  0.949406  1
  O  O20  1  0.253104  0.240687  0.253104  1
  O  O21  1  0.996896  0.009313  0.996896  1
