# generated using pymatgen
data_Dy4SiCl6
_symmetry_space_group_name_H-M   'P 1'
_cell_length_a   3.95104200
_cell_length_b   12.74081400
_cell_length_c   13.54944100
_cell_angle_alpha   90.00000000
_cell_angle_beta   90.00000000
_cell_angle_gamma   90.00000000
_symmetry_Int_Tables_number   1
_chemical_formula_structural   Dy4SiCl6
_chemical_formula_sum   'Dy8 Si2 Cl12'
_cell_volume   682.07196637
_cell_formula_units_Z   2
loop_
 _symmetry_equiv_pos_site_id
 _symmetry_equiv_pos_as_xyz
  1  'x, y, z'
loop_
 _atom_site_type_symbol
 _atom_site_label
 _atom_site_symmetry_multiplicity
 _atom_site_fract_x
 _atom_site_fract_y
 _atom_site_fract_z
 _atom_site_occupancy
  Dy  Dy0  1  0.500000  0.121133  0.336879  1
  Dy  Dy1  1  0.500000  0.878867  0.663121  1
  Dy  Dy2  1  0.500000  0.621133  0.163121  1
  Dy  Dy3  1  0.500000  0.378867  0.836879  1
  Dy  Dy4  1  0.000000  0.123293  0.581443  1
  Dy  Dy5  1  0.000000  0.876707  0.418557  1
  Dy  Dy6  1  0.000000  0.623293  0.918557  1
  Dy  Dy7  1  0.000000  0.376707  0.081443  1
  Si  Si8  1  0.500000  0.000000  0.500000  1
  Si  Si9  1  0.500000  0.500000  0.000000  1
  Cl  Cl10  1  0.500000  0.244082  0.163689  1
  Cl  Cl11  1  0.500000  0.755918  0.836311  1
  Cl  Cl12  1  0.500000  0.744082  0.336311  1
  Cl  Cl13  1  0.500000  0.255918  0.663689  1
  Cl  Cl14  1  0.000000  0.251362  0.408941  1
  Cl  Cl15  1  0.000000  0.748638  0.591059  1
  Cl  Cl16  1  0.000000  0.751362  0.091059  1
  Cl  Cl17  1  0.000000  0.248638  0.908941  1
  Cl  Cl18  1  0.000000  0.004860  0.246419  1
  Cl  Cl19  1  0.000000  0.995140  0.753581  1
  Cl  Cl20  1  0.000000  0.504860  0.253581  1
  Cl  Cl21  1  0.000000  0.495140  0.746419  1
