# generated using pymatgen
data_Nd2Y4FeBr10
_symmetry_space_group_name_H-M   'P 1'
_cell_length_a   7.43347360
_cell_length_b   9.34177237
_cell_length_c   9.19512208
_cell_angle_alpha   106.70129307
_cell_angle_beta   95.59242369
_cell_angle_gamma   105.55886797
_symmetry_Int_Tables_number   1
_chemical_formula_structural   Nd2Y4FeBr10
_chemical_formula_sum   'Nd2 Y4 Fe1 Br10'
_cell_volume   578.54276823
_cell_formula_units_Z   1
loop_
 _symmetry_equiv_pos_site_id
 _symmetry_equiv_pos_as_xyz
  1  'x, y, z'
loop_
 _atom_site_type_symbol
 _atom_site_label
 _atom_site_symmetry_multiplicity
 _atom_site_fract_x
 _atom_site_fract_y
 _atom_site_fract_z
 _atom_site_occupancy
  Nd  Nd0  1  0.116253  0.044776  0.770361  1
  Nd  Nd1  1  0.883747  0.955224  0.229639  1
  Y  Y2  1  0.969568  0.297138  0.091433  1
  Y  Y3  1  0.030432  0.702862  0.908567  1
  Y  Y4  1  0.359572  0.132645  0.174720  1
  Y  Y5  1  0.640428  0.867355  0.825280  1
  Fe  Fe6  1  0.000000  0.000000  0.000000  1
  Br  Br7  1  0.343355  0.443970  0.267043  1
  Br  Br8  1  0.656645  0.556030  0.732957  1
  Br  Br9  1  0.257163  0.085451  0.449776  1
  Br  Br10  1  0.742837  0.914549  0.550224  1
  Br  Br11  1  0.082734  0.373926  0.828087  1
  Br  Br12  1  0.917266  0.626074  0.171913  1
  Br  Br13  1  0.454161  0.823619  0.086840  1
  Br  Br14  1  0.545839  0.176381  0.913160  1
  Br  Br15  1  0.779059  0.256667  0.339276  1
  Br  Br16  1  0.220941  0.743333  0.660724  1
