# generated using pymatgen
data_Sr2InPdPt
_symmetry_space_group_name_H-M   'P 1'
_cell_length_a   6.03630640
_cell_length_b   6.03630579
_cell_length_c   8.44439570
_cell_angle_alpha   78.44659718
_cell_angle_beta   78.44659710
_cell_angle_gamma   60.41111161
_symmetry_Int_Tables_number   1
_chemical_formula_structural   Sr2InPdPt
_chemical_formula_sum   'Sr4 In2 Pd2 Pt2'
_cell_volume   260.27888409
_cell_formula_units_Z   2
loop_
 _symmetry_equiv_pos_site_id
 _symmetry_equiv_pos_as_xyz
  1  'x, y, z'
loop_
 _atom_site_type_symbol
 _atom_site_label
 _atom_site_symmetry_multiplicity
 _atom_site_fract_x
 _atom_site_fract_y
 _atom_site_fract_z
 _atom_site_occupancy
  Sr  Sr0  1  0.510329  0.788871  0.352236  1
  Sr  Sr1  1  0.211129  0.489671  0.147764  1
  Sr  Sr2  1  0.491602  0.212616  0.648302  1
  Sr  Sr3  1  0.787384  0.508398  0.851698  1
  In  In4  1  0.863963  0.136037  0.250000  1
  In  In5  1  0.134754  0.865246  0.750000  1
  Pd  Pd6  1  0.272325  0.998124  0.997450  1
  Pd  Pd7  1  0.001876  0.727675  0.502550  1
  Pt  Pt8  1  0.727958  0.001321  0.003557  1
  Pt  Pt9  1  0.998679  0.272042  0.496443  1
