# generated using pymatgen
data_Ac2Yb(GdSn2)2
_symmetry_space_group_name_H-M   'P 1'
_cell_length_a   8.21274100
_cell_length_b   8.54200400
_cell_length_c   16.02030700
_cell_angle_alpha   90.00000000
_cell_angle_beta   90.00000000
_cell_angle_gamma   90.00000000
_symmetry_Int_Tables_number   1
_chemical_formula_structural   Ac2Yb(GdSn2)2
_chemical_formula_sum   'Ac8 Yb4 Gd8 Sn16'
_cell_volume   1123.87686595
_cell_formula_units_Z   4
loop_
 _symmetry_equiv_pos_site_id
 _symmetry_equiv_pos_as_xyz
  1  'x, y, z'
loop_
 _atom_site_type_symbol
 _atom_site_label
 _atom_site_symmetry_multiplicity
 _atom_site_fract_x
 _atom_site_fract_y
 _atom_site_fract_z
 _atom_site_occupancy
  Ac  Ac0  1  0.502711  0.677553  0.595826  1
  Ac  Ac1  1  0.002711  0.822447  0.904174  1
  Ac  Ac2  1  0.497289  0.322447  0.095826  1
  Ac  Ac3  1  0.997289  0.177553  0.404174  1
  Ac  Ac4  1  0.497289  0.322447  0.404174  1
  Ac  Ac5  1  0.997289  0.177553  0.095826  1
  Ac  Ac6  1  0.502711  0.677553  0.904174  1
  Ac  Ac7  1  0.002711  0.822447  0.595826  1
  Yb  Yb8  1  0.827345  0.501570  0.750000  1
  Yb  Yb9  1  0.327345  0.998430  0.750000  1
  Yb  Yb10  1  0.172655  0.498430  0.250000  1
  Yb  Yb11  1  0.672655  0.001570  0.250000  1
  Gd  Gd12  1  0.663723  0.170043  0.623850  1
  Gd  Gd13  1  0.163723  0.329957  0.876150  1
  Gd  Gd14  1  0.336277  0.829957  0.123850  1
  Gd  Gd15  1  0.836277  0.670043  0.376150  1
  Gd  Gd16  1  0.336277  0.829957  0.376150  1
  Gd  Gd17  1  0.836277  0.670043  0.123850  1
  Gd  Gd18  1  0.663723  0.170043  0.876150  1
  Gd  Gd19  1  0.163723  0.329957  0.623850  1
  Sn  Sn20  1  0.671311  0.958442  0.460665  1
  Sn  Sn21  1  0.171311  0.541558  0.039335  1
  Sn  Sn22  1  0.328689  0.041558  0.960665  1
  Sn  Sn23  1  0.828689  0.458442  0.539335  1
  Sn  Sn24  1  0.328689  0.041558  0.539335  1
  Sn  Sn25  1  0.828689  0.458442  0.960665  1
  Sn  Sn26  1  0.671311  0.958442  0.039335  1
  Sn  Sn27  1  0.171311  0.541558  0.460665  1
  Sn  Sn28  1  0.462795  0.373676  0.750000  1
  Sn  Sn29  1  0.962795  0.126324  0.750000  1
  Sn  Sn30  1  0.537205  0.626324  0.250000  1
  Sn  Sn31  1  0.037205  0.873676  0.250000  1
  Sn  Sn32  1  0.702347  0.873122  0.750000  1
  Sn  Sn33  1  0.202347  0.626878  0.750000  1
  Sn  Sn34  1  0.297653  0.126878  0.250000  1
  Sn  Sn35  1  0.797653  0.373122  0.250000  1
