# generated using pymatgen
data_CsPr3CBr6
_symmetry_space_group_name_H-M   'P 1'
_cell_length_a   9.15674719
_cell_length_b   9.20381505
_cell_length_c   9.83148655
_cell_angle_alpha   69.28289651
_cell_angle_beta   85.83960767
_cell_angle_gamma   89.26353382
_symmetry_Int_Tables_number   1
_chemical_formula_structural   CsPr3CBr6
_chemical_formula_sum   'Cs2 Pr6 C2 Br12'
_cell_volume   772.87668176
_cell_formula_units_Z   2
loop_
 _symmetry_equiv_pos_site_id
 _symmetry_equiv_pos_as_xyz
  1  'x, y, z'
loop_
 _atom_site_type_symbol
 _atom_site_label
 _atom_site_symmetry_multiplicity
 _atom_site_fract_x
 _atom_site_fract_y
 _atom_site_fract_z
 _atom_site_occupancy
  Cs  Cs0  1  0.472307  0.351533  0.332806  1
  Cs  Cs1  1  0.527694  0.648467  0.667194  1
  Pr  Pr2  1  0.914119  0.738690  0.005800  1
  Pr  Pr3  1  0.085881  0.261310  0.994199  1
  Pr  Pr4  1  0.737904  0.087678  0.000878  1
  Pr  Pr5  1  0.262095  0.912322  0.999123  1
  Pr  Pr6  1  0.978600  0.877352  0.328681  1
  Pr  Pr7  1  0.021399  0.122648  0.671320  1
  C  C8  1  0.004773  0.028221  0.923334  1
  C  C9  1  0.995226  0.971779  0.076666  1
  Br  Br10  1  0.085009  0.190558  0.325196  1
  Br  Br11  1  0.914991  0.809442  0.674804  1
  Br  Br12  1  0.207079  0.590424  0.001929  1
  Br  Br13  1  0.792922  0.409576  0.998071  1
  Br  Br14  1  0.405897  0.201138  0.004355  1
  Br  Br15  1  0.594102  0.798863  0.995644  1
  Br  Br16  1  0.671061  0.996610  0.327735  1
  Br  Br17  1  0.328939  0.003390  0.672265  1
  Br  Br18  1  0.286419  0.764343  0.324665  1
  Br  Br19  1  0.713581  0.235657  0.675335  1
  Br  Br20  1  0.846171  0.583985  0.329026  1
  Br  Br21  1  0.153828  0.416015  0.670974  1
