# generated using pymatgen
data_Li6Ni7
_symmetry_space_group_name_H-M   'P 1'
_cell_length_a   8.73710064
_cell_length_b   8.73710107
_cell_length_c   8.73709928
_cell_angle_alpha   31.65819414
_cell_angle_beta   31.65818879
_cell_angle_gamma   31.65818526
_symmetry_Int_Tables_number   1
_chemical_formula_structural   Li6Ni7
_chemical_formula_sum   'Li6 Ni7'
_cell_volume   163.15310158
_cell_formula_units_Z   1
loop_
 _symmetry_equiv_pos_site_id
 _symmetry_equiv_pos_as_xyz
  1  'x, y, z'
loop_
 _atom_site_type_symbol
 _atom_site_label
 _atom_site_symmetry_multiplicity
 _atom_site_fract_x
 _atom_site_fract_y
 _atom_site_fract_z
 _atom_site_occupancy
  Li  Li0  1  0.834863  0.834863  0.834863  1
  Li  Li1  1  0.165137  0.165137  0.165137  1
  Li  Li2  1  0.652324  0.652324  0.652324  1
  Li  Li3  1  0.347676  0.347676  0.347676  1
  Li  Li4  1  0.553256  0.553256  0.553256  1
  Li  Li5  1  0.446744  0.446744  0.446744  1
  Ni  Ni6  1  0.000000  0.000000  0.000000  1
  Ni  Ni7  1  0.414468  0.907821  0.907821  1
  Ni  Ni8  1  0.907821  0.907821  0.414468  1
  Ni  Ni9  1  0.907821  0.414468  0.907821  1
  Ni  Ni10  1  0.585532  0.092179  0.092179  1
  Ni  Ni11  1  0.092179  0.092179  0.585532  1
  Ni  Ni12  1  0.092179  0.585532  0.092179  1
