# generated using pymatgen
data_La2TbCu4Ni9B2
_symmetry_space_group_name_H-M   'P 1'
_cell_length_a   5.09107501
_cell_length_b   5.09707847
_cell_length_c   10.90229800
_cell_angle_alpha   89.99892614
_cell_angle_beta   90.00217277
_cell_angle_gamma   119.96102605
_symmetry_Int_Tables_number   1
_chemical_formula_structural   La2TbCu4Ni9B2
_chemical_formula_sum   'La2 Tb1 Cu4 Ni9 B2'
_cell_volume   245.10373055
_cell_formula_units_Z   1
loop_
 _symmetry_equiv_pos_site_id
 _symmetry_equiv_pos_as_xyz
  1  'x, y, z'
loop_
 _atom_site_type_symbol
 _atom_site_label
 _atom_site_symmetry_multiplicity
 _atom_site_fract_x
 _atom_site_fract_y
 _atom_site_fract_z
 _atom_site_occupancy
  La  La0  1  0.999994  0.000000  0.331452  1
  La  La1  1  0.999989  0.000000  0.668571  1
  Tb  Tb2  1  0.999999  0.000000  0.000025  1
  Cu  Cu3  1  0.333284  0.666579  0.315808  1
  Cu  Cu4  1  0.666704  0.333421  0.315808  1
  Cu  Cu5  1  0.666678  0.333373  0.684166  1
  Cu  Cu6  1  0.333305  0.666627  0.684166  1
  Ni  Ni7  1  0.500004  0.000000  0.499999  1
  Ni  Ni8  1  0.499980  0.499989  0.500003  1
  Ni  Ni9  1  0.999991  0.500011  0.500003  1
  Ni  Ni10  1  0.500020  0.000000  0.127193  1
  Ni  Ni11  1  0.500017  0.500001  0.127222  1
  Ni  Ni12  1  0.000017  0.499999  0.127222  1
  Ni  Ni13  1  0.499973  0.000000  0.872797  1
  Ni  Ni14  1  0.499976  0.499999  0.872783  1
  Ni  Ni15  1  0.999977  0.500001  0.872783  1
  B  B16  1  0.333331  0.666669  0.999997  1
  B  B17  1  0.666662  0.333331  0.999997  1
