# generated using pymatgen
data_Nd10GaSiPb6
_symmetry_space_group_name_H-M   'P 1'
_cell_length_a   9.65299700
_cell_length_b   9.65299671
_cell_length_c   6.78785400
_cell_angle_alpha   90.00000000
_cell_angle_beta   90.00000000
_cell_angle_gamma   120.00000442
_symmetry_Int_Tables_number   1
_chemical_formula_structural   Nd10GaSiPb6
_chemical_formula_sum   'Nd10 Ga1 Si1 Pb6'
_cell_volume   547.75636672
_cell_formula_units_Z   1
loop_
 _symmetry_equiv_pos_site_id
 _symmetry_equiv_pos_as_xyz
  1  'x, y, z'
loop_
 _atom_site_type_symbol
 _atom_site_label
 _atom_site_symmetry_multiplicity
 _atom_site_fract_x
 _atom_site_fract_y
 _atom_site_fract_z
 _atom_site_occupancy
  Nd  Nd0  1  0.666667  0.333333  0.500000  1
  Nd  Nd1  1  0.333333  0.666667  0.500000  1
  Nd  Nd2  1  0.333333  0.666667  0.000000  1
  Nd  Nd3  1  0.666667  0.333333  0.000000  1
  Nd  Nd4  1  0.746069  0.746069  0.239056  1
  Nd  Nd5  1  0.253931  0.000000  0.239056  1
  Nd  Nd6  1  0.000000  0.253931  0.239056  1
  Nd  Nd7  1  0.253931  0.253931  0.760944  1
  Nd  Nd8  1  0.746069  0.000000  0.760944  1
  Nd  Nd9  1  0.000000  0.746069  0.760944  1
  Ga  Ga10  1  0.000000  0.000000  0.500000  1
  Si  Si11  1  0.000000  0.000000  0.000000  1
  Pb  Pb12  1  0.388865  0.388865  0.248955  1
  Pb  Pb13  1  0.611135  0.000000  0.248955  1
  Pb  Pb14  1  0.000000  0.611135  0.248955  1
  Pb  Pb15  1  0.611135  0.611135  0.751045  1
  Pb  Pb16  1  0.388865  0.000000  0.751045  1
  Pb  Pb17  1  0.000000  0.388865  0.751045  1
