# generated using pymatgen
data_Tm2Mn3Si7Ni9
_symmetry_space_group_name_H-M   'P 1'
_cell_length_a   9.22234600
_cell_length_b   9.22234607
_cell_length_c   3.68937300
_cell_angle_alpha   90.00000000
_cell_angle_beta   90.00000000
_cell_angle_gamma   119.99999975
_symmetry_Int_Tables_number   1
_chemical_formula_structural   Tm2Mn3Si7Ni9
_chemical_formula_sum   'Tm2 Mn3 Si7 Ni9'
_cell_volume   271.74779259
_cell_formula_units_Z   1
loop_
 _symmetry_equiv_pos_site_id
 _symmetry_equiv_pos_as_xyz
  1  'x, y, z'
loop_
 _atom_site_type_symbol
 _atom_site_label
 _atom_site_symmetry_multiplicity
 _atom_site_fract_x
 _atom_site_fract_y
 _atom_site_fract_z
 _atom_site_occupancy
  Tm  Tm0  1  0.000000  0.000000  0.000000  1
  Tm  Tm1  1  0.666667  0.333333  0.500000  1
  Mn  Mn2  1  0.448546  0.568424  0.500000  1
  Mn  Mn3  1  0.431576  0.880123  0.500000  1
  Mn  Mn4  1  0.119877  0.551454  0.500000  1
  Si  Si5  1  0.448445  0.375538  0.000000  1
  Si  Si6  1  0.624462  0.072907  0.000000  1
  Si  Si7  1  0.927093  0.551555  0.000000  1
  Si  Si8  1  0.041475  0.260831  0.500000  1
  Si  Si9  1  0.739169  0.780644  0.500000  1
  Si  Si10  1  0.219356  0.958525  0.500000  1
  Si  Si11  1  0.333333  0.666667  0.000000  1
  Ni  Ni12  1  0.710337  0.609460  0.000000  1
  Ni  Ni13  1  0.390540  0.100877  0.000000  1
  Ni  Ni14  1  0.899123  0.289663  0.000000  1
  Ni  Ni15  1  0.208264  0.385000  0.000000  1
  Ni  Ni16  1  0.615000  0.823264  0.000000  1
  Ni  Ni17  1  0.176736  0.791736  0.000000  1
  Ni  Ni18  1  0.282775  0.233006  0.500000  1
  Ni  Ni19  1  0.766994  0.049768  0.500000  1
  Ni  Ni20  1  0.950232  0.717225  0.500000  1
