# generated using pymatgen
data_NdTh(AgAs2)2
_symmetry_space_group_name_H-M   'P 1'
_cell_length_a   4.12700200
_cell_length_b   4.12700200
_cell_length_c   10.39583300
_cell_angle_alpha   90.00000000
_cell_angle_beta   90.00000000
_cell_angle_gamma   90.00000000
_symmetry_Int_Tables_number   1
_chemical_formula_structural   NdTh(AgAs2)2
_chemical_formula_sum   'Nd1 Th1 Ag2 As4'
_cell_volume   177.06334033
_cell_formula_units_Z   1
loop_
 _symmetry_equiv_pos_site_id
 _symmetry_equiv_pos_as_xyz
  1  'x, y, z'
loop_
 _atom_site_type_symbol
 _atom_site_label
 _atom_site_symmetry_multiplicity
 _atom_site_fract_x
 _atom_site_fract_y
 _atom_site_fract_z
 _atom_site_occupancy
  Nd  Nd0  1  0.500000  0.000000  0.723596  1
  Th  Th1  1  0.000000  0.500000  0.277466  1
  Ag  Ag2  1  0.500000  0.500000  0.998175  1
  Ag  Ag3  1  0.000000  0.000000  0.998175  1
  As  As4  1  0.000000  0.500000  0.820302  1
  As  As5  1  0.500000  0.000000  0.187240  1
  As  As6  1  0.500000  0.500000  0.497523  1
  As  As7  1  0.000000  0.000000  0.497523  1
