# generated using pymatgen
data_YHo(Tm3Bi2)6
_symmetry_space_group_name_H-M   'P 1'
_cell_length_a   8.18734151
_cell_length_b   9.46065400
_cell_length_c   11.91652174
_cell_angle_alpha   90.00000000
_cell_angle_beta   89.95970176
_cell_angle_gamma   90.00000000
_symmetry_Int_Tables_number   1
_chemical_formula_structural   YHo(Tm3Bi2)6
_chemical_formula_sum   'Y1 Ho1 Tm18 Bi12'
_cell_volume   923.02500740
_cell_formula_units_Z   1
loop_
 _symmetry_equiv_pos_site_id
 _symmetry_equiv_pos_as_xyz
  1  'x, y, z'
loop_
 _atom_site_type_symbol
 _atom_site_label
 _atom_site_symmetry_multiplicity
 _atom_site_fract_x
 _atom_site_fract_y
 _atom_site_fract_z
 _atom_site_occupancy
  Y  Y0  1  0.686019  0.750000  0.781592  1
  Ho  Ho1  1  0.186140  0.750000  0.718052  1
  Tm  Tm2  1  0.353654  0.750000  0.217467  1
  Tm  Tm3  1  0.853766  0.750000  0.282553  1
  Tm  Tm4  1  0.646389  0.250000  0.782681  1
  Tm  Tm5  1  0.146378  0.250000  0.717324  1
  Tm  Tm6  1  0.692347  0.565634  0.059736  1
  Tm  Tm7  1  0.192412  0.934260  0.440465  1
  Tm  Tm8  1  0.307755  0.065672  0.940710  1
  Tm  Tm9  1  0.807743  0.434265  0.559243  1
  Tm  Tm10  1  0.307755  0.434328  0.940710  1
  Tm  Tm11  1  0.807743  0.065735  0.559243  1
  Tm  Tm12  1  0.692347  0.934366  0.059736  1
  Tm  Tm13  1  0.192412  0.565740  0.440465  1
  Tm  Tm14  1  0.476824  0.250000  0.488968  1
  Tm  Tm15  1  0.976839  0.250000  0.011063  1
  Tm  Tm16  1  0.522905  0.750000  0.510123  1
  Tm  Tm17  1  0.023517  0.750000  0.989713  1
  Tm  Tm18  1  0.313352  0.250000  0.217550  1
  Tm  Tm19  1  0.813348  0.250000  0.282412  1
  Bi  Bi20  1  0.403906  0.750000  0.958647  1
  Bi  Bi21  1  0.904555  0.750000  0.541639  1
  Bi  Bi22  1  0.595461  0.250000  0.042652  1
  Bi  Bi23  1  0.095413  0.250000  0.457350  1
  Bi  Bi24  1  0.566234  0.996365  0.325520  1
  Bi  Bi25  1  0.066195  0.503652  0.174510  1
  Bi  Bi26  1  0.433698  0.495308  0.673986  1
  Bi  Bi27  1  0.934385  0.004882  0.825937  1
  Bi  Bi28  1  0.433698  0.004692  0.673986  1
  Bi  Bi29  1  0.934385  0.495118  0.825937  1
  Bi  Bi30  1  0.566234  0.503635  0.325520  1
  Bi  Bi31  1  0.066195  0.996348  0.174510  1
