# generated using pymatgen
data_Yb3Cu7(Ni3B)2
_symmetry_space_group_name_H-M   'P 1'
_cell_length_a   4.96091200
_cell_length_b   4.96091266
_cell_length_c   10.96068900
_cell_angle_alpha   90.00000000
_cell_angle_beta   90.00000000
_cell_angle_gamma   120.00000895
_symmetry_Int_Tables_number   1
_chemical_formula_structural   Yb3Cu7(Ni3B)2
_chemical_formula_sum   'Yb3 Cu7 Ni6 B2'
_cell_volume   233.61006588
_cell_formula_units_Z   1
loop_
 _symmetry_equiv_pos_site_id
 _symmetry_equiv_pos_as_xyz
  1  'x, y, z'
loop_
 _atom_site_type_symbol
 _atom_site_label
 _atom_site_symmetry_multiplicity
 _atom_site_fract_x
 _atom_site_fract_y
 _atom_site_fract_z
 _atom_site_occupancy
  Yb  Yb0  1  0.000000  0.000000  0.000000  1
  Yb  Yb1  1  0.000000  0.000000  0.310387  1
  Yb  Yb2  1  0.000000  0.000000  0.689613  1
  Cu  Cu3  1  0.666667  0.333333  0.313372  1
  Cu  Cu4  1  0.333333  0.666667  0.313372  1
  Cu  Cu5  1  0.000000  0.500000  0.500000  1
  Cu  Cu6  1  0.500000  0.000000  0.500000  1
  Cu  Cu7  1  0.500000  0.500000  0.500000  1
  Cu  Cu8  1  0.333333  0.666667  0.686628  1
  Cu  Cu9  1  0.666667  0.333333  0.686628  1
  Ni  Ni10  1  0.500000  0.500000  0.127074  1
  Ni  Ni11  1  0.000000  0.500000  0.127074  1
  Ni  Ni12  1  0.500000  0.000000  0.127074  1
  Ni  Ni13  1  0.500000  0.000000  0.872926  1
  Ni  Ni14  1  0.000000  0.500000  0.872926  1
  Ni  Ni15  1  0.500000  0.500000  0.872926  1
  B  B16  1  0.333333  0.666667  0.000000  1
  B  B17  1  0.666667  0.333333  0.000000  1
