# generated using pymatgen
data_Dy3Lu17(Ir2Ru)4
_symmetry_space_group_name_H-M   'P 1'
_cell_length_a   10.62680351
_cell_length_b   10.62948304
_cell_length_c   6.33027869
_cell_angle_alpha   89.95448481
_cell_angle_beta   89.97255365
_cell_angle_gamma   90.02243711
_symmetry_Int_Tables_number   1
_chemical_formula_structural   Dy3Lu17(Ir2Ru)4
_chemical_formula_sum   'Dy3 Lu17 Ir8 Ru4'
_cell_volume   715.05163379
_cell_formula_units_Z   1
loop_
 _symmetry_equiv_pos_site_id
 _symmetry_equiv_pos_as_xyz
  1  'x, y, z'
loop_
 _atom_site_type_symbol
 _atom_site_label
 _atom_site_symmetry_multiplicity
 _atom_site_fract_x
 _atom_site_fract_y
 _atom_site_fract_z
 _atom_site_occupancy
  Dy  Dy0  1  0.912125  0.292487  0.623740  1
  Dy  Dy1  1  0.087142  0.707993  0.623725  1
  Dy  Dy2  1  0.087679  0.292407  0.123662  1
  Lu  Lu3  1  0.294632  0.085265  0.378465  1
  Lu  Lu4  1  0.294673  0.914447  0.878858  1
  Lu  Lu5  1  0.705224  0.085170  0.878318  1
  Lu  Lu6  1  0.706255  0.913643  0.377927  1
  Lu  Lu7  1  0.586048  0.793657  0.878286  1
  Lu  Lu8  1  0.585997  0.206121  0.377998  1
  Lu  Lu9  1  0.414133  0.793684  0.378085  1
  Lu  Lu10  1  0.414240  0.206265  0.877823  1
  Lu  Lu11  1  0.207748  0.413798  0.622230  1
  Lu  Lu12  1  0.207061  0.587036  0.122298  1
  Lu  Lu13  1  0.792338  0.414845  0.122434  1
  Lu  Lu14  1  0.792259  0.587353  0.622437  1
  Lu  Lu15  1  0.912612  0.706598  0.121960  1
  Lu  Lu16  1  0.999841  0.999803  0.497993  1
  Lu  Lu17  1  0.999461  0.999062  0.998429  1
  Lu  Lu18  1  0.500078  0.500229  0.999593  1
  Lu  Lu19  1  0.500266  0.500138  0.499287  1
  Ir  Ir20  1  0.845206  0.150606  0.247388  1
  Ir  Ir21  1  0.845701  0.848134  0.750701  1
  Ir  Ir22  1  0.154719  0.150566  0.747413  1
  Ir  Ir23  1  0.153312  0.848281  0.246460  1
  Ir  Ir24  1  0.650749  0.347719  0.751163  1
  Ir  Ir25  1  0.652863  0.652385  0.249710  1
  Ir  Ir26  1  0.349396  0.347550  0.251090  1
  Ir  Ir27  1  0.349338  0.652369  0.750997  1
  Ru  Ru28  1  0.500094  0.999876  0.126025  1
  Ru  Ru29  1  0.500028  0.999834  0.625952  1
  Ru  Ru30  1  0.999394  0.501492  0.876125  1
  Ru  Ru31  1  0.999389  0.501184  0.373427  1
