# generated using pymatgen
data_Cs2Ta3Cl9
_symmetry_space_group_name_H-M   'P 1'
_cell_length_a   10.36376149
_cell_length_b   10.36376174
_cell_length_c   10.18958902
_cell_angle_alpha   76.41682899
_cell_angle_beta   76.41683230
_cell_angle_gamma   116.22479851
_symmetry_Int_Tables_number   1
_chemical_formula_structural   Cs2Ta3Cl9
_chemical_formula_sum   'Cs4 Ta6 Cl18'
_cell_volume   879.41866345
_cell_formula_units_Z   2
loop_
 _symmetry_equiv_pos_site_id
 _symmetry_equiv_pos_as_xyz
  1  'x, y, z'
loop_
 _atom_site_type_symbol
 _atom_site_label
 _atom_site_symmetry_multiplicity
 _atom_site_fract_x
 _atom_site_fract_y
 _atom_site_fract_z
 _atom_site_occupancy
  Cs  Cs0  1  0.735181  0.050563  0.320698  1
  Cs  Cs1  1  0.264819  0.949437  0.679302  1
  Cs  Cs2  1  0.949437  0.264819  0.679302  1
  Cs  Cs3  1  0.050563  0.735181  0.320698  1
  Ta  Ta4  1  0.607502  0.607502  0.122790  1
  Ta  Ta5  1  0.392498  0.392498  0.877210  1
  Ta  Ta6  1  0.455563  0.290416  0.133764  1
  Ta  Ta7  1  0.544437  0.709584  0.866236  1
  Ta  Ta8  1  0.709584  0.544437  0.866236  1
  Ta  Ta9  1  0.290416  0.455563  0.133764  1
  Cl  Cl10  1  0.697522  0.302478  0.000000  1
  Cl  Cl11  1  0.302478  0.697522  0.000000  1
  Cl  Cl12  1  0.398044  0.022252  0.304840  1
  Cl  Cl13  1  0.601956  0.977748  0.695160  1
  Cl  Cl14  1  0.977748  0.601956  0.695160  1
  Cl  Cl15  1  0.022252  0.398044  0.304840  1
  Cl  Cl16  1  0.320143  0.121574  0.013420  1
  Cl  Cl17  1  0.679857  0.878426  0.986580  1
  Cl  Cl18  1  0.878426  0.679857  0.986580  1
  Cl  Cl19  1  0.121574  0.320143  0.013420  1
  Cl  Cl20  1  0.743211  0.743211  0.274679  1
  Cl  Cl21  1  0.256789  0.256789  0.725321  1
  Cl  Cl22  1  0.804892  0.804892  0.680458  1
  Cl  Cl23  1  0.195108  0.195108  0.319542  1
  Cl  Cl24  1  0.575620  0.377570  0.303962  1
  Cl  Cl25  1  0.424380  0.622430  0.696038  1
  Cl  Cl26  1  0.622430  0.424380  0.696038  1
  Cl  Cl27  1  0.377570  0.575620  0.303962  1
