# generated using pymatgen
data_Tb19TmSn16
_symmetry_space_group_name_H-M   'P 1'
_cell_length_a   8.06707979
_cell_length_b   8.22098080
_cell_length_c   15.53714300
_cell_angle_alpha   90.00000000
_cell_angle_beta   90.00000000
_cell_angle_gamma   89.94931682
_symmetry_Int_Tables_number   1
_chemical_formula_structural   Tb19TmSn16
_chemical_formula_sum   'Tb19 Tm1 Sn16'
_cell_volume   1030.41217033
_cell_formula_units_Z   1
loop_
 _symmetry_equiv_pos_site_id
 _symmetry_equiv_pos_as_xyz
  1  'x, y, z'
loop_
 _atom_site_type_symbol
 _atom_site_label
 _atom_site_symmetry_multiplicity
 _atom_site_fract_x
 _atom_site_fract_y
 _atom_site_fract_z
 _atom_site_occupancy
  Tb  Tb0  1  0.367140  0.835900  0.877964  1
  Tb  Tb1  1  0.867918  0.663512  0.622032  1
  Tb  Tb2  1  0.632603  0.163904  0.378322  1
  Tb  Tb3  1  0.132582  0.336125  0.121340  1
  Tb  Tb4  1  0.632603  0.163904  0.121678  1
  Tb  Tb5  1  0.132582  0.336125  0.378660  1
  Tb  Tb6  1  0.367140  0.835900  0.622036  1
  Tb  Tb7  1  0.867918  0.663512  0.877968  1
  Tb  Tb8  1  0.519803  0.320527  0.901899  1
  Tb  Tb9  1  0.020283  0.180070  0.598101  1
  Tb  Tb10  1  0.480033  0.679826  0.402338  1
  Tb  Tb11  1  0.979915  0.820129  0.097847  1
  Tb  Tb12  1  0.480033  0.679826  0.097662  1
  Tb  Tb13  1  0.979915  0.820129  0.402153  1
  Tb  Tb14  1  0.519803  0.320527  0.598101  1
  Tb  Tb15  1  0.020283  0.180070  0.901899  1
  Tb  Tb16  1  0.698619  0.998096  0.750000  1
  Tb  Tb17  1  0.800945  0.497795  0.250000  1
  Tb  Tb18  1  0.300937  0.002164  0.250000  1
  Tm  Tm19  1  0.199406  0.502336  0.750000  1
  Sn  Sn20  1  0.292313  0.034996  0.041735  1
  Sn  Sn21  1  0.792150  0.464597  0.458251  1
  Sn  Sn22  1  0.707695  0.964754  0.542231  1
  Sn  Sn23  1  0.207699  0.535028  0.957136  1
  Sn  Sn24  1  0.707695  0.964754  0.957769  1
  Sn  Sn25  1  0.207699  0.535028  0.542864  1
  Sn  Sn26  1  0.292313  0.034996  0.458265  1
  Sn  Sn27  1  0.792150  0.464597  0.041749  1
  Sn  Sn28  1  0.564275  0.618194  0.750000  1
  Sn  Sn29  1  0.065563  0.880526  0.750000  1
  Sn  Sn30  1  0.434412  0.381615  0.250000  1
  Sn  Sn31  1  0.934486  0.118439  0.250000  1
  Sn  Sn32  1  0.327895  0.148343  0.750000  1
  Sn  Sn33  1  0.829123  0.354192  0.750000  1
  Sn  Sn34  1  0.671899  0.854131  0.250000  1
  Sn  Sn35  1  0.172170  0.645435  0.250000  1
