# generated using pymatgen
data_K12Al(GaTe4)3
_symmetry_space_group_name_H-M   'P 1'
_cell_length_a   14.24246131
_cell_length_b   8.74363874
_cell_length_c   11.26144092
_cell_angle_alpha   52.38857646
_cell_angle_beta   90.06493705
_cell_angle_gamma   89.97120866
_symmetry_Int_Tables_number   1
_chemical_formula_structural   K12Al(GaTe4)3
_chemical_formula_sum   'K12 Al1 Ga3 Te12'
_cell_volume   1110.93264072
_cell_formula_units_Z   1
loop_
 _symmetry_equiv_pos_site_id
 _symmetry_equiv_pos_as_xyz
  1  'x, y, z'
loop_
 _atom_site_type_symbol
 _atom_site_label
 _atom_site_symmetry_multiplicity
 _atom_site_fract_x
 _atom_site_fract_y
 _atom_site_fract_z
 _atom_site_occupancy
  K  K0  1  0.310907  0.146640  0.073218  1
  K  K1  1  0.688661  0.853125  0.926665  1
  K  K2  1  0.811042  0.852684  0.426978  1
  K  K3  1  0.894377  0.316930  0.403581  1
  K  K4  1  0.612604  0.360426  0.474292  1
  K  K5  1  0.112741  0.639098  0.026045  1
  K  K6  1  0.387558  0.639653  0.525905  1
  K  K7  1  0.887424  0.361318  0.973889  1
  K  K8  1  0.605679  0.316692  0.903566  1
  K  K9  1  0.105276  0.683260  0.596495  1
  K  K10  1  0.394465  0.683368  0.096222  1
  K  K11  1  0.188991  0.146541  0.573485  1
  Al  Al12  1  0.933764  0.054752  0.840727  1
  Ga  Ga13  1  0.066688  0.945000  0.160067  1
  Ga  Ga14  1  0.566890  0.055445  0.339362  1
  Ga  Ga15  1  0.433157  0.944698  0.660563  1
  Te  Te16  1  0.398173  0.179468  0.359349  1
  Te  Te17  1  0.898021  0.821702  0.138868  1
  Te  Te18  1  0.601745  0.820594  0.640649  1
  Te  Te19  1  0.101288  0.179299  0.858979  1
  Te  Te20  1  0.694492  0.331307  0.194933  1
  Te  Te21  1  0.194419  0.668636  0.304954  1
  Te  Te22  1  0.305502  0.668738  0.805043  1
  Te  Te23  1  0.806327  0.329347  0.695696  1
  Te  Te24  1  0.553399  0.860003  0.233712  1
  Te  Te25  1  0.053401  0.140123  0.265932  1
  Te  Te26  1  0.446550  0.140152  0.766202  1
  Te  Te27  1  0.946458  0.861002  0.734622  1
