# generated using pymatgen
data_Sm2Ho4Ga17Pd5
_symmetry_space_group_name_H-M   'P 1'
_cell_length_a   8.16991154
_cell_length_b   8.16991104
_cell_length_c   15.76848821
_cell_angle_alpha   76.43070339
_cell_angle_beta   76.43070431
_cell_angle_gamma   30.46859848
_symmetry_Int_Tables_number   1
_chemical_formula_structural   Sm2Ho4Ga17Pd5
_chemical_formula_sum   'Sm2 Ho4 Ga17 Pd5'
_cell_volume   517.67135713
_cell_formula_units_Z   1
loop_
 _symmetry_equiv_pos_site_id
 _symmetry_equiv_pos_as_xyz
  1  'x, y, z'
loop_
 _atom_site_type_symbol
 _atom_site_label
 _atom_site_symmetry_multiplicity
 _atom_site_fract_x
 _atom_site_fract_y
 _atom_site_fract_z
 _atom_site_occupancy
  Sm  Sm0  1  0.754291  0.754291  0.750703  1
  Sm  Sm1  1  0.245709  0.245709  0.249297  1
  Ho  Ho2  1  0.600739  0.600739  0.597179  1
  Ho  Ho3  1  0.090269  0.090269  0.093086  1
  Ho  Ho4  1  0.909731  0.909731  0.906914  1
  Ho  Ho5  1  0.399261  0.399261  0.402821  1
  Ga  Ga6  1  0.821888  0.821888  0.539310  1
  Ga  Ga7  1  0.326666  0.326666  0.043106  1
  Ga  Ga8  1  0.673334  0.673334  0.956894  1
  Ga  Ga9  1  0.178112  0.178112  0.460690  1
  Ga  Ga10  1  0.546335  0.546335  0.826734  1
  Ga  Ga11  1  0.037277  0.037277  0.322782  1
  Ga  Ga12  1  0.962723  0.962723  0.677218  1
  Ga  Ga13  1  0.453665  0.453665  0.173266  1
  Ga  Ga14  1  0.270238  0.270238  0.897885  1
  Ga  Ga15  1  0.760678  0.760678  0.395515  1
  Ga  Ga16  1  0.239322  0.239322  0.604485  1
  Ga  Ga17  1  0.729762  0.729762  0.102115  1
  Ga  Ga18  1  0.402033  0.402033  0.764628  1
  Ga  Ga19  1  0.891963  0.891963  0.266729  1
  Ga  Ga20  1  0.108037  0.108037  0.733271  1
  Ga  Ga21  1  0.597967  0.597967  0.235372  1
  Ga  Ga22  1  0.000000  0.000000  0.500000  1
  Pd  Pd23  1  0.106399  0.106399  0.896288  1
  Pd  Pd24  1  0.593045  0.593045  0.404700  1
  Pd  Pd25  1  0.406955  0.406955  0.595300  1
  Pd  Pd26  1  0.893601  0.893601  0.103712  1
  Pd  Pd27  1  0.500000  0.500000  0.000000  1
