# generated using pymatgen
data_Er3Lu2GaSb2
_symmetry_space_group_name_H-M   'P 1'
_cell_length_a   8.72665483
_cell_length_b   8.72735287
_cell_length_c   6.30221100
_cell_angle_alpha   90.00000000
_cell_angle_beta   90.00000000
_cell_angle_gamma   120.00263419
_symmetry_Int_Tables_number   1
_chemical_formula_structural   Er3Lu2GaSb2
_chemical_formula_sum   'Er6 Lu4 Ga2 Sb4'
_cell_volume   415.66396604
_cell_formula_units_Z   2
loop_
 _symmetry_equiv_pos_site_id
 _symmetry_equiv_pos_as_xyz
  1  'x, y, z'
loop_
 _atom_site_type_symbol
 _atom_site_label
 _atom_site_symmetry_multiplicity
 _atom_site_fract_x
 _atom_site_fract_y
 _atom_site_fract_z
 _atom_site_occupancy
  Er  Er0  1  0.011934  0.767305  0.750000  1
  Er  Er1  1  0.011934  0.244628  0.250000  1
  Er  Er2  1  0.752856  0.753547  0.250000  1
  Er  Er3  1  0.752856  0.999310  0.750000  1
  Er  Er4  1  0.244460  0.232936  0.750000  1
  Er  Er5  1  0.244460  0.011523  0.250000  1
  Lu  Lu6  1  0.336064  0.668033  0.500000  1
  Lu  Lu7  1  0.652152  0.326076  0.000000  1
  Lu  Lu8  1  0.652152  0.326076  0.500000  1
  Lu  Lu9  1  0.336064  0.668033  0.000000  1
  Ga  Ga10  1  0.395214  0.997005  0.750000  1
  Ga  Ga11  1  0.395214  0.398209  0.250000  1
  Sb  Sb12  1  0.998802  0.607002  0.250000  1
  Sb  Sb13  1  0.998802  0.391799  0.750000  1
  Sb  Sb14  1  0.608518  0.606789  0.750000  1
  Sb  Sb15  1  0.608518  0.001730  0.250000  1
