# generated using pymatgen
data_NdGd3(B10Ir)2
_symmetry_space_group_name_H-M   'P 1'
_cell_length_a   4.19738600
_cell_length_b   5.72322523
_cell_length_c   11.39893545
_cell_angle_alpha   89.96768208
_cell_angle_beta   90.00000000
_cell_angle_gamma   90.00000000
_symmetry_Int_Tables_number   1
_chemical_formula_structural   NdGd3(B10Ir)2
_chemical_formula_sum   'Nd1 Gd3 B20 Ir2'
_cell_volume   273.83185735
_cell_formula_units_Z   1
loop_
 _symmetry_equiv_pos_site_id
 _symmetry_equiv_pos_as_xyz
  1  'x, y, z'
loop_
 _atom_site_type_symbol
 _atom_site_label
 _atom_site_symmetry_multiplicity
 _atom_site_fract_x
 _atom_site_fract_y
 _atom_site_fract_z
 _atom_site_occupancy
  Nd  Nd0  1  0.500000  0.205336  0.365752  1
  Gd  Gd1  1  0.500000  0.794506  0.633971  1
  Gd  Gd2  1  0.500000  0.294742  0.866182  1
  Gd  Gd3  1  0.500000  0.704952  0.133641  1
  B  B4  1  0.000000  0.381453  0.042685  1
  B  B5  1  0.000000  0.619043  0.957087  1
  B  B6  1  0.000000  0.118880  0.543532  1
  B  B7  1  0.000000  0.881184  0.457270  1
  B  B8  1  0.000000  0.361894  0.196982  1
  B  B9  1  0.000000  0.638335  0.802693  1
  B  B10  1  0.000000  0.138307  0.697695  1
  B  B11  1  0.000000  0.861224  0.302419  1
  B  B12  1  0.000000  0.054182  0.192516  1
  B  B13  1  0.000000  0.945302  0.806983  1
  B  B14  1  0.000000  0.445471  0.693376  1
  B  B15  1  0.000000  0.554977  0.306921  1
  B  B16  1  0.300938  0.219017  0.118268  1
  B  B17  1  0.698879  0.780925  0.881002  1
  B  B18  1  0.301121  0.780925  0.881002  1
  B  B19  1  0.699018  0.281095  0.619457  1
  B  B20  1  0.699062  0.219017  0.118268  1
  B  B21  1  0.300824  0.718261  0.381030  1
  B  B22  1  0.699176  0.718261  0.381030  1
  B  B23  1  0.300982  0.281095  0.619457  1
  Ir  Ir24  1  0.000000  0.999985  0.999801  1
  Ir  Ir25  1  0.000000  0.501634  0.500979  1
