# generated using pymatgen
data_La6TbEr9(CdIr)4
_symmetry_space_group_name_H-M   'P 1'
_cell_length_a   9.80792307
_cell_length_b   9.80805119
_cell_length_c   9.80803886
_cell_angle_alpha   59.86127126
_cell_angle_beta   59.85981228
_cell_angle_gamma   59.86499909
_symmetry_Int_Tables_number   1
_chemical_formula_structural   La6TbEr9(CdIr)4
_chemical_formula_sum   'La6 Tb1 Er9 Cd4 Ir4'
_cell_volume   665.06653244
_cell_formula_units_Z   1
loop_
 _symmetry_equiv_pos_site_id
 _symmetry_equiv_pos_as_xyz
  1  'x, y, z'
loop_
 _atom_site_type_symbol
 _atom_site_label
 _atom_site_symmetry_multiplicity
 _atom_site_fract_x
 _atom_site_fract_y
 _atom_site_fract_z
 _atom_site_occupancy
  La  La0  1  0.191512  0.807526  0.807513  1
  La  La1  1  0.805366  0.194123  0.194112  1
  La  La2  1  0.807501  0.191547  0.807501  1
  La  La3  1  0.194126  0.805362  0.194114  1
  La  La4  1  0.807491  0.807478  0.191547  1
  La  La5  1  0.194129  0.194118  0.805365  1
  Tb  Tb6  1  0.596841  0.596841  0.596860  1
  Er  Er7  1  0.596782  0.596785  0.211631  1
  Er  Er8  1  0.596794  0.211621  0.596813  1
  Er  Er9  1  0.211622  0.596793  0.596810  1
  Er  Er10  1  0.063354  0.435744  0.435705  1
  Er  Er11  1  0.434746  0.063664  0.063632  1
  Er  Er12  1  0.435743  0.063351  0.435716  1
  Er  Er13  1  0.063664  0.434744  0.063636  1
  Er  Er14  1  0.435711  0.435728  0.063340  1
  Er  Er15  1  0.063657  0.063656  0.434716  1
  Cd  Cd16  1  0.828149  0.828140  0.828170  1
  Cd  Cd17  1  0.829145  0.829131  0.514066  1
  Cd  Cd18  1  0.829137  0.514070  0.829152  1
  Cd  Cd19  1  0.514067  0.829119  0.829148  1
  Ir  Ir20  1  0.391161  0.391161  0.391176  1
  Ir  Ir21  1  0.390767  0.390751  0.827766  1
  Ir  Ir22  1  0.390758  0.827785  0.390750  1
  Ir  Ir23  1  0.827773  0.390755  0.390760  1
