# generated using pymatgen
data_Hf2Mn2SiP
_symmetry_space_group_name_H-M   'P 1'
_cell_length_a   3.62089700
_cell_length_b   6.45573000
_cell_length_c   7.53810100
_cell_angle_alpha   90.00000000
_cell_angle_beta   90.00000000
_cell_angle_gamma   90.00000000
_symmetry_Int_Tables_number   1
_chemical_formula_structural   Hf2Mn2SiP
_chemical_formula_sum   'Hf4 Mn4 Si2 P2'
_cell_volume   176.20713162
_cell_formula_units_Z   2
loop_
 _symmetry_equiv_pos_site_id
 _symmetry_equiv_pos_as_xyz
  1  'x, y, z'
loop_
 _atom_site_type_symbol
 _atom_site_label
 _atom_site_symmetry_multiplicity
 _atom_site_fract_x
 _atom_site_fract_y
 _atom_site_fract_z
 _atom_site_occupancy
  Hf  Hf0  1  0.250000  0.967977  0.326750  1
  Hf  Hf1  1  0.250000  0.467977  0.173250  1
  Hf  Hf2  1  0.750000  0.027058  0.678699  1
  Hf  Hf3  1  0.750000  0.527058  0.821301  1
  Mn  Mn4  1  0.250000  0.363487  0.565923  1
  Mn  Mn5  1  0.250000  0.863487  0.934077  1
  Mn  Mn6  1  0.750000  0.640674  0.440105  1
  Mn  Mn7  1  0.750000  0.140674  0.059895  1
  Si  Si8  1  0.750000  0.270658  0.376751  1
  Si  Si9  1  0.750000  0.770658  0.123249  1
  P  P10  1  0.250000  0.730147  0.627272  1
  P  P11  1  0.250000  0.230147  0.872728  1
