# generated using pymatgen
data_Nd3Er3FeBr10
_symmetry_space_group_name_H-M   'P 1'
_cell_length_a   7.43318371
_cell_length_b   9.17761765
_cell_length_c   9.47284037
_cell_angle_alpha   108.18982611
_cell_angle_beta   95.79351345
_cell_angle_gamma   103.66395846
_symmetry_Int_Tables_number   1
_chemical_formula_structural   Nd3Er3FeBr10
_chemical_formula_sum   'Nd3 Er3 Fe1 Br10'
_cell_volume   585.77961278
_cell_formula_units_Z   1
loop_
 _symmetry_equiv_pos_site_id
 _symmetry_equiv_pos_as_xyz
  1  'x, y, z'
loop_
 _atom_site_type_symbol
 _atom_site_label
 _atom_site_symmetry_multiplicity
 _atom_site_fract_x
 _atom_site_fract_y
 _atom_site_fract_z
 _atom_site_occupancy
  Nd  Nd0  1  0.036612  0.727622  0.412670  1
  Nd  Nd1  1  0.963090  0.271885  0.582129  1
  Nd  Nd2  1  0.867964  0.948241  0.751189  1
  Er  Er3  1  0.128426  0.049664  0.258610  1
  Er  Er4  1  0.351093  0.126627  0.674045  1
  Er  Er5  1  0.648545  0.874591  0.327159  1
  Fe  Fe6  1  0.999888  0.999546  0.500146  1
  Br  Br7  1  0.451212  0.821675  0.579125  1
  Br  Br8  1  0.541064  0.176223  0.416759  1
  Br  Br9  1  0.912699  0.626023  0.668638  1
  Br  Br10  1  0.092546  0.360959  0.321604  1
  Br  Br11  1  0.249104  0.081700  0.950726  1
  Br  Br12  1  0.763971  0.922480  0.061193  1
  Br  Br13  1  0.344761  0.437648  0.767218  1
  Br  Br14  1  0.652068  0.562800  0.231587  1
  Br  Br15  1  0.757076  0.248446  0.840316  1
  Br  Br16  1  0.239881  0.763869  0.156888  1
