# generated using pymatgen
data_Y8BeInPd23
_symmetry_space_group_name_H-M   'P 1'
_cell_length_a   8.24361300
_cell_length_b   8.46844800
_cell_length_c   8.46844800
_cell_angle_alpha   90.00000000
_cell_angle_beta   90.00000000
_cell_angle_gamma   90.00000000
_symmetry_Int_Tables_number   1
_chemical_formula_structural   Y8BeInPd23
_chemical_formula_sum   'Y8 Be1 In1 Pd23'
_cell_volume   591.18750389
_cell_formula_units_Z   1
loop_
 _symmetry_equiv_pos_site_id
 _symmetry_equiv_pos_as_xyz
  1  'x, y, z'
loop_
 _atom_site_type_symbol
 _atom_site_label
 _atom_site_symmetry_multiplicity
 _atom_site_fract_x
 _atom_site_fract_y
 _atom_site_fract_z
 _atom_site_occupancy
  Y  Y0  1  0.250944  0.238915  0.238915  1
  Y  Y1  1  0.748186  0.747211  0.747211  1
  Y  Y2  1  0.748186  0.747211  0.252789  1
  Y  Y3  1  0.748186  0.252789  0.747211  1
  Y  Y4  1  0.250944  0.238915  0.761085  1
  Y  Y5  1  0.250944  0.761085  0.238915  1
  Y  Y6  1  0.250944  0.761085  0.761085  1
  Y  Y7  1  0.748186  0.252789  0.252789  1
  Be  Be8  1  0.999453  0.000000  0.000000  1
  In  In9  1  0.254120  0.500000  0.500000  1
  Pd  Pd10  1  0.252365  0.500000  0.000000  1
  Pd  Pd11  1  0.746372  0.500000  0.000000  1
  Pd  Pd12  1  0.006608  0.252974  0.500000  1
  Pd  Pd13  1  0.503285  0.258024  0.000000  1
  Pd  Pd14  1  0.006608  0.747026  0.500000  1
  Pd  Pd15  1  0.503285  0.741976  0.000000  1
  Pd  Pd16  1  0.503285  0.000000  0.258024  1
  Pd  Pd17  1  0.252365  0.000000  0.500000  1
  Pd  Pd18  1  0.503285  0.000000  0.741976  1
  Pd  Pd19  1  0.746372  0.000000  0.500000  1
  Pd  Pd20  1  0.006608  0.500000  0.252974  1
  Pd  Pd21  1  0.006608  0.500000  0.747026  1
  Pd  Pd22  1  0.748784  0.500000  0.500000  1
  Pd  Pd23  1  0.493719  0.250103  0.500000  1
  Pd  Pd24  1  0.493719  0.749897  0.500000  1
  Pd  Pd25  1  0.493719  0.500000  0.250103  1
  Pd  Pd26  1  0.493719  0.500000  0.749897  1
  Pd  Pd27  1  0.275224  0.000000  0.000000  1
  Pd  Pd28  1  0.729029  0.000000  0.000000  1
  Pd  Pd29  1  0.996236  0.268620  0.000000  1
  Pd  Pd30  1  0.996236  0.731380  0.000000  1
  Pd  Pd31  1  0.996236  0.000000  0.268620  1
  Pd  Pd32  1  0.996236  0.000000  0.731380  1
