# generated using pymatgen
data_Sr3Eu3P28
_symmetry_space_group_name_H-M   'P 1'
_cell_length_a   11.59967029
_cell_length_b   12.64509688
_cell_length_c   6.30792016
_cell_angle_alpha   90.13802995
_cell_angle_beta   123.03162812
_cell_angle_gamma   89.99781508
_symmetry_Int_Tables_number   1
_chemical_formula_structural   Sr3Eu3P28
_chemical_formula_sum   'Sr3 Eu3 P28'
_cell_volume   775.68939181
_cell_formula_units_Z   1
loop_
 _symmetry_equiv_pos_site_id
 _symmetry_equiv_pos_as_xyz
  1  'x, y, z'
loop_
 _atom_site_type_symbol
 _atom_site_label
 _atom_site_symmetry_multiplicity
 _atom_site_fract_x
 _atom_site_fract_y
 _atom_site_fract_z
 _atom_site_occupancy
  Sr  Sr0  1  0.382711  0.658928  0.578717  1
  Sr  Sr1  1  0.883070  0.841145  0.579002  1
  Sr  Sr2  1  0.617449  0.340772  0.421323  1
  Eu  Eu3  1  0.117032  0.161972  0.421697  1
  Eu  Eu4  1  0.499040  0.000219  0.998985  1
  Eu  Eu5  1  0.999923  0.499607  0.999906  1
  P  P6  1  0.134262  0.417993  0.556078  1
  P  P7  1  0.364571  0.919420  0.441857  1
  P  P8  1  0.864807  0.580933  0.441458  1
  P  P9  1  0.635809  0.080991  0.559474  1
  P  P10  1  0.226126  0.287931  0.083978  1
  P  P11  1  0.272166  0.789710  0.914400  1
  P  P12  1  0.772931  0.711218  0.915859  1
  P  P13  1  0.727831  0.211496  0.085649  1
  P  P14  1  0.041755  0.320364  0.706616  1
  P  P15  1  0.457426  0.822713  0.289899  1
  P  P16  1  0.958010  0.677544  0.290510  1
  P  P17  1  0.542477  0.177867  0.710327  1
  P  P18  1  0.184984  0.000212  0.111377  1
  P  P19  1  0.313892  0.497929  0.889859  1
  P  P20  1  0.815299  0.001044  0.891513  1
  P  P21  1  0.685231  0.500856  0.108630  1
  P  P22  1  0.354011  0.351702  0.735322  1
  P  P23  1  0.145449  0.853355  0.263199  1
  P  P24  1  0.645645  0.647106  0.263058  1
  P  P25  1  0.855438  0.146795  0.738139  1
  P  P26  1  0.317340  0.446595  0.221719  1
  P  P27  1  0.181683  0.948791  0.777976  1
  P  P28  1  0.682109  0.552645  0.777526  1
  P  P29  1  0.821135  0.054083  0.225229  1
  P  P30  1  0.361379  0.222289  0.969599  1
  P  P31  1  0.136067  0.723859  0.025464  1
  P  P32  1  0.636142  0.776360  0.026203  1
  P  P33  1  0.866802  0.275556  0.979459  1
