# generated using pymatgen
data_Dy7Ho5(LuRh3)2
_symmetry_space_group_name_H-M   'P 1'
_cell_length_a   9.75898715
_cell_length_b   9.75898774
_cell_length_c   6.16568313
_cell_angle_alpha   89.97968552
_cell_angle_beta   90.02031143
_cell_angle_gamma   120.00010275
_symmetry_Int_Tables_number   1
_chemical_formula_structural   Dy7Ho5(LuRh3)2
_chemical_formula_sum   'Dy7 Ho5 Lu2 Rh6'
_cell_volume   508.53501982
_cell_formula_units_Z   1
loop_
 _symmetry_equiv_pos_site_id
 _symmetry_equiv_pos_as_xyz
  1  'x, y, z'
loop_
 _atom_site_type_symbol
 _atom_site_label
 _atom_site_symmetry_multiplicity
 _atom_site_fract_x
 _atom_site_fract_y
 _atom_site_fract_z
 _atom_site_occupancy
  Dy  Dy0  1  0.123743  0.876257  0.253686  1
  Dy  Dy1  1  0.752512  0.876286  0.253699  1
  Dy  Dy2  1  0.123714  0.247488  0.253699  1
  Dy  Dy3  1  0.876264  0.123736  0.753709  1
  Dy  Dy4  1  0.247465  0.123723  0.753720  1
  Dy  Dy5  1  0.876277  0.752535  0.753720  1
  Dy  Dy6  1  0.540943  0.459057  0.447086  1
  Ho  Ho7  1  0.918138  0.459026  0.446880  1
  Ho  Ho8  1  0.540974  0.081862  0.446880  1
  Ho  Ho9  1  0.458971  0.541029  0.946847  1
  Ho  Ho10  1  0.081979  0.541009  0.946884  1
  Ho  Ho11  1  0.458991  0.918021  0.946884  1
  Lu  Lu12  1  0.333301  0.666699  0.459906  1
  Lu  Lu13  1  0.666701  0.333299  0.959804  1
  Rh  Rh14  1  0.809263  0.190737  0.180070  1
  Rh  Rh15  1  0.381365  0.190572  0.179916  1
  Rh  Rh16  1  0.809428  0.618635  0.179916  1
  Rh  Rh17  1  0.190748  0.809252  0.680076  1
  Rh  Rh18  1  0.618558  0.809335  0.680081  1
  Rh  Rh19  1  0.190665  0.381442  0.680081  1
