# generated using pymatgen
data_SrSc2(H6Ru)2
_symmetry_space_group_name_H-M   'P 1'
_cell_length_a   4.71721900
_cell_length_b   4.71722056
_cell_length_c   8.06983900
_cell_angle_alpha   90.00000000
_cell_angle_beta   90.00000000
_cell_angle_gamma   119.99999608
_symmetry_Int_Tables_number   1
_chemical_formula_structural   SrSc2(H6Ru)2
_chemical_formula_sum   'Sr1 Sc2 H12 Ru2'
_cell_volume   155.51337291
_cell_formula_units_Z   1
loop_
 _symmetry_equiv_pos_site_id
 _symmetry_equiv_pos_as_xyz
  1  'x, y, z'
loop_
 _atom_site_type_symbol
 _atom_site_label
 _atom_site_symmetry_multiplicity
 _atom_site_fract_x
 _atom_site_fract_y
 _atom_site_fract_z
 _atom_site_occupancy
  Sr  Sr0  1  0.000000  0.000000  0.000000  1
  Sc  Sc1  1  0.666667  0.333333  0.369030  1
  Sc  Sc2  1  0.333333  0.666667  0.630970  1
  H  H3  1  0.159577  0.840423  0.394043  1
  H  H4  1  0.680846  0.840423  0.394043  1
  H  H5  1  0.159577  0.319154  0.394043  1
  H  H6  1  0.840423  0.159577  0.605957  1
  H  H7  1  0.319154  0.159577  0.605957  1
  H  H8  1  0.840423  0.680846  0.605957  1
  H  H9  1  0.497972  0.995944  0.844917  1
  H  H10  1  0.497972  0.502028  0.844917  1
  H  H11  1  0.004056  0.502028  0.844917  1
  H  H12  1  0.502028  0.004056  0.155083  1
  H  H13  1  0.502028  0.497972  0.155083  1
  H  H14  1  0.995944  0.497972  0.155083  1
  Ru  Ru15  1  0.666667  0.333333  0.719063  1
  Ru  Ru16  1  0.333333  0.666667  0.280937  1
