# generated using pymatgen
data_Cs2NaNdAs2
_symmetry_space_group_name_H-M   'P 1'
_cell_length_a   9.84417942
_cell_length_b   9.84417930
_cell_length_c   9.84417904
_cell_angle_alpha   135.88473846
_cell_angle_beta   135.32179249
_cell_angle_gamma   64.59539196
_symmetry_Int_Tables_number   1
_chemical_formula_structural   Cs2NaNdAs2
_chemical_formula_sum   'Cs4 Na2 Nd2 As4'
_cell_volume   460.40442813
_cell_formula_units_Z   2
loop_
 _symmetry_equiv_pos_site_id
 _symmetry_equiv_pos_as_xyz
  1  'x, y, z'
loop_
 _atom_site_type_symbol
 _atom_site_label
 _atom_site_symmetry_multiplicity
 _atom_site_fract_x
 _atom_site_fract_y
 _atom_site_fract_z
 _atom_site_occupancy
  Cs  Cs0  1  0.681152  0.396119  0.714967  1
  Cs  Cs1  1  0.818848  0.033816  0.214967  1
  Cs  Cs2  1  0.181152  0.966184  0.785033  1
  Cs  Cs3  1  0.318848  0.603881  0.285033  1
  Na  Na4  1  0.750000  0.000000  0.750000  1
  Na  Na5  1  0.250000  0.000000  0.250000  1
  Nd  Nd6  1  0.250000  0.500000  0.750000  1
  Nd  Nd7  1  0.750000  0.500000  0.250000  1
  As  As8  1  0.408160  0.181000  0.772839  1
  As  As9  1  0.591840  0.819000  0.227161  1
  As  As10  1  0.091840  0.364678  0.272839  1
  As  As11  1  0.908160  0.635322  0.727161  1
