# generated using pymatgen
data_Y5Co19(Si3P)3
_symmetry_space_group_name_H-M   'P 1'
_cell_length_a   12.14016200
_cell_length_b   12.14016176
_cell_length_c   3.70598400
_cell_angle_alpha   90.00000000
_cell_angle_beta   90.00000000
_cell_angle_gamma   119.99999520
_symmetry_Int_Tables_number   1
_chemical_formula_structural   Y5Co19(Si3P)3
_chemical_formula_sum   'Y5 Co19 Si9 P3'
_cell_volume   473.02396953
_cell_formula_units_Z   1
loop_
 _symmetry_equiv_pos_site_id
 _symmetry_equiv_pos_as_xyz
  1  'x, y, z'
loop_
 _atom_site_type_symbol
 _atom_site_label
 _atom_site_symmetry_multiplicity
 _atom_site_fract_x
 _atom_site_fract_y
 _atom_site_fract_z
 _atom_site_occupancy
  Y  Y0  1  0.333333  0.666667  0.500000  1
  Y  Y1  1  0.666667  0.333333  0.500000  1
  Y  Y2  1  0.000000  0.184343  0.000000  1
  Y  Y3  1  0.815657  0.815657  0.000000  1
  Y  Y4  1  0.184343  0.000000  0.000000  1
  Co  Co5  1  0.626719  0.823887  0.500000  1
  Co  Co6  1  0.176113  0.802832  0.500000  1
  Co  Co7  1  0.197168  0.373281  0.500000  1
  Co  Co8  1  0.373281  0.197168  0.500000  1
  Co  Co9  1  0.823887  0.626719  0.500000  1
  Co  Co10  1  0.802832  0.176113  0.500000  1
  Co  Co11  1  0.000000  0.558472  0.500000  1
  Co  Co12  1  0.441528  0.441528  0.500000  1
  Co  Co13  1  0.558472  0.000000  0.500000  1
  Co  Co14  1  0.521075  0.644472  0.000000  1
  Co  Co15  1  0.355528  0.876603  0.000000  1
  Co  Co16  1  0.123397  0.478925  0.000000  1
  Co  Co17  1  0.478925  0.123397  0.000000  1
  Co  Co18  1  0.644472  0.521075  0.000000  1
  Co  Co19  1  0.876603  0.355528  0.000000  1
  Co  Co20  1  0.000000  0.722289  0.000000  1
  Co  Co21  1  0.277711  0.277711  0.000000  1
  Co  Co22  1  0.722289  0.000000  0.000000  1
  Co  Co23  1  0.000000  0.000000  0.500000  1
  Si  Si24  1  0.000000  0.370620  0.500000  1
  Si  Si25  1  0.629380  0.629380  0.500000  1
  Si  Si26  1  0.370620  0.000000  0.500000  1
  Si  Si27  1  0.522274  0.840305  0.000000  1
  Si  Si28  1  0.159695  0.681969  0.000000  1
  Si  Si29  1  0.318031  0.477726  0.000000  1
  Si  Si30  1  0.477726  0.318031  0.000000  1
  Si  Si31  1  0.840305  0.522274  0.000000  1
  Si  Si32  1  0.681969  0.159695  0.000000  1
  P  P33  1  0.000000  0.818289  0.500000  1
  P  P34  1  0.181711  0.181711  0.500000  1
  P  P35  1  0.818289  0.000000  0.500000  1
