# generated using pymatgen
data_YbCe2Cu3Sb4
_symmetry_space_group_name_H-M   'P 1'
_cell_length_a   8.39755818
_cell_length_b   8.39755861
_cell_length_c   8.39755913
_cell_angle_alpha   109.91792062
_cell_angle_beta   108.58147960
_cell_angle_gamma   109.91790784
_symmetry_Int_Tables_number   1
_chemical_formula_structural   YbCe2Cu3Sb4
_chemical_formula_sum   'Yb2 Ce4 Cu6 Sb8'
_cell_volume   455.78375557
_cell_formula_units_Z   2
loop_
 _symmetry_equiv_pos_site_id
 _symmetry_equiv_pos_as_xyz
  1  'x, y, z'
loop_
 _atom_site_type_symbol
 _atom_site_label
 _atom_site_symmetry_multiplicity
 _atom_site_fract_x
 _atom_site_fract_y
 _atom_site_fract_z
 _atom_site_occupancy
  Yb  Yb0  1  0.875000  0.250000  0.125000  1
  Yb  Yb1  1  0.625000  0.750000  0.375000  1
  Ce  Ce2  1  0.250000  0.127471  0.877471  1
  Ce  Ce3  1  0.750000  0.372529  0.622529  1
  Ce  Ce4  1  0.122529  0.872529  0.250000  1
  Ce  Ce5  1  0.377471  0.627471  0.750000  1
  Cu  Cu6  1  0.375000  0.250000  0.625000  1
  Cu  Cu7  1  0.125000  0.750000  0.875000  1
  Cu  Cu8  1  0.250000  0.618021  0.368021  1
  Cu  Cu9  1  0.750000  0.881979  0.131979  1
  Cu  Cu10  1  0.631979  0.381979  0.250000  1
  Cu  Cu11  1  0.868021  0.118021  0.750000  1
  Sb  Sb12  1  0.660112  0.503365  0.000766  1
  Sb  Sb13  1  0.497401  0.996635  0.656747  1
  Sb  Sb14  1  0.002599  0.659346  0.499234  1
  Sb  Sb15  1  0.839888  0.840654  0.843253  1
  Sb  Sb16  1  0.500766  0.003365  0.160112  1
  Sb  Sb17  1  0.156747  0.496635  0.997401  1
  Sb  Sb18  1  0.999234  0.159346  0.502599  1
  Sb  Sb19  1  0.343253  0.340654  0.339888  1
