# generated using pymatgen
data_K4Sn(GeSe3)2
_symmetry_space_group_name_H-M   'P 1'
_cell_length_a   7.77013864
_cell_length_b   7.77013937
_cell_length_c   8.40465415
_cell_angle_alpha   81.85232686
_cell_angle_beta   81.85233138
_cell_angle_gamma   118.36334871
_symmetry_Int_Tables_number   1
_chemical_formula_structural   K4Sn(GeSe3)2
_chemical_formula_sum   'K4 Sn1 Ge2 Se6'
_cell_volume   429.09046214
_cell_formula_units_Z   1
loop_
 _symmetry_equiv_pos_site_id
 _symmetry_equiv_pos_as_xyz
  1  'x, y, z'
loop_
 _atom_site_type_symbol
 _atom_site_label
 _atom_site_symmetry_multiplicity
 _atom_site_fract_x
 _atom_site_fract_y
 _atom_site_fract_z
 _atom_site_occupancy
  K  K0  1  0.509322  0.490678  0.000000  1
  K  K1  1  0.667611  0.332389  0.500000  1
  K  K2  1  0.330945  0.669055  0.500000  1
  K  K3  1  0.181901  0.818099  0.000000  1
  Sn  Sn4  1  0.844118  0.155882  0.000000  1
  Ge  Ge5  1  0.057764  0.060224  0.345106  1
  Ge  Ge6  1  0.939776  0.942236  0.654894  1
  Se  Se7  1  0.076574  0.375043  0.243076  1
  Se  Se8  1  0.370701  0.075931  0.265917  1
  Se  Se9  1  0.924069  0.629299  0.734083  1
  Se  Se10  1  0.624957  0.923426  0.756924  1
  Se  Se11  1  0.795329  0.823067  0.229956  1
  Se  Se12  1  0.176933  0.204671  0.770044  1
