# generated using pymatgen
data_Dy2Y2VOs7
_symmetry_space_group_name_H-M   'P 1'
_cell_length_a   5.25152131
_cell_length_b   5.25151501
_cell_length_c   8.88996000
_cell_angle_alpha   89.99978022
_cell_angle_beta   90.00025990
_cell_angle_gamma   117.37925158
_symmetry_Int_Tables_number   1
_chemical_formula_structural   Dy2Y2VOs7
_chemical_formula_sum   'Dy2 Y2 V1 Os7'
_cell_volume   217.70765590
_cell_formula_units_Z   1
loop_
 _symmetry_equiv_pos_site_id
 _symmetry_equiv_pos_as_xyz
  1  'x, y, z'
loop_
 _atom_site_type_symbol
 _atom_site_label
 _atom_site_symmetry_multiplicity
 _atom_site_fract_x
 _atom_site_fract_y
 _atom_site_fract_z
 _atom_site_occupancy
  Dy  Dy0  1  0.668642  0.331358  0.934013  1
  Dy  Dy1  1  0.330365  0.669635  0.062674  1
  Y  Y2  1  0.330340  0.669658  0.436790  1
  Y  Y3  1  0.668731  0.331269  0.566380  1
  V  V4  1  0.835545  0.164454  0.249911  1
  Os  Os5  1  0.996243  0.003761  0.498954  1
  Os  Os6  1  0.996184  0.003817  0.001200  1
  Os  Os7  1  0.823713  0.650911  0.249606  1
  Os  Os8  1  0.349085  0.176285  0.249605  1
  Os  Os9  1  0.170566  0.829432  0.750178  1
  Os  Os10  1  0.174568  0.343983  0.750345  1
  Os  Os11  1  0.656020  0.825434  0.750344  1
