# generated using pymatgen
data_YbNbSbF12
_symmetry_space_group_name_H-M   'P 1'
_cell_length_a   5.45634757
_cell_length_b   5.79072789
_cell_length_c   9.44186413
_cell_angle_alpha   73.86207046
_cell_angle_beta   88.74798989
_cell_angle_gamma   62.48276741
_symmetry_Int_Tables_number   1
_chemical_formula_structural   YbNbSbF12
_chemical_formula_sum   'Yb1 Nb1 Sb1 F12'
_cell_volume   252.15618722
_cell_formula_units_Z   1
loop_
 _symmetry_equiv_pos_site_id
 _symmetry_equiv_pos_as_xyz
  1  'x, y, z'
loop_
 _atom_site_type_symbol
 _atom_site_label
 _atom_site_symmetry_multiplicity
 _atom_site_fract_x
 _atom_site_fract_y
 _atom_site_fract_z
 _atom_site_occupancy
  Yb  Yb0  1  0.496933  0.499977  0.500863  1
  Nb  Nb1  1  0.769811  0.008164  0.234687  1
  Sb  Sb2  1  0.227884  0.994888  0.759979  1
  F  F3  1  0.943341  0.230534  0.206483  1
  F  F4  1  0.055899  0.769607  0.793837  1
  F  F5  1  0.018861  0.764924  0.138866  1
  F  F6  1  0.458829  0.783800  0.632830  1
  F  F7  1  0.542739  0.220830  0.369529  1
  F  F8  1  0.958710  0.230971  0.579420  1
  F  F9  1  0.048330  0.764475  0.420639  1
  F  F10  1  0.400141  0.229786  0.689267  1
  F  F11  1  0.597721  0.766386  0.316081  1
  F  F12  1  0.509017  0.779209  0.923028  1
  F  F13  1  0.488248  0.222281  0.073855  1
  F  F14  1  0.983537  0.234167  0.860636  1
