# generated using pymatgen
data_CaHo5(SiPd)6
_symmetry_space_group_name_H-M   'P 1'
_cell_length_a   4.33765700
_cell_length_b   7.45009913
_cell_length_c   20.98650988
_cell_angle_alpha   90.04997113
_cell_angle_beta   90.00000000
_cell_angle_gamma   90.00000000
_symmetry_Int_Tables_number   1
_chemical_formula_structural   CaHo5(SiPd)6
_chemical_formula_sum   'Ca2 Ho10 Si12 Pd12'
_cell_volume   678.19926360
_cell_formula_units_Z   2
loop_
 _symmetry_equiv_pos_site_id
 _symmetry_equiv_pos_as_xyz
  1  'x, y, z'
loop_
 _atom_site_type_symbol
 _atom_site_label
 _atom_site_symmetry_multiplicity
 _atom_site_fract_x
 _atom_site_fract_y
 _atom_site_fract_z
 _atom_site_occupancy
  Ca  Ca0  1  0.250000  0.703940  0.332498  1
  Ca  Ca1  1  0.750000  0.296060  0.667502  1
  Ho  Ho2  1  0.750000  0.203310  0.167200  1
  Ho  Ho3  1  0.250000  0.796690  0.832800  1
  Ho  Ho4  1  0.250000  0.795387  0.166397  1
  Ho  Ho5  1  0.750000  0.204613  0.833603  1
  Ho  Ho6  1  0.750000  0.295005  0.333840  1
  Ho  Ho7  1  0.250000  0.704995  0.666160  1
  Ho  Ho8  1  0.250000  0.710343  0.000901  1
  Ho  Ho9  1  0.750000  0.289657  0.999099  1
  Ho  Ho10  1  0.750000  0.207355  0.499398  1
  Ho  Ho11  1  0.250000  0.792645  0.500602  1
  Si  Si12  1  0.250000  0.091079  0.070993  1
  Si  Si13  1  0.750000  0.908921  0.929007  1
  Si  Si14  1  0.750000  0.588054  0.433280  1
  Si  Si15  1  0.250000  0.411946  0.566720  1
  Si  Si16  1  0.250000  0.088141  0.271748  1
  Si  Si17  1  0.750000  0.911859  0.728252  1
  Si  Si18  1  0.750000  0.583930  0.226051  1
  Si  Si19  1  0.250000  0.416070  0.773949  1
  Si  Si20  1  0.250000  0.089743  0.394797  1
  Si  Si21  1  0.750000  0.910257  0.605203  1
  Si  Si22  1  0.750000  0.588622  0.104215  1
  Si  Si23  1  0.250000  0.411378  0.895785  1
  Pd  Pd24  1  0.250000  0.414688  0.235427  1
  Pd  Pd25  1  0.750000  0.585312  0.764573  1
  Pd  Pd26  1  0.750000  0.917843  0.261773  1
  Pd  Pd27  1  0.250000  0.082157  0.738227  1
  Pd  Pd28  1  0.250000  0.415518  0.437419  1
  Pd  Pd29  1  0.750000  0.584482  0.562581  1
  Pd  Pd30  1  0.750000  0.916882  0.062304  1
  Pd  Pd31  1  0.250000  0.083118  0.937696  1
  Pd  Pd32  1  0.250000  0.420354  0.093588  1
  Pd  Pd33  1  0.750000  0.579646  0.906412  1
  Pd  Pd34  1  0.750000  0.919449  0.407412  1
  Pd  Pd35  1  0.250000  0.080551  0.592588  1
