# generated using pymatgen
data_YbDy4Er(Si3Ru)8
_symmetry_space_group_name_H-M   'P 1'
_cell_length_a   10.12983532
_cell_length_b   10.13148405
_cell_length_c   8.13989334
_cell_angle_alpha   89.90302032
_cell_angle_beta   90.08180043
_cell_angle_gamma   132.61374421
_symmetry_Int_Tables_number   1
_chemical_formula_structural   YbDy4Er(Si3Ru)8
_chemical_formula_sum   'Yb1 Dy4 Er1 Si24 Ru8'
_cell_volume   614.79848521
_cell_formula_units_Z   1
loop_
 _symmetry_equiv_pos_site_id
 _symmetry_equiv_pos_as_xyz
  1  'x, y, z'
loop_
 _atom_site_type_symbol
 _atom_site_label
 _atom_site_symmetry_multiplicity
 _atom_site_fract_x
 _atom_site_fract_y
 _atom_site_fract_z
 _atom_site_occupancy
  Yb  Yb0  1  0.497893  0.997845  0.249917  1
  Dy  Dy1  1  0.001505  0.501405  0.750064  1
  Dy  Dy2  1  0.502781  0.002758  0.750100  1
  Dy  Dy3  1  0.997480  0.497589  0.249960  1
  Dy  Dy4  1  0.499698  0.499581  0.499430  1
  Er  Er5  1  0.999425  0.999571  0.000735  1
  Si  Si6  1  0.388732  0.155345  0.003111  1
  Si  Si7  1  0.655194  0.888575  0.497046  1
  Si  Si8  1  0.111732  0.344842  0.505069  1
  Si  Si9  1  0.844769  0.611621  0.994954  1
  Si  Si10  1  0.611467  0.845222  0.994447  1
  Si  Si11  1  0.345381  0.111659  0.505480  1
  Si  Si12  1  0.888181  0.655551  0.495229  1
  Si  Si13  1  0.155653  0.388325  0.004725  1
  Si  Si14  1  0.614043  0.379559  0.228111  1
  Si  Si15  1  0.879031  0.113273  0.271642  1
  Si  Si16  1  0.888913  0.122248  0.727907  1
  Si  Si17  1  0.621998  0.388347  0.772367  1
  Si  Si18  1  0.387692  0.621175  0.771676  1
  Si  Si19  1  0.121741  0.888471  0.728515  1
  Si  Si20  1  0.704588  0.293572  0.001392  1
  Si  Si21  1  0.793812  0.204386  0.498543  1
  Si  Si22  1  0.295546  0.706308  0.000292  1
  Si  Si23  1  0.206156  0.795818  0.499708  1
  Si  Si24  1  0.166185  0.167884  0.332937  1
  Si  Si25  1  0.667590  0.665871  0.167189  1
  Si  Si26  1  0.333260  0.331451  0.832915  1
  Si  Si27  1  0.831084  0.833069  0.666941  1
  Si  Si28  1  0.377089  0.611260  0.227910  1
  Si  Si29  1  0.110640  0.876730  0.271783  1
  Ru  Ru30  1  0.626462  0.627106  0.873891  1
  Ru  Ru31  1  0.126183  0.125438  0.627547  1
  Ru  Ru32  1  0.873774  0.873762  0.372184  1
  Ru  Ru33  1  0.372774  0.372809  0.126319  1
  Ru  Ru34  1  0.329603  0.669289  0.500276  1
  Ru  Ru35  1  0.168960  0.830279  0.999578  1
  Ru  Ru36  1  0.670823  0.331724  0.501493  1
  Ru  Ru37  1  0.832163  0.170283  0.998615  1
