# generated using pymatgen
data_YbTm4Lu3(B6Os)4
_symmetry_space_group_name_H-M   'P 1'
_cell_length_a   3.60817900
_cell_length_b   9.06301316
_cell_length_c   11.44437700
_cell_angle_alpha   89.94635561
_cell_angle_beta   90.00000000
_cell_angle_gamma   90.00000000
_symmetry_Int_Tables_number   1
_chemical_formula_structural   YbTm4Lu3(B6Os)4
_chemical_formula_sum   'Yb1 Tm4 Lu3 B24 Os4'
_cell_volume   374.24210810
_cell_formula_units_Z   1
loop_
 _symmetry_equiv_pos_site_id
 _symmetry_equiv_pos_as_xyz
  1  'x, y, z'
loop_
 _atom_site_type_symbol
 _atom_site_label
 _atom_site_symmetry_multiplicity
 _atom_site_fract_x
 _atom_site_fract_y
 _atom_site_fract_z
 _atom_site_occupancy
  Yb  Yb0  1  0.000000  0.322506  0.413489  1
  Tm  Tm1  1  0.000000  0.676957  0.585301  1
  Tm  Tm2  1  0.000000  0.821351  0.086343  1
  Tm  Tm3  1  0.000000  0.179300  0.914439  1
  Tm  Tm4  1  0.000000  0.944464  0.372138  1
  Lu  Lu5  1  0.000000  0.057312  0.627482  1
  Lu  Lu6  1  0.000000  0.443526  0.128190  1
  Lu  Lu7  1  0.000000  0.555816  0.873152  1
  B  B8  1  0.500000  0.553824  0.432955  1
  B  B9  1  0.500000  0.446186  0.567304  1
  B  B10  1  0.500000  0.053125  0.065818  1
  B  B11  1  0.500000  0.945973  0.933057  1
  B  B12  1  0.500000  0.749123  0.419683  1
  B  B13  1  0.500000  0.250865  0.581036  1
  B  B14  1  0.500000  0.248879  0.079990  1
  B  B15  1  0.500000  0.750521  0.919946  1
  B  B16  1  0.500000  0.792085  0.265572  1
  B  B17  1  0.500000  0.208516  0.734786  1
  B  B18  1  0.500000  0.291173  0.233480  1
  B  B19  1  0.500000  0.708124  0.766133  1
  B  B20  1  0.500000  0.631278  0.184953  1
  B  B21  1  0.500000  0.369229  0.815992  1
  B  B22  1  0.500000  0.130913  0.314158  1
  B  B23  1  0.500000  0.868949  0.684653  1
  B  B24  1  0.500000  0.982150  0.211816  1
  B  B25  1  0.500000  0.017884  0.786891  1
  B  B26  1  0.500000  0.482638  0.286902  1
  B  B27  1  0.500000  0.517844  0.713400  1
  B  B28  1  0.500000  0.605439  0.029300  1
  B  B29  1  0.500000  0.394913  0.971247  1
  B  B30  1  0.500000  0.102521  0.472168  1
  B  B31  1  0.500000  0.896145  0.529175  1
  Os  Os32  1  0.000000  0.639334  0.320138  1
  Os  Os33  1  0.000000  0.362035  0.680675  1
  Os  Os34  1  0.000000  0.136974  0.177330  1
  Os  Os35  1  0.000000  0.862126  0.820910  1
