# generated using pymatgen
data_CaTb6IrI12
_symmetry_space_group_name_H-M   'P 1'
_cell_length_a   9.87084303
_cell_length_b   9.87084340
_cell_length_c   9.87084488
_cell_angle_alpha   107.23393169
_cell_angle_beta   107.23393307
_cell_angle_gamma   107.23393267
_symmetry_Int_Tables_number   1
_chemical_formula_structural   CaTb6IrI12
_chemical_formula_sum   'Ca1 Tb6 Ir1 I12'
_cell_volume   795.78922986
_cell_formula_units_Z   1
loop_
 _symmetry_equiv_pos_site_id
 _symmetry_equiv_pos_as_xyz
  1  'x, y, z'
loop_
 _atom_site_type_symbol
 _atom_site_label
 _atom_site_symmetry_multiplicity
 _atom_site_fract_x
 _atom_site_fract_y
 _atom_site_fract_z
 _atom_site_occupancy
  Ca  Ca0  1  0.500000  0.500000  0.500000  1
  Tb  Tb1  1  0.904613  0.977087  0.701293  1
  Tb  Tb2  1  0.701293  0.904613  0.977087  1
  Tb  Tb3  1  0.977087  0.701293  0.904613  1
  Tb  Tb4  1  0.095387  0.022913  0.298707  1
  Tb  Tb5  1  0.298707  0.095387  0.022913  1
  Tb  Tb6  1  0.022913  0.298707  0.095387  1
  Ir  Ir7  1  0.000000  0.000000  0.000000  1
  I  I8  1  0.926443  0.320590  0.776148  1
  I  I9  1  0.776148  0.926443  0.320590  1
  I  I10  1  0.320590  0.776148  0.926443  1
  I  I11  1  0.073557  0.679410  0.223852  1
  I  I12  1  0.223852  0.073557  0.679410  1
  I  I13  1  0.679410  0.223852  0.073557  1
  I  I14  1  0.543036  0.848828  0.620849  1
  I  I15  1  0.620849  0.543036  0.848828  1
  I  I16  1  0.848828  0.620849  0.543036  1
  I  I17  1  0.456964  0.151172  0.379151  1
  I  I18  1  0.379151  0.456964  0.151172  1
  I  I19  1  0.151172  0.379151  0.456964  1
