# generated using pymatgen
data_Ba3Si2PtRh6
_symmetry_space_group_name_H-M   'P 1'
_cell_length_a   8.74176660
_cell_length_b   8.74176611
_cell_length_c   8.74176649
_cell_angle_alpha   39.13058255
_cell_angle_beta   39.13058595
_cell_angle_gamma   39.13058819
_symmetry_Int_Tables_number   1
_chemical_formula_structural   Ba3Si2PtRh6
_chemical_formula_sum   'Ba3 Si2 Pt1 Rh6'
_cell_volume   239.33109809
_cell_formula_units_Z   1
loop_
 _symmetry_equiv_pos_site_id
 _symmetry_equiv_pos_as_xyz
  1  'x, y, z'
loop_
 _atom_site_type_symbol
 _atom_site_label
 _atom_site_symmetry_multiplicity
 _atom_site_fract_x
 _atom_site_fract_y
 _atom_site_fract_z
 _atom_site_occupancy
  Ba  Ba0  1  0.357490  0.357490  0.357490  1
  Ba  Ba1  1  0.500000  0.500000  0.500000  1
  Ba  Ba2  1  0.642510  0.642510  0.642510  1
  Si  Si3  1  0.169788  0.169788  0.169788  1
  Si  Si4  1  0.830212  0.830212  0.830212  1
  Pt  Pt5  1  0.000000  0.000000  0.000000  1
  Rh  Rh6  1  0.583477  0.062687  0.062686  1
  Rh  Rh7  1  0.062687  0.583477  0.062686  1
  Rh  Rh8  1  0.937313  0.937313  0.416524  1
  Rh  Rh9  1  0.062687  0.062687  0.583476  1
  Rh  Rh10  1  0.937313  0.416523  0.937314  1
  Rh  Rh11  1  0.416523  0.937313  0.937314  1
