# generated using pymatgen
data_Tb16Ho4Si15Ir
_symmetry_space_group_name_H-M   'P 1'
_cell_length_a   7.40767000
_cell_length_b   7.76783900
_cell_length_c   14.65116700
_cell_angle_alpha   90.00000000
_cell_angle_beta   90.00000000
_cell_angle_gamma   89.99958694
_symmetry_Int_Tables_number   1
_chemical_formula_structural   Tb16Ho4Si15Ir
_chemical_formula_sum   'Tb16 Ho4 Si15 Ir1'
_cell_volume   843.05141414
_cell_formula_units_Z   1
loop_
 _symmetry_equiv_pos_site_id
 _symmetry_equiv_pos_as_xyz
  1  'x, y, z'
loop_
 _atom_site_type_symbol
 _atom_site_label
 _atom_site_symmetry_multiplicity
 _atom_site_fract_x
 _atom_site_fract_y
 _atom_site_fract_z
 _atom_site_occupancy
  Tb  Tb0  1  0.673465  0.184354  0.624956  1
  Tb  Tb1  1  0.190061  0.324219  0.874110  1
  Tb  Tb2  1  0.318561  0.819373  0.123406  1
  Tb  Tb3  1  0.817275  0.678772  0.376953  1
  Tb  Tb4  1  0.318561  0.819373  0.376594  1
  Tb  Tb5  1  0.817275  0.678772  0.123047  1
  Tb  Tb6  1  0.673465  0.184354  0.875044  1
  Tb  Tb7  1  0.190061  0.324219  0.625890  1
  Tb  Tb8  1  0.522597  0.675180  0.596758  1
  Tb  Tb9  1  0.026847  0.816220  0.903543  1
  Tb  Tb10  1  0.473196  0.315043  0.097449  1
  Tb  Tb11  1  0.973105  0.183231  0.402718  1
  Tb  Tb12  1  0.473196  0.315043  0.402551  1
  Tb  Tb13  1  0.973105  0.183231  0.097282  1
  Tb  Tb14  1  0.522597  0.675180  0.903242  1
  Tb  Tb15  1  0.026847  0.816220  0.596457  1
  Ho  Ho16  1  0.841152  0.512830  0.750000  1
  Ho  Ho17  1  0.354831  0.984767  0.750000  1
  Ho  Ho18  1  0.150295  0.484331  0.250000  1
  Ho  Ho19  1  0.649453  0.014717  0.250000  1
  Si  Si20  1  0.645320  0.972194  0.460031  1
  Si  Si21  1  0.148140  0.527840  0.039563  1
  Si  Si22  1  0.350464  0.025396  0.960539  1
  Si  Si23  1  0.856790  0.471103  0.539578  1
  Si  Si24  1  0.350464  0.025396  0.539461  1
  Si  Si25  1  0.856790  0.471103  0.960422  1
  Si  Si26  1  0.645320  0.972194  0.039969  1
  Si  Si27  1  0.148140  0.527840  0.460437  1
  Si  Si28  1  0.979822  0.099897  0.750000  1
  Si  Si29  1  0.523000  0.601595  0.250000  1
  Si  Si30  1  0.020156  0.896185  0.250000  1
  Si  Si31  1  0.740977  0.876060  0.750000  1
  Si  Si32  1  0.230306  0.634310  0.750000  1
  Si  Si33  1  0.266675  0.127797  0.250000  1
  Si  Si34  1  0.768647  0.372483  0.250000  1
  Ir  Ir35  1  0.483039  0.409172  0.750000  1
