# generated using pymatgen
data_Ac3Pr(Zn5Pb)2
_symmetry_space_group_name_H-M   'P 1'
_cell_length_a   8.89070906
_cell_length_b   8.89070965
_cell_length_c   9.34663000
_cell_angle_alpha   90.00000000
_cell_angle_beta   90.00000000
_cell_angle_gamma   149.39997442
_symmetry_Int_Tables_number   1
_chemical_formula_structural   Ac3Pr(Zn5Pb)2
_chemical_formula_sum   'Ac3 Pr1 Zn10 Pb2'
_cell_volume   376.08093928
_cell_formula_units_Z   1
loop_
 _symmetry_equiv_pos_site_id
 _symmetry_equiv_pos_as_xyz
  1  'x, y, z'
loop_
 _atom_site_type_symbol
 _atom_site_label
 _atom_site_symmetry_multiplicity
 _atom_site_fract_x
 _atom_site_fract_y
 _atom_site_fract_z
 _atom_site_occupancy
  Ac  Ac0  1  0.207016  0.792984  0.250000  1
  Ac  Ac1  1  0.999717  0.000283  0.500527  1
  Ac  Ac2  1  0.999717  0.000283  0.999473  1
  Pr  Pr3  1  0.791689  0.208311  0.750000  1
  Zn  Zn4  1  0.814059  0.185941  0.393365  1
  Zn  Zn5  1  0.187927  0.812073  0.613096  1
  Zn  Zn6  1  0.814059  0.185941  0.106635  1
  Zn  Zn7  1  0.187927  0.812073  0.886904  1
  Zn  Zn8  1  0.660539  0.339461  0.492626  1
  Zn  Zn9  1  0.339695  0.660305  0.514255  1
  Zn  Zn10  1  0.660539  0.339461  0.007374  1
  Zn  Zn11  1  0.339695  0.660305  0.985745  1
  Zn  Zn12  1  0.394433  0.605567  0.250000  1
  Zn  Zn13  1  0.605686  0.394314  0.750000  1
  Pb  Pb14  1  0.557352  0.442648  0.250000  1
  Pb  Pb15  1  0.439953  0.560047  0.750000  1
