# generated using pymatgen
data_CsBa3(B2Pt3)6
_symmetry_space_group_name_H-M   'P 1'
_cell_length_a   8.24076211
_cell_length_b   8.24076237
_cell_length_c   8.24076304
_cell_angle_alpha   82.80644543
_cell_angle_beta   82.80645724
_cell_angle_gamma   82.80645037
_symmetry_Int_Tables_number   1
_chemical_formula_structural   CsBa3(B2Pt3)6
_chemical_formula_sum   'Cs1 Ba3 B12 Pt18'
_cell_volume   547.43459648
_cell_formula_units_Z   1
loop_
 _symmetry_equiv_pos_site_id
 _symmetry_equiv_pos_as_xyz
  1  'x, y, z'
loop_
 _atom_site_type_symbol
 _atom_site_label
 _atom_site_symmetry_multiplicity
 _atom_site_fract_x
 _atom_site_fract_y
 _atom_site_fract_z
 _atom_site_occupancy
  Cs  Cs0  1  0.620460  0.620460  0.620460  1
  Ba  Ba1  1  0.855648  0.855648  0.855648  1
  Ba  Ba2  1  0.371731  0.371731  0.371731  1
  Ba  Ba3  1  0.131094  0.131094  0.131094  1
  B  B4  1  0.537664  0.191404  0.846476  1
  B  B5  1  0.846476  0.537664  0.191404  1
  B  B6  1  0.191404  0.846476  0.537664  1
  B  B7  1  0.963652  0.654154  0.310998  1
  B  B8  1  0.465834  0.810537  0.151679  1
  B  B9  1  0.151679  0.465834  0.810537  1
  B  B10  1  0.810537  0.151679  0.465834  1
  B  B11  1  0.035832  0.349434  0.690547  1
  B  B12  1  0.690547  0.035832  0.349434  1
  B  B13  1  0.349434  0.690547  0.035832  1
  B  B14  1  0.310998  0.963652  0.654154  1
  B  B15  1  0.654154  0.310998  0.963652  1
  Pt  Pt16  1  0.419299  0.934779  0.397267  1
  Pt  Pt17  1  0.081410  0.100381  0.571667  1
  Pt  Pt18  1  0.934779  0.397267  0.419299  1
  Pt  Pt19  1  0.571667  0.081410  0.100381  1
  Pt  Pt20  1  0.601938  0.575989  0.075661  1
  Pt  Pt21  1  0.575989  0.075661  0.601938  1
  Pt  Pt22  1  0.075661  0.601938  0.575989  1
  Pt  Pt23  1  0.925419  0.899583  0.424585  1
  Pt  Pt24  1  0.899583  0.424585  0.925419  1
  Pt  Pt25  1  0.424585  0.925419  0.899583  1
  Pt  Pt26  1  0.751086  0.277382  0.224339  1
  Pt  Pt27  1  0.224339  0.751086  0.277382  1
  Pt  Pt28  1  0.277382  0.224339  0.751086  1
  Pt  Pt29  1  0.244079  0.723375  0.784614  1
  Pt  Pt30  1  0.784614  0.244079  0.723375  1
  Pt  Pt31  1  0.723375  0.784614  0.244079  1
  Pt  Pt32  1  0.100381  0.571667  0.081410  1
  Pt  Pt33  1  0.397267  0.419299  0.934779  1
