# generated using pymatgen
data_La2Pr3SmTa2O14
_symmetry_space_group_name_H-M   'P 1'
_cell_length_a   6.73012845
_cell_length_b   6.71632253
_cell_length_c   7.77285100
_cell_angle_alpha   90.00000000
_cell_angle_beta   90.00000000
_cell_angle_gamma   108.71585349
_symmetry_Int_Tables_number   1
_chemical_formula_structural   La2Pr3SmTa2O14
_chemical_formula_sum   'La2 Pr3 Sm1 Ta2 O14'
_cell_volume   332.76753389
_cell_formula_units_Z   1
loop_
 _symmetry_equiv_pos_site_id
 _symmetry_equiv_pos_as_xyz
  1  'x, y, z'
loop_
 _atom_site_type_symbol
 _atom_site_label
 _atom_site_symmetry_multiplicity
 _atom_site_fract_x
 _atom_site_fract_y
 _atom_site_fract_z
 _atom_site_occupancy
  La  La0  1  0.472292  0.475910  0.500749  1
  La  La1  1  0.472292  0.475910  0.999251  1
  Pr  Pr2  1  0.537868  0.995064  0.750000  1
  Pr  Pr3  1  0.993444  0.538928  0.250000  1
  Pr  Pr4  1  0.467936  0.996263  0.250000  1
  Sm  Sm5  1  0.995756  0.467431  0.750000  1
  Ta  Ta6  1  0.000571  0.000465  0.501280  1
  Ta  Ta7  1  0.000571  0.000465  0.998720  1
  O  O8  1  0.694738  0.936224  0.469855  1
  O  O9  1  0.957333  0.699903  0.536729  1
  O  O10  1  0.694738  0.936224  0.030145  1
  O  O11  1  0.957333  0.699903  0.963271  1
  O  O12  1  0.317524  0.076043  0.527511  1
  O  O13  1  0.067702  0.316091  0.474221  1
  O  O14  1  0.317524  0.076043  0.972489  1
  O  O15  1  0.067702  0.316091  0.025779  1
  O  O16  1  0.945098  0.061098  0.750000  1
  O  O17  1  0.055059  0.946455  0.250000  1
  O  O18  1  0.360554  0.623957  0.750000  1
  O  O19  1  0.626610  0.367841  0.250000  1
  O  O20  1  0.639186  0.362552  0.750000  1
  O  O21  1  0.358171  0.631141  0.250000  1
