# generated using pymatgen
data_Ho4Al18(NiRh)3
_symmetry_space_group_name_H-M   'P 1'
_cell_length_a   7.50575541
_cell_length_b   7.50575026
_cell_length_c   9.31668301
_cell_angle_alpha   89.89757122
_cell_angle_beta   89.89760465
_cell_angle_gamma   119.82597992
_symmetry_Int_Tables_number   1
_chemical_formula_structural   Ho4Al18(NiRh)3
_chemical_formula_sum   'Ho4 Al18 Ni3 Rh3'
_cell_volume   455.34082918
_cell_formula_units_Z   1
loop_
 _symmetry_equiv_pos_site_id
 _symmetry_equiv_pos_as_xyz
  1  'x, y, z'
loop_
 _atom_site_type_symbol
 _atom_site_label
 _atom_site_symmetry_multiplicity
 _atom_site_fract_x
 _atom_site_fract_y
 _atom_site_fract_z
 _atom_site_occupancy
  Ho  Ho0  1  0.994776  0.668988  0.249883  1
  Ho  Ho1  1  0.006988  0.332725  0.750246  1
  Ho  Ho2  1  0.667274  0.993012  0.249754  1
  Ho  Ho3  1  0.331012  0.005223  0.750117  1
  Al  Al4  1  0.120426  0.120227  0.249626  1
  Al  Al5  1  0.879773  0.879574  0.750374  1
  Al  Al6  1  0.994600  0.331536  0.074232  1
  Al  Al7  1  0.998559  0.666912  0.925928  1
  Al  Al8  1  0.000162  0.667583  0.574475  1
  Al  Al9  1  0.332417  0.999838  0.425525  1
  Al  Al10  1  0.998791  0.331218  0.425417  1
  Al  Al11  1  0.668782  0.001209  0.574583  1
  Al  Al12  1  0.668464  0.005400  0.925768  1
  Al  Al13  1  0.333088  0.001441  0.074072  1
  Al  Al14  1  0.330198  0.329610  0.550773  1
  Al  Al15  1  0.670390  0.669802  0.449227  1
  Al  Al16  1  0.669744  0.668968  0.050771  1
  Al  Al17  1  0.331032  0.330256  0.949229  1
  Al  Al18  1  0.338851  0.545897  0.249751  1
  Al  Al19  1  0.661800  0.449768  0.752729  1
  Al  Al20  1  0.550232  0.338200  0.247271  1
  Al  Al21  1  0.454103  0.661149  0.750249  1
  Ni  Ni22  1  0.671311  0.328688  0.000000  1
  Ni  Ni23  1  0.999491  0.000509  0.000000  1
  Ni  Ni24  1  0.000255  0.999747  0.500000  1
  Rh  Rh25  1  0.327253  0.672747  0.000000  1
  Rh  Rh26  1  0.328123  0.671878  0.500000  1
  Rh  Rh27  1  0.672105  0.327896  0.500000  1
