# generated using pymatgen
data_Li4Ca2DyLuSi8
_symmetry_space_group_name_H-M   'P 1'
_cell_length_a   3.77753200
_cell_length_b   7.77610985
_cell_length_c   10.36906178
_cell_angle_alpha   89.33109623
_cell_angle_beta   90.00000000
_cell_angle_gamma   90.00000000
_symmetry_Int_Tables_number   1
_chemical_formula_structural   Li4Ca2DyLuSi8
_chemical_formula_sum   'Li4 Ca2 Dy1 Lu1 Si8'
_cell_volume   304.56528801
_cell_formula_units_Z   1
loop_
 _symmetry_equiv_pos_site_id
 _symmetry_equiv_pos_as_xyz
  1  'x, y, z'
loop_
 _atom_site_type_symbol
 _atom_site_label
 _atom_site_symmetry_multiplicity
 _atom_site_fract_x
 _atom_site_fract_y
 _atom_site_fract_z
 _atom_site_occupancy
  Li  Li0  1  0.250000  0.998876  0.389816  1
  Li  Li1  1  0.750000  0.000926  0.609798  1
  Li  Li2  1  0.250000  0.488420  0.108829  1
  Li  Li3  1  0.750000  0.510725  0.891785  1
  Ca  Ca4  1  0.250000  0.637580  0.634551  1
  Ca  Ca5  1  0.750000  0.362899  0.365031  1
  Dy  Dy6  1  0.250000  0.130060  0.865018  1
  Lu  Lu7  1  0.750000  0.871821  0.135029  1
  Si  Si8  1  0.750000  0.259236  0.062113  1
  Si  Si9  1  0.250000  0.740155  0.941836  1
  Si  Si10  1  0.750000  0.773742  0.423768  1
  Si  Si11  1  0.250000  0.227853  0.573602  1
  Si  Si12  1  0.750000  0.843564  0.827796  1
  Si  Si13  1  0.250000  0.152364  0.173859  1
  Si  Si14  1  0.750000  0.333320  0.684718  1
  Si  Si15  1  0.250000  0.668459  0.312452  1
