# generated using pymatgen
data_Tb4YHo5Sn8
_symmetry_space_group_name_H-M   'P 1'
_cell_length_a   8.01462700
_cell_length_b   8.15994500
_cell_length_c   15.43482300
_cell_angle_alpha   90.00000000
_cell_angle_beta   90.00000000
_cell_angle_gamma   90.00000000
_symmetry_Int_Tables_number   1
_chemical_formula_structural   Tb4YHo5Sn8
_chemical_formula_sum   'Tb8 Y2 Ho10 Sn16'
_cell_volume   1009.42068537
_cell_formula_units_Z   2
loop_
 _symmetry_equiv_pos_site_id
 _symmetry_equiv_pos_as_xyz
  1  'x, y, z'
loop_
 _atom_site_type_symbol
 _atom_site_label
 _atom_site_symmetry_multiplicity
 _atom_site_fract_x
 _atom_site_fract_y
 _atom_site_fract_z
 _atom_site_occupancy
  Tb  Tb0  1  0.520127  0.320576  0.902846  1
  Tb  Tb1  1  0.020127  0.179424  0.597154  1
  Tb  Tb2  1  0.479753  0.679371  0.402784  1
  Tb  Tb3  1  0.979753  0.820629  0.097216  1
  Tb  Tb4  1  0.479753  0.679371  0.097216  1
  Tb  Tb5  1  0.979753  0.820629  0.402784  1
  Tb  Tb6  1  0.520127  0.320576  0.597154  1
  Tb  Tb7  1  0.020127  0.179424  0.902846  1
  Y  Y8  1  0.802147  0.496636  0.250000  1
  Y  Y9  1  0.302147  0.003364  0.250000  1
  Ho  Ho10  1  0.366742  0.836542  0.877676  1
  Ho  Ho11  1  0.866742  0.663458  0.622324  1
  Ho  Ho12  1  0.633374  0.163277  0.377574  1
  Ho  Ho13  1  0.133374  0.336723  0.122426  1
  Ho  Ho14  1  0.633374  0.163277  0.122426  1
  Ho  Ho15  1  0.133374  0.336723  0.377574  1
  Ho  Ho16  1  0.366742  0.836542  0.622324  1
  Ho  Ho17  1  0.866742  0.663458  0.877676  1
  Ho  Ho18  1  0.197983  0.503264  0.750000  1
  Ho  Ho19  1  0.697983  0.996736  0.750000  1
  Sn  Sn20  1  0.294416  0.036944  0.041654  1
  Sn  Sn21  1  0.794416  0.463056  0.458346  1
  Sn  Sn22  1  0.705569  0.962818  0.541607  1
  Sn  Sn23  1  0.205569  0.537182  0.958393  1
  Sn  Sn24  1  0.705569  0.962818  0.958393  1
  Sn  Sn25  1  0.205569  0.537182  0.541607  1
  Sn  Sn26  1  0.294416  0.036944  0.458346  1
  Sn  Sn27  1  0.794416  0.463056  0.041654  1
  Sn  Sn28  1  0.564492  0.619416  0.750000  1
  Sn  Sn29  1  0.064492  0.880584  0.750000  1
  Sn  Sn30  1  0.435508  0.380686  0.250000  1
  Sn  Sn31  1  0.935508  0.119314  0.250000  1
  Sn  Sn32  1  0.328842  0.147334  0.750000  1
  Sn  Sn33  1  0.828842  0.352666  0.750000  1
  Sn  Sn34  1  0.671068  0.852832  0.250000  1
  Sn  Sn35  1  0.171068  0.647168  0.250000  1
