# generated using pymatgen
data_La9Yb(Ga2Sn)2
_symmetry_space_group_name_H-M   'P 1'
_cell_length_a   8.23033100
_cell_length_b   8.23033100
_cell_length_c   14.61043000
_cell_angle_alpha   90.00000000
_cell_angle_beta   90.00000000
_cell_angle_gamma   90.00000000
_symmetry_Int_Tables_number   1
_chemical_formula_structural   La9Yb(Ga2Sn)2
_chemical_formula_sum   'La18 Yb2 Ga8 Sn4'
_cell_volume   989.68639717
_cell_formula_units_Z   2
loop_
 _symmetry_equiv_pos_site_id
 _symmetry_equiv_pos_as_xyz
  1  'x, y, z'
loop_
 _atom_site_type_symbol
 _atom_site_label
 _atom_site_symmetry_multiplicity
 _atom_site_fract_x
 _atom_site_fract_y
 _atom_site_fract_z
 _atom_site_occupancy
  La  La0  1  0.332665  0.322340  0.104647  1
  La  La1  1  0.832665  0.822340  0.895353  1
  La  La2  1  0.835411  0.172803  0.394006  1
  La  La3  1  0.167335  0.177660  0.895353  1
  La  La4  1  0.667335  0.677660  0.104647  1
  La  La5  1  0.000000  0.500000  0.722153  1
  La  La6  1  0.827197  0.835411  0.605994  1
  La  La7  1  0.327197  0.335411  0.394006  1
  La  La8  1  0.177660  0.832665  0.104647  1
  La  La9  1  0.172803  0.164589  0.605994  1
  La  La10  1  0.822340  0.167335  0.104647  1
  La  La11  1  0.335411  0.672803  0.605994  1
  La  La12  1  0.500000  0.000000  0.277847  1
  La  La13  1  0.677660  0.332665  0.895353  1
  La  La14  1  0.664589  0.327197  0.605994  1
  La  La15  1  0.322340  0.667335  0.895353  1
  La  La16  1  0.164589  0.827197  0.394006  1
  La  La17  1  0.672803  0.664589  0.394006  1
  Yb  Yb18  1  0.500000  0.000000  0.759580  1
  Yb  Yb19  1  0.000000  0.500000  0.240420  1
  Ga  Ga20  1  0.619183  0.379128  0.247337  1
  Ga  Ga21  1  0.880817  0.120872  0.752663  1
  Ga  Ga22  1  0.879128  0.880817  0.247337  1
  Ga  Ga23  1  0.119183  0.879128  0.752663  1
  Ga  Ga24  1  0.379128  0.380817  0.752663  1
  Ga  Ga25  1  0.120872  0.119183  0.247337  1
  Ga  Ga26  1  0.380817  0.620872  0.247337  1
  Ga  Ga27  1  0.620872  0.619183  0.752663  1
  Sn  Sn28  1  0.500000  0.000000  0.503012  1
  Sn  Sn29  1  0.000000  0.500000  0.005785  1
  Sn  Sn30  1  0.500000  0.000000  0.994215  1
  Sn  Sn31  1  0.000000  0.500000  0.496988  1
