# generated using pymatgen
data_Ti8Al14SiOs5Rh2
_symmetry_space_group_name_H-M   'P 1'
_cell_length_a   8.65307632
_cell_length_b   8.65307527
_cell_length_c   8.65307536
_cell_angle_alpha   119.78540182
_cell_angle_beta   119.98504631
_cell_angle_gamma   90.19899586
_symmetry_Int_Tables_number   1
_chemical_formula_structural   Ti8Al14SiOs5Rh2
_chemical_formula_sum   'Ti8 Al14 Si1 Os5 Rh2'
_cell_volume   458.92827668
_cell_formula_units_Z   1
loop_
 _symmetry_equiv_pos_site_id
 _symmetry_equiv_pos_as_xyz
  1  'x, y, z'
loop_
 _atom_site_type_symbol
 _atom_site_label
 _atom_site_symmetry_multiplicity
 _atom_site_fract_x
 _atom_site_fract_y
 _atom_site_fract_z
 _atom_site_occupancy
  Ti  Ti0  1  0.793794  0.299270  0.083790  1
  Ti  Ti1  1  0.215480  0.299270  0.505476  1
  Ti  Ti2  1  0.204435  0.704435  0.500000  1
  Ti  Ti3  1  0.215480  0.710004  0.916210  1
  Ti  Ti4  1  0.793794  0.710004  0.494524  1
  Ti  Ti5  1  0.786737  0.286737  0.500000  1
  Ti  Ti6  1  0.375988  0.119504  0.743516  1
  Ti  Ti7  1  0.375988  0.632471  0.256484  1
  Al  Al8  1  0.155279  0.340613  0.185332  1
  Al  Al9  1  0.155279  0.969947  0.814668  1
  Al  Al10  1  0.153534  0.343652  0.809883  1
  Al  Al11  1  0.533767  0.343652  0.190117  1
  Al  Al12  1  0.846635  0.656033  0.809399  1
  Al  Al13  1  0.846635  0.037237  0.190601  1
  Al  Al14  1  0.842000  0.658944  0.183056  1
  Al  Al15  1  0.475888  0.658944  0.816944  1
  Al  Al16  1  0.380485  0.120453  0.260032  1
  Al  Al17  1  0.860422  0.120453  0.739968  1
  Al  Al18  1  0.620203  0.877071  0.256869  1
  Al  Al19  1  0.620203  0.363335  0.743131  1
  Al  Al20  1  0.618144  0.877714  0.740430  1
  Al  Al21  1  0.137282  0.877714  0.259570  1
  Si  Si22  1  0.996136  0.496136  0.500000  1
  Os  Os23  1  0.000866  0.999834  0.501317  1
  Os  Os24  1  0.498518  0.999834  0.998968  1
  Os  Os25  1  0.498396  0.498396  0.000000  1
  Os  Os26  1  0.498518  0.499549  0.498683  1
  Os  Os27  1  0.000866  0.499549  0.001032  1
  Rh  Rh28  1  0.000000  0.000000  0.000000  1
  Rh  Rh29  1  0.499243  0.999243  0.500000  1
