# generated using pymatgen
data_Yb4Si12Ni13Pd7
_symmetry_space_group_name_H-M   'P 1'
_cell_length_a   3.77762300
_cell_length_b   18.91120719
_cell_length_c   7.03395003
_cell_angle_alpha   89.98677756
_cell_angle_beta   90.00000000
_cell_angle_gamma   90.00000000
_symmetry_Int_Tables_number   1
_chemical_formula_structural   Yb4Si12Ni13Pd7
_chemical_formula_sum   'Yb4 Si12 Ni13 Pd7'
_cell_volume   502.50123526
_cell_formula_units_Z   1
loop_
 _symmetry_equiv_pos_site_id
 _symmetry_equiv_pos_as_xyz
  1  'x, y, z'
loop_
 _atom_site_type_symbol
 _atom_site_label
 _atom_site_symmetry_multiplicity
 _atom_site_fract_x
 _atom_site_fract_y
 _atom_site_fract_z
 _atom_site_occupancy
  Yb  Yb0  1  0.750000  0.643762  0.118139  1
  Yb  Yb1  1  0.250000  0.359235  0.881102  1
  Yb  Yb2  1  0.250000  0.858116  0.624734  1
  Yb  Yb3  1  0.750000  0.139738  0.380216  1
  Si  Si4  1  0.750000  0.741880  0.641534  1
  Si  Si5  1  0.250000  0.259975  0.369137  1
  Si  Si6  1  0.250000  0.762104  0.118642  1
  Si  Si7  1  0.750000  0.239271  0.868729  1
  Si  Si8  1  0.750000  0.924259  0.362091  1
  Si  Si9  1  0.250000  0.073850  0.641870  1
  Si  Si10  1  0.250000  0.576780  0.859286  1
  Si  Si11  1  0.750000  0.425528  0.140254  1
  Si  Si12  1  0.750000  0.917947  0.896315  1
  Si  Si13  1  0.250000  0.074285  0.105967  1
  Si  Si14  1  0.250000  0.577881  0.391944  1
  Si  Si15  1  0.750000  0.424835  0.607400  1
  Ni  Ni16  1  0.750000  0.800466  0.321682  1
  Ni  Ni17  1  0.250000  0.199010  0.671080  1
  Ni  Ni18  1  0.250000  0.702397  0.827350  1
  Ni  Ni19  1  0.750000  0.300511  0.171151  1
  Ni  Ni20  1  0.750000  0.993106  0.628039  1
  Ni  Ni21  1  0.250000  0.003849  0.376974  1
  Ni  Ni22  1  0.250000  0.506011  0.123582  1
  Ni  Ni23  1  0.750000  0.496383  0.875970  1
  Ni  Ni24  1  0.750000  0.508031  0.372390  1
  Ni  Ni25  1  0.250000  0.494406  0.626778  1
  Ni  Ni26  1  0.250000  0.990276  0.872650  1
  Ni  Ni27  1  0.750000  0.004740  0.125011  1
  Ni  Ni28  1  0.750000  0.796720  0.936811  1
  Pd  Pd29  1  0.250000  0.201200  0.066052  1
  Pd  Pd30  1  0.250000  0.704544  0.432314  1
  Pd  Pd31  1  0.750000  0.298429  0.566001  1
  Pd  Pd32  1  0.750000  0.612350  0.636625  1
  Pd  Pd33  1  0.250000  0.389796  0.362213  1
  Pd  Pd34  1  0.250000  0.888516  0.137685  1
  Pd  Pd35  1  0.750000  0.109813  0.862281  1
