# generated using pymatgen
data_Dy3Ho9Co4BiRh
_symmetry_space_group_name_H-M   'P 1'
_cell_length_a   8.31023157
_cell_length_b   8.31048685
_cell_length_c   8.30827613
_cell_angle_alpha   110.95462383
_cell_angle_beta   110.65792053
_cell_angle_gamma   106.84370303
_symmetry_Int_Tables_number   1
_chemical_formula_structural   Dy3Ho9Co4BiRh
_chemical_formula_sum   'Dy3 Ho9 Co4 Bi1 Rh1'
_cell_volume   440.94455826
_cell_formula_units_Z   1
loop_
 _symmetry_equiv_pos_site_id
 _symmetry_equiv_pos_as_xyz
  1  'x, y, z'
loop_
 _atom_site_type_symbol
 _atom_site_label
 _atom_site_symmetry_multiplicity
 _atom_site_fract_x
 _atom_site_fract_y
 _atom_site_fract_z
 _atom_site_occupancy
  Dy  Dy0  1  0.815634  0.711141  0.526777  1
  Dy  Dy1  1  0.184092  0.288755  0.472867  1
  Dy  Dy2  1  0.184397  0.711266  0.895658  1
  Ho  Ho3  1  0.815982  0.288642  0.104603  1
  Ho  Ho4  1  0.688473  0.379444  0.691219  1
  Ho  Ho5  1  0.311327  0.620366  0.308894  1
  Ho  Ho6  1  0.688532  0.997573  0.308900  1
  Ho  Ho7  1  0.311770  0.002732  0.691210  1
  Ho  Ho8  1  0.593040  0.790498  0.802905  1
  Ho  Ho9  1  0.407221  0.209824  0.197218  1
  Ho  Ho10  1  0.987387  0.789977  0.197204  1
  Ho  Ho11  1  0.012418  0.209880  0.802903  1
  Co  Co12  1  0.623176  0.000171  0.623356  1
  Co  Co13  1  0.376907  0.999986  0.376898  1
  Co  Co14  1  0.111338  0.611267  0.499621  1
  Co  Co15  1  0.888350  0.388277  0.499608  1
  Bi  Bi16  1  0.500020  0.499989  0.000012  1
  Rh  Rh17  1  0.999935  0.000210  0.000146  1
