# generated using pymatgen
data_AcCo3Ni2P3
_symmetry_space_group_name_H-M   'P 1'
_cell_length_a   6.14032362
_cell_length_b   6.14032472
_cell_length_c   11.57649000
_cell_angle_alpha   90.00000000
_cell_angle_beta   90.00000000
_cell_angle_gamma   145.46274174
_symmetry_Int_Tables_number   1
_chemical_formula_structural   AcCo3Ni2P3
_chemical_formula_sum   'Ac2 Co6 Ni4 P6'
_cell_volume   247.45609420
_cell_formula_units_Z   2
loop_
 _symmetry_equiv_pos_site_id
 _symmetry_equiv_pos_as_xyz
  1  'x, y, z'
loop_
 _atom_site_type_symbol
 _atom_site_label
 _atom_site_symmetry_multiplicity
 _atom_site_fract_x
 _atom_site_fract_y
 _atom_site_fract_z
 _atom_site_occupancy
  Ac  Ac0  1  0.339313  0.660687  0.250000  1
  Ac  Ac1  1  0.663936  0.336064  0.750000  1
  Co  Co2  1  0.695716  0.304284  0.435114  1
  Co  Co3  1  0.301860  0.698140  0.567708  1
  Co  Co4  1  0.301860  0.698140  0.932292  1
  Co  Co5  1  0.695716  0.304284  0.064886  1
  Co  Co6  1  0.949244  0.050756  0.641482  1
  Co  Co7  1  0.949244  0.050756  0.858518  1
  Ni  Ni8  1  0.053147  0.946853  0.144378  1
  Ni  Ni9  1  0.053147  0.946853  0.355622  1
  Ni  Ni10  1  0.497190  0.502810  0.496844  1
  Ni  Ni11  1  0.497190  0.502810  0.003156  1
  P  P12  1  0.617777  0.382223  0.250000  1
  P  P13  1  0.392743  0.607257  0.750000  1
  P  P14  1  0.118917  0.881083  0.535961  1
  P  P15  1  0.877041  0.122959  0.468713  1
  P  P16  1  0.877041  0.122959  0.031287  1
  P  P17  1  0.118917  0.881083  0.964039  1
