# generated using pymatgen
data_Lu12InCo4Cu
_symmetry_space_group_name_H-M   'P 1'
_cell_length_a   8.08999787
_cell_length_b   8.08999786
_cell_length_c   8.08999787
_cell_angle_alpha   111.17388235
_cell_angle_beta   111.06363802
_cell_angle_gamma   106.22415005
_symmetry_Int_Tables_number   1
_chemical_formula_structural   Lu12InCo4Cu
_chemical_formula_sum   'Lu12 In1 Co4 Cu1'
_cell_volume   406.61472375
_cell_formula_units_Z   1
loop_
 _symmetry_equiv_pos_site_id
 _symmetry_equiv_pos_as_xyz
  1  'x, y, z'
loop_
 _atom_site_type_symbol
 _atom_site_label
 _atom_site_symmetry_multiplicity
 _atom_site_fract_x
 _atom_site_fract_y
 _atom_site_fract_z
 _atom_site_occupancy
  Lu  Lu0  1  0.420847  0.220751  0.200097  1
  Lu  Lu1  1  0.579153  0.779249  0.799903  1
  Lu  Lu2  1  0.020654  0.220751  0.799903  1
  Lu  Lu3  1  0.979346  0.779249  0.200097  1
  Lu  Lu4  1  0.186402  0.288595  0.474997  1
  Lu  Lu5  1  0.813598  0.711405  0.525003  1
  Lu  Lu6  1  0.186402  0.711405  0.897807  1
  Lu  Lu7  1  0.813598  0.288595  0.102193  1
  Lu  Lu8  1  0.315023  0.618387  0.303362  1
  Lu  Lu9  1  0.684977  0.381613  0.696638  1
  Lu  Lu10  1  0.315023  0.011661  0.696638  1
  Lu  Lu11  1  0.684977  0.988339  0.303362  1
  In  In12  1  0.500000  0.500000  0.000000  1
  Co  Co13  1  0.374109  0.000000  0.374109  1
  Co  Co14  1  0.625891  0.000000  0.625891  1
  Co  Co15  1  0.114353  0.614353  0.500000  1
  Co  Co16  1  0.885647  0.385647  0.500000  1
  Cu  Cu17  1  0.000000  0.000000  0.000000  1
