# generated using pymatgen
data_Ti4(OF3)3
_symmetry_space_group_name_H-M   'P 1'
_cell_length_a   5.48980977
_cell_length_b   5.48931294
_cell_length_c   9.42308056
_cell_angle_alpha   73.17366598
_cell_angle_beta   73.18010251
_cell_angle_gamma   59.73603895
_symmetry_Int_Tables_number   1
_chemical_formula_structural   Ti4(OF3)3
_chemical_formula_sum   'Ti4 O3 F9'
_cell_volume   231.20309096
_cell_formula_units_Z   1
loop_
 _symmetry_equiv_pos_site_id
 _symmetry_equiv_pos_as_xyz
  1  'x, y, z'
loop_
 _atom_site_type_symbol
 _atom_site_label
 _atom_site_symmetry_multiplicity
 _atom_site_fract_x
 _atom_site_fract_y
 _atom_site_fract_z
 _atom_site_occupancy
  Ti  Ti0  1  0.752797  0.468563  0.622369  1
  Ti  Ti1  1  0.531435  0.247199  0.377636  1
  Ti  Ti2  1  0.215213  0.019537  0.133558  1
  Ti  Ti3  1  0.980475  0.784732  0.866461  1
  O  O4  1  0.658090  0.341863  0.499981  1
  O  O5  1  0.858989  0.139606  0.768450  1
  O  O6  1  0.860464  0.140972  0.231562  1
  F  F7  1  0.355067  0.642371  0.263913  1
  F  F8  1  0.357617  0.644948  0.736078  1
  F  F9  1  0.845027  0.660719  0.748720  1
  F  F10  1  0.139457  0.366819  0.513235  1
  F  F11  1  0.153748  0.348985  0.978927  1
  F  F12  1  0.339300  0.154956  0.251278  1
  F  F13  1  0.168080  0.831949  0.999992  1
  F  F14  1  0.651063  0.846254  0.021067  1
  F  F15  1  0.633179  0.860529  0.486773  1
