# generated using pymatgen
data_NbIn2PdPt8
_symmetry_space_group_name_H-M   'P 1'
_cell_length_a   4.03305700
_cell_length_b   4.03305700
_cell_length_c   12.11498400
_cell_angle_alpha   90.00000000
_cell_angle_beta   90.00000000
_cell_angle_gamma   90.00000000
_symmetry_Int_Tables_number   1
_chemical_formula_structural   NbIn2PdPt8
_chemical_formula_sum   'Nb1 In2 Pd1 Pt8'
_cell_volume   197.05686304
_cell_formula_units_Z   1
loop_
 _symmetry_equiv_pos_site_id
 _symmetry_equiv_pos_as_xyz
  1  'x, y, z'
loop_
 _atom_site_type_symbol
 _atom_site_label
 _atom_site_symmetry_multiplicity
 _atom_site_fract_x
 _atom_site_fract_y
 _atom_site_fract_z
 _atom_site_occupancy
  Nb  Nb0  1  0.000000  0.000000  0.999308  1
  In  In1  1  0.000000  0.000000  0.334736  1
  In  In2  1  0.000000  0.000000  0.665082  1
  Pd  Pd3  1  0.500000  0.500000  0.670151  1
  Pt  Pt4  1  0.500000  0.500000  0.000498  1
  Pt  Pt5  1  0.500000  0.500000  0.329929  1
  Pt  Pt6  1  0.500000  0.000000  0.158747  1
  Pt  Pt7  1  0.500000  0.000000  0.499820  1
  Pt  Pt8  1  0.500000  0.000000  0.841581  1
  Pt  Pt9  1  0.000000  0.500000  0.158747  1
  Pt  Pt10  1  0.000000  0.500000  0.499820  1
  Pt  Pt11  1  0.000000  0.500000  0.841581  1
