# generated using pymatgen
data_Co12Ge4N3
_symmetry_space_group_name_H-M   'P 1'
_cell_length_a   5.17780200
_cell_length_b   5.17780200
_cell_length_c   7.53814700
_cell_angle_alpha   90.00000000
_cell_angle_beta   90.00000000
_cell_angle_gamma   90.00000000
_symmetry_Int_Tables_number   1
_chemical_formula_structural   Co12Ge4N3
_chemical_formula_sum   'Co12 Ge4 N3'
_cell_volume   202.09495873
_cell_formula_units_Z   1
loop_
 _symmetry_equiv_pos_site_id
 _symmetry_equiv_pos_as_xyz
  1  'x, y, z'
loop_
 _atom_site_type_symbol
 _atom_site_label
 _atom_site_symmetry_multiplicity
 _atom_site_fract_x
 _atom_site_fract_y
 _atom_site_fract_z
 _atom_site_occupancy
  Co  Co0  1  0.317865  0.181821  0.500000  1
  Co  Co1  1  0.750862  0.742378  0.000000  1
  Co  Co2  1  0.682135  0.818179  0.500000  1
  Co  Co3  1  0.249138  0.257622  0.000000  1
  Co  Co4  1  0.181821  0.682135  0.500000  1
  Co  Co5  1  0.742378  0.249138  0.000000  1
  Co  Co6  1  0.818179  0.317865  0.500000  1
  Co  Co7  1  0.257622  0.750862  0.000000  1
  Co  Co8  1  0.500000  0.500000  0.249227  1
  Co  Co9  1  0.000000  0.000000  0.749526  1
  Co  Co10  1  0.000000  0.000000  0.250474  1
  Co  Co11  1  0.500000  0.500000  0.750773  1
  Ge  Ge12  1  0.000000  0.500000  0.229961  1
  Ge  Ge13  1  0.500000  0.000000  0.770039  1
  Ge  Ge14  1  0.500000  0.000000  0.229961  1
  Ge  Ge15  1  0.000000  0.500000  0.770039  1
  N  N16  1  0.000000  0.000000  0.500000  1
  N  N17  1  0.000000  0.000000  0.000000  1
  N  N18  1  0.500000  0.500000  0.500000  1
