# generated using pymatgen
data_Ca12Si8Pd5Rh3
_symmetry_space_group_name_H-M   'P 1'
_cell_length_a   5.73792719
_cell_length_b   7.86037621
_cell_length_c   13.38722576
_cell_angle_alpha   89.97408546
_cell_angle_beta   89.91734504
_cell_angle_gamma   89.83084407
_symmetry_Int_Tables_number   1
_chemical_formula_structural   Ca12Si8Pd5Rh3
_chemical_formula_sum   'Ca12 Si8 Pd5 Rh3'
_cell_volume   603.79090192
_cell_formula_units_Z   1
loop_
 _symmetry_equiv_pos_site_id
 _symmetry_equiv_pos_as_xyz
  1  'x, y, z'
loop_
 _atom_site_type_symbol
 _atom_site_label
 _atom_site_symmetry_multiplicity
 _atom_site_fract_x
 _atom_site_fract_y
 _atom_site_fract_z
 _atom_site_occupancy
  Ca  Ca0  1  0.127890  0.614048  0.103922  1
  Ca  Ca1  1  0.129503  0.888885  0.897567  1
  Ca  Ca2  1  0.870029  0.113297  0.398087  1
  Ca  Ca3  1  0.869921  0.386322  0.601222  1
  Ca  Ca4  1  0.866576  0.384724  0.894555  1
  Ca  Ca5  1  0.863876  0.110621  0.105116  1
  Ca  Ca6  1  0.136746  0.890691  0.604283  1
  Ca  Ca7  1  0.135557  0.610949  0.395494  1
  Ca  Ca8  1  0.355930  0.260805  0.250844  1
  Ca  Ca9  1  0.353712  0.238252  0.747292  1
  Ca  Ca10  1  0.644265  0.760886  0.251171  1
  Ca  Ca11  1  0.643564  0.741963  0.749360  1
  Si  Si12  1  0.836715  0.410870  0.253306  1
  Si  Si13  1  0.836949  0.091081  0.745910  1
  Si  Si14  1  0.162033  0.910581  0.246270  1
  Si  Si15  1  0.157322  0.592263  0.751801  1
  Si  Si16  1  0.380810  0.242837  0.003732  1
  Si  Si17  1  0.618409  0.749829  0.499923  1
  Si  Si18  1  0.605862  0.754529  0.003163  1
  Si  Si19  1  0.406476  0.250423  0.499820  1
  Pd  Pd20  1  0.626670  0.469376  0.089545  1
  Pd  Pd21  1  0.625809  0.031430  0.908029  1
  Pd  Pd22  1  0.370798  0.969429  0.408374  1
  Pd  Pd23  1  0.371678  0.531018  0.591788  1
  Pd  Pd24  1  0.372345  0.525486  0.911820  1
  Rh  Rh25  1  0.373416  0.969275  0.088084  1
  Rh  Rh26  1  0.629592  0.025996  0.586201  1
  Rh  Rh27  1  0.627546  0.474135  0.413321  1
