# generated using pymatgen
data_Pr2Nd4Zn4Pd12Rh
_symmetry_space_group_name_H-M   'P 1'
_cell_length_a   8.39542411
_cell_length_b   8.39523028
_cell_length_c   8.39523114
_cell_angle_alpha   109.44995506
_cell_angle_beta   109.48138318
_cell_angle_gamma   109.48139172
_symmetry_Int_Tables_number   1
_chemical_formula_structural   Pr2Nd4Zn4Pd12Rh
_chemical_formula_sum   'Pr2 Nd4 Zn4 Pd12 Rh1'
_cell_volume   455.50272859
_cell_formula_units_Z   1
loop_
 _symmetry_equiv_pos_site_id
 _symmetry_equiv_pos_as_xyz
  1  'x, y, z'
loop_
 _atom_site_type_symbol
 _atom_site_label
 _atom_site_symmetry_multiplicity
 _atom_site_fract_x
 _atom_site_fract_y
 _atom_site_fract_z
 _atom_site_occupancy
  Pr  Pr0  1  0.702270  0.702418  0.999852  1
  Pr  Pr1  1  0.297730  0.000148  0.297582  1
  Nd  Nd2  1  0.000000  0.298710  0.298409  1
  Nd  Nd3  1  0.297841  0.297994  0.999847  1
  Nd  Nd4  1  0.702159  0.000153  0.702006  1
  Nd  Nd5  1  0.000000  0.701591  0.701290  1
  Zn  Zn6  1  0.000000  0.000140  0.500550  1
  Zn  Zn7  1  0.000000  0.499450  0.999860  1
  Zn  Zn8  1  0.500000  0.000136  0.999864  1
  Zn  Zn9  1  0.500000  0.500136  0.499864  1
  Pd  Pd10  1  0.331292  0.331663  0.663686  1
  Pd  Pd11  1  0.668708  0.000371  0.332395  1
  Pd  Pd12  1  0.000000  0.667499  0.332501  1
  Pd  Pd13  1  0.668072  0.331239  0.000046  1
  Pd  Pd14  1  0.331928  0.663166  0.331975  1
  Pd  Pd15  1  0.000000  0.331971  0.668029  1
  Pd  Pd16  1  0.331292  0.667605  0.999629  1
  Pd  Pd17  1  0.331928  0.999954  0.668761  1
  Pd  Pd18  1  0.664473  0.332403  0.332071  1
  Pd  Pd19  1  0.668072  0.668025  0.336834  1
  Pd  Pd20  1  0.668708  0.336314  0.668337  1
  Pd  Pd21  1  0.335527  0.667929  0.667597  1
  Rh  Rh22  1  0.000000  0.000988  0.999012  1
