# generated using pymatgen
data_K2ScAlB28
_symmetry_space_group_name_H-M   'P 1'
_cell_length_a   7.49174558
_cell_length_b   7.49174462
_cell_length_c   7.43161540
_cell_angle_alpha   133.35209804
_cell_angle_beta   111.83393336
_cell_angle_gamma   87.13959835
_symmetry_Int_Tables_number   1
_chemical_formula_structural   K2ScAlB28
_chemical_formula_sum   'K2 Sc1 Al1 B28'
_cell_volume   268.18956306
_cell_formula_units_Z   1
loop_
 _symmetry_equiv_pos_site_id
 _symmetry_equiv_pos_as_xyz
  1  'x, y, z'
loop_
 _atom_site_type_symbol
 _atom_site_label
 _atom_site_symmetry_multiplicity
 _atom_site_fract_x
 _atom_site_fract_y
 _atom_site_fract_z
 _atom_site_occupancy
  K  K0  1  0.099467  0.750523  0.349990  1
  K  K1  1  0.900533  0.249477  0.650010  1
  Sc  Sc2  1  0.500000  0.500000  0.500000  1
  Al  Al3  1  0.500000  0.000000  0.000000  1
  B  B4  1  0.895377  0.216096  0.998054  1
  B  B5  1  0.467560  0.178281  0.795746  1
  B  B6  1  0.882534  0.171815  0.204254  1
  B  B7  1  0.718043  0.397323  0.001946  1
  B  B8  1  0.583477  0.417071  0.164695  1
  B  B9  1  0.740062  0.356106  0.362563  1
  B  B10  1  0.307497  0.336893  0.972738  1
  B  B11  1  0.719200  0.717561  0.322514  1
  B  B12  1  0.876109  0.674214  0.704271  1
  B  B13  1  0.469942  0.671838  0.295729  1
  B  B14  1  0.104952  0.103315  0.322514  1
  B  B15  1  0.895048  0.896685  0.677486  1
  B  B16  1  0.530058  0.328162  0.704271  1
  B  B17  1  0.123891  0.325786  0.295729  1
  B  B18  1  0.280800  0.282439  0.677486  1
  B  B19  1  0.752375  0.918783  0.835305  1
  B  B20  1  0.493543  0.877498  0.637437  1
  B  B21  1  0.864155  0.834759  0.027262  1
  B  B22  1  0.692503  0.663107  0.027262  1
  B  B23  1  0.259938  0.643894  0.637437  1
  B  B24  1  0.416523  0.582929  0.835305  1
  B  B25  1  0.281957  0.602677  0.998054  1
  B  B26  1  0.117466  0.828185  0.795746  1
  B  B27  1  0.532440  0.821719  0.204254  1
  B  B28  1  0.104623  0.783904  0.001946  1
  B  B29  1  0.135845  0.165241  0.972738  1
  B  B30  1  0.506457  0.122502  0.362563  1
  B  B31  1  0.247625  0.081217  0.164695  1
