# generated using pymatgen
data_TbTm3Co8(SiNi)12
_symmetry_space_group_name_H-M   'P 1'
_cell_length_a   3.71646700
_cell_length_b   18.42416327
_cell_length_c   6.77922403
_cell_angle_alpha   90.00418880
_cell_angle_beta   90.00000000
_cell_angle_gamma   90.00000000
_symmetry_Int_Tables_number   1
_chemical_formula_structural   TbTm3Co8(SiNi)12
_chemical_formula_sum   'Tb1 Tm3 Co8 Si12 Ni12'
_cell_volume   464.19241497
_cell_formula_units_Z   1
loop_
 _symmetry_equiv_pos_site_id
 _symmetry_equiv_pos_as_xyz
  1  'x, y, z'
loop_
 _atom_site_type_symbol
 _atom_site_label
 _atom_site_symmetry_multiplicity
 _atom_site_fract_x
 _atom_site_fract_y
 _atom_site_fract_z
 _atom_site_occupancy
  Tb  Tb0  1  0.750000  0.642419  0.124944  1
  Tm  Tm1  1  0.250000  0.356023  0.881270  1
  Tm  Tm2  1  0.250000  0.856965  0.619812  1
  Tm  Tm3  1  0.750000  0.142557  0.375546  1
  Co  Co4  1  0.750000  0.799657  0.318107  1
  Co  Co5  1  0.750000  0.298419  0.182043  1
  Co  Co6  1  0.750000  0.996087  0.629393  1
  Co  Co7  1  0.750000  0.494829  0.869124  1
  Co  Co8  1  0.750000  0.508531  0.384541  1
  Co  Co9  1  0.750000  0.009768  0.118333  1
  Co  Co10  1  0.750000  0.796216  0.937009  1
  Co  Co11  1  0.750000  0.294503  0.562054  1
  Si  Si12  1  0.750000  0.740182  0.626028  1
  Si  Si13  1  0.250000  0.263281  0.372466  1
  Si  Si14  1  0.250000  0.764959  0.127178  1
  Si  Si15  1  0.750000  0.239448  0.873452  1
  Si  Si16  1  0.750000  0.925028  0.352752  1
  Si  Si17  1  0.250000  0.075289  0.650069  1
  Si  Si18  1  0.250000  0.574255  0.847358  1
  Si  Si19  1  0.750000  0.424493  0.147694  1
  Si  Si20  1  0.750000  0.916946  0.902313  1
  Si  Si21  1  0.250000  0.081678  0.091031  1
  Si  Si22  1  0.250000  0.580864  0.412888  1
  Si  Si23  1  0.750000  0.414917  0.597203  1
  Ni  Ni24  1  0.250000  0.201423  0.679314  1
  Ni  Ni25  1  0.250000  0.702293  0.818785  1
  Ni  Ni26  1  0.250000  0.005483  0.370431  1
  Ni  Ni27  1  0.250000  0.504623  0.130195  1
  Ni  Ni28  1  0.250000  0.485632  0.623837  1
  Ni  Ni29  1  0.250000  0.987844  0.876246  1
  Ni  Ni30  1  0.250000  0.204596  0.065511  1
  Ni  Ni31  1  0.250000  0.705138  0.434597  1
  Ni  Ni32  1  0.750000  0.615220  0.640003  1
  Ni  Ni33  1  0.250000  0.386955  0.359768  1
  Ni  Ni34  1  0.250000  0.888665  0.138844  1
  Ni  Ni35  1  0.750000  0.114814  0.859860  1
