# generated using pymatgen
data_Tb4Y4Cd2IrPd
_symmetry_space_group_name_H-M   'P 1'
_cell_length_a   9.70544377
_cell_length_b   9.70544340
_cell_length_c   9.68528300
_cell_angle_alpha   60.06868694
_cell_angle_beta   60.06868820
_cell_angle_gamma   60.32570955
_symmetry_Int_Tables_number   1
_chemical_formula_structural   Tb4Y4Cd2IrPd
_chemical_formula_sum   'Tb8 Y8 Cd4 Ir2 Pd2'
_cell_volume   647.34840291
_cell_formula_units_Z   2
loop_
 _symmetry_equiv_pos_site_id
 _symmetry_equiv_pos_as_xyz
  1  'x, y, z'
loop_
 _atom_site_type_symbol
 _atom_site_label
 _atom_site_symmetry_multiplicity
 _atom_site_fract_x
 _atom_site_fract_y
 _atom_site_fract_z
 _atom_site_occupancy
  Tb  Tb0  1  0.351428  0.351428  0.345706  1
  Tb  Tb1  1  0.351428  0.351428  0.951440  1
  Tb  Tb2  1  0.359198  0.940929  0.349936  1
  Tb  Tb3  1  0.940929  0.359198  0.349936  1
  Tb  Tb4  1  0.805689  0.190646  0.189781  1
  Tb  Tb5  1  0.190646  0.805689  0.813883  1
  Tb  Tb6  1  0.190646  0.805689  0.189781  1
  Tb  Tb7  1  0.805689  0.190646  0.813883  1
  Y  Y8  1  0.192078  0.192078  0.807922  1
  Y  Y9  1  0.810575  0.810575  0.189425  1
  Y  Y10  1  0.937299  0.566090  0.561581  1
  Y  Y11  1  0.566090  0.937299  0.935031  1
  Y  Y12  1  0.566090  0.937299  0.561581  1
  Y  Y13  1  0.937299  0.566090  0.935031  1
  Y  Y14  1  0.563541  0.563541  0.936459  1
  Y  Y15  1  0.936674  0.936674  0.563326  1
  Cd  Cd16  1  0.581340  0.581340  0.582276  1
  Cd  Cd17  1  0.581340  0.581340  0.255045  1
  Cd  Cd18  1  0.579708  0.255562  0.582366  1
  Cd  Cd19  1  0.255562  0.579708  0.582366  1
  Ir  Ir20  1  0.141588  0.571548  0.143433  1
  Ir  Ir21  1  0.571548  0.141588  0.143433  1
  Pd  Pd22  1  0.141808  0.141808  0.147465  1
  Pd  Pd23  1  0.141808  0.141808  0.568918  1
