# generated using pymatgen
data_LaY12Th3(MgRh)4
_symmetry_space_group_name_H-M   'P 1'
_cell_length_a   9.82122988
_cell_length_b   9.83158096
_cell_length_c   9.83158100
_cell_angle_alpha   59.99999649
_cell_angle_beta   59.96512601
_cell_angle_gamma   59.96511843
_symmetry_Int_Tables_number   1
_chemical_formula_structural   LaY12Th3(MgRh)4
_chemical_formula_sum   'La1 Y12 Th3 Mg4 Rh4'
_cell_volume   670.91644485
_cell_formula_units_Z   1
loop_
 _symmetry_equiv_pos_site_id
 _symmetry_equiv_pos_as_xyz
  1  'x, y, z'
loop_
 _atom_site_type_symbol
 _atom_site_label
 _atom_site_symmetry_multiplicity
 _atom_site_fract_x
 _atom_site_fract_y
 _atom_site_fract_z
 _atom_site_occupancy
  La  La0  1  0.200516  0.599828  0.599828  1
  Y  Y1  1  0.062112  0.437430  0.437430  1
  Y  Y2  1  0.437404  0.062882  0.062882  1
  Y  Y3  1  0.437404  0.062882  0.436831  1
  Y  Y4  1  0.062112  0.437430  0.063027  1
  Y  Y5  1  0.437404  0.436831  0.062882  1
  Y  Y6  1  0.062112  0.063027  0.437430  1
  Y  Y7  1  0.185304  0.815497  0.815497  1
  Y  Y8  1  0.815195  0.184724  0.184724  1
  Y  Y9  1  0.815195  0.184724  0.815356  1
  Y  Y10  1  0.185304  0.815497  0.183702  1
  Y  Y11  1  0.815195  0.815356  0.184724  1
  Y  Y12  1  0.185304  0.183702  0.815497  1
  Th  Th13  1  0.597498  0.598163  0.598163  1
  Th  Th14  1  0.597498  0.598163  0.206177  1
  Th  Th15  1  0.597498  0.206177  0.598163  1
  Mg  Mg16  1  0.829295  0.831093  0.831093  1
  Mg  Mg17  1  0.829295  0.831093  0.508518  1
  Mg  Mg18  1  0.829295  0.508518  0.831093  1
  Mg  Mg19  1  0.507729  0.830757  0.830757  1
  Rh  Rh20  1  0.398520  0.391428  0.391428  1
  Rh  Rh21  1  0.398520  0.391428  0.818624  1
  Rh  Rh22  1  0.398520  0.818624  0.391428  1
  Rh  Rh23  1  0.815769  0.394744  0.394744  1
