# generated using pymatgen
data_HfSc7(Co4P3)4
_symmetry_space_group_name_H-M   'P 1'
_cell_length_a   12.08599943
_cell_length_b   12.08599912
_cell_length_c   3.63534800
_cell_angle_alpha   90.00000000
_cell_angle_beta   90.00000000
_cell_angle_gamma   119.92743881
_symmetry_Int_Tables_number   1
_chemical_formula_structural   HfSc7(Co4P3)4
_chemical_formula_sum   'Hf1 Sc7 Co16 P12'
_cell_volume   460.21294594
_cell_formula_units_Z   1
loop_
 _symmetry_equiv_pos_site_id
 _symmetry_equiv_pos_as_xyz
  1  'x, y, z'
loop_
 _atom_site_type_symbol
 _atom_site_label
 _atom_site_symmetry_multiplicity
 _atom_site_fract_x
 _atom_site_fract_y
 _atom_site_fract_z
 _atom_site_occupancy
  Hf  Hf0  1  0.556668  0.556668  0.000000  1
  Sc  Sc1  1  0.816723  0.999286  0.500000  1
  Sc  Sc2  1  0.999286  0.816723  0.500000  1
  Sc  Sc3  1  0.182723  0.182723  0.500000  1
  Sc  Sc4  1  0.333102  0.666040  0.000000  1
  Sc  Sc5  1  0.666040  0.333102  0.000000  1
  Sc  Sc6  1  0.442903  0.999551  0.000000  1
  Sc  Sc7  1  0.999551  0.442903  0.000000  1
  Co  Co8  1  0.277639  0.000335  0.500000  1
  Co  Co9  1  0.000335  0.277639  0.500000  1
  Co  Co10  1  0.723265  0.723265  0.500000  1
  Co  Co11  1  0.628722  0.806157  0.000000  1
  Co  Co12  1  0.193987  0.822087  0.000000  1
  Co  Co13  1  0.178320  0.373053  0.000000  1
  Co  Co14  1  0.373053  0.178320  0.000000  1
  Co  Co15  1  0.806157  0.628722  0.000000  1
  Co  Co16  1  0.822087  0.193987  0.000000  1
  Co  Co17  1  0.518075  0.873067  0.500000  1
  Co  Co18  1  0.124547  0.645201  0.500000  1
  Co  Co19  1  0.355424  0.481194  0.500000  1
  Co  Co20  1  0.481194  0.355424  0.500000  1
  Co  Co21  1  0.873067  0.518075  0.500000  1
  Co  Co22  1  0.645201  0.124547  0.500000  1
  Co  Co23  1  0.001388  0.001388  0.000000  1
  P  P24  1  0.176960  0.000346  0.000000  1
  P  P25  1  0.000346  0.176960  0.000000  1
  P  P26  1  0.825361  0.825361  0.000000  1
  P  P27  1  0.517175  0.691185  0.500000  1
  P  P28  1  0.309019  0.826093  0.500000  1
  P  P29  1  0.173068  0.483517  0.500000  1
  P  P30  1  0.483517  0.173068  0.500000  1
  P  P31  1  0.691185  0.517175  0.500000  1
  P  P32  1  0.826093  0.309019  0.500000  1
  P  P33  1  0.650894  0.000093  0.000000  1
  P  P34  1  0.000093  0.650894  0.000000  1
  P  P35  1  0.346835  0.346835  0.000000  1
