# generated using pymatgen
data_SrCd2(AsO4)2
_symmetry_space_group_name_H-M   'P 1'
_cell_length_a   6.04076025
_cell_length_b   7.14110381
_cell_length_c   10.01020560
_cell_angle_alpha   109.84887986
_cell_angle_beta   101.18972030
_cell_angle_gamma   99.42258848
_symmetry_Int_Tables_number   1
_chemical_formula_structural   SrCd2(AsO4)2
_chemical_formula_sum   'Sr2 Cd4 As4 O16'
_cell_volume   385.90943187
_cell_formula_units_Z   2
loop_
 _symmetry_equiv_pos_site_id
 _symmetry_equiv_pos_as_xyz
  1  'x, y, z'
loop_
 _atom_site_type_symbol
 _atom_site_label
 _atom_site_symmetry_multiplicity
 _atom_site_fract_x
 _atom_site_fract_y
 _atom_site_fract_z
 _atom_site_occupancy
  Sr  Sr0  1  0.244031  0.204336  0.448594  1
  Sr  Sr1  1  0.755970  0.795663  0.551406  1
  Cd  Cd2  1  0.492170  0.577904  0.841606  1
  Cd  Cd3  1  0.139161  0.835605  0.056743  1
  Cd  Cd4  1  0.860839  0.164394  0.943256  1
  Cd  Cd5  1  0.507830  0.422097  0.158394  1
  As  As6  1  0.877398  0.405744  0.713042  1
  As  As7  1  0.122602  0.594256  0.286958  1
  As  As8  1  0.326310  0.020654  0.789994  1
  As  As9  1  0.673690  0.979346  0.210006  1
  O  O10  1  0.650042  0.450674  0.604955  1
  O  O11  1  0.349958  0.549326  0.395044  1
  O  O12  1  0.218861  0.989164  0.612340  1
  O  O13  1  0.781140  0.010836  0.387660  1
  O  O14  1  0.139374  0.461257  0.672808  1
  O  O15  1  0.860627  0.538743  0.327192  1
  O  O16  1  0.813854  0.162799  0.711628  1
  O  O17  1  0.186147  0.837201  0.288372  1
  O  O18  1  0.537680  0.883734  0.807061  1
  O  O19  1  0.462320  0.116266  0.192939  1
  O  O20  1  0.123150  0.436385  0.110345  1
  O  O21  1  0.876850  0.563615  0.889655  1
  O  O22  1  0.523703  0.725135  0.092944  1
  O  O23  1  0.098532  0.939122  0.855538  1
  O  O24  1  0.901468  0.060878  0.144462  1
  O  O25  1  0.476298  0.274865  0.907056  1
