# generated using pymatgen
data_NdY19Rh12
_symmetry_space_group_name_H-M   'P 1'
_cell_length_a   10.99038204
_cell_length_b   10.98481679
_cell_length_c   6.40705250
_cell_angle_alpha   90.04370439
_cell_angle_beta   89.98987883
_cell_angle_gamma   89.99885469
_symmetry_Int_Tables_number   1
_chemical_formula_structural   NdY19Rh12
_chemical_formula_sum   'Nd1 Y19 Rh12'
_cell_volume   773.50612432
_cell_formula_units_Z   1
loop_
 _symmetry_equiv_pos_site_id
 _symmetry_equiv_pos_as_xyz
  1  'x, y, z'
loop_
 _atom_site_type_symbol
 _atom_site_label
 _atom_site_symmetry_multiplicity
 _atom_site_fract_x
 _atom_site_fract_y
 _atom_site_fract_z
 _atom_site_occupancy
  Nd  Nd0  1  0.789070  0.590477  0.619841  1
  Y  Y1  1  0.089990  0.291447  0.118095  1
  Y  Y2  1  0.791851  0.408793  0.118322  1
  Y  Y3  1  0.208427  0.589561  0.117788  1
  Y  Y4  1  0.911784  0.709134  0.118292  1
  Y  Y5  1  0.410388  0.791368  0.382187  1
  Y  Y6  1  0.589315  0.208362  0.382018  1
  Y  Y7  1  0.291504  0.089454  0.382515  1
  Y  Y8  1  0.708519  0.911274  0.381240  1
  Y  Y9  1  0.410570  0.208624  0.881931  1
  Y  Y10  1  0.708706  0.089418  0.882025  1
  Y  Y11  1  0.291218  0.910871  0.882193  1
  Y  Y12  1  0.587786  0.792553  0.883509  1
  Y  Y13  1  0.091707  0.709013  0.618140  1
  Y  Y14  1  0.910988  0.290125  0.617781  1
  Y  Y15  1  0.208485  0.410032  0.618119  1
  Y  Y16  1  0.000181  0.000207  0.999706  1
  Y  Y17  1  0.499681  0.499943  0.999743  1
  Y  Y18  1  0.497947  0.499158  0.498924  1
  Y  Y19  1  0.000560  0.999922  0.499290  1
  Rh  Rh20  1  0.153654  0.846295  0.249872  1
  Rh  Rh21  1  0.346516  0.345730  0.250256  1
  Rh  Rh22  1  0.652625  0.654980  0.246108  1
  Rh  Rh23  1  0.845883  0.154053  0.250440  1
  Rh  Rh24  1  0.346405  0.654150  0.749614  1
  Rh  Rh25  1  0.153868  0.154032  0.749966  1
  Rh  Rh26  1  0.846649  0.848561  0.751189  1
  Rh  Rh27  1  0.652865  0.343845  0.751698  1
  Rh  Rh28  1  0.001883  0.499272  0.370331  1
  Rh  Rh29  1  0.499837  0.999904  0.127946  1
  Rh  Rh30  1  0.499778  0.000189  0.627880  1
  Rh  Rh31  1  0.001357  0.499255  0.873041  1
