# generated using pymatgen
data_Rb14Nb2Tl(InP2)5
_symmetry_space_group_name_H-M   'P 1'
_cell_length_a   8.53383438
_cell_length_b   9.51012523
_cell_length_c   14.30026102
_cell_angle_alpha   85.90501948
_cell_angle_beta   83.69006621
_cell_angle_gamma   86.17796637
_symmetry_Int_Tables_number   1
_chemical_formula_structural   Rb14Nb2Tl(InP2)5
_chemical_formula_sum   'Rb14 Nb2 Tl1 In5 P10'
_cell_volume   1148.57624202
_cell_formula_units_Z   1
loop_
 _symmetry_equiv_pos_site_id
 _symmetry_equiv_pos_as_xyz
  1  'x, y, z'
loop_
 _atom_site_type_symbol
 _atom_site_label
 _atom_site_symmetry_multiplicity
 _atom_site_fract_x
 _atom_site_fract_y
 _atom_site_fract_z
 _atom_site_occupancy
  Rb  Rb0  1  0.842039  0.359706  0.651194  1
  Rb  Rb1  1  0.815994  0.803488  0.140597  1
  Rb  Rb2  1  0.234842  0.006078  0.467746  1
  Rb  Rb3  1  0.274249  0.255743  0.250824  1
  Rb  Rb4  1  0.739585  0.493519  0.971892  1
  Rb  Rb5  1  0.263762  0.499975  0.026497  1
  Rb  Rb6  1  0.674637  0.086509  0.882415  1
  Rb  Rb7  1  0.763894  0.994928  0.533170  1
  Rb  Rb8  1  0.727136  0.742966  0.746290  1
  Rb  Rb9  1  0.336950  0.341779  0.599082  1
  Rb  Rb10  1  0.161168  0.637143  0.350023  1
  Rb  Rb11  1  0.180409  0.197051  0.860476  1
  Rb  Rb12  1  0.324678  0.916537  0.114568  1
  Rb  Rb13  1  0.660416  0.656165  0.404090  1
  Nb  Nb14  1  0.351077  0.604778  0.774774  1
  Nb  Nb15  1  0.648588  0.395678  0.225678  1
  Tl  Tl16  1  0.045995  0.818954  0.879921  1
  In  In17  1  0.945787  0.184315  0.126636  1
  In  In18  1  0.362233  0.948923  0.702828  1
  In  In19  1  0.093769  0.718660  0.623106  1
  In  In20  1  0.908361  0.282452  0.376446  1
  In  In21  1  0.637267  0.051731  0.298901  1
  P  P22  1  0.924407  0.449153  0.208510  1
  P  P23  1  0.625357  0.199143  0.125029  1
  P  P24  1  0.076386  0.547803  0.788331  1
  P  P25  1  0.586840  0.300293  0.388554  1
  P  P26  1  0.414310  0.700823  0.612114  1
  P  P27  1  0.032256  0.991389  0.699446  1
  P  P28  1  0.512391  0.402921  0.809241  1
  P  P29  1  0.487723  0.597376  0.190360  1
  P  P30  1  0.378846  0.800400  0.875474  1
  P  P31  1  0.968649  0.013621  0.295788  1
