# generated using pymatgen
data_Li2Mg2Ta7NbN12
_symmetry_space_group_name_H-M   'P 1'
_cell_length_a   5.25165118
_cell_length_b   5.24722088
_cell_length_c   10.40239300
_cell_angle_alpha   90.00000000
_cell_angle_beta   90.00000000
_cell_angle_gamma   120.05833515
_symmetry_Int_Tables_number   1
_chemical_formula_structural   Li2Mg2Ta7NbN12
_chemical_formula_sum   'Li2 Mg2 Ta7 Nb1 N12'
_cell_volume   248.10385854
_cell_formula_units_Z   1
loop_
 _symmetry_equiv_pos_site_id
 _symmetry_equiv_pos_as_xyz
  1  'x, y, z'
loop_
 _atom_site_type_symbol
 _atom_site_label
 _atom_site_symmetry_multiplicity
 _atom_site_fract_x
 _atom_site_fract_y
 _atom_site_fract_z
 _atom_site_occupancy
  Li  Li0  1  0.333455  0.666779  0.999842  1
  Li  Li1  1  0.333455  0.666779  0.500158  1
  Mg  Mg2  1  0.666566  0.332610  0.500167  1
  Mg  Mg3  1  0.666566  0.332610  0.999833  1
  Ta  Ta4  1  0.004884  0.347739  0.250000  1
  Ta  Ta5  1  0.343064  0.346894  0.750000  1
  Ta  Ta6  1  0.999039  0.999986  0.500648  1
  Ta  Ta7  1  0.999039  0.999986  0.999352  1
  Ta  Ta8  1  0.652437  0.656961  0.250000  1
  Ta  Ta9  1  0.342829  0.995297  0.250000  1
  Ta  Ta10  1  0.004836  0.657646  0.750000  1
  Nb  Nb11  1  0.654132  0.995988  0.750000  1
  N  N12  1  0.676041  0.669381  0.621928  1
  N  N13  1  0.676041  0.669381  0.878072  1
  N  N14  1  0.326775  0.323817  0.122761  1
  N  N15  1  0.326775  0.323817  0.377239  1
  N  N16  1  0.323097  0.002825  0.877822  1
  N  N17  1  0.323097  0.002825  0.622178  1
  N  N18  1  0.996973  0.673162  0.377226  1
  N  N19  1  0.996973  0.673162  0.122774  1
  N  N20  1  0.675423  0.002847  0.122597  1
  N  N21  1  0.675423  0.002847  0.377403  1
  N  N22  1  0.001543  0.328329  0.878258  1
  N  N23  1  0.001543  0.328329  0.621742  1
