# generated using pymatgen
data_Yb2Ga9Pd2Ru
_symmetry_space_group_name_H-M   'P 1'
_cell_length_a   7.59767106
_cell_length_b   7.59767121
_cell_length_c   9.64178100
_cell_angle_alpha   90.00000000
_cell_angle_beta   90.00000000
_cell_angle_gamma   119.34298569
_symmetry_Int_Tables_number   1
_chemical_formula_structural   Yb2Ga9Pd2Ru
_chemical_formula_sum   'Yb4 Ga18 Pd4 Ru2'
_cell_volume   485.16138128
_cell_formula_units_Z   2
loop_
 _symmetry_equiv_pos_site_id
 _symmetry_equiv_pos_as_xyz
  1  'x, y, z'
loop_
 _atom_site_type_symbol
 _atom_site_label
 _atom_site_symmetry_multiplicity
 _atom_site_fract_x
 _atom_site_fract_y
 _atom_site_fract_z
 _atom_site_occupancy
  Yb  Yb0  1  0.999232  0.671109  0.250000  1
  Yb  Yb1  1  0.000768  0.328891  0.750000  1
  Yb  Yb2  1  0.671109  0.999232  0.250000  1
  Yb  Yb3  1  0.328891  0.000768  0.750000  1
  Ga  Ga4  1  0.121321  0.121321  0.250000  1
  Ga  Ga5  1  0.878679  0.878679  0.750000  1
  Ga  Ga6  1  0.002531  0.331673  0.079366  1
  Ga  Ga7  1  0.997469  0.668327  0.920634  1
  Ga  Ga8  1  0.997469  0.668327  0.579366  1
  Ga  Ga9  1  0.331673  0.002531  0.420634  1
  Ga  Ga10  1  0.002531  0.331673  0.420634  1
  Ga  Ga11  1  0.668327  0.997469  0.579366  1
  Ga  Ga12  1  0.668327  0.997469  0.920634  1
  Ga  Ga13  1  0.331673  0.002531  0.079366  1
  Ga  Ga14  1  0.327388  0.327388  0.563912  1
  Ga  Ga15  1  0.672612  0.672612  0.436088  1
  Ga  Ga16  1  0.672612  0.672612  0.063912  1
  Ga  Ga17  1  0.327388  0.327388  0.936088  1
  Ga  Ga18  1  0.340221  0.547000  0.250000  1
  Ga  Ga19  1  0.659779  0.453000  0.750000  1
  Ga  Ga20  1  0.547000  0.340221  0.250000  1
  Ga  Ga21  1  0.453000  0.659779  0.750000  1
  Pd  Pd22  1  0.670847  0.329153  0.000000  1
  Pd  Pd23  1  0.329153  0.670847  0.000000  1
  Pd  Pd24  1  0.329153  0.670847  0.500000  1
  Pd  Pd25  1  0.670847  0.329153  0.500000  1
  Ru  Ru26  1  0.000000  0.000000  0.000000  1
  Ru  Ru27  1  0.000000  0.000000  0.500000  1
