# generated using pymatgen
data_Nd16Cd2Hg2Pd3Ru
_symmetry_space_group_name_H-M   'P 1'
_cell_length_a   10.02628059
_cell_length_b   10.02628030
_cell_length_c   10.04238641
_cell_angle_alpha   59.60370767
_cell_angle_beta   59.60370901
_cell_angle_gamma   59.64677433
_symmetry_Int_Tables_number   1
_chemical_formula_structural   Nd16Cd2Hg2Pd3Ru
_chemical_formula_sum   'Nd16 Cd2 Hg2 Pd3 Ru1'
_cell_volume   707.64480841
_cell_formula_units_Z   1
loop_
 _symmetry_equiv_pos_site_id
 _symmetry_equiv_pos_as_xyz
  1  'x, y, z'
loop_
 _atom_site_type_symbol
 _atom_site_label
 _atom_site_symmetry_multiplicity
 _atom_site_fract_x
 _atom_site_fract_y
 _atom_site_fract_z
 _atom_site_occupancy
  Nd  Nd0  1  0.352853  0.352853  0.352317  1
  Nd  Nd1  1  0.348474  0.348474  0.948652  1
  Nd  Nd2  1  0.349427  0.946251  0.349000  1
  Nd  Nd3  1  0.946251  0.349427  0.349000  1
  Nd  Nd4  1  0.817644  0.188365  0.189301  1
  Nd  Nd5  1  0.187557  0.808506  0.808560  1
  Nd  Nd6  1  0.188365  0.817644  0.189301  1
  Nd  Nd7  1  0.808506  0.187557  0.808560  1
  Nd  Nd8  1  0.188311  0.188311  0.818210  1
  Nd  Nd9  1  0.807288  0.807288  0.189151  1
  Nd  Nd10  1  0.936238  0.564220  0.565042  1
  Nd  Nd11  1  0.558816  0.936479  0.937020  1
  Nd  Nd12  1  0.564220  0.936238  0.565042  1
  Nd  Nd13  1  0.936479  0.558816  0.937020  1
  Nd  Nd14  1  0.564235  0.564235  0.937207  1
  Nd  Nd15  1  0.936182  0.936182  0.559599  1
  Cd  Cd16  1  0.579852  0.258029  0.580934  1
  Cd  Cd17  1  0.258029  0.579852  0.580934  1
  Hg  Hg18  1  0.582970  0.582970  0.585334  1
  Hg  Hg19  1  0.584119  0.584119  0.245160  1
  Pd  Pd20  1  0.145667  0.145667  0.569537  1
  Pd  Pd21  1  0.145376  0.570004  0.145827  1
  Pd  Pd22  1  0.570004  0.145376  0.145827  1
  Ru  Ru23  1  0.143140  0.143140  0.143466  1
