# generated using pymatgen
data_PrSmYTaO7
_symmetry_space_group_name_H-M   'P 1'
_cell_length_a   6.58562669
_cell_length_b   6.58562692
_cell_length_c   7.67055700
_cell_angle_alpha   90.00000000
_cell_angle_beta   90.00000000
_cell_angle_gamma   109.21693986
_symmetry_Int_Tables_number   1
_chemical_formula_structural   PrSmYTaO7
_chemical_formula_sum   'Pr2 Sm2 Y2 Ta2 O14'
_cell_volume   314.13874943
_cell_formula_units_Z   2
loop_
 _symmetry_equiv_pos_site_id
 _symmetry_equiv_pos_as_xyz
  1  'x, y, z'
loop_
 _atom_site_type_symbol
 _atom_site_label
 _atom_site_symmetry_multiplicity
 _atom_site_fract_x
 _atom_site_fract_y
 _atom_site_fract_z
 _atom_site_occupancy
  Pr  Pr0  1  0.483210  0.483210  0.500000  1
  Pr  Pr1  1  0.483210  0.483210  0.000000  1
  Sm  Sm2  1  0.536309  0.998225  0.750000  1
  Sm  Sm3  1  0.998225  0.536309  0.250000  1
  Y  Y4  1  0.468834  0.998298  0.250000  1
  Y  Y5  1  0.998298  0.468834  0.750000  1
  Ta  Ta6  1  0.998538  0.998538  0.500000  1
  Ta  Ta7  1  0.998538  0.998538  0.000000  1
  O  O8  1  0.688044  0.939207  0.464137  1
  O  O9  1  0.939207  0.688044  0.535863  1
  O  O10  1  0.688044  0.939207  0.035863  1
  O  O11  1  0.939207  0.688044  0.964137  1
  O  O12  1  0.321349  0.073206  0.525385  1
  O  O13  1  0.073206  0.321349  0.474615  1
  O  O14  1  0.321349  0.073206  0.974615  1
  O  O15  1  0.073206  0.321349  0.025385  1
  O  O16  1  0.938683  0.058942  0.750000  1
  O  O17  1  0.058942  0.938683  0.250000  1
  O  O18  1  0.359604  0.630311  0.750000  1
  O  O19  1  0.630311  0.359604  0.250000  1
  O  O20  1  0.643470  0.360219  0.750000  1
  O  O21  1  0.360219  0.643470  0.250000  1
