# generated using pymatgen
data_Li4Sc4In7Hg
_symmetry_space_group_name_H-M   'P 1'
_cell_length_a   6.99384803
_cell_length_b   6.99248403
_cell_length_c   7.02411600
_cell_angle_alpha   89.99914160
_cell_angle_beta   90.00076033
_cell_angle_gamma   90.01002018
_symmetry_Int_Tables_number   1
_chemical_formula_structural   Li4Sc4In7Hg
_chemical_formula_sum   'Li4 Sc4 In7 Hg1'
_cell_volume   343.50996680
_cell_formula_units_Z   1
loop_
 _symmetry_equiv_pos_site_id
 _symmetry_equiv_pos_as_xyz
  1  'x, y, z'
loop_
 _atom_site_type_symbol
 _atom_site_label
 _atom_site_symmetry_multiplicity
 _atom_site_fract_x
 _atom_site_fract_y
 _atom_site_fract_z
 _atom_site_occupancy
  Li  Li0  1  0.747001  0.246943  0.996902  1
  Li  Li1  1  0.252992  0.753054  0.996873  1
  Li  Li2  1  0.746862  0.246929  0.503054  1
  Li  Li3  1  0.253115  0.753071  0.503131  1
  Sc  Sc4  1  0.251788  0.248163  0.997525  1
  Sc  Sc5  1  0.748189  0.751853  0.997543  1
  Sc  Sc6  1  0.748098  0.751862  0.502434  1
  Sc  Sc7  1  0.251899  0.248142  0.502472  1
  In  In8  1  0.499930  0.000040  0.249967  1
  In  In9  1  0.499909  0.499990  0.249970  1
  In  In10  1  0.000043  0.000045  0.250017  1
  In  In11  1  0.000030  0.499950  0.250025  1
  In  In12  1  0.000042  0.000055  0.749973  1
  In  In13  1  0.000046  0.499976  0.749965  1
  In  In14  1  0.499988  0.499926  0.750023  1
  Hg  Hg15  1  0.500066  0.000001  0.750126  1
