# generated using pymatgen
data_Se15Br
_symmetry_space_group_name_H-M   'P 1'
_cell_length_a   20.74036511
_cell_length_b   5.00622028
_cell_length_c   6.03842381
_cell_angle_alpha   91.33124850
_cell_angle_beta   89.69450373
_cell_angle_gamma   91.82187714
_symmetry_Int_Tables_number   1
_chemical_formula_structural   Se15Br
_chemical_formula_sum   'Se15 Br1'
_cell_volume   626.48189343
_cell_formula_units_Z   1
loop_
 _symmetry_equiv_pos_site_id
 _symmetry_equiv_pos_as_xyz
  1  'x, y, z'
loop_
 _atom_site_type_symbol
 _atom_site_label
 _atom_site_symmetry_multiplicity
 _atom_site_fract_x
 _atom_site_fract_y
 _atom_site_fract_z
 _atom_site_occupancy
  Se  Se0  1  0.887857  0.871310  0.382790  1
  Se  Se1  1  0.395032  0.576512  0.536745  1
  Se  Se2  1  0.101628  0.050314  0.534292  1
  Se  Se3  1  0.599998  0.435800  0.467308  1
  Se  Se4  1  0.951005  0.207163  0.214699  1
  Se  Se5  1  0.445915  0.286861  0.780218  1
  Se  Se6  1  0.051116  0.746419  0.780494  1
  Se  Se7  1  0.552394  0.734125  0.221488  1
  Se  Se8  1  0.323038  0.355877  0.284670  1
  Se  Se9  1  0.173923  0.850836  0.280296  1
  Se  Se10  1  0.674105  0.643698  0.718146  1
  Se  Se11  1  0.877678  0.499839  0.068244  1
  Se  Se12  1  0.372612  0.068015  0.022670  1
  Se  Se13  1  0.124421  0.548163  0.020236  1
  Se  Se14  1  0.627387  0.941486  0.977820  1
  Br  Br15  1  0.841892  0.183582  0.709883  1
