# generated using pymatgen
data_Tm8Ti9Si16Mo3
_symmetry_space_group_name_H-M   'P 1'
_cell_length_a   6.96948718
_cell_length_b   6.96948726
_cell_length_c   12.81028522
_cell_angle_alpha   90.02033857
_cell_angle_beta   89.97966021
_cell_angle_gamma   89.99213547
_symmetry_Int_Tables_number   1
_chemical_formula_structural   Tm8Ti9Si16Mo3
_chemical_formula_sum   'Tm8 Ti9 Si16 Mo3'
_cell_volume   622.24353367
_cell_formula_units_Z   1
loop_
 _symmetry_equiv_pos_site_id
 _symmetry_equiv_pos_as_xyz
  1  'x, y, z'
loop_
 _atom_site_type_symbol
 _atom_site_label
 _atom_site_symmetry_multiplicity
 _atom_site_fract_x
 _atom_site_fract_y
 _atom_site_fract_z
 _atom_site_occupancy
  Tm  Tm0  1  0.340712  0.002074  0.466497  1
  Tm  Tm1  1  0.498823  0.842307  0.717962  1
  Tm  Tm2  1  0.500223  0.158223  0.216636  1
  Tm  Tm3  1  0.842307  0.498823  0.282038  1
  Tm  Tm4  1  0.158223  0.500223  0.783364  1
  Tm  Tm5  1  0.658846  0.999657  0.966897  1
  Tm  Tm6  1  0.002074  0.340712  0.533503  1
  Tm  Tm7  1  0.999657  0.658846  0.033103  1
  Ti  Ti8  1  0.672796  0.672796  0.500000  1
  Ti  Ti9  1  0.151946  0.007901  0.875940  1
  Ti  Ti10  1  0.492155  0.652172  0.125045  1
  Ti  Ti11  1  0.506917  0.347292  0.626778  1
  Ti  Ti12  1  0.652172  0.492155  0.874955  1
  Ti  Ti13  1  0.347292  0.506917  0.373222  1
  Ti  Ti14  1  0.848862  0.992522  0.374779  1
  Ti  Ti15  1  0.007901  0.151946  0.124060  1
  Ti  Ti16  1  0.992522  0.848862  0.625221  1
  Si  Si17  1  0.202543  0.130865  0.683568  1
  Si  Si18  1  0.368692  0.701663  0.933662  1
  Si  Si19  1  0.631529  0.297229  0.433729  1
  Si  Si20  1  0.701663  0.368692  0.066338  1
  Si  Si21  1  0.297229  0.631529  0.566271  1
  Si  Si22  1  0.797838  0.868803  0.184062  1
  Si  Si23  1  0.130865  0.202543  0.316432  1
  Si  Si24  1  0.868803  0.797838  0.815938  1
  Si  Si25  1  0.292329  0.952698  0.065052  1
  Si  Si26  1  0.546693  0.791556  0.315105  1
  Si  Si27  1  0.452546  0.208072  0.815283  1
  Si  Si28  1  0.791556  0.546693  0.684895  1
  Si  Si29  1  0.208072  0.452546  0.184717  1
  Si  Si30  1  0.707414  0.048016  0.565769  1
  Si  Si31  1  0.952698  0.292329  0.934948  1
  Si  Si32  1  0.048016  0.707414  0.434231  1
  Mo  Mo33  1  0.327154  0.327154  0.000000  1
  Mo  Mo34  1  0.173629  0.827304  0.249358  1
  Mo  Mo35  1  0.827304  0.173629  0.750642  1
