# generated using pymatgen
data_DyHo9(ThCo2)2
_symmetry_space_group_name_H-M   'P 1'
_cell_length_a   6.23540063
_cell_length_b   6.86728406
_cell_length_c   9.46781900
_cell_angle_alpha   90.00000000
_cell_angle_beta   90.00000000
_cell_angle_gamma   87.89833081
_symmetry_Int_Tables_number   1
_chemical_formula_structural   DyHo9(ThCo2)2
_chemical_formula_sum   'Dy1 Ho9 Th2 Co4'
_cell_volume   405.14182931
_cell_formula_units_Z   1
loop_
 _symmetry_equiv_pos_site_id
 _symmetry_equiv_pos_as_xyz
  1  'x, y, z'
loop_
 _atom_site_type_symbol
 _atom_site_label
 _atom_site_symmetry_multiplicity
 _atom_site_fract_x
 _atom_site_fract_y
 _atom_site_fract_z
 _atom_site_occupancy
  Dy  Dy0  1  0.355809  0.544102  0.250000  1
  Ho  Ho1  1  0.673676  0.173295  0.068050  1
  Ho  Ho2  1  0.826445  0.671481  0.430129  1
  Ho  Ho3  1  0.325570  0.826531  0.932165  1
  Ho  Ho4  1  0.173987  0.328086  0.570553  1
  Ho  Ho5  1  0.673676  0.173295  0.431950  1
  Ho  Ho6  1  0.173987  0.328086  0.929447  1
  Ho  Ho7  1  0.325570  0.826531  0.567835  1
  Ho  Ho8  1  0.642685  0.457057  0.750000  1
  Ho  Ho9  1  0.826445  0.671481  0.069871  1
  Th  Th10  1  0.156816  0.050235  0.250000  1
  Th  Th11  1  0.844074  0.950792  0.750000  1
  Co  Co12  1  0.957692  0.367977  0.250000  1
  Co  Co13  1  0.464951  0.111885  0.750000  1
  Co  Co14  1  0.537141  0.887109  0.250000  1
  Co  Co15  1  0.041476  0.632057  0.750000  1
