# generated using pymatgen
data_Ti8Mn3Al15Pd4
_symmetry_space_group_name_H-M   'P 1'
_cell_length_a   8.59731001
_cell_length_b   8.60356041
_cell_length_c   8.61498300
_cell_angle_alpha   120.17335464
_cell_angle_beta   119.89542876
_cell_angle_gamma   90.06094390
_symmetry_Int_Tables_number   1
_chemical_formula_structural   Ti8Mn3Al15Pd4
_chemical_formula_sum   'Ti8 Mn3 Al15 Pd4'
_cell_volume   449.87615658
_cell_formula_units_Z   1
loop_
 _symmetry_equiv_pos_site_id
 _symmetry_equiv_pos_as_xyz
  1  'x, y, z'
loop_
 _atom_site_type_symbol
 _atom_site_label
 _atom_site_symmetry_multiplicity
 _atom_site_fract_x
 _atom_site_fract_y
 _atom_site_fract_z
 _atom_site_occupancy
  Ti  Ti0  1  0.800783  0.285328  0.069543  1
  Ti  Ti1  1  0.209894  0.276927  0.482131  1
  Ti  Ti2  1  0.205439  0.704711  0.485519  1
  Ti  Ti3  1  0.202013  0.719385  0.930829  1
  Ti  Ti4  1  0.794384  0.725370  0.516215  1
  Ti  Ti5  1  0.788906  0.288724  0.513087  1
  Ti  Ti6  1  0.384403  0.115937  0.730150  1
  Ti  Ti7  1  0.370662  0.647315  0.259391  1
  Mn  Mn8  1  0.004095  0.501375  0.003263  1
  Mn  Mn9  1  0.001510  0.999271  0.999314  1
  Mn  Mn10  1  0.495965  0.999911  0.503036  1
  Al  Al11  1  0.997434  0.496741  0.500131  1
  Al  Al12  1  0.156533  0.337453  0.173943  1
  Al  Al13  1  0.157184  0.971780  0.816360  1
  Al  Al14  1  0.154539  0.348348  0.813477  1
  Al  Al15  1  0.545962  0.348862  0.196350  1
  Al  Al16  1  0.845265  0.660853  0.824822  1
  Al  Al17  1  0.845829  0.034113  0.185551  1
  Al  Al18  1  0.846232  0.651288  0.184564  1
  Al  Al19  1  0.453103  0.650392  0.802841  1
  Al  Al20  1  0.378179  0.116539  0.260359  1
  Al  Al21  1  0.858603  0.122481  0.742440  1
  Al  Al22  1  0.616399  0.881306  0.265259  1
  Al  Al23  1  0.625714  0.357554  0.743212  1
  Al  Al24  1  0.624155  0.882722  0.740108  1
  Al  Al25  1  0.139149  0.877699  0.256725  1
  Pd  Pd26  1  0.996155  0.999361  0.498236  1
  Pd  Pd27  1  0.500543  0.998286  0.001423  1
  Pd  Pd28  1  0.500889  0.501453  0.000584  1
  Pd  Pd29  1  0.500075  0.498517  0.501137  1
