# generated using pymatgen
data_Ho4AgPt3
_symmetry_space_group_name_H-M   'P 1'
_cell_length_a   4.59736400
_cell_length_b   5.61851205
_cell_length_c   6.98340229
_cell_angle_alpha   90.18567930
_cell_angle_beta   90.00000000
_cell_angle_gamma   90.00000000
_symmetry_Int_Tables_number   1
_chemical_formula_structural   Ho4AgPt3
_chemical_formula_sum   'Ho4 Ag1 Pt3'
_cell_volume   180.38274338
_cell_formula_units_Z   1
loop_
 _symmetry_equiv_pos_site_id
 _symmetry_equiv_pos_as_xyz
  1  'x, y, z'
loop_
 _atom_site_type_symbol
 _atom_site_label
 _atom_site_symmetry_multiplicity
 _atom_site_fract_x
 _atom_site_fract_y
 _atom_site_fract_z
 _atom_site_occupancy
  Ho  Ho0  1  0.000000  0.644214  0.311950  1
  Ho  Ho1  1  0.000000  0.852711  0.823319  1
  Ho  Ho2  1  0.500000  0.369088  0.693625  1
  Ho  Ho3  1  0.500000  0.137425  0.168956  1
  Ag  Ag4  1  0.000000  0.149452  0.461791  1
  Pt  Pt5  1  0.000000  0.338562  0.957145  1
  Pt  Pt6  1  0.500000  0.852876  0.537309  1
  Pt  Pt7  1  0.500000  0.655673  0.045905  1
