# generated using pymatgen
data_Dy3HoAl4(Ga7Ir3)2
_symmetry_space_group_name_H-M   'P 1'
_cell_length_a   7.57433606
_cell_length_b   7.57489025
_cell_length_c   9.51787300
_cell_angle_alpha   90.00000000
_cell_angle_beta   90.00000000
_cell_angle_gamma   119.76425766
_symmetry_Int_Tables_number   1
_chemical_formula_structural   Dy3HoAl4(Ga7Ir3)2
_chemical_formula_sum   'Dy3 Ho1 Al4 Ga14 Ir6'
_cell_volume   474.04352970
_cell_formula_units_Z   1
loop_
 _symmetry_equiv_pos_site_id
 _symmetry_equiv_pos_as_xyz
  1  'x, y, z'
loop_
 _atom_site_type_symbol
 _atom_site_label
 _atom_site_symmetry_multiplicity
 _atom_site_fract_x
 _atom_site_fract_y
 _atom_site_fract_z
 _atom_site_occupancy
  Dy  Dy0  1  0.000477  0.669210  0.250000  1
  Dy  Dy1  1  0.999525  0.330789  0.750000  1
  Dy  Dy2  1  0.669217  0.000490  0.250000  1
  Ho  Ho3  1  0.330781  0.999463  0.750000  1
  Al  Al4  1  0.332087  0.332008  0.553963  1
  Al  Al5  1  0.667918  0.667919  0.446092  1
  Al  Al6  1  0.667918  0.667919  0.053908  1
  Al  Al7  1  0.332087  0.332008  0.946037  1
  Ga  Ga8  1  0.126395  0.126399  0.250000  1
  Ga  Ga9  1  0.873676  0.873641  0.750000  1
  Ga  Ga10  1  0.000187  0.334994  0.079349  1
  Ga  Ga11  1  0.999892  0.665095  0.920613  1
  Ga  Ga12  1  0.999892  0.665095  0.579387  1
  Ga  Ga13  1  0.334989  0.000179  0.420702  1
  Ga  Ga14  1  0.000187  0.334994  0.420651  1
  Ga  Ga15  1  0.664927  0.999815  0.579390  1
  Ga  Ga16  1  0.664927  0.999815  0.920610  1
  Ga  Ga17  1  0.334989  0.000179  0.079298  1
  Ga  Ga18  1  0.345484  0.548997  0.250000  1
  Ga  Ga19  1  0.654457  0.450923  0.750000  1
  Ga  Ga20  1  0.548989  0.345482  0.250000  1
  Ga  Ga21  1  0.450988  0.654567  0.750000  1
  Ir  Ir22  1  0.669472  0.330475  0.999969  1
  Ir  Ir23  1  0.330489  0.669524  0.999969  1
  Ir  Ir24  1  0.330489  0.669524  0.500031  1
  Ir  Ir25  1  0.669472  0.330475  0.500031  1
  Ir  Ir26  1  0.000045  0.000011  0.999967  1
  Ir  Ir27  1  0.000045  0.000011  0.500033  1
