# generated using pymatgen
data_Hf2Zr4Co16Ni4P13
_symmetry_space_group_name_H-M   'P 1'
_cell_length_a   12.34140087
_cell_length_b   12.37232527
_cell_length_c   3.61402200
_cell_angle_alpha   90.00000000
_cell_angle_beta   90.00000000
_cell_angle_gamma   119.87454762
_symmetry_Int_Tables_number   1
_chemical_formula_structural   Hf2Zr4Co16Ni4P13
_chemical_formula_sum   'Hf2 Zr4 Co16 Ni4 P13'
_cell_volume   478.50318696
_cell_formula_units_Z   1
loop_
 _symmetry_equiv_pos_site_id
 _symmetry_equiv_pos_as_xyz
  1  'x, y, z'
loop_
 _atom_site_type_symbol
 _atom_site_label
 _atom_site_symmetry_multiplicity
 _atom_site_fract_x
 _atom_site_fract_y
 _atom_site_fract_z
 _atom_site_occupancy
  Hf  Hf0  1  0.194762  0.717936  0.000000  1
  Hf  Hf1  1  0.281662  0.476831  0.000000  1
  Zr  Zr2  1  0.810819  0.285869  0.500000  1
  Zr  Zr3  1  0.713994  0.524594  0.500000  1
  Zr  Zr4  1  0.475001  0.189297  0.500000  1
  Zr  Zr5  1  0.524322  0.806212  0.000000  1
  Co  Co6  1  0.419157  0.978982  0.000000  1
  Co  Co7  1  0.021234  0.440734  0.000000  1
  Co  Co8  1  0.583047  0.018066  0.500000  1
  Co  Co9  1  0.558906  0.579968  0.000000  1
  Co  Co10  1  0.982956  0.566193  0.500000  1
  Co  Co11  1  0.926796  0.077525  0.500000  1
  Co  Co12  1  0.151259  0.074151  0.500000  1
  Co  Co13  1  0.923229  0.849164  0.500000  1
  Co  Co14  1  0.097703  0.895300  0.000000  1
  Co  Co15  1  0.798663  0.902627  0.000000  1
  Co  Co16  1  0.104906  0.202505  0.000000  1
  Co  Co17  1  0.331861  0.665757  0.500000  1
  Co  Co18  1  0.676215  0.744559  0.500000  1
  Co  Co19  1  0.254742  0.930537  0.500000  1
  Co  Co20  1  0.433553  0.416577  0.500000  1
  Co  Co21  1  0.069364  0.324525  0.500000  1
  Ni  Ni22  1  0.666420  0.333087  0.000000  1
  Ni  Ni23  1  0.918842  0.674204  0.000000  1
  Ni  Ni24  1  0.325694  0.244102  0.000000  1
  Ni  Ni25  1  0.755503  0.081375  0.000000  1
  P  P26  1  0.000656  0.000473  0.000000  1
  P  P27  1  0.228648  0.283676  0.500000  1
  P  P28  1  0.717591  0.945879  0.500000  1
  P  P29  1  0.055008  0.771245  0.500000  1
  P  P30  1  0.764847  0.713955  0.000000  1
  P  P31  1  0.285560  0.050790  0.000000  1
  P  P32  1  0.471591  0.612277  0.500000  1
  P  P33  1  0.386363  0.858974  0.500000  1
  P  P34  1  0.861653  0.475317  0.000000  1
  P  P35  1  0.524362  0.386086  0.000000  1
  P  P36  1  0.613622  0.138046  0.000000  1
  P  P37  1  0.949128  0.234942  0.000000  1
  P  P38  1  0.140366  0.527656  0.500000  1
