# generated using pymatgen
data_Ce4Fe2B6Pb
_symmetry_space_group_name_H-M   'P 1'
_cell_length_a   5.31308952
_cell_length_b   5.31309122
_cell_length_c   8.45149401
_cell_angle_alpha   71.67972126
_cell_angle_beta   71.67972626
_cell_angle_gamma   59.99998772
_symmetry_Int_Tables_number   1
_chemical_formula_structural   Ce4Fe2B6Pb
_chemical_formula_sum   'Ce4 Fe2 B6 Pb1'
_cell_volume   192.52372361
_cell_formula_units_Z   1
loop_
 _symmetry_equiv_pos_site_id
 _symmetry_equiv_pos_as_xyz
  1  'x, y, z'
loop_
 _atom_site_type_symbol
 _atom_site_label
 _atom_site_symmetry_multiplicity
 _atom_site_fract_x
 _atom_site_fract_y
 _atom_site_fract_z
 _atom_site_occupancy
  Ce  Ce0  1  0.746739  0.746739  0.759783  1
  Ce  Ce1  1  0.253261  0.253261  0.240217  1
  Ce  Ce2  1  0.586563  0.586563  0.240310  1
  Ce  Ce3  1  0.413437  0.413437  0.759690  1
  Fe  Fe4  1  0.881759  0.881759  0.354724  1
  Fe  Fe5  1  0.118241  0.118241  0.645277  1
  B  B6  1  0.500000  0.168402  0.500000  1
  B  B7  1  0.831598  0.500000  0.500000  1
  B  B8  1  0.168402  0.831598  0.500000  1
  B  B9  1  0.168402  0.500000  0.500000  1
  B  B10  1  0.831598  0.168402  0.500000  1
  B  B11  1  0.500000  0.831598  0.500000  1
  Pb  Pb12  1  0.000000  0.000000  0.000000  1
