# generated using pymatgen
data_Lu4Si6Ir6Rh
_symmetry_space_group_name_H-M   'P 1'
_cell_length_a   7.10667807
_cell_length_b   7.10667828
_cell_length_c   7.10667800
_cell_angle_alpha   109.52998936
_cell_angle_beta   109.52998995
_cell_angle_gamma   109.35375088
_symmetry_Int_Tables_number   1
_chemical_formula_structural   Lu4Si6Ir6Rh
_chemical_formula_sum   'Lu4 Si6 Ir6 Rh1'
_cell_volume   276.29730727
_cell_formula_units_Z   1
loop_
 _symmetry_equiv_pos_site_id
 _symmetry_equiv_pos_as_xyz
  1  'x, y, z'
loop_
 _atom_site_type_symbol
 _atom_site_label
 _atom_site_symmetry_multiplicity
 _atom_site_fract_x
 _atom_site_fract_y
 _atom_site_fract_z
 _atom_site_occupancy
  Lu  Lu0  1  0.999726  0.000274  0.500000  1
  Lu  Lu1  1  0.999726  0.499726  0.999453  1
  Lu  Lu2  1  0.500274  0.000274  0.000547  1
  Lu  Lu3  1  0.500274  0.499726  0.500000  1
  Si  Si4  1  0.679013  0.679013  0.000000  1
  Si  Si5  1  0.320858  0.999531  0.321328  1
  Si  Si6  1  0.000469  0.321797  0.321328  1
  Si  Si7  1  0.320987  0.320987  0.000000  1
  Si  Si8  1  0.678203  0.999531  0.678672  1
  Si  Si9  1  0.000469  0.679142  0.678672  1
  Ir  Ir10  1  0.750324  0.499854  0.250469  1
  Ir  Ir11  1  0.500146  0.249676  0.749531  1
  Ir  Ir12  1  0.249384  0.499854  0.749531  1
  Ir  Ir13  1  0.250000  0.750000  0.500000  1
  Ir  Ir14  1  0.500146  0.750616  0.250469  1
  Ir  Ir15  1  0.000000  0.000000  0.000000  1
  Rh  Rh16  1  0.750000  0.250000  0.500000  1
