# generated using pymatgen
data_PrNd4Sn3O
_symmetry_space_group_name_H-M   'P 1'
_cell_length_a   9.39615439
_cell_length_b   9.39615487
_cell_length_c   9.39615358
_cell_angle_alpha   126.28319264
_cell_angle_beta   126.28319014
_cell_angle_gamma   79.42321980
_symmetry_Int_Tables_number   1
_chemical_formula_structural   PrNd4Sn3O
_chemical_formula_sum   'Pr2 Nd8 Sn6 O2'
_cell_volume   521.02316675
_cell_formula_units_Z   2
loop_
 _symmetry_equiv_pos_site_id
 _symmetry_equiv_pos_as_xyz
  1  'x, y, z'
loop_
 _atom_site_type_symbol
 _atom_site_label
 _atom_site_symmetry_multiplicity
 _atom_site_fract_x
 _atom_site_fract_y
 _atom_site_fract_z
 _atom_site_occupancy
  Pr  Pr0  1  0.503438  0.503439  0.000000  1
  Pr  Pr1  1  0.003439  0.003438  0.000000  1
  Nd  Nd2  1  0.498466  0.303758  0.500000  1
  Nd  Nd3  1  0.803758  0.998466  0.500000  1
  Nd  Nd4  1  0.998468  0.498468  0.194709  1
  Nd  Nd5  1  0.303757  0.803757  0.805290  1
  Nd  Nd6  1  0.503350  0.698310  0.500000  1
  Nd  Nd7  1  0.198310  0.003350  0.500000  1
  Nd  Nd8  1  0.003349  0.503349  0.805038  1
  Nd  Nd9  1  0.698311  0.198311  0.194962  1
  Sn  Sn10  1  0.141224  0.360216  0.500000  1
  Sn  Sn11  1  0.860216  0.641224  0.500000  1
  Sn  Sn12  1  0.641224  0.141224  0.781008  1
  Sn  Sn13  1  0.360216  0.860216  0.218993  1
  Sn  Sn14  1  0.751917  0.751917  0.000001  1
  Sn  Sn15  1  0.251917  0.251917  0.000001  1
  O  O16  1  0.750741  0.250741  0.500000  1
  O  O17  1  0.250742  0.750742  0.500001  1
