# generated using pymatgen
data_BaFeSb12OsRu2
_symmetry_space_group_name_H-M   'P 1'
_cell_length_a   8.16862108
_cell_length_b   8.16787143
_cell_length_c   8.18795851
_cell_angle_alpha   109.55196326
_cell_angle_beta   109.53664698
_cell_angle_gamma   109.42471736
_symmetry_Int_Tables_number   1
_chemical_formula_structural   BaFeSb12OsRu2
_chemical_formula_sum   'Ba1 Fe1 Sb12 Os1 Ru2'
_cell_volume   420.02541521
_cell_formula_units_Z   1
loop_
 _symmetry_equiv_pos_site_id
 _symmetry_equiv_pos_as_xyz
  1  'x, y, z'
loop_
 _atom_site_type_symbol
 _atom_site_label
 _atom_site_symmetry_multiplicity
 _atom_site_fract_x
 _atom_site_fract_y
 _atom_site_fract_z
 _atom_site_occupancy
  Ba  Ba0  1  0.000000  0.000000  0.000000  1
  Fe  Fe1  1  0.000000  0.000000  0.500000  1
  Sb  Sb2  1  0.157899  0.819478  0.656302  1
  Sb  Sb3  1  0.158502  0.501430  0.341285  1
  Sb  Sb4  1  0.498581  0.658020  0.840957  1
  Sb  Sb5  1  0.342291  0.840539  0.182351  1
  Sb  Sb6  1  0.819575  0.661666  0.163091  1
  Sb  Sb7  1  0.661781  0.842718  0.498578  1
  Sb  Sb8  1  0.180425  0.338334  0.836909  1
  Sb  Sb9  1  0.657709  0.159461  0.817649  1
  Sb  Sb10  1  0.338219  0.157282  0.501422  1
  Sb  Sb11  1  0.501419  0.341980  0.159043  1
  Sb  Sb12  1  0.841498  0.498570  0.658715  1
  Sb  Sb13  1  0.842101  0.180522  0.343698  1
  Os  Os14  1  0.500000  0.500000  0.500000  1
  Ru  Ru15  1  0.500000  0.000000  0.000000  1
  Ru  Ru16  1  0.000000  0.500000  0.000000  1
