# generated using pymatgen
data_La5Pr15Ir11Ru
_symmetry_space_group_name_H-M   'P 1'
_cell_length_a   11.37023650
_cell_length_b   11.39982223
_cell_length_c   6.63816922
_cell_angle_alpha   89.90667851
_cell_angle_beta   89.99204010
_cell_angle_gamma   89.94185054
_symmetry_Int_Tables_number   1
_chemical_formula_structural   La5Pr15Ir11Ru
_chemical_formula_sum   'La5 Pr15 Ir11 Ru1'
_cell_volume   860.42910522
_cell_formula_units_Z   1
loop_
 _symmetry_equiv_pos_site_id
 _symmetry_equiv_pos_as_xyz
  1  'x, y, z'
loop_
 _atom_site_type_symbol
 _atom_site_label
 _atom_site_symmetry_multiplicity
 _atom_site_fract_x
 _atom_site_fract_y
 _atom_site_fract_z
 _atom_site_occupancy
  La  La0  1  0.293201  0.090003  0.384246  1
  La  La1  1  0.292646  0.910089  0.887617  1
  La  La2  1  0.707133  0.091130  0.887471  1
  La  La3  1  0.707455  0.910603  0.384422  1
  La  La4  1  0.589800  0.791560  0.886605  1
  Pr  Pr5  1  0.589152  0.209108  0.382188  1
  Pr  Pr6  1  0.409981  0.790653  0.382362  1
  Pr  Pr7  1  0.410454  0.209238  0.884570  1
  Pr  Pr8  1  0.208341  0.410400  0.617988  1
  Pr  Pr9  1  0.208264  0.588844  0.117608  1
  Pr  Pr10  1  0.791674  0.410771  0.117160  1
  Pr  Pr11  1  0.791967  0.589131  0.617162  1
  Pr  Pr12  1  0.910745  0.708156  0.116999  1
  Pr  Pr13  1  0.909899  0.291624  0.616958  1
  Pr  Pr14  1  0.090234  0.708297  0.617143  1
  Pr  Pr15  1  0.089647  0.291692  0.116553  1
  Pr  Pr16  1  0.999959  0.999979  0.498107  1
  Pr  Pr17  1  0.999921  0.000220  0.997668  1
  Pr  Pr18  1  0.499565  0.499412  0.999724  1
  Pr  Pr19  1  0.500172  0.499868  0.499198  1
  Ir  Ir20  1  0.845857  0.154156  0.248071  1
  Ir  Ir21  1  0.845417  0.846296  0.747921  1
  Ir  Ir22  1  0.154457  0.153474  0.747481  1
  Ir  Ir23  1  0.154268  0.846001  0.248030  1
  Ir  Ir24  1  0.653917  0.346584  0.749559  1
  Ir  Ir25  1  0.653906  0.654333  0.248674  1
  Ir  Ir26  1  0.345759  0.346442  0.250243  1
  Ir  Ir27  1  0.345833  0.653260  0.749471  1
  Ir  Ir28  1  0.500239  0.999334  0.618766  1
  Ir  Ir29  1  0.000129  0.499961  0.882471  1
  Ir  Ir30  1  0.999801  0.500071  0.383174  1
  Ru  Ru31  1  0.500209  0.999310  0.114392  1
