# generated using pymatgen
data_Tb8Ta11Si16Os
_symmetry_space_group_name_H-M   'P 1'
_cell_length_a   7.03015049
_cell_length_b   7.03014936
_cell_length_c   12.98990972
_cell_angle_alpha   89.89371124
_cell_angle_beta   90.10628717
_cell_angle_gamma   89.68608820
_symmetry_Int_Tables_number   1
_chemical_formula_structural   Tb8Ta11Si16Os
_chemical_formula_sum   'Tb8 Ta11 Si16 Os1'
_cell_volume   641.98855434
_cell_formula_units_Z   1
loop_
 _symmetry_equiv_pos_site_id
 _symmetry_equiv_pos_as_xyz
  1  'x, y, z'
loop_
 _atom_site_type_symbol
 _atom_site_label
 _atom_site_symmetry_multiplicity
 _atom_site_fract_x
 _atom_site_fract_y
 _atom_site_fract_z
 _atom_site_occupancy
  Tb  Tb0  1  0.341725  0.002333  0.468763  1
  Tb  Tb1  1  0.498896  0.840108  0.717119  1
  Tb  Tb2  1  0.503934  0.158898  0.219127  1
  Tb  Tb3  1  0.840108  0.498896  0.282881  1
  Tb  Tb4  1  0.158898  0.503934  0.780873  1
  Tb  Tb5  1  0.659469  0.996360  0.968202  1
  Tb  Tb6  1  0.002333  0.341725  0.531237  1
  Tb  Tb7  1  0.996360  0.659469  0.031798  1
  Ta  Ta8  1  0.329347  0.329347  0.000000  1
  Ta  Ta9  1  0.170031  0.826324  0.252373  1
  Ta  Ta10  1  0.826324  0.170031  0.747627  1
  Ta  Ta11  1  0.153211  0.007115  0.874297  1
  Ta  Ta12  1  0.495038  0.653539  0.125190  1
  Ta  Ta13  1  0.505564  0.342015  0.624164  1
  Ta  Ta14  1  0.653539  0.495038  0.874810  1
  Ta  Ta15  1  0.342015  0.505564  0.375836  1
  Ta  Ta16  1  0.850174  0.995866  0.374879  1
  Ta  Ta17  1  0.007115  0.153211  0.125703  1
  Ta  Ta18  1  0.995866  0.850174  0.625121  1
  Si  Si19  1  0.204439  0.132834  0.682770  1
  Si  Si20  1  0.366084  0.703968  0.932677  1
  Si  Si21  1  0.631596  0.299727  0.433182  1
  Si  Si22  1  0.703968  0.366084  0.067323  1
  Si  Si23  1  0.299727  0.631596  0.566818  1
  Si  Si24  1  0.797127  0.865958  0.183124  1
  Si  Si25  1  0.132834  0.204439  0.317230  1
  Si  Si26  1  0.865958  0.797127  0.816876  1
  Si  Si27  1  0.293969  0.954869  0.064507  1
  Si  Si28  1  0.549235  0.791362  0.317397  1
  Si  Si29  1  0.455388  0.206207  0.813635  1
  Si  Si30  1  0.791362  0.549235  0.682603  1
  Si  Si31  1  0.206207  0.455388  0.186365  1
  Si  Si32  1  0.707874  0.041785  0.561412  1
  Si  Si33  1  0.954869  0.293969  0.935493  1
  Si  Si34  1  0.041785  0.707874  0.438588  1
  Os  Os35  1  0.667634  0.667634  0.500000  1
