# generated using pymatgen
data_Ca5Yb2Dy(Si3Pd)4
_symmetry_space_group_name_H-M   'P 1'
_cell_length_a   8.24813000
_cell_length_b   8.25816087
_cell_length_c   8.26986100
_cell_angle_alpha   90.00000000
_cell_angle_beta   90.00000000
_cell_angle_gamma   119.95981943
_symmetry_Int_Tables_number   1
_chemical_formula_structural   Ca5Yb2Dy(Si3Pd)4
_chemical_formula_sum   'Ca5 Yb2 Dy1 Si12 Pd4'
_cell_volume   488.02646662
_cell_formula_units_Z   1
loop_
 _symmetry_equiv_pos_site_id
 _symmetry_equiv_pos_as_xyz
  1  'x, y, z'
loop_
 _atom_site_type_symbol
 _atom_site_label
 _atom_site_symmetry_multiplicity
 _atom_site_fract_x
 _atom_site_fract_y
 _atom_site_fract_z
 _atom_site_occupancy
  Ca  Ca0  1  0.503095  0.006191  0.250000  1
  Ca  Ca1  1  0.496678  0.993356  0.750000  1
  Ca  Ca2  1  0.993919  0.497020  0.250000  1
  Ca  Ca3  1  0.503099  0.497020  0.250000  1
  Ca  Ca4  1  0.000051  0.000103  0.250000  1
  Yb  Yb5  1  0.005751  0.502891  0.750000  1
  Yb  Yb6  1  0.497142  0.502891  0.750000  1
  Dy  Dy7  1  0.000015  0.000029  0.750000  1
  Si  Si8  1  0.164437  0.328874  0.995418  1
  Si  Si9  1  0.835652  0.671306  0.991963  1
  Si  Si10  1  0.670752  0.835460  0.996567  1
  Si  Si11  1  0.835652  0.671306  0.508037  1
  Si  Si12  1  0.329180  0.164553  0.993179  1
  Si  Si13  1  0.164437  0.328874  0.504582  1
  Si  Si14  1  0.164708  0.835460  0.996567  1
  Si  Si15  1  0.329180  0.164553  0.506821  1
  Si  Si16  1  0.835371  0.164553  0.993179  1
  Si  Si17  1  0.670752  0.835460  0.503433  1
  Si  Si18  1  0.835371  0.164553  0.506821  1
  Si  Si19  1  0.164708  0.835460  0.503433  1
  Pd  Pd20  1  0.332770  0.665541  0.003903  1
  Pd  Pd21  1  0.667253  0.334505  0.991038  1
  Pd  Pd22  1  0.667253  0.334505  0.508962  1
  Pd  Pd23  1  0.332770  0.665541  0.496097  1
