# generated using pymatgen
data_Dy8NbGe16Mo11
_symmetry_space_group_name_H-M   'P 1'
_cell_length_a   6.95678977
_cell_length_b   7.08010096
_cell_length_c   13.18365000
_cell_angle_alpha   90.00000000
_cell_angle_beta   90.00000000
_cell_angle_gamma   90.12024192
_symmetry_Int_Tables_number   1
_chemical_formula_structural   Dy8NbGe16Mo11
_chemical_formula_sum   'Dy8 Nb1 Ge16 Mo11'
_cell_volume   649.35627028
_cell_formula_units_Z   1
loop_
 _symmetry_equiv_pos_site_id
 _symmetry_equiv_pos_as_xyz
  1  'x, y, z'
loop_
 _atom_site_type_symbol
 _atom_site_label
 _atom_site_symmetry_multiplicity
 _atom_site_fract_x
 _atom_site_fract_y
 _atom_site_fract_z
 _atom_site_occupancy
  Dy  Dy0  1  0.491209  0.329466  0.092445  1
  Dy  Dy1  1  0.988978  0.170607  0.407731  1
  Dy  Dy2  1  0.510699  0.669945  0.592704  1
  Dy  Dy3  1  0.010928  0.830796  0.907482  1
  Dy  Dy4  1  0.510699  0.669945  0.907296  1
  Dy  Dy5  1  0.010928  0.830796  0.592518  1
  Dy  Dy6  1  0.491209  0.329466  0.407555  1
  Dy  Dy7  1  0.988978  0.170607  0.092269  1
  Nb  Nb8  1  0.835275  0.509524  0.250000  1
  Ge  Ge9  1  0.813505  0.643713  0.750000  1
  Ge  Ge10  1  0.312973  0.857402  0.750000  1
  Ge  Ge11  1  0.191942  0.354283  0.250000  1
  Ge  Ge12  1  0.687316  0.139067  0.250000  1
  Ge  Ge13  1  0.531473  0.367491  0.750000  1
  Ge  Ge14  1  0.033146  0.133302  0.750000  1
  Ge  Ge15  1  0.464007  0.632595  0.250000  1
  Ge  Ge16  1  0.968626  0.871628  0.250000  1
  Ge  Ge17  1  0.670202  0.045607  0.547951  1
  Ge  Ge18  1  0.170212  0.453738  0.952219  1
  Ge  Ge19  1  0.328310  0.954398  0.047655  1
  Ge  Ge20  1  0.829080  0.545824  0.455202  1
  Ge  Ge21  1  0.328310  0.954398  0.452345  1
  Ge  Ge22  1  0.829080  0.545824  0.044798  1
  Ge  Ge23  1  0.670202  0.045607  0.952049  1
  Ge  Ge24  1  0.170212  0.453738  0.547781  1
  Mo  Mo25  1  0.668757  0.005261  0.750000  1
  Mo  Mo26  1  0.167351  0.494651  0.750000  1
  Mo  Mo27  1  0.331155  0.993199  0.250000  1
  Mo  Mo28  1  0.831106  0.343407  0.628379  1
  Mo  Mo29  1  0.332664  0.157073  0.872753  1
  Mo  Mo30  1  0.167618  0.656346  0.126350  1
  Mo  Mo31  1  0.666229  0.841735  0.373962  1
  Mo  Mo32  1  0.167618  0.656346  0.373650  1
  Mo  Mo33  1  0.666229  0.841735  0.126038  1
  Mo  Mo34  1  0.831106  0.343407  0.871621  1
  Mo  Mo35  1  0.332664  0.157073  0.627247  1
