# generated using pymatgen
data_Yb3HoTaOs7
_symmetry_space_group_name_H-M   'P 1'
_cell_length_a   5.42496500
_cell_length_b   5.42496431
_cell_length_c   8.56289600
_cell_angle_alpha   90.00000000
_cell_angle_beta   90.00000000
_cell_angle_gamma   119.99999809
_symmetry_Int_Tables_number   1
_chemical_formula_structural   Yb3HoTaOs7
_chemical_formula_sum   'Yb3 Ho1 Ta1 Os7'
_cell_volume   218.24541853
_cell_formula_units_Z   1
loop_
 _symmetry_equiv_pos_site_id
 _symmetry_equiv_pos_as_xyz
  1  'x, y, z'
loop_
 _atom_site_type_symbol
 _atom_site_label
 _atom_site_symmetry_multiplicity
 _atom_site_fract_x
 _atom_site_fract_y
 _atom_site_fract_z
 _atom_site_occupancy
  Yb  Yb0  1  0.666667  0.333333  0.576735  1
  Yb  Yb1  1  0.666667  0.333333  0.935109  1
  Yb  Yb2  1  0.333333  0.666667  0.059237  1
  Ho  Ho3  1  0.333333  0.666667  0.424951  1
  Ta  Ta4  1  0.000000  0.000000  0.499896  1
  Os  Os5  1  0.000000  0.000000  0.002028  1
  Os  Os6  1  0.826804  0.173196  0.249974  1
  Os  Os7  1  0.826804  0.653608  0.249974  1
  Os  Os8  1  0.346392  0.173196  0.249974  1
  Os  Os9  1  0.172724  0.827276  0.750707  1
  Os  Os10  1  0.172724  0.345448  0.750707  1
  Os  Os11  1  0.654552  0.827276  0.750707  1
