# generated using pymatgen
data_Cs8Ta3SbBr24
_symmetry_space_group_name_H-M   'P 1'
_cell_length_a   13.72071340
_cell_length_b   13.72071400
_cell_length_c   13.70627487
_cell_angle_alpha   131.53474459
_cell_angle_beta   131.53474883
_cell_angle_gamma   70.94624403
_symmetry_Int_Tables_number   1
_chemical_formula_structural   Cs8Ta3SbBr24
_chemical_formula_sum   'Cs8 Ta3 Sb1 Br24'
_cell_volume   1416.01682660
_cell_formula_units_Z   1
loop_
 _symmetry_equiv_pos_site_id
 _symmetry_equiv_pos_as_xyz
  1  'x, y, z'
loop_
 _atom_site_type_symbol
 _atom_site_label
 _atom_site_symmetry_multiplicity
 _atom_site_fract_x
 _atom_site_fract_y
 _atom_site_fract_z
 _atom_site_occupancy
  Cs  Cs0  1  0.118776  0.636563  0.998671  1
  Cs  Cs1  1  0.363437  0.881224  0.001329  1
  Cs  Cs2  1  0.637835  0.636574  0.517706  1
  Cs  Cs3  1  0.363426  0.362165  0.482294  1
  Cs  Cs4  1  0.879899  0.362076  0.998697  1
  Cs  Cs5  1  0.879891  0.881162  0.517741  1
  Cs  Cs6  1  0.118838  0.120109  0.482259  1
  Cs  Cs7  1  0.637924  0.120101  0.001303  1
  Ta  Ta8  1  0.749997  0.250003  0.500000  1
  Ta  Ta9  1  0.499999  0.500001  0.000000  1
  Ta  Ta10  1  0.249974  0.750026  0.500000  1
  Sb  Sb11  1  0.000004  0.999996  0.000000  1
  Br  Br12  1  0.251110  0.999716  0.251513  1
  Br  Br13  1  0.000284  0.748890  0.748487  1
  Br  Br14  1  0.251763  0.980720  0.728809  1
  Br  Br15  1  0.748133  0.477333  0.728767  1
  Br  Br16  1  0.476992  0.748000  0.728648  1
  Br  Br17  1  0.126508  0.126514  0.000027  1
  Br  Br18  1  0.499748  0.728263  0.228493  1
  Br  Br19  1  0.864853  0.364887  0.499824  1
  Br  Br20  1  0.000400  0.251782  0.251507  1
  Br  Br21  1  0.384542  0.384517  0.000029  1
  Br  Br22  1  0.615483  0.615458  0.999971  1
  Br  Br23  1  0.499785  0.271307  0.771518  1
  Br  Br24  1  0.271737  0.500252  0.771507  1
  Br  Br25  1  0.522667  0.251867  0.271233  1
  Br  Br26  1  0.364762  0.864755  0.499974  1
  Br  Br27  1  0.635113  0.135147  0.500176  1
  Br  Br28  1  0.252000  0.523008  0.271352  1
  Br  Br29  1  0.135245  0.635238  0.500026  1
  Br  Br30  1  0.019280  0.748237  0.271191  1
  Br  Br31  1  0.980552  0.251350  0.728639  1
  Br  Br32  1  0.748218  0.999600  0.748493  1
  Br  Br33  1  0.728693  0.500215  0.228482  1
  Br  Br34  1  0.748650  0.019448  0.271361  1
  Br  Br35  1  0.873486  0.873492  0.999973  1
