# generated using pymatgen
data_Sr2LaThIr8
_symmetry_space_group_name_H-M   'P 1'
_cell_length_a   9.46760790
_cell_length_b   9.46760764
_cell_length_c   9.46760787
_cell_angle_alpha   33.70447474
_cell_angle_beta   33.70447572
_cell_angle_gamma   33.70447056
_symmetry_Int_Tables_number   1
_chemical_formula_structural   Sr2LaThIr8
_chemical_formula_sum   'Sr2 La1 Th1 Ir8'
_cell_volume   232.81618140
_cell_formula_units_Z   1
loop_
 _symmetry_equiv_pos_site_id
 _symmetry_equiv_pos_as_xyz
  1  'x, y, z'
loop_
 _atom_site_type_symbol
 _atom_site_label
 _atom_site_symmetry_multiplicity
 _atom_site_fract_x
 _atom_site_fract_y
 _atom_site_fract_z
 _atom_site_occupancy
  Sr  Sr0  1  0.628018  0.628018  0.628018  1
  Sr  Sr1  1  0.997997  0.997997  0.997997  1
  La  La2  1  0.121802  0.121802  0.121802  1
  Th  Th3  1  0.501522  0.501522  0.501522  1
  Ir  Ir4  1  0.562673  0.562673  0.068957  1
  Ir  Ir5  1  0.062665  0.062665  0.555896  1
  Ir  Ir6  1  0.562673  0.068957  0.562673  1
  Ir  Ir7  1  0.062665  0.555896  0.062665  1
  Ir  Ir8  1  0.812511  0.812511  0.812511  1
  Ir  Ir9  1  0.312626  0.312626  0.312626  1
  Ir  Ir10  1  0.068957  0.562673  0.562673  1
  Ir  Ir11  1  0.555896  0.062665  0.062665  1
