# generated using pymatgen
data_Tb2DyNp7O20
_symmetry_space_group_name_H-M   'P 1'
_cell_length_a   6.58317120
_cell_length_b   7.58867725
_cell_length_c   8.48307292
_cell_angle_alpha   102.62231671
_cell_angle_beta   97.36881041
_cell_angle_gamma   106.88196395
_symmetry_Int_Tables_number   1
_chemical_formula_structural   Tb2DyNp7O20
_chemical_formula_sum   'Tb2 Dy1 Np7 O20'
_cell_volume   387.29897774
_cell_formula_units_Z   1
loop_
 _symmetry_equiv_pos_site_id
 _symmetry_equiv_pos_as_xyz
  1  'x, y, z'
loop_
 _atom_site_type_symbol
 _atom_site_label
 _atom_site_symmetry_multiplicity
 _atom_site_fract_x
 _atom_site_fract_y
 _atom_site_fract_z
 _atom_site_occupancy
  Tb  Tb0  1  0.800016  0.600084  0.600191  1
  Tb  Tb1  1  0.600357  0.200301  0.200137  1
  Dy  Dy2  1  0.999750  0.999793  0.999823  1
  Np  Np3  1  0.999871  0.500079  0.000061  1
  Np  Np4  1  0.799946  0.100018  0.600327  1
  Np  Np5  1  0.600644  0.700009  0.199693  1
  Np  Np6  1  0.199453  0.398709  0.397994  1
  Np  Np7  1  0.399622  0.298768  0.800575  1
  Np  Np8  1  0.199892  0.901078  0.399202  1
  Np  Np9  1  0.400349  0.801224  0.801864  1
  O  O10  1  0.858715  0.320050  0.454518  1
  O  O11  1  0.643342  0.914201  0.049807  1
  O  O12  1  0.950320  0.768571  0.153626  1
  O  O13  1  0.855369  0.832682  0.447112  1
  O  O14  1  0.440532  0.520423  0.653956  1
  O  O15  1  0.650196  0.431776  0.046069  1
  O  O16  1  0.744497  0.367444  0.753337  1
  O  O17  1  0.245975  0.124137  0.257943  1
  O  O18  1  0.447234  0.027044  0.647104  1
  O  O19  1  0.957879  0.285664  0.150147  1
  O  O20  1  0.548205  0.968519  0.355042  1
  O  O21  1  0.057323  0.719362  0.852712  1
  O  O22  1  0.250918  0.628080  0.247133  1
  O  O23  1  0.741379  0.880248  0.746638  1
  O  O24  1  0.349593  0.571799  0.952424  1
  O  O25  1  0.051742  0.231200  0.845527  1
  O  O26  1  0.543403  0.481433  0.347711  1
  O  O27  1  0.151960  0.172846  0.552628  1
  O  O28  1  0.352740  0.075529  0.941450  1
  O  O29  1  0.158776  0.678932  0.545249  1
