# generated using pymatgen
data_Th8Ni3Os3Pd2
_symmetry_space_group_name_H-M   'P 1'
_cell_length_a   4.34200000
_cell_length_b   5.88773706
_cell_length_c   14.55463259
_cell_angle_alpha   90.39398461
_cell_angle_beta   90.00000000
_cell_angle_gamma   90.00000000
_symmetry_Int_Tables_number   1
_chemical_formula_structural   Th8Ni3Os3Pd2
_chemical_formula_sum   'Th8 Ni3 Os3 Pd2'
_cell_volume   372.07389868
_cell_formula_units_Z   1
loop_
 _symmetry_equiv_pos_site_id
 _symmetry_equiv_pos_as_xyz
  1  'x, y, z'
loop_
 _atom_site_type_symbol
 _atom_site_label
 _atom_site_symmetry_multiplicity
 _atom_site_fract_x
 _atom_site_fract_y
 _atom_site_fract_z
 _atom_site_occupancy
  Th  Th0  1  0.250000  0.538260  0.285238  1
  Th  Th1  1  0.750000  0.453817  0.717836  1
  Th  Th2  1  0.250000  0.959138  0.784089  1
  Th  Th3  1  0.250000  0.757269  0.543198  1
  Th  Th4  1  0.250000  0.746805  0.026292  1
  Th  Th5  1  0.750000  0.252280  0.962499  1
  Th  Th6  1  0.750000  0.044026  0.215475  1
  Th  Th7  1  0.750000  0.239310  0.467551  1
  Ni  Ni8  1  0.750000  0.770324  0.901534  1
  Ni  Ni9  1  0.250000  0.230783  0.097884  1
  Ni  Ni10  1  0.250000  0.265509  0.600910  1
  Os  Os11  1  0.250000  0.077139  0.348523  1
  Os  Os12  1  0.250000  0.448117  0.856271  1
  Os  Os13  1  0.750000  0.940345  0.649982  1
  Pd  Pd14  1  0.750000  0.541342  0.142565  1
  Pd  Pd15  1  0.750000  0.735539  0.400154  1
