# generated using pymatgen
data_YbHo3Tm4(B6Ru)4
_symmetry_space_group_name_H-M   'P 1'
_cell_length_a   3.63172900
_cell_length_b   9.09261681
_cell_length_c   11.47960100
_cell_angle_alpha   89.92450511
_cell_angle_beta   90.00000000
_cell_angle_gamma   90.00000000
_symmetry_Int_Tables_number   1
_chemical_formula_structural   YbHo3Tm4(B6Ru)4
_chemical_formula_sum   'Yb1 Ho3 Tm4 B24 Ru4'
_cell_volume   379.07813843
_cell_formula_units_Z   1
loop_
 _symmetry_equiv_pos_site_id
 _symmetry_equiv_pos_as_xyz
  1  'x, y, z'
loop_
 _atom_site_type_symbol
 _atom_site_label
 _atom_site_symmetry_multiplicity
 _atom_site_fract_x
 _atom_site_fract_y
 _atom_site_fract_z
 _atom_site_occupancy
  Yb  Yb0  1  0.000000  0.323159  0.413760  1
  Ho  Ho1  1  0.000000  0.676251  0.584967  1
  Ho  Ho2  1  0.000000  0.822259  0.086323  1
  Ho  Ho3  1  0.000000  0.178274  0.914566  1
  Tm  Tm4  1  0.000000  0.944126  0.371418  1
  Tm  Tm5  1  0.000000  0.057862  0.627772  1
  Tm  Tm6  1  0.000000  0.443029  0.129432  1
  Tm  Tm7  1  0.000000  0.556097  0.872190  1
  B  B8  1  0.500000  0.554064  0.432529  1
  B  B9  1  0.500000  0.445667  0.567367  1
  B  B10  1  0.500000  0.053499  0.066653  1
  B  B11  1  0.500000  0.945780  0.932583  1
  B  B12  1  0.500000  0.748987  0.419168  1
  B  B13  1  0.500000  0.251390  0.580950  1
  B  B14  1  0.500000  0.248419  0.080654  1
  B  B15  1  0.500000  0.750961  0.919488  1
  B  B16  1  0.500000  0.791875  0.265928  1
  B  B17  1  0.500000  0.209142  0.734332  1
  B  B18  1  0.500000  0.290483  0.233865  1
  B  B19  1  0.500000  0.708739  0.766055  1
  B  B20  1  0.500000  0.631420  0.185414  1
  B  B21  1  0.500000  0.368996  0.815561  1
  B  B22  1  0.500000  0.130867  0.314522  1
  B  B23  1  0.500000  0.868982  0.684712  1
  B  B24  1  0.500000  0.982955  0.212204  1
  B  B25  1  0.500000  0.017046  0.786983  1
  B  B26  1  0.500000  0.483284  0.287429  1
  B  B27  1  0.500000  0.516889  0.712975  1
  B  B28  1  0.500000  0.605974  0.029409  1
  B  B29  1  0.500000  0.394186  0.971188  1
  B  B30  1  0.500000  0.103067  0.471504  1
  B  B31  1  0.500000  0.895868  0.528685  1
  Ru  Ru32  1  0.000000  0.639713  0.320124  1
  Ru  Ru33  1  0.000000  0.361695  0.680546  1
  Ru  Ru34  1  0.000000  0.137061  0.178129  1
  Ru  Ru35  1  0.000000  0.861936  0.820615  1
