# generated using pymatgen
data_Tb20Sn13Te3
_symmetry_space_group_name_H-M   'P 1'
_cell_length_a   8.16324188
_cell_length_b   8.18503482
_cell_length_c   15.47765020
_cell_angle_alpha   90.28388294
_cell_angle_beta   89.47091786
_cell_angle_gamma   89.85482389
_symmetry_Int_Tables_number   1
_chemical_formula_structural   Tb20Sn13Te3
_chemical_formula_sum   'Tb20 Sn13 Te3'
_cell_volume   1034.10093526
_cell_formula_units_Z   1
loop_
 _symmetry_equiv_pos_site_id
 _symmetry_equiv_pos_as_xyz
  1  'x, y, z'
loop_
 _atom_site_type_symbol
 _atom_site_label
 _atom_site_symmetry_multiplicity
 _atom_site_fract_x
 _atom_site_fract_y
 _atom_site_fract_z
 _atom_site_occupancy
  Tb  Tb0  1  0.378160  0.836953  0.879067  1
  Tb  Tb1  1  0.883977  0.659833  0.621025  1
  Tb  Tb2  1  0.618048  0.157758  0.378113  1
  Tb  Tb3  1  0.121206  0.338641  0.122194  1
  Tb  Tb4  1  0.626387  0.161220  0.121352  1
  Tb  Tb5  1  0.120077  0.336591  0.379377  1
  Tb  Tb6  1  0.379719  0.838304  0.620349  1
  Tb  Tb7  1  0.876249  0.663231  0.876908  1
  Tb  Tb8  1  0.542748  0.335899  0.894815  1
  Tb  Tb9  1  0.055677  0.171580  0.608754  1
  Tb  Tb10  1  0.444665  0.671375  0.390847  1
  Tb  Tb11  1  0.958366  0.819071  0.102611  1
  Tb  Tb12  1  0.470805  0.668850  0.101858  1
  Tb  Tb13  1  0.971604  0.827334  0.396558  1
  Tb  Tb14  1  0.528381  0.327331  0.603727  1
  Tb  Tb15  1  0.025787  0.184065  0.897733  1
  Tb  Tb16  1  0.207480  0.501376  0.750788  1
  Tb  Tb17  1  0.707827  0.000789  0.755559  1
  Tb  Tb18  1  0.791696  0.498120  0.245619  1
  Tb  Tb19  1  0.292861  0.997567  0.253117  1
  Sn  Sn20  1  0.218230  0.530520  0.957776  1
  Sn  Sn21  1  0.718075  0.969402  0.957116  1
  Sn  Sn22  1  0.218225  0.530094  0.543256  1
  Sn  Sn23  1  0.283250  0.030253  0.456557  1
  Sn  Sn24  1  0.786987  0.465319  0.042047  1
  Sn  Sn25  1  0.574339  0.625411  0.746376  1
  Sn  Sn26  1  0.075460  0.877189  0.749624  1
  Sn  Sn27  1  0.425554  0.373450  0.250068  1
  Sn  Sn28  1  0.926244  0.121080  0.251015  1
  Sn  Sn29  1  0.344585  0.144956  0.752222  1
  Sn  Sn30  1  0.841580  0.355661  0.746747  1
  Sn  Sn31  1  0.657909  0.852777  0.250838  1
  Sn  Sn32  1  0.154356  0.643446  0.248587  1
  Te  Te33  1  0.273870  0.022555  0.047383  1
  Te  Te34  1  0.765220  0.480112  0.452795  1
  Te  Te35  1  0.734394  0.981888  0.547221  1
