# generated using pymatgen
data_MgAu19
_symmetry_space_group_name_H-M   'P 1'
_cell_length_a   4.82350500
_cell_length_b   5.06401554
_cell_length_c   14.76253400
_cell_angle_alpha   90.05737481
_cell_angle_beta   90.00000000
_cell_angle_gamma   90.00000000
_symmetry_Int_Tables_number   1
_chemical_formula_structural   MgAu19
_chemical_formula_sum   'Mg1 Au19'
_cell_volume   360.59396652
_cell_formula_units_Z   1
loop_
 _symmetry_equiv_pos_site_id
 _symmetry_equiv_pos_as_xyz
  1  'x, y, z'
loop_
 _atom_site_type_symbol
 _atom_site_label
 _atom_site_symmetry_multiplicity
 _atom_site_fract_x
 _atom_site_fract_y
 _atom_site_fract_z
 _atom_site_occupancy
  Mg  Mg0  1  0.250000  0.168951  0.000069  1
  Au  Au1  1  0.250000  0.665445  0.901128  1
  Au  Au2  1  0.250000  0.164436  0.599808  1
  Au  Au3  1  0.750000  0.834262  0.399637  1
  Au  Au4  1  0.750000  0.331403  0.099159  1
  Au  Au5  1  0.250000  0.169952  0.199091  1
  Au  Au6  1  0.250000  0.167893  0.399877  1
  Au  Au7  1  0.750000  0.331011  0.700012  1
  Au  Au8  1  0.750000  0.333374  0.500062  1
  Au  Au9  1  0.250000  0.667152  0.499846  1
  Au  Au10  1  0.750000  0.830442  0.600607  1
  Au  Au11  1  0.250000  0.669642  0.099208  1
  Au  Au12  1  0.750000  0.838017  0.199538  1
  Au  Au13  1  0.250000  0.164368  0.800950  1
  Au  Au14  1  0.750000  0.832259  0.800485  1
  Au  Au15  1  0.750000  0.327935  0.900633  1
  Au  Au16  1  0.250000  0.669165  0.299767  1
  Au  Au17  1  0.250000  0.663649  0.700205  1
  Au  Au18  1  0.750000  0.833718  0.999970  1
  Au  Au19  1  0.750000  0.336923  0.299947  1
