# generated using pymatgen
data_TmU2(GaRh)3
_symmetry_space_group_name_H-M   'P 1'
_cell_length_a   7.09007406
_cell_length_b   7.09007310
_cell_length_c   3.87252900
_cell_angle_alpha   90.00000000
_cell_angle_beta   90.00000000
_cell_angle_gamma   120.43914289
_symmetry_Int_Tables_number   1
_chemical_formula_structural   TmU2(GaRh)3
_chemical_formula_sum   'Tm1 U2 Ga3 Rh3'
_cell_volume   167.83709035
_cell_formula_units_Z   1
loop_
 _symmetry_equiv_pos_site_id
 _symmetry_equiv_pos_as_xyz
  1  'x, y, z'
loop_
 _atom_site_type_symbol
 _atom_site_label
 _atom_site_symmetry_multiplicity
 _atom_site_fract_x
 _atom_site_fract_y
 _atom_site_fract_z
 _atom_site_occupancy
  Tm  Tm0  1  0.409189  0.409189  0.500000  1
  U  U1  1  0.585448  0.002818  0.500000  1
  U  U2  1  0.002818  0.585448  0.500000  1
  Ga  Ga3  1  0.738401  0.738401  0.000000  1
  Ga  Ga4  1  0.247867  0.013974  0.000000  1
  Ga  Ga5  1  0.013974  0.247867  0.000000  1
  Rh  Rh6  1  0.690982  0.330048  0.000000  1
  Rh  Rh7  1  0.330048  0.690982  0.000000  1
  Rh  Rh8  1  0.981273  0.981273  0.500000  1
