# generated using pymatgen
data_Y8Si12IrPtRh2
_symmetry_space_group_name_H-M   'P 1'
_cell_length_a   8.18388100
_cell_length_b   8.18388175
_cell_length_c   7.97507600
_cell_angle_alpha   90.00000000
_cell_angle_beta   90.00000000
_cell_angle_gamma   119.99999293
_symmetry_Int_Tables_number   1
_chemical_formula_structural   Y8Si12IrPtRh2
_chemical_formula_sum   'Y8 Si12 Ir1 Pt1 Rh2'
_cell_volume   462.57711618
_cell_formula_units_Z   1
loop_
 _symmetry_equiv_pos_site_id
 _symmetry_equiv_pos_as_xyz
  1  'x, y, z'
loop_
 _atom_site_type_symbol
 _atom_site_label
 _atom_site_symmetry_multiplicity
 _atom_site_fract_x
 _atom_site_fract_y
 _atom_site_fract_z
 _atom_site_occupancy
  Y  Y0  1  0.000000  0.000000  0.249035  1
  Y  Y1  1  0.000000  0.000000  0.751979  1
  Y  Y2  1  0.510392  0.489608  0.247659  1
  Y  Y3  1  0.510392  0.020784  0.247659  1
  Y  Y4  1  0.979216  0.489608  0.247659  1
  Y  Y5  1  0.491695  0.508305  0.751942  1
  Y  Y6  1  0.491695  0.983390  0.751942  1
  Y  Y7  1  0.016610  0.508305  0.751942  1
  Si  Si8  1  0.164711  0.835289  0.500268  1
  Si  Si9  1  0.164711  0.329424  0.500268  1
  Si  Si10  1  0.670576  0.835289  0.500268  1
  Si  Si11  1  0.832314  0.167686  0.499959  1
  Si  Si12  1  0.832314  0.664628  0.499959  1
  Si  Si13  1  0.335372  0.167686  0.499959  1
  Si  Si14  1  0.833043  0.166957  0.999746  1
  Si  Si15  1  0.833043  0.666087  0.999746  1
  Si  Si16  1  0.333913  0.166957  0.999746  1
  Si  Si17  1  0.167097  0.832903  0.000593  1
  Si  Si18  1  0.167097  0.334195  0.000593  1
  Si  Si19  1  0.665805  0.832903  0.000593  1
  Ir  Ir20  1  0.666667  0.333333  0.534390  1
  Pt  Pt21  1  0.333333  0.666667  0.468539  1
  Rh  Rh22  1  0.666667  0.333333  0.962192  1
  Rh  Rh23  1  0.333333  0.666667  0.033359  1
