# generated using pymatgen
data_MgSn13(IrRu)3
_symmetry_space_group_name_H-M   'P 1'
_cell_length_a   8.21248741
_cell_length_b   8.20319535
_cell_length_c   8.20319400
_cell_angle_alpha   109.63343575
_cell_angle_beta   109.98983541
_cell_angle_gamma   108.74724728
_symmetry_Int_Tables_number   1
_chemical_formula_structural   MgSn13(IrRu)3
_chemical_formula_sum   'Mg1 Sn13 Ir3 Ru3'
_cell_volume   425.60756474
_cell_formula_units_Z   1
loop_
 _symmetry_equiv_pos_site_id
 _symmetry_equiv_pos_as_xyz
  1  'x, y, z'
loop_
 _atom_site_type_symbol
 _atom_site_label
 _atom_site_symmetry_multiplicity
 _atom_site_fract_x
 _atom_site_fract_y
 _atom_site_fract_z
 _atom_site_occupancy
  Mg  Mg0  1  0.250147  0.749255  0.500892  1
  Sn  Sn1  1  0.752798  0.249841  0.502956  1
  Sn  Sn2  1  0.756028  0.504327  0.251701  1
  Sn  Sn3  1  0.253715  0.504461  0.749254  1
  Sn  Sn4  1  0.497803  0.747493  0.254993  1
  Sn  Sn5  1  0.497803  0.242811  0.750309  1
  Sn  Sn6  1  0.999927  0.997206  0.324506  1
  Sn  Sn7  1  0.672505  0.997694  0.994270  1
  Sn  Sn8  1  0.999927  0.675422  0.002721  1
  Sn  Sn9  1  0.324394  0.327759  0.324915  1
  Sn  Sn10  1  0.000298  0.325051  0.999979  1
  Sn  Sn11  1  0.672505  0.678234  0.674811  1
  Sn  Sn12  1  0.324394  0.999480  0.996634  1
  Sn  Sn13  1  0.000298  0.000319  0.675247  1
  Ir  Ir14  1  0.346158  0.004769  0.341389  1
  Ir  Ir15  1  0.994785  0.337319  0.342571  1
  Ir  Ir16  1  0.994785  0.652213  0.657467  1
  Ru  Ru17  1  0.345362  0.345196  0.000165  1
  Ru  Ru18  1  0.654878  0.654799  0.000079  1
  Ru  Ru19  1  0.661489  0.006349  0.655140  1
