# generated using pymatgen
data_Yb2(SmIr)3
_symmetry_space_group_name_H-M   'P 1'
_cell_length_a   10.97822700
_cell_length_b   11.13345300
_cell_length_c   6.35798300
_cell_angle_alpha   90.00000000
_cell_angle_beta   90.00000000
_cell_angle_gamma   90.00000000
_symmetry_Int_Tables_number   1
_chemical_formula_structural   Yb2(SmIr)3
_chemical_formula_sum   'Yb8 Sm12 Ir12'
_cell_volume   777.10812374
_cell_formula_units_Z   4
loop_
 _symmetry_equiv_pos_site_id
 _symmetry_equiv_pos_as_xyz
  1  'x, y, z'
loop_
 _atom_site_type_symbol
 _atom_site_label
 _atom_site_symmetry_multiplicity
 _atom_site_fract_x
 _atom_site_fract_y
 _atom_site_fract_z
 _atom_site_occupancy
  Yb  Yb0  1  0.289654  0.085396  0.379566  1
  Yb  Yb1  1  0.289654  0.914604  0.879566  1
  Yb  Yb2  1  0.710346  0.085396  0.879566  1
  Yb  Yb3  1  0.710346  0.914604  0.379566  1
  Yb  Yb4  1  0.000000  0.000000  0.495398  1
  Yb  Yb5  1  0.000000  0.000000  0.995398  1
  Yb  Yb6  1  0.500000  0.500000  0.991391  1
  Yb  Yb7  1  0.500000  0.500000  0.491391  1
  Sm  Sm8  1  0.589291  0.795567  0.881323  1
  Sm  Sm9  1  0.589291  0.204433  0.381323  1
  Sm  Sm10  1  0.410709  0.795567  0.381323  1
  Sm  Sm11  1  0.410709  0.204433  0.881323  1
  Sm  Sm12  1  0.212588  0.411193  0.621477  1
  Sm  Sm13  1  0.212588  0.588807  0.121477  1
  Sm  Sm14  1  0.787412  0.411193  0.121477  1
  Sm  Sm15  1  0.787412  0.588807  0.621477  1
  Sm  Sm16  1  0.909881  0.712561  0.125029  1
  Sm  Sm17  1  0.909881  0.287439  0.625029  1
  Sm  Sm18  1  0.090119  0.712561  0.625029  1
  Sm  Sm19  1  0.090119  0.287439  0.125029  1
  Ir  Ir20  1  0.850298  0.163377  0.248661  1
  Ir  Ir21  1  0.850298  0.836623  0.748661  1
  Ir  Ir22  1  0.149702  0.163377  0.748661  1
  Ir  Ir23  1  0.149702  0.836623  0.248661  1
  Ir  Ir24  1  0.655705  0.346083  0.745059  1
  Ir  Ir25  1  0.655705  0.653917  0.245059  1
  Ir  Ir26  1  0.344295  0.346083  0.245059  1
  Ir  Ir27  1  0.344295  0.653917  0.745059  1
  Ir  Ir28  1  0.500000  0.000000  0.124897  1
  Ir  Ir29  1  0.500000  0.000000  0.624897  1
  Ir  Ir30  1  0.000000  0.500000  0.886083  1
  Ir  Ir31  1  0.000000  0.500000  0.386083  1
