# generated using pymatgen
data_CsCuMoS4
_symmetry_space_group_name_H-M   'P 1'
_cell_length_a   6.69046318
_cell_length_b   6.69046392
_cell_length_c   6.69046406
_cell_angle_alpha   99.52873241
_cell_angle_beta   99.52874024
_cell_angle_gamma   131.98341770
_symmetry_Int_Tables_number   1
_chemical_formula_structural   CsCuMoS4
_chemical_formula_sum   'Cs1 Cu1 Mo1 S4'
_cell_volume   203.35620775
_cell_formula_units_Z   1
loop_
 _symmetry_equiv_pos_site_id
 _symmetry_equiv_pos_as_xyz
  1  'x, y, z'
loop_
 _atom_site_type_symbol
 _atom_site_label
 _atom_site_symmetry_multiplicity
 _atom_site_fract_x
 _atom_site_fract_y
 _atom_site_fract_z
 _atom_site_occupancy
  Cs  Cs0  1  0.750000  0.250000  0.500000  1
  Cu  Cu1  1  0.500000  0.500000  0.000000  1
  Mo  Mo2  1  0.000000  0.000000  0.000000  1
  S  S3  1  0.339658  0.420299  0.285340  1
  S  S4  1  0.134958  0.054317  0.714660  1
  S  S5  1  0.945683  0.660342  0.080642  1
  S  S6  1  0.579701  0.865042  0.919358  1
