# generated using pymatgen
data_Pr4NdHfRuO12
_symmetry_space_group_name_H-M   'P 1'
_cell_length_a   7.17704240
_cell_length_b   7.17665385
_cell_length_c   7.67548919
_cell_angle_alpha   74.47810387
_cell_angle_beta   74.46965653
_cell_angle_gamma   50.57301668
_symmetry_Int_Tables_number   1
_chemical_formula_structural   Pr4NdHfRuO12
_chemical_formula_sum   'Pr4 Nd1 Hf1 Ru1 O12'
_cell_volume   291.68759061
_cell_formula_units_Z   1
loop_
 _symmetry_equiv_pos_site_id
 _symmetry_equiv_pos_as_xyz
  1  'x, y, z'
loop_
 _atom_site_type_symbol
 _atom_site_label
 _atom_site_symmetry_multiplicity
 _atom_site_fract_x
 _atom_site_fract_y
 _atom_site_fract_z
 _atom_site_occupancy
  Pr  Pr0  1  0.694273  0.700133  0.640029  1
  Pr  Pr1  1  0.688015  0.701542  0.166168  1
  Pr  Pr2  1  0.298573  0.312011  0.833768  1
  Pr  Pr3  1  0.005353  0.994931  0.499702  1
  Nd  Nd4  1  0.299845  0.305609  0.359464  1
  Hf  Hf5  1  0.767355  0.232266  0.000420  1
  Ru  Ru6  1  0.252976  0.746720  0.000397  1
  O  O7  1  0.094188  0.597346  0.573311  1
  O  O8  1  0.017168  0.982249  0.180428  1
  O  O9  1  0.400577  0.909219  0.424871  1
  O  O10  1  0.495160  0.504975  0.178882  1
  O  O11  1  0.100258  0.583796  0.081541  1
  O  O12  1  0.904579  0.404725  0.421858  1
  O  O13  1  0.017622  0.982687  0.819722  1
  O  O14  1  0.593376  0.098764  0.576321  1
  O  O15  1  0.494525  0.503988  0.821956  1
  O  O16  1  0.565735  0.105441  0.082354  1
  O  O17  1  0.415305  0.900275  0.919777  1
  O  O18  1  0.895118  0.433322  0.919033  1
