# generated using pymatgen
data_Sc10Co7Si20Ru
_symmetry_space_group_name_H-M   'P 1'
_cell_length_a   12.15129401
_cell_length_b   12.09917101
_cell_length_c   3.95748100
_cell_angle_alpha   90.00000000
_cell_angle_beta   90.00000000
_cell_angle_gamma   90.00411240
_symmetry_Int_Tables_number   1
_chemical_formula_structural   Sc10Co7Si20Ru
_chemical_formula_sum   'Sc10 Co7 Si20 Ru1'
_cell_volume   581.83116697
_cell_formula_units_Z   1
loop_
 _symmetry_equiv_pos_site_id
 _symmetry_equiv_pos_as_xyz
  1  'x, y, z'
loop_
 _atom_site_type_symbol
 _atom_site_label
 _atom_site_symmetry_multiplicity
 _atom_site_fract_x
 _atom_site_fract_y
 _atom_site_fract_z
 _atom_site_occupancy
  Sc  Sc0  1  0.000650  0.000201  0.000000  1
  Sc  Sc1  1  0.499650  0.505546  0.000000  1
  Sc  Sc2  1  0.679889  0.174275  0.500000  1
  Sc  Sc3  1  0.171433  0.323900  0.500000  1
  Sc  Sc4  1  0.823867  0.676599  0.500000  1
  Sc  Sc5  1  0.324267  0.822092  0.500000  1
  Sc  Sc6  1  0.888827  0.389501  0.500000  1
  Sc  Sc7  1  0.383114  0.109125  0.500000  1
  Sc  Sc8  1  0.614496  0.885490  0.500000  1
  Sc  Sc9  1  0.110585  0.611733  0.500000  1
  Co  Co10  1  0.250647  0.477107  0.000000  1
  Co  Co11  1  0.746716  0.526212  0.000000  1
  Co  Co12  1  0.475339  0.745173  0.000000  1
  Co  Co13  1  0.977363  0.754666  0.000000  1
  Co  Co14  1  0.023552  0.245385  0.000000  1
  Co  Co15  1  0.756957  0.022592  0.000000  1
  Co  Co16  1  0.246328  0.976482  0.000000  1
  Si  Si17  1  0.572611  0.060915  0.000000  1
  Si  Si18  1  0.066404  0.431944  0.000000  1
  Si  Si19  1  0.931237  0.569764  0.000000  1
  Si  Si20  1  0.431081  0.929845  0.000000  1
  Si  Si21  1  0.194977  0.156303  0.000000  1
  Si  Si22  1  0.157155  0.802305  0.000000  1
  Si  Si23  1  0.844713  0.197181  0.000000  1
  Si  Si24  1  0.803795  0.842774  0.000000  1
  Si  Si25  1  0.301055  0.656234  0.000000  1
  Si  Si26  1  0.703272  0.345009  0.000000  1
  Si  Si27  1  0.657214  0.698307  0.000000  1
  Si  Si28  1  0.334130  0.302526  0.000000  1
  Si  Si29  1  0.999744  0.164412  0.500000  1
  Si  Si30  1  0.163417  0.994188  0.500000  1
  Si  Si31  1  0.837932  0.999243  0.500000  1
  Si  Si32  1  0.998227  0.836263  0.500000  1
  Si  Si33  1  0.501841  0.666996  0.500000  1
  Si  Si34  1  0.507612  0.350576  0.500000  1
  Si  Si35  1  0.665116  0.501877  0.500000  1
  Si  Si36  1  0.333329  0.494631  0.500000  1
  Ru  Ru37  1  0.521461  0.252628  0.000000  1
