# generated using pymatgen
data_Cs5Rb3Na4(NbSe4)4
_symmetry_space_group_name_H-M   'P 1'
_cell_length_a   7.67348216
_cell_length_b   12.55912159
_cell_length_c   12.83230819
_cell_angle_alpha   73.68596496
_cell_angle_beta   90.52780133
_cell_angle_gamma   85.31416847
_symmetry_Int_Tables_number   1
_chemical_formula_structural   Cs5Rb3Na4(NbSe4)4
_chemical_formula_sum   'Cs5 Rb3 Na4 Nb4 Se16'
_cell_volume   1182.24898601
_cell_formula_units_Z   1
loop_
 _symmetry_equiv_pos_site_id
 _symmetry_equiv_pos_as_xyz
  1  'x, y, z'
loop_
 _atom_site_type_symbol
 _atom_site_label
 _atom_site_symmetry_multiplicity
 _atom_site_fract_x
 _atom_site_fract_y
 _atom_site_fract_z
 _atom_site_occupancy
  Cs  Cs0  1  0.245574  0.368944  0.285501  1
  Cs  Cs1  1  0.754527  0.630664  0.714662  1
  Cs  Cs2  1  0.755826  0.147202  0.858571  1
  Cs  Cs3  1  0.756588  0.645057  0.348211  1
  Cs  Cs4  1  0.244275  0.853081  0.141030  1
  Rb  Rb5  1  0.694444  0.105846  0.244539  1
  Rb  Rb6  1  0.305505  0.894258  0.755262  1
  Rb  Rb7  1  0.244064  0.355942  0.651336  1
  Na  Na8  1  0.225875  0.028578  0.422976  1
  Na  Na9  1  0.757388  0.466299  0.062952  1
  Na  Na10  1  0.773909  0.971888  0.577090  1
  Na  Na11  1  0.242840  0.533554  0.937089  1
  Nb  Nb12  1  0.228058  0.229965  0.005577  1
  Nb  Nb13  1  0.772093  0.770630  0.993337  1
  Nb  Nb14  1  0.751625  0.271658  0.492056  1
  Nb  Nb15  1  0.248013  0.727278  0.509414  1
  Se  Se16  1  0.757237  0.371057  0.301387  1
  Se  Se17  1  0.271783  0.600121  0.400419  1
  Se  Se18  1  0.726246  0.398843  0.600973  1
  Se  Se19  1  0.982034  0.849888  0.450806  1
  Se  Se20  1  0.242875  0.625519  0.699359  1
  Se  Se21  1  0.502541  0.158695  0.517947  1
  Se  Se22  1  0.007651  0.630726  0.078388  1
  Se  Se23  1  0.725796  0.896717  0.102801  1
  Se  Se24  1  0.509824  0.677172  0.984836  1
  Se  Se25  1  0.992586  0.369780  0.920632  1
  Se  Se26  1  0.019576  0.151022  0.550679  1
  Se  Se27  1  0.156365  0.126658  0.188054  1
  Se  Se28  1  0.496308  0.840969  0.483523  1
  Se  Se29  1  0.274395  0.105459  0.894430  1
  Se  Se30  1  0.490281  0.323050  0.015153  1
  Se  Se31  1  0.843901  0.873478  0.811011  1
