# generated using pymatgen
data_La8Mg(CdAu4)5
_symmetry_space_group_name_H-M   'P 1'
_cell_length_a   8.85187222
_cell_length_b   8.85187245
_cell_length_c   10.48808944
_cell_angle_alpha   89.98039234
_cell_angle_beta   89.98039568
_cell_angle_gamma   108.57895829
_symmetry_Int_Tables_number   1
_chemical_formula_structural   La8Mg(CdAu4)5
_chemical_formula_sum   'La8 Mg1 Cd5 Au20'
_cell_volume   778.97310468
_cell_formula_units_Z   1
loop_
 _symmetry_equiv_pos_site_id
 _symmetry_equiv_pos_as_xyz
  1  'x, y, z'
loop_
 _atom_site_type_symbol
 _atom_site_label
 _atom_site_symmetry_multiplicity
 _atom_site_fract_x
 _atom_site_fract_y
 _atom_site_fract_z
 _atom_site_occupancy
  La  La0  1  0.701550  0.298450  0.000000  1
  La  La1  1  0.298450  0.701550  0.000000  1
  La  La2  1  0.797908  0.202092  0.500000  1
  La  La3  1  0.202092  0.797908  0.500000  1
  La  La4  1  0.298986  0.298986  0.204312  1
  La  La5  1  0.701014  0.701014  0.795688  1
  La  La6  1  0.198916  0.198916  0.706169  1
  La  La7  1  0.801084  0.801084  0.293831  1
  Mg  Mg8  1  0.500000  0.500000  0.500000  1
  Cd  Cd9  1  0.015812  0.516012  0.250881  1
  Cd  Cd10  1  0.984188  0.483988  0.749119  1
  Cd  Cd11  1  0.483988  0.984188  0.749119  1
  Cd  Cd12  1  0.516012  0.015812  0.250881  1
  Cd  Cd13  1  0.000000  0.000000  0.000000  1
  Au  Au14  1  0.096580  0.096580  0.406187  1
  Au  Au15  1  0.903420  0.903420  0.593813  1
  Au  Au16  1  0.403625  0.403625  0.905819  1
  Au  Au17  1  0.596375  0.596375  0.094181  1
  Au  Au18  1  0.887656  0.166755  0.208556  1
  Au  Au19  1  0.112344  0.833245  0.791444  1
  Au  Au20  1  0.609812  0.337309  0.704883  1
  Au  Au21  1  0.662691  0.390188  0.295117  1
  Au  Au22  1  0.390188  0.662691  0.295117  1
  Au  Au23  1  0.337309  0.609812  0.704883  1
  Au  Au24  1  0.833245  0.112344  0.791444  1
  Au  Au25  1  0.166755  0.887656  0.208556  1
  Au  Au26  1  0.931788  0.657071  0.021415  1
  Au  Au27  1  0.068212  0.342929  0.978585  1
  Au  Au28  1  0.567688  0.835508  0.521824  1
  Au  Au29  1  0.164492  0.432312  0.478176  1
  Au  Au30  1  0.432312  0.164492  0.478176  1
  Au  Au31  1  0.835508  0.567688  0.521824  1
  Au  Au32  1  0.342929  0.068212  0.978585  1
  Au  Au33  1  0.657071  0.931788  0.021415  1
