# generated using pymatgen
data_Ac2La(MgGa)3
_symmetry_space_group_name_H-M   'P 1'
_cell_length_a   7.71705765
_cell_length_b   7.71705703
_cell_length_c   4.74587800
_cell_angle_alpha   90.00000000
_cell_angle_beta   90.00000000
_cell_angle_gamma   119.98354419
_symmetry_Int_Tables_number   1
_chemical_formula_structural   Ac2La(MgGa)3
_chemical_formula_sum   'Ac2 La1 Mg3 Ga3'
_cell_volume   244.80633164
_cell_formula_units_Z   1
loop_
 _symmetry_equiv_pos_site_id
 _symmetry_equiv_pos_as_xyz
  1  'x, y, z'
loop_
 _atom_site_type_symbol
 _atom_site_label
 _atom_site_symmetry_multiplicity
 _atom_site_fract_x
 _atom_site_fract_y
 _atom_site_fract_z
 _atom_site_occupancy
  Ac  Ac0  1  0.573759  0.998501  0.000000  1
  Ac  Ac1  1  0.998501  0.573759  0.000000  1
  La  La2  1  0.424406  0.424406  0.000000  1
  Mg  Mg3  1  0.240703  0.002965  0.500000  1
  Mg  Mg4  1  0.002965  0.240703  0.500000  1
  Mg  Mg5  1  0.757501  0.757501  0.500000  1
  Ga  Ga6  1  0.335601  0.659197  0.500000  1
  Ga  Ga7  1  0.659197  0.335601  0.500000  1
  Ga  Ga8  1  0.007367  0.007367  0.000000  1
