# generated using pymatgen
data_NaPr2Dy4CoBr12
_symmetry_space_group_name_H-M   'P 1'
_cell_length_a   9.26556417
_cell_length_b   9.32095666
_cell_length_c   9.34472617
_cell_angle_alpha   106.48946374
_cell_angle_beta   107.30265338
_cell_angle_gamma   107.01788318
_symmetry_Int_Tables_number   1
_chemical_formula_structural   NaPr2Dy4CoBr12
_chemical_formula_sum   'Na1 Pr2 Dy4 Co1 Br12'
_cell_volume   673.24743305
_cell_formula_units_Z   1
loop_
 _symmetry_equiv_pos_site_id
 _symmetry_equiv_pos_as_xyz
  1  'x, y, z'
loop_
 _atom_site_type_symbol
 _atom_site_label
 _atom_site_symmetry_multiplicity
 _atom_site_fract_x
 _atom_site_fract_y
 _atom_site_fract_z
 _atom_site_occupancy
  Na  Na0  1  0.500463  0.499843  0.499228  1
  Pr  Pr1  1  0.684655  0.969019  0.892664  1
  Pr  Pr2  1  0.896523  0.689520  0.973532  1
  Dy  Dy3  1  0.105869  0.301258  0.028187  1
  Dy  Dy4  1  0.304259  0.029266  0.105532  1
  Dy  Dy5  1  0.030475  0.112177  0.320017  1
  Dy  Dy6  1  0.969237  0.893465  0.682047  1
  Co  Co7  1  0.998648  0.000015  0.001582  1
  Br  Br8  1  0.233862  0.689849  0.078662  1
  Br  Br9  1  0.447176  0.364873  0.145740  1
  Br  Br10  1  0.685005  0.076872  0.228837  1
  Br  Br11  1  0.932334  0.793290  0.329765  1
  Br  Br12  1  0.145562  0.446287  0.363391  1
  Br  Br13  1  0.367482  0.145652  0.445946  1
  Br  Br14  1  0.632331  0.848300  0.540437  1
  Br  Br15  1  0.854781  0.554917  0.622238  1
  Br  Br16  1  0.073839  0.218261  0.685440  1
  Br  Br17  1  0.310168  0.928400  0.784780  1
  Br  Br18  1  0.537815  0.618724  0.844122  1
  Br  Br19  1  0.789521  0.320014  0.927856  1
