# generated using pymatgen
data_Co6Si2Mo3Os
_symmetry_space_group_name_H-M   'P 1'
_cell_length_a   4.75011000
_cell_length_b   4.75010956
_cell_length_c   7.38386900
_cell_angle_alpha   90.00000000
_cell_angle_beta   90.00000000
_cell_angle_gamma   119.99998914
_symmetry_Int_Tables_number   1
_chemical_formula_structural   Co6Si2Mo3Os
_chemical_formula_sum   'Co6 Si2 Mo3 Os1'
_cell_volume   144.28525649
_cell_formula_units_Z   1
loop_
 _symmetry_equiv_pos_site_id
 _symmetry_equiv_pos_as_xyz
  1  'x, y, z'
loop_
 _atom_site_type_symbol
 _atom_site_label
 _atom_site_symmetry_multiplicity
 _atom_site_fract_x
 _atom_site_fract_y
 _atom_site_fract_z
 _atom_site_occupancy
  Co  Co0  1  0.829113  0.170887  0.248947  1
  Co  Co1  1  0.829113  0.658226  0.248947  1
  Co  Co2  1  0.341774  0.170887  0.248947  1
  Co  Co3  1  0.171900  0.828100  0.750328  1
  Co  Co4  1  0.171900  0.343800  0.750328  1
  Co  Co5  1  0.656200  0.828100  0.750328  1
  Si  Si6  1  0.000000  0.000000  0.500176  1
  Si  Si7  1  0.000000  0.000000  0.998172  1
  Mo  Mo8  1  0.666667  0.333333  0.566077  1
  Mo  Mo9  1  0.666667  0.333333  0.929227  1
  Mo  Mo10  1  0.333333  0.666667  0.072713  1
  Os  Os11  1  0.333333  0.666667  0.435810  1
