# generated using pymatgen
data_Tm3HfGa2Ir3
_symmetry_space_group_name_H-M   'P 1'
_cell_length_a   7.10608707
_cell_length_b   6.99185717
_cell_length_c   4.11586600
_cell_angle_alpha   90.00000000
_cell_angle_beta   90.00000000
_cell_angle_gamma   119.46966172
_symmetry_Int_Tables_number   1
_chemical_formula_structural   Tm3HfGa2Ir3
_chemical_formula_sum   'Tm3 Hf1 Ga2 Ir3'
_cell_volume   178.03734142
_cell_formula_units_Z   1
loop_
 _symmetry_equiv_pos_site_id
 _symmetry_equiv_pos_as_xyz
  1  'x, y, z'
loop_
 _atom_site_type_symbol
 _atom_site_label
 _atom_site_symmetry_multiplicity
 _atom_site_fract_x
 _atom_site_fract_y
 _atom_site_fract_z
 _atom_site_occupancy
  Tm  Tm0  1  0.000000  0.390233  0.500000  1
  Tm  Tm1  1  0.571222  0.583195  0.500000  1
  Tm  Tm2  1  0.428778  0.011975  0.500000  1
  Hf  Hf3  1  0.000000  0.760072  0.000000  1
  Ga  Ga4  1  0.252960  0.252200  0.000000  1
  Ga  Ga5  1  0.747040  0.999240  0.000000  1
  Ir  Ir6  1  0.327026  0.667600  0.000000  1
  Ir  Ir7  1  0.672974  0.340574  0.000000  1
  Ir  Ir8  1  0.000000  0.994912  0.500000  1
