# generated using pymatgen
data_Lu8V7Si16W5
_symmetry_space_group_name_H-M   'P 1'
_cell_length_a   6.76898023
_cell_length_b   6.77258996
_cell_length_c   12.56988751
_cell_angle_alpha   90.02006080
_cell_angle_beta   89.99834507
_cell_angle_gamma   90.00490515
_symmetry_Int_Tables_number   1
_chemical_formula_structural   Lu8V7Si16W5
_chemical_formula_sum   'Lu8 V7 Si16 W5'
_cell_volume   576.24794664
_cell_formula_units_Z   1
loop_
 _symmetry_equiv_pos_site_id
 _symmetry_equiv_pos_as_xyz
  1  'x, y, z'
loop_
 _atom_site_type_symbol
 _atom_site_label
 _atom_site_symmetry_multiplicity
 _atom_site_fract_x
 _atom_site_fract_y
 _atom_site_fract_z
 _atom_site_occupancy
  Lu  Lu0  1  0.002264  0.662831  0.029995  1
  Lu  Lu1  1  0.836541  0.500549  0.280315  1
  Lu  Lu2  1  0.163885  0.498603  0.779300  1
  Lu  Lu3  1  0.501892  0.836758  0.719932  1
  Lu  Lu4  1  0.498731  0.163432  0.220037  1
  Lu  Lu5  1  0.997898  0.336857  0.530337  1
  Lu  Lu6  1  0.664411  0.001961  0.969662  1
  Lu  Lu7  1  0.336831  0.997462  0.470606  1
  V  V8  1  0.341248  0.504790  0.376178  1
  V  V9  1  0.658563  0.494751  0.875649  1
  V  V10  1  0.505652  0.341123  0.623887  1
  V  V11  1  0.494513  0.659475  0.124024  1
  V  V12  1  0.994523  0.841201  0.626083  1
  V  V13  1  0.158561  0.005596  0.874387  1
  V  V14  1  0.841597  0.995234  0.373345  1
  Si  Si15  1  0.294743  0.958822  0.062872  1
  Si  Si16  1  0.538363  0.790778  0.314449  1
  Si  Si17  1  0.460713  0.209211  0.813222  1
  Si  Si18  1  0.790557  0.539077  0.686340  1
  Si  Si19  1  0.211753  0.463662  0.187561  1
  Si  Si20  1  0.709457  0.038650  0.563390  1
  Si  Si21  1  0.959938  0.293278  0.933807  1
  Si  Si22  1  0.038629  0.709592  0.436807  1
  Si  Si23  1  0.701585  0.377705  0.067323  1
  Si  Si24  1  0.126920  0.205317  0.320867  1
  Si  Si25  1  0.875094  0.795681  0.818113  1
  Si  Si26  1  0.204244  0.124919  0.681578  1
  Si  Si27  1  0.792893  0.869558  0.182270  1
  Si  Si28  1  0.295688  0.624721  0.568540  1
  Si  Si29  1  0.374954  0.703902  0.931074  1
  Si  Si30  1  0.625042  0.295383  0.431858  1
  W  W31  1  0.332615  0.333052  0.999572  1
  W  W32  1  0.167050  0.832883  0.250700  1
  W  W33  1  0.832669  0.166745  0.749591  1
  W  W34  1  0.666938  0.666761  0.500223  1
  W  W35  1  0.003046  0.159679  0.126104  1
