# generated using pymatgen
data_SrLiTm5Rh17
_symmetry_space_group_name_H-M   'P 1'
_cell_length_a   5.26405400
_cell_length_b   5.26405307
_cell_length_c   17.42075000
_cell_angle_alpha   90.00000000
_cell_angle_beta   90.00000000
_cell_angle_gamma   119.99999325
_symmetry_Int_Tables_number   1
_chemical_formula_structural   SrLiTm5Rh17
_chemical_formula_sum   'Sr1 Li1 Tm5 Rh17'
_cell_volume   418.05950766
_cell_formula_units_Z   1
loop_
 _symmetry_equiv_pos_site_id
 _symmetry_equiv_pos_as_xyz
  1  'x, y, z'
loop_
 _atom_site_type_symbol
 _atom_site_label
 _atom_site_symmetry_multiplicity
 _atom_site_fract_x
 _atom_site_fract_y
 _atom_site_fract_z
 _atom_site_occupancy
  Sr  Sr0  1  0.666667  0.333333  0.250000  1
  Li  Li1  1  0.000000  0.000000  0.250000  1
  Tm  Tm2  1  0.333333  0.666667  0.538974  1
  Tm  Tm3  1  0.666667  0.333333  0.041988  1
  Tm  Tm4  1  0.666667  0.333333  0.458012  1
  Tm  Tm5  1  0.333333  0.666667  0.961026  1
  Tm  Tm6  1  0.333333  0.666667  0.750000  1
  Rh  Rh7  1  0.167838  0.335674  0.123119  1
  Rh  Rh8  1  0.832615  0.665229  0.625198  1
  Rh  Rh9  1  0.664326  0.832162  0.123119  1
  Rh  Rh10  1  0.167838  0.832162  0.123119  1
  Rh  Rh11  1  0.832615  0.167385  0.625198  1
  Rh  Rh12  1  0.334771  0.167385  0.625198  1
  Rh  Rh13  1  0.832615  0.665229  0.874802  1
  Rh  Rh14  1  0.832615  0.167385  0.874802  1
  Rh  Rh15  1  0.334771  0.167385  0.874802  1
  Rh  Rh16  1  0.664326  0.832162  0.376881  1
  Rh  Rh17  1  0.167838  0.832162  0.376881  1
  Rh  Rh18  1  0.167838  0.335674  0.376881  1
  Rh  Rh19  1  0.000000  0.000000  0.750000  1
  Rh  Rh20  1  0.333333  0.666667  0.250000  1
  Rh  Rh21  1  0.666667  0.333333  0.750000  1
  Rh  Rh22  1  0.000000  0.000000  0.000321  1
  Rh  Rh23  1  0.000000  0.000000  0.499679  1
