# generated using pymatgen
data_Cs4Ta3NbH20
_symmetry_space_group_name_H-M   'P 1'
_cell_length_a   11.67808504
_cell_length_b   7.62271536
_cell_length_c   5.20997200
_cell_angle_alpha   90.04312941
_cell_angle_beta   89.99548624
_cell_angle_gamma   89.94747090
_symmetry_Int_Tables_number   1
_chemical_formula_structural   Cs4Ta3NbH20
_chemical_formula_sum   'Cs4 Ta3 Nb1 H20'
_cell_volume   463.78470164
_cell_formula_units_Z   1
loop_
 _symmetry_equiv_pos_site_id
 _symmetry_equiv_pos_as_xyz
  1  'x, y, z'
loop_
 _atom_site_type_symbol
 _atom_site_label
 _atom_site_symmetry_multiplicity
 _atom_site_fract_x
 _atom_site_fract_y
 _atom_site_fract_z
 _atom_site_occupancy
  Cs  Cs0  1  0.670379  0.071031  0.332944  1
  Cs  Cs1  1  0.166742  0.430688  0.336754  1
  Cs  Cs2  1  0.831649  0.570425  0.836651  1
  Cs  Cs3  1  0.331389  0.929583  0.830907  1
  Ta  Ta4  1  0.516605  0.563330  0.309368  1
  Ta  Ta5  1  0.016512  0.939064  0.306359  1
  Ta  Ta6  1  0.983772  0.061327  0.806736  1
  Nb  Nb7  1  0.484067  0.439840  0.804109  1
  H  H8  1  0.346979  0.325164  0.797677  1
  H  H9  1  0.845490  0.172946  0.806920  1
  H  H10  1  0.972385  0.708456  0.313850  1
  H  H11  1  0.473458  0.794825  0.317201  1
  H  H12  1  0.593859  0.405817  0.078883  1
  H  H13  1  0.095929  0.093285  0.074141  1
  H  H14  1  0.389375  0.520270  0.084651  1
  H  H15  1  0.889301  0.966551  0.074403  1
  H  H16  1  0.960166  0.153719  0.457222  1
  H  H17  1  0.462688  0.346839  0.457755  1
  H  H18  1  0.154875  0.827749  0.305567  1
  H  H19  1  0.654239  0.677163  0.302115  1
  H  H20  1  0.526678  0.208162  0.812623  1
  H  H21  1  0.027403  0.292143  0.815349  1
  H  H22  1  0.904564  0.906904  0.574308  1
  H  H23  1  0.401046  0.591148  0.568383  1
  H  H24  1  0.110956  0.033190  0.574976  1
  H  H25  1  0.612761  0.467294  0.570647  1
  H  H26  1  0.536614  0.656423  0.960482  1
  H  H27  1  0.040122  0.846663  0.957018  1
