# generated using pymatgen
data_Ce2Ho14Cd4Ir3Pt
_symmetry_space_group_name_H-M   'P 1'
_cell_length_a   9.62895148
_cell_length_b   9.62895077
_cell_length_c   9.63850245
_cell_angle_alpha   60.14501409
_cell_angle_beta   60.14501588
_cell_angle_gamma   59.99855311
_symmetry_Int_Tables_number   1
_chemical_formula_structural   Ce2Ho14Cd4Ir3Pt
_chemical_formula_sum   'Ce2 Ho14 Cd4 Ir3 Pt1'
_cell_volume   633.28065233
_cell_formula_units_Z   1
loop_
 _symmetry_equiv_pos_site_id
 _symmetry_equiv_pos_as_xyz
  1  'x, y, z'
loop_
 _atom_site_type_symbol
 _atom_site_label
 _atom_site_symmetry_multiplicity
 _atom_site_fract_x
 _atom_site_fract_y
 _atom_site_fract_z
 _atom_site_occupancy
  Ce  Ce0  1  0.594580  0.594580  0.597842  1
  Ce  Ce1  1  0.601322  0.601322  0.200096  1
  Ho  Ho2  1  0.604692  0.193877  0.603379  1
  Ho  Ho3  1  0.193877  0.604692  0.603379  1
  Ho  Ho4  1  0.056887  0.440304  0.440404  1
  Ho  Ho5  1  0.438872  0.062588  0.060136  1
  Ho  Ho6  1  0.440304  0.056887  0.440404  1
  Ho  Ho7  1  0.062588  0.438872  0.060136  1
  Ho  Ho8  1  0.438056  0.438056  0.060429  1
  Ho  Ho9  1  0.062245  0.062245  0.437390  1
  Ho  Ho10  1  0.188738  0.814151  0.814551  1
  Ho  Ho11  1  0.814489  0.189152  0.186213  1
  Ho  Ho12  1  0.814151  0.188738  0.814551  1
  Ho  Ho13  1  0.189152  0.814489  0.186213  1
  Ho  Ho14  1  0.814263  0.814263  0.186887  1
  Ho  Ho15  1  0.189200  0.189200  0.812579  1
  Cd  Cd16  1  0.831441  0.831441  0.830119  1
  Cd  Cd17  1  0.830723  0.830723  0.505402  1
  Cd  Cd18  1  0.830476  0.504029  0.831657  1
  Cd  Cd19  1  0.504029  0.830476  0.831657  1
  Ir  Ir20  1  0.392669  0.392669  0.821849  1
  Ir  Ir21  1  0.394916  0.821453  0.389168  1
  Ir  Ir22  1  0.821453  0.394916  0.389168  1
  Pt  Pt23  1  0.390881  0.390881  0.396392  1
