# generated using pymatgen
data_Ce2Nd9YRu4
_symmetry_space_group_name_H-M   'P 1'
_cell_length_a   6.47065439
_cell_length_b   7.35223756
_cell_length_c   9.83693700
_cell_angle_alpha   90.00000000
_cell_angle_beta   90.00000000
_cell_angle_gamma   85.97100662
_symmetry_Int_Tables_number   1
_chemical_formula_structural   Ce2Nd9YRu4
_chemical_formula_sum   'Ce2 Nd9 Y1 Ru4'
_cell_volume   466.82380181
_cell_formula_units_Z   1
loop_
 _symmetry_equiv_pos_site_id
 _symmetry_equiv_pos_as_xyz
  1  'x, y, z'
loop_
 _atom_site_type_symbol
 _atom_site_label
 _atom_site_symmetry_multiplicity
 _atom_site_fract_x
 _atom_site_fract_y
 _atom_site_fract_z
 _atom_site_occupancy
  Ce  Ce0  1  0.662020  0.060228  0.250000  1
  Ce  Ce1  1  0.339045  0.938716  0.750000  1
  Nd  Nd2  1  0.136157  0.461027  0.750000  1
  Nd  Nd3  1  0.175311  0.171730  0.063147  1
  Nd  Nd4  1  0.825833  0.828056  0.937969  1
  Nd  Nd5  1  0.666697  0.325984  0.932619  1
  Nd  Nd6  1  0.825833  0.828056  0.562031  1
  Nd  Nd7  1  0.331812  0.674367  0.070575  1
  Nd  Nd8  1  0.175311  0.171730  0.436853  1
  Nd  Nd9  1  0.331812  0.674367  0.429425  1
  Nd  Nd10  1  0.666697  0.325984  0.567381  1
  Y  Y11  1  0.860692  0.538644  0.250000  1
  Ru  Ru12  1  0.471389  0.357286  0.250000  1
  Ru  Ru13  1  0.531886  0.645872  0.750000  1
  Ru  Ru14  1  0.993887  0.104284  0.750000  1
  Ru  Ru15  1  0.005618  0.893668  0.250000  1
