# generated using pymatgen
data_Er11Lu9(CoBi5)2
_symmetry_space_group_name_H-M   'P 1'
_cell_length_a   7.94270872
_cell_length_b   9.26542600
_cell_length_c   11.97673008
_cell_angle_alpha   90.00000000
_cell_angle_beta   89.95126752
_cell_angle_gamma   90.00000000
_symmetry_Int_Tables_number   1
_chemical_formula_structural   Er11Lu9(CoBi5)2
_chemical_formula_sum   'Er11 Lu9 Co2 Bi10'
_cell_volume   881.39814639
_cell_formula_units_Z   1
loop_
 _symmetry_equiv_pos_site_id
 _symmetry_equiv_pos_as_xyz
  1  'x, y, z'
loop_
 _atom_site_type_symbol
 _atom_site_label
 _atom_site_symmetry_multiplicity
 _atom_site_fract_x
 _atom_site_fract_y
 _atom_site_fract_z
 _atom_site_occupancy
  Er  Er0  1  0.573192  0.500000  0.772421  1
  Er  Er1  1  0.427256  0.500000  0.272195  1
  Er  Er2  1  0.093390  0.000000  0.700921  1
  Er  Er3  1  0.257794  0.500000  0.993747  1
  Er  Er4  1  0.742109  0.500000  0.493498  1
  Er  Er5  1  0.196599  0.000000  0.996531  1
  Er  Er6  1  0.803155  0.000000  0.495744  1
  Er  Er7  1  0.089105  0.500000  0.719005  1
  Er  Er8  1  0.910941  0.500000  0.218801  1
  Er  Er9  1  0.370424  0.000000  0.309551  1
  Er  Er10  1  0.628701  0.000000  0.809618  1
  Lu  Lu11  1  0.428386  0.174931  0.562818  1
  Lu  Lu12  1  0.572183  0.825460  0.063555  1
  Lu  Lu13  1  0.072644  0.730206  0.436241  1
  Lu  Lu14  1  0.927137  0.269625  0.936604  1
  Lu  Lu15  1  0.072644  0.269794  0.436241  1
  Lu  Lu16  1  0.927137  0.730375  0.936604  1
  Lu  Lu17  1  0.428386  0.825069  0.562818  1
  Lu  Lu18  1  0.572183  0.174540  0.063555  1
  Lu  Lu19  1  0.905164  0.000000  0.199088  1
  Co  Co20  1  0.174968  0.000000  0.489415  1
  Co  Co21  1  0.825762  0.000000  0.989496  1
  Bi  Bi22  1  0.813160  0.742023  0.671630  1
  Bi  Bi23  1  0.186423  0.257856  0.171871  1
  Bi  Bi24  1  0.680826  0.241190  0.324542  1
  Bi  Bi25  1  0.320063  0.758326  0.825038  1
  Bi  Bi26  1  0.680826  0.758810  0.324542  1
  Bi  Bi27  1  0.320063  0.241674  0.825038  1
  Bi  Bi28  1  0.813160  0.257977  0.671630  1
  Bi  Bi29  1  0.186423  0.742144  0.171871  1
  Bi  Bi30  1  0.347572  0.500000  0.527613  1
  Bi  Bi31  1  0.652225  0.500000  0.027762  1
