# generated using pymatgen
data_TbDy5(TmIn4)2
_symmetry_space_group_name_H-M   'P 1'
_cell_length_a   6.49340080
_cell_length_b   6.49340188
_cell_length_c   10.32234700
_cell_angle_alpha   89.99834303
_cell_angle_beta   89.99834254
_cell_angle_gamma   104.00409048
_symmetry_Int_Tables_number   1
_chemical_formula_structural   TbDy5(TmIn4)2
_chemical_formula_sum   'Tb1 Dy5 Tm2 In8'
_cell_volume   422.29830019
_cell_formula_units_Z   1
loop_
 _symmetry_equiv_pos_site_id
 _symmetry_equiv_pos_as_xyz
  1  'x, y, z'
loop_
 _atom_site_type_symbol
 _atom_site_label
 _atom_site_symmetry_multiplicity
 _atom_site_fract_x
 _atom_site_fract_y
 _atom_site_fract_z
 _atom_site_occupancy
  Tb  Tb0  1  0.752206  0.247794  0.000000  1
  Dy  Dy1  1  0.524124  0.524205  0.250033  1
  Dy  Dy2  1  0.475795  0.475876  0.749967  1
  Dy  Dy3  1  0.247797  0.752203  0.500000  1
  Dy  Dy4  1  0.247796  0.752204  0.000000  1
  Dy  Dy5  1  0.752203  0.247797  0.500000  1
  Tm  Tm6  1  0.982318  0.982235  0.250039  1
  Tm  Tm7  1  0.017765  0.017682  0.749961  1
  In  In8  1  0.250651  0.250641  0.013272  1
  In  In9  1  0.749359  0.749349  0.986728  1
  In  In10  1  0.250639  0.250641  0.486724  1
  In  In11  1  0.749359  0.749361  0.513276  1
  In  In12  1  0.486552  0.014522  0.250059  1
  In  In13  1  0.985478  0.513448  0.749941  1
  In  In14  1  0.513339  0.985379  0.749939  1
  In  In15  1  0.014621  0.486661  0.250061  1
