# generated using pymatgen
data_YSeBrO3
_symmetry_space_group_name_H-M   'P 1'
_cell_length_a   7.00812000
_cell_length_b   7.67006800
_cell_length_c   9.02294200
_cell_angle_alpha   90.00000000
_cell_angle_beta   90.00000000
_cell_angle_gamma   90.00000000
_symmetry_Int_Tables_number   1
_chemical_formula_structural   YSeBrO3
_chemical_formula_sum   'Y4 Se4 Br4 O12'
_cell_volume   485.00800832
_cell_formula_units_Z   4
loop_
 _symmetry_equiv_pos_site_id
 _symmetry_equiv_pos_as_xyz
  1  'x, y, z'
loop_
 _atom_site_type_symbol
 _atom_site_label
 _atom_site_symmetry_multiplicity
 _atom_site_fract_x
 _atom_site_fract_y
 _atom_site_fract_z
 _atom_site_occupancy
  Y  Y0  1  0.250000  0.895516  0.028957  1
  Y  Y1  1  0.750000  0.104484  0.971043  1
  Y  Y2  1  0.750000  0.604484  0.528957  1
  Y  Y3  1  0.250000  0.395516  0.471043  1
  Se  Se4  1  0.250000  0.780403  0.629260  1
  Se  Se5  1  0.750000  0.219597  0.370740  1
  Se  Se6  1  0.750000  0.719597  0.129260  1
  Se  Se7  1  0.250000  0.280403  0.870740  1
  Br  Br8  1  0.250000  0.555233  0.177239  1
  Br  Br9  1  0.750000  0.444767  0.822761  1
  Br  Br10  1  0.750000  0.944767  0.677239  1
  Br  Br11  1  0.250000  0.055233  0.322761  1
  O  O12  1  0.072694  0.634942  0.568375  1
  O  O13  1  0.927306  0.365058  0.431625  1
  O  O14  1  0.927306  0.865058  0.068375  1
  O  O15  1  0.572694  0.365058  0.431625  1
  O  O16  1  0.072694  0.134942  0.931625  1
  O  O17  1  0.427306  0.634942  0.568375  1
  O  O18  1  0.427306  0.134942  0.931625  1
  O  O19  1  0.572694  0.865058  0.068375  1
  O  O20  1  0.250000  0.750274  0.815991  1
  O  O21  1  0.750000  0.249726  0.184009  1
  O  O22  1  0.750000  0.749726  0.315991  1
  O  O23  1  0.250000  0.250274  0.684009  1
