# generated using pymatgen
data_Sm3(PRh)4
_symmetry_space_group_name_H-M   'P 1'
_cell_length_a   3.97453566
_cell_length_b   4.09249081
_cell_length_c   12.42899323
_cell_angle_alpha   80.52398460
_cell_angle_beta   80.79950916
_cell_angle_gamma   90.00000647
_symmetry_Int_Tables_number   1
_chemical_formula_structural   Sm3(PRh)4
_chemical_formula_sum   'Sm3 P4 Rh4'
_cell_volume   196.77089846
_cell_formula_units_Z   1
loop_
 _symmetry_equiv_pos_site_id
 _symmetry_equiv_pos_as_xyz
  1  'x, y, z'
loop_
 _atom_site_type_symbol
 _atom_site_label
 _atom_site_symmetry_multiplicity
 _atom_site_fract_x
 _atom_site_fract_y
 _atom_site_fract_z
 _atom_site_occupancy
  Sm  Sm0  1  0.000000  0.000000  0.000000  1
  Sm  Sm1  1  0.854386  0.354386  0.291229  1
  Sm  Sm2  1  0.145614  0.645614  0.708771  1
  P  P3  1  0.692124  0.192124  0.615751  1
  P  P4  1  0.307876  0.807876  0.384249  1
  P  P5  1  0.450937  0.450937  0.098127  1
  P  P6  1  0.549063  0.549063  0.901873  1
  Rh  Rh7  1  0.595467  0.095467  0.809065  1
  Rh  Rh8  1  0.404533  0.904533  0.190935  1
  Rh  Rh9  1  0.247608  0.247608  0.504784  1
  Rh  Rh10  1  0.752392  0.752392  0.495216  1
