# generated using pymatgen
data_Y9ErCd3Pd
_symmetry_space_group_name_H-M   'P 1'
_cell_length_a   9.73842700
_cell_length_b   9.73842710
_cell_length_c   9.78722500
_cell_angle_alpha   90.00000000
_cell_angle_beta   90.00000000
_cell_angle_gamma   120.00000306
_symmetry_Int_Tables_number   1
_chemical_formula_structural   Y9ErCd3Pd
_chemical_formula_sum   'Y18 Er2 Cd6 Pd2'
_cell_volume   803.83668318
_cell_formula_units_Z   2
loop_
 _symmetry_equiv_pos_site_id
 _symmetry_equiv_pos_as_xyz
  1  'x, y, z'
loop_
 _atom_site_type_symbol
 _atom_site_label
 _atom_site_symmetry_multiplicity
 _atom_site_fract_x
 _atom_site_fract_y
 _atom_site_fract_z
 _atom_site_occupancy
  Y  Y0  1  0.206874  0.793126  0.940853  1
  Y  Y1  1  0.206874  0.413747  0.940853  1
  Y  Y2  1  0.586253  0.793126  0.940853  1
  Y  Y3  1  0.793126  0.206874  0.059147  1
  Y  Y4  1  0.793126  0.586253  0.059147  1
  Y  Y5  1  0.413747  0.206874  0.059147  1
  Y  Y6  1  0.793126  0.206874  0.440853  1
  Y  Y7  1  0.793126  0.586253  0.440853  1
  Y  Y8  1  0.413747  0.206874  0.440853  1
  Y  Y9  1  0.206874  0.793126  0.559147  1
  Y  Y10  1  0.206874  0.413747  0.559147  1
  Y  Y11  1  0.586253  0.793126  0.559147  1
  Y  Y12  1  0.543180  0.456820  0.750000  1
  Y  Y13  1  0.543180  0.086360  0.750000  1
  Y  Y14  1  0.913640  0.456820  0.750000  1
  Y  Y15  1  0.456820  0.543180  0.250000  1
  Y  Y16  1  0.456820  0.913640  0.250000  1
  Y  Y17  1  0.086360  0.543180  0.250000  1
  Er  Er18  1  0.000000  0.000000  0.000000  1
  Er  Er19  1  0.000000  0.000000  0.500000  1
  Cd  Cd20  1  0.884402  0.115598  0.750000  1
  Cd  Cd21  1  0.884402  0.768804  0.750000  1
  Cd  Cd22  1  0.231196  0.115598  0.750000  1
  Cd  Cd23  1  0.115598  0.884402  0.250000  1
  Cd  Cd24  1  0.115598  0.231196  0.250000  1
  Cd  Cd25  1  0.768804  0.884402  0.250000  1
  Pd  Pd26  1  0.333333  0.666667  0.750000  1
  Pd  Pd27  1  0.666667  0.333333  0.250000  1
