# generated using pymatgen
data_Th2SnOsAu
_symmetry_space_group_name_H-M   'P 1'
_cell_length_a   8.03700433
_cell_length_b   8.03700433
_cell_length_c   3.83045500
_cell_angle_alpha   90.00000000
_cell_angle_beta   90.00000000
_cell_angle_gamma   89.77616361
_symmetry_Int_Tables_number   1
_chemical_formula_structural   Th2SnOsAu
_chemical_formula_sum   'Th4 Sn2 Os2 Au2'
_cell_volume   247.42037193
_cell_formula_units_Z   2
loop_
 _symmetry_equiv_pos_site_id
 _symmetry_equiv_pos_as_xyz
  1  'x, y, z'
loop_
 _atom_site_type_symbol
 _atom_site_label
 _atom_site_symmetry_multiplicity
 _atom_site_fract_x
 _atom_site_fract_y
 _atom_site_fract_z
 _atom_site_occupancy
  Th  Th0  1  0.688523  0.188523  0.500000  1
  Th  Th1  1  0.311477  0.811477  0.500000  1
  Th  Th2  1  0.158228  0.341772  0.500000  1
  Th  Th3  1  0.841772  0.658228  0.500000  1
  Sn  Sn4  1  0.500000  0.500000  0.000000  1
  Sn  Sn5  1  0.000000  0.000000  0.000000  1
  Os  Os6  1  0.131895  0.631895  0.000000  1
  Os  Os7  1  0.868105  0.368105  0.000000  1
  Au  Au8  1  0.626538  0.873462  0.000000  1
  Au  Au9  1  0.373462  0.126538  0.000000  1
