# generated using pymatgen
data_La2MoC2
_symmetry_space_group_name_H-M   'P 1'
_cell_length_a   5.84448300
_cell_length_b   5.84448300
_cell_length_c   10.68963100
_cell_angle_alpha   90.00000000
_cell_angle_beta   90.00000000
_cell_angle_gamma   90.00000000
_symmetry_Int_Tables_number   1
_chemical_formula_structural   La2MoC2
_chemical_formula_sum   'La8 Mo4 C8'
_cell_volume   365.13621834
_cell_formula_units_Z   4
loop_
 _symmetry_equiv_pos_site_id
 _symmetry_equiv_pos_as_xyz
  1  'x, y, z'
loop_
 _atom_site_type_symbol
 _atom_site_label
 _atom_site_symmetry_multiplicity
 _atom_site_fract_x
 _atom_site_fract_y
 _atom_site_fract_z
 _atom_site_occupancy
  La  La0  1  0.806643  0.806643  0.655378  1
  La  La1  1  0.193357  0.193357  0.655378  1
  La  La2  1  0.806643  0.806643  0.344622  1
  La  La3  1  0.306643  0.693357  0.155378  1
  La  La4  1  0.693357  0.306643  0.155378  1
  La  La5  1  0.693357  0.306643  0.844622  1
  La  La6  1  0.306643  0.693357  0.844622  1
  La  La7  1  0.193357  0.193357  0.344622  1
  Mo  Mo8  1  0.175282  0.175282  0.000000  1
  Mo  Mo9  1  0.324718  0.675282  0.500000  1
  Mo  Mo10  1  0.675282  0.324718  0.500000  1
  Mo  Mo11  1  0.824718  0.824718  0.000000  1
  C  C12  1  0.500000  0.000000  0.000000  1
  C  C13  1  0.500000  0.000000  0.500000  1
  C  C14  1  0.000000  0.500000  0.500000  1
  C  C15  1  0.000000  0.500000  0.000000  1
  C  C16  1  0.000000  0.000000  0.859947  1
  C  C17  1  0.500000  0.500000  0.359947  1
  C  C18  1  0.500000  0.500000  0.640053  1
  C  C19  1  0.000000  0.000000  0.140053  1
