# generated using pymatgen
data_Mn6BeSi5Ru12
_symmetry_space_group_name_H-M   'P 1'
_cell_length_a   4.16838100
_cell_length_b   5.88468400
_cell_length_c   12.52456500
_cell_angle_alpha   89.99995764
_cell_angle_beta   90.00291633
_cell_angle_gamma   90.00099139
_symmetry_Int_Tables_number   1
_chemical_formula_structural   Mn6BeSi5Ru12
_chemical_formula_sum   'Mn6 Be1 Si5 Ru12'
_cell_volume   307.22263173
_cell_formula_units_Z   1
loop_
 _symmetry_equiv_pos_site_id
 _symmetry_equiv_pos_as_xyz
  1  'x, y, z'
loop_
 _atom_site_type_symbol
 _atom_site_label
 _atom_site_symmetry_multiplicity
 _atom_site_fract_x
 _atom_site_fract_y
 _atom_site_fract_z
 _atom_site_occupancy
  Mn  Mn0  1  0.000000  0.000000  0.000000  1
  Mn  Mn1  1  0.499731  0.500000  0.162811  1
  Mn  Mn2  1  0.999690  0.000000  0.331616  1
  Mn  Mn3  1  0.500001  0.500000  0.500000  1
  Mn  Mn4  1  0.000309  0.000000  0.668385  1
  Mn  Mn5  1  0.500268  0.500000  0.837189  1
  Be  Be6  1  0.000000  0.500000  0.000000  1
  Si  Si7  1  0.499734  0.999999  0.165720  1
  Si  Si8  1  0.999729  0.500000  0.332559  1
  Si  Si9  1  0.500001  0.000000  0.500000  1
  Si  Si10  1  0.000271  0.500000  0.667441  1
  Si  Si11  1  0.500265  0.000001  0.834280  1
  Ru  Ru12  1  0.500001  0.250580  0.000000  1
  Ru  Ru13  1  0.500001  0.749419  0.000000  1
  Ru  Ru14  1  0.999780  0.251931  0.166247  1
  Ru  Ru15  1  0.999787  0.748070  0.166247  1
  Ru  Ru16  1  0.499777  0.249327  0.332909  1
  Ru  Ru17  1  0.499762  0.750672  0.332909  1
  Ru  Ru18  1  0.999995  0.251127  0.500000  1
  Ru  Ru19  1  0.000005  0.748873  0.500000  1
  Ru  Ru20  1  0.500238  0.249327  0.667091  1
  Ru  Ru21  1  0.500223  0.750672  0.667091  1
  Ru  Ru22  1  0.000212  0.251931  0.833753  1
  Ru  Ru23  1  0.000219  0.748070  0.833753  1
