# generated using pymatgen
data_Er2Fe3Co6P7W3
_symmetry_space_group_name_H-M   'P 1'
_cell_length_a   9.07090800
_cell_length_b   9.07090647
_cell_length_c   3.70466800
_cell_angle_alpha   90.00000000
_cell_angle_beta   90.00000000
_cell_angle_gamma   120.00000557
_symmetry_Int_Tables_number   1
_chemical_formula_structural   Er2Fe3Co6P7W3
_chemical_formula_sum   'Er2 Fe3 Co6 P7 W3'
_cell_volume   263.98627790
_cell_formula_units_Z   1
loop_
 _symmetry_equiv_pos_site_id
 _symmetry_equiv_pos_as_xyz
  1  'x, y, z'
loop_
 _atom_site_type_symbol
 _atom_site_label
 _atom_site_symmetry_multiplicity
 _atom_site_fract_x
 _atom_site_fract_y
 _atom_site_fract_z
 _atom_site_occupancy
  Er  Er0  1  0.000000  0.000000  0.000000  1
  Er  Er1  1  0.333333  0.666667  0.500000  1
  Fe  Fe2  1  0.825585  0.214562  0.000000  1
  Fe  Fe3  1  0.785438  0.611025  0.000000  1
  Fe  Fe4  1  0.388975  0.174415  0.000000  1
  Co  Co5  1  0.099075  0.702899  0.000000  1
  Co  Co6  1  0.297101  0.396176  0.000000  1
  Co  Co7  1  0.603824  0.900925  0.000000  1
  Co  Co8  1  0.054459  0.280924  0.500000  1
  Co  Co9  1  0.719076  0.773535  0.500000  1
  Co  Co10  1  0.226465  0.945541  0.500000  1
  P  P11  1  0.081544  0.445007  0.000000  1
  P  P12  1  0.554993  0.636538  0.000000  1
  P  P13  1  0.363462  0.918456  0.000000  1
  P  P14  1  0.789333  0.044893  0.500000  1
  P  P15  1  0.955107  0.744439  0.500000  1
  P  P16  1  0.255561  0.210667  0.500000  1
  P  P17  1  0.666667  0.333333  0.000000  1
  W  W18  1  0.887891  0.454661  0.500000  1
  W  W19  1  0.545339  0.433230  0.500000  1
  W  W20  1  0.566770  0.112109  0.500000  1
