# generated using pymatgen
data_Rb2NaTbSb2
_symmetry_space_group_name_H-M   'P 1'
_cell_length_a   10.03526782
_cell_length_b   10.03526711
_cell_length_c   10.03526803
_cell_angle_alpha   135.94480549
_cell_angle_beta   64.53262241
_cell_angle_gamma   135.34297053
_symmetry_Int_Tables_number   1
_chemical_formula_structural   Rb2NaTbSb2
_chemical_formula_sum   'Rb4 Na2 Tb2 Sb4'
_cell_volume   487.05779045
_cell_formula_units_Z   2
loop_
 _symmetry_equiv_pos_site_id
 _symmetry_equiv_pos_as_xyz
  1  'x, y, z'
loop_
 _atom_site_type_symbol
 _atom_site_label
 _atom_site_symmetry_multiplicity
 _atom_site_fract_x
 _atom_site_fract_y
 _atom_site_fract_z
 _atom_site_occupancy
  Rb  Rb0  1  0.821566  0.224788  0.046355  1
  Rb  Rb1  1  0.678434  0.724788  0.403221  1
  Rb  Rb2  1  0.321566  0.275212  0.596779  1
  Rb  Rb3  1  0.178434  0.775212  0.953645  1
  Na  Na4  1  0.250001  0.250001  0.000000  1
  Na  Na5  1  0.750001  0.750001  0.000000  1
  Tb  Tb6  1  0.750001  0.250001  0.500000  1
  Tb  Tb7  1  0.250001  0.750001  0.500000  1
  Sb  Sb8  1  0.401145  0.773973  0.175118  1
  Sb  Sb9  1  0.098855  0.273973  0.372828  1
  Sb  Sb10  1  0.901145  0.726027  0.627172  1
  Sb  Sb11  1  0.598855  0.226027  0.824882  1
