# generated using pymatgen
data_Na3CaHO6
_symmetry_space_group_name_H-M   'P 1'
_cell_length_a   3.53696914
_cell_length_b   6.36717811
_cell_length_c   8.41024344
_cell_angle_alpha   50.71000309
_cell_angle_beta   90.53728445
_cell_angle_gamma   89.70946152
_symmetry_Int_Tables_number   1
_chemical_formula_structural   Na3CaHO6
_chemical_formula_sum   'Na3 Ca1 H1 O6'
_cell_volume   146.56731681
_cell_formula_units_Z   1
loop_
 _symmetry_equiv_pos_site_id
 _symmetry_equiv_pos_as_xyz
  1  'x, y, z'
loop_
 _atom_site_type_symbol
 _atom_site_label
 _atom_site_symmetry_multiplicity
 _atom_site_fract_x
 _atom_site_fract_y
 _atom_site_fract_z
 _atom_site_occupancy
  Na  Na0  1  0.002410  0.491366  0.242553  1
  Na  Na1  1  0.463382  0.962468  0.870422  1
  Na  Na2  1  0.009025  0.482511  0.733294  1
  Ca  Ca3  1  0.486668  0.991392  0.227456  1
  H  H4  1  0.925872  0.991588  0.527201  1
  O  O5  1  0.981561  0.980902  0.049178  1
  O  O6  1  0.490829  0.471492  0.056212  1
  O  O7  1  0.508238  0.617354  0.846558  1
  O  O8  1  0.991622  0.974751  0.423690  1
  O  O9  1  0.453230  0.487915  0.488288  1
  O  O10  1  0.746740  0.308136  0.563877  1
