# generated using pymatgen
data_Hf8Zr2Sn6P
_symmetry_space_group_name_H-M   'P 1'
_cell_length_a   5.83129559
_cell_length_b   8.50156191
_cell_length_c   8.50443349
_cell_angle_alpha   119.98883194
_cell_angle_beta   89.93630387
_cell_angle_gamma   90.12744355
_symmetry_Int_Tables_number   1
_chemical_formula_structural   Hf8Zr2Sn6P
_chemical_formula_sum   'Hf8 Zr2 Sn6 P1'
_cell_volume   365.16369054
_cell_formula_units_Z   1
loop_
 _symmetry_equiv_pos_site_id
 _symmetry_equiv_pos_as_xyz
  1  'x, y, z'
loop_
 _atom_site_type_symbol
 _atom_site_label
 _atom_site_symmetry_multiplicity
 _atom_site_fract_x
 _atom_site_fract_y
 _atom_site_fract_z
 _atom_site_occupancy
  Hf  Hf0  1  0.500100  0.333527  0.666791  1
  Hf  Hf1  1  0.500100  0.666735  0.333209  1
  Hf  Hf2  1  0.999467  0.666791  0.333068  1
  Hf  Hf3  1  0.999467  0.333724  0.666932  1
  Hf  Hf4  1  0.756650  0.250571  0.000000  1
  Hf  Hf5  1  0.758539  0.749192  0.749918  1
  Hf  Hf6  1  0.758539  0.999273  0.250082  1
  Hf  Hf7  1  0.242666  0.750163  0.000000  1
  Zr  Zr8  1  0.241267  0.250076  0.249854  1
  Zr  Zr9  1  0.241267  0.000222  0.750146  1
  Sn  Sn10  1  0.749825  0.605330  0.000000  1
  Sn  Sn11  1  0.749228  0.394383  0.394402  1
  Sn  Sn12  1  0.749228  0.999981  0.605598  1
  Sn  Sn13  1  0.249825  0.395869  0.000000  1
  Sn  Sn14  1  0.250428  0.605769  0.606126  1
  Sn  Sn15  1  0.250428  0.999643  0.393874  1
  P  P16  1  0.502975  0.998756  0.000000  1
