# generated using pymatgen
data_Sr4TaMnO8
_symmetry_space_group_name_H-M   'P 1'
_cell_length_a   6.89319745
_cell_length_b   6.89319727
_cell_length_c   5.71716500
_cell_angle_alpha   90.00000000
_cell_angle_beta   90.00000000
_cell_angle_gamma   130.94627485
_symmetry_Int_Tables_number   1
_chemical_formula_structural   Sr4TaMnO8
_chemical_formula_sum   'Sr4 Ta1 Mn1 O8'
_cell_volume   205.18975805
_cell_formula_units_Z   1
loop_
 _symmetry_equiv_pos_site_id
 _symmetry_equiv_pos_as_xyz
  1  'x, y, z'
loop_
 _atom_site_type_symbol
 _atom_site_label
 _atom_site_symmetry_multiplicity
 _atom_site_fract_x
 _atom_site_fract_y
 _atom_site_fract_z
 _atom_site_occupancy
  Sr  Sr0  1  0.642978  0.357022  0.000000  1
  Sr  Sr1  1  0.145992  0.854008  0.500000  1
  Sr  Sr2  1  0.854008  0.145992  0.500000  1
  Sr  Sr3  1  0.357022  0.642978  0.000000  1
  Ta  Ta4  1  0.000000  0.000000  0.000000  1
  Mn  Mn5  1  0.500000  0.500000  0.500000  1
  O  O6  1  0.755722  0.755722  0.755716  1
  O  O7  1  0.244278  0.244278  0.244284  1
  O  O8  1  0.244278  0.244278  0.755716  1
  O  O9  1  0.755722  0.755722  0.244284  1
  O  O10  1  0.837822  0.162178  0.000000  1
  O  O11  1  0.342248  0.657752  0.500000  1
  O  O12  1  0.657752  0.342248  0.500000  1
  O  O13  1  0.162178  0.837822  0.000000  1
