# generated using pymatgen
data_Pr4Te7Pd
_symmetry_space_group_name_H-M   'P 1'
_cell_length_a   4.33666664
_cell_length_b   8.88812600
_cell_length_c   9.49540642
_cell_angle_alpha   90.00000000
_cell_angle_beta   90.02553853
_cell_angle_gamma   90.00000000
_symmetry_Int_Tables_number   1
_chemical_formula_structural   Pr4Te7Pd
_chemical_formula_sum   'Pr4 Te7 Pd1'
_cell_volume   365.99887992
_cell_formula_units_Z   1
loop_
 _symmetry_equiv_pos_site_id
 _symmetry_equiv_pos_as_xyz
  1  'x, y, z'
loop_
 _atom_site_type_symbol
 _atom_site_label
 _atom_site_symmetry_multiplicity
 _atom_site_fract_x
 _atom_site_fract_y
 _atom_site_fract_z
 _atom_site_occupancy
  Pr  Pr0  1  0.000959  0.750000  0.711841  1
  Pr  Pr1  1  0.003292  0.250000  0.742737  1
  Pr  Pr2  1  0.499297  0.003218  0.267992  1
  Pr  Pr3  1  0.499297  0.496782  0.267992  1
  Te  Te4  1  0.997195  0.941842  0.000710  1
  Te  Te5  1  0.997195  0.558158  0.000710  1
  Te  Te6  1  0.504047  0.250000  0.001052  1
  Te  Te7  1  0.999517  0.750000  0.368654  1
  Te  Te8  1  0.999997  0.250000  0.375529  1
  Te  Te9  1  0.501635  0.002962  0.628025  1
  Te  Te10  1  0.501635  0.497038  0.628025  1
  Pd  Pd11  1  0.495933  0.750000  0.007659  1
