# generated using pymatgen
data_Tb3YHoIr3
_symmetry_space_group_name_H-M   'P 1'
_cell_length_a   10.92102200
_cell_length_b   10.92174100
_cell_length_c   6.38042000
_cell_angle_alpha   90.00000000
_cell_angle_beta   90.00000000
_cell_angle_gamma   90.00000000
_symmetry_Int_Tables_number   1
_chemical_formula_structural   Tb3YHoIr3
_chemical_formula_sum   'Tb12 Y4 Ho4 Ir12'
_cell_volume   761.03463662
_cell_formula_units_Z   4
loop_
 _symmetry_equiv_pos_site_id
 _symmetry_equiv_pos_as_xyz
  1  'x, y, z'
loop_
 _atom_site_type_symbol
 _atom_site_label
 _atom_site_symmetry_multiplicity
 _atom_site_fract_x
 _atom_site_fract_y
 _atom_site_fract_z
 _atom_site_occupancy
  Tb  Tb0  1  0.290833  0.088015  0.377953  1
  Tb  Tb1  1  0.290833  0.911985  0.877953  1
  Tb  Tb2  1  0.709167  0.088015  0.877953  1
  Tb  Tb3  1  0.709167  0.911985  0.377953  1
  Tb  Tb4  1  0.588020  0.790796  0.878129  1
  Tb  Tb5  1  0.588020  0.209204  0.378129  1
  Tb  Tb6  1  0.411980  0.790796  0.378129  1
  Tb  Tb7  1  0.411980  0.209204  0.878129  1
  Tb  Tb8  1  0.209033  0.412086  0.621880  1
  Tb  Tb9  1  0.209033  0.587914  0.121880  1
  Tb  Tb10  1  0.790967  0.412086  0.121880  1
  Tb  Tb11  1  0.790967  0.587914  0.621880  1
  Y  Y12  1  0.912126  0.709233  0.121943  1
  Y  Y13  1  0.912126  0.290767  0.621943  1
  Y  Y14  1  0.087874  0.709233  0.621943  1
  Y  Y15  1  0.087874  0.290767  0.121943  1
  Ho  Ho16  1  0.000000  0.000000  0.500084  1
  Ho  Ho17  1  0.000000  0.000000  0.000084  1
  Ho  Ho18  1  0.500000  0.500000  0.000197  1
  Ho  Ho19  1  0.500000  0.500000  0.500197  1
  Ir  Ir20  1  0.847298  0.152471  0.249811  1
  Ir  Ir21  1  0.847298  0.847529  0.749811  1
  Ir  Ir22  1  0.152702  0.152471  0.749811  1
  Ir  Ir23  1  0.152702  0.847529  0.249811  1
  Ir  Ir24  1  0.652472  0.347327  0.750079  1
  Ir  Ir25  1  0.652472  0.652673  0.250079  1
  Ir  Ir26  1  0.347528  0.347327  0.250079  1
  Ir  Ir27  1  0.347528  0.652673  0.750079  1
  Ir  Ir28  1  0.500000  0.000000  0.122065  1
  Ir  Ir29  1  0.500000  0.000000  0.622065  1
  Ir  Ir30  1  0.000000  0.500000  0.878061  1
  Ir  Ir31  1  0.000000  0.500000  0.378061  1
