# generated using pymatgen
data_Dy4TmPt4
_symmetry_space_group_name_H-M   'P 1'
_cell_length_a   7.45855800
_cell_length_b   7.56136700
_cell_length_c   14.72156500
_cell_angle_alpha   90.00000000
_cell_angle_beta   90.00000000
_cell_angle_gamma   90.00000000
_symmetry_Int_Tables_number   1
_chemical_formula_structural   Dy4TmPt4
_chemical_formula_sum   'Dy16 Tm4 Pt16'
_cell_volume   830.25054566
_cell_formula_units_Z   4
loop_
 _symmetry_equiv_pos_site_id
 _symmetry_equiv_pos_as_xyz
  1  'x, y, z'
loop_
 _atom_site_type_symbol
 _atom_site_label
 _atom_site_symmetry_multiplicity
 _atom_site_fract_x
 _atom_site_fract_y
 _atom_site_fract_z
 _atom_site_occupancy
  Dy  Dy0  1  0.656749  0.168034  0.622556  1
  Dy  Dy1  1  0.156749  0.331966  0.877444  1
  Dy  Dy2  1  0.343251  0.831966  0.122556  1
  Dy  Dy3  1  0.843251  0.668034  0.377444  1
  Dy  Dy4  1  0.343251  0.831966  0.377444  1
  Dy  Dy5  1  0.843251  0.668034  0.122556  1
  Dy  Dy6  1  0.656749  0.168034  0.877444  1
  Dy  Dy7  1  0.156749  0.331966  0.622556  1
  Dy  Dy8  1  0.501886  0.679918  0.593123  1
  Dy  Dy9  1  0.001886  0.820082  0.906877  1
  Dy  Dy10  1  0.498114  0.320082  0.093123  1
  Dy  Dy11  1  0.998114  0.179918  0.406877  1
  Dy  Dy12  1  0.498114  0.320082  0.406877  1
  Dy  Dy13  1  0.998114  0.179918  0.093123  1
  Dy  Dy14  1  0.501886  0.679918  0.906877  1
  Dy  Dy15  1  0.001886  0.820082  0.593123  1
  Tm  Tm16  1  0.818897  0.512311  0.750000  1
  Tm  Tm17  1  0.318897  0.987689  0.750000  1
  Tm  Tm18  1  0.181103  0.487689  0.250000  1
  Tm  Tm19  1  0.681103  0.012311  0.250000  1
  Pt  Pt20  1  0.683834  0.968159  0.457922  1
  Pt  Pt21  1  0.183834  0.531841  0.042078  1
  Pt  Pt22  1  0.316166  0.031841  0.957922  1
  Pt  Pt23  1  0.816166  0.468159  0.542078  1
  Pt  Pt24  1  0.316166  0.031841  0.542078  1
  Pt  Pt25  1  0.816166  0.468159  0.957922  1
  Pt  Pt26  1  0.683834  0.968159  0.042078  1
  Pt  Pt27  1  0.183834  0.531841  0.457922  1
  Pt  Pt28  1  0.454479  0.388125  0.750000  1
  Pt  Pt29  1  0.954479  0.111875  0.750000  1
  Pt  Pt30  1  0.545521  0.611875  0.250000  1
  Pt  Pt31  1  0.045521  0.888125  0.250000  1
  Pt  Pt32  1  0.681786  0.855482  0.750000  1
  Pt  Pt33  1  0.181786  0.644518  0.750000  1
  Pt  Pt34  1  0.318214  0.144518  0.250000  1
  Pt  Pt35  1  0.818214  0.355482  0.250000  1
