# generated using pymatgen
data_Pr2Ga3Si2Pd3
_symmetry_space_group_name_H-M   'P 1'
_cell_length_a   6.07146939
_cell_length_b   8.54238336
_cell_length_c   8.54238300
_cell_angle_alpha   73.76284546
_cell_angle_beta   69.18367635
_cell_angle_gamma   69.18368039
_symmetry_Int_Tables_number   1
_chemical_formula_structural   Pr2Ga3Si2Pd3
_chemical_formula_sum   'Pr4 Ga6 Si4 Pd6'
_cell_volume   381.08943508
_cell_formula_units_Z   2
loop_
 _symmetry_equiv_pos_site_id
 _symmetry_equiv_pos_as_xyz
  1  'x, y, z'
loop_
 _atom_site_type_symbol
 _atom_site_label
 _atom_site_symmetry_multiplicity
 _atom_site_fract_x
 _atom_site_fract_y
 _atom_site_fract_z
 _atom_site_occupancy
  Pr  Pr0  1  0.869926  0.870349  0.389800  1
  Pr  Pr1  1  0.130074  0.129651  0.610200  1
  Pr  Pr2  1  0.369926  0.389800  0.870349  1
  Pr  Pr3  1  0.630074  0.610200  0.129651  1
  Ga  Ga4  1  0.250000  0.500000  0.500000  1
  Ga  Ga5  1  0.750000  0.500000  0.500000  1
  Ga  Ga6  1  0.019374  0.230626  0.230626  1
  Ga  Ga7  1  0.480626  0.769374  0.769374  1
  Ga  Ga8  1  0.980626  0.769374  0.769374  1
  Ga  Ga9  1  0.519374  0.230626  0.230626  1
  Si  Si10  1  0.608869  0.037730  0.744531  1
  Si  Si11  1  0.391131  0.962270  0.255469  1
  Si  Si12  1  0.108869  0.744531  0.037730  1
  Si  Si13  1  0.891131  0.255469  0.962270  1
  Pd  Pd14  1  0.250000  0.000000  0.000000  1
  Pd  Pd15  1  0.750000  0.000000  0.000000  1
  Pd  Pd16  1  0.634152  0.244023  0.487674  1
  Pd  Pd17  1  0.365848  0.755977  0.512326  1
  Pd  Pd18  1  0.134152  0.487674  0.244023  1
  Pd  Pd19  1  0.865848  0.512326  0.755977  1
