# generated using pymatgen
data_MgZrNi12P7
_symmetry_space_group_name_H-M   'P 1'
_cell_length_a   8.99752100
_cell_length_b   8.99752146
_cell_length_c   3.58517400
_cell_angle_alpha   90.00000000
_cell_angle_beta   90.00000000
_cell_angle_gamma   120.00000198
_symmetry_Int_Tables_number   1
_chemical_formula_structural   MgZrNi12P7
_chemical_formula_sum   'Mg1 Zr1 Ni12 P7'
_cell_volume   251.35447486
_cell_formula_units_Z   1
loop_
 _symmetry_equiv_pos_site_id
 _symmetry_equiv_pos_as_xyz
  1  'x, y, z'
loop_
 _atom_site_type_symbol
 _atom_site_label
 _atom_site_symmetry_multiplicity
 _atom_site_fract_x
 _atom_site_fract_y
 _atom_site_fract_z
 _atom_site_occupancy
  Mg  Mg0  1  0.333333  0.666667  0.500000  1
  Zr  Zr1  1  0.000000  0.000000  0.000000  1
  Ni  Ni2  1  0.292862  0.396340  0.000000  1
  Ni  Ni3  1  0.881736  0.458584  0.500000  1
  Ni  Ni4  1  0.103477  0.707138  0.000000  1
  Ni  Ni5  1  0.541416  0.423153  0.500000  1
  Ni  Ni6  1  0.389280  0.177178  0.000000  1
  Ni  Ni7  1  0.787898  0.610720  0.000000  1
  Ni  Ni8  1  0.822822  0.212102  0.000000  1
  Ni  Ni9  1  0.234745  0.948685  0.500000  1
  Ni  Ni10  1  0.051315  0.286060  0.500000  1
  Ni  Ni11  1  0.713940  0.765255  0.500000  1
  Ni  Ni12  1  0.576847  0.118264  0.500000  1
  Ni  Ni13  1  0.603660  0.896523  0.000000  1
  P  P14  1  0.666667  0.333333  0.000000  1
  P  P15  1  0.078887  0.452927  0.000000  1
  P  P16  1  0.253759  0.213182  0.500000  1
  P  P17  1  0.786818  0.040577  0.500000  1
  P  P18  1  0.959423  0.746241  0.500000  1
  P  P19  1  0.547073  0.625960  0.000000  1
  P  P20  1  0.374040  0.921113  0.000000  1
