# generated using pymatgen
data_Tm2Mn3Co9As7
_symmetry_space_group_name_H-M   'P 1'
_cell_length_a   3.72112400
_cell_length_b   9.44420883
_cell_length_c   9.44420900
_cell_angle_alpha   119.99999711
_cell_angle_beta   90.00000000
_cell_angle_gamma   90.00000000
_symmetry_Int_Tables_number   1
_chemical_formula_structural   Tm2Mn3Co9As7
_chemical_formula_sum   'Tm2 Mn3 Co9 As7'
_cell_volume   287.43255646
_cell_formula_units_Z   1
loop_
 _symmetry_equiv_pos_site_id
 _symmetry_equiv_pos_as_xyz
  1  'x, y, z'
loop_
 _atom_site_type_symbol
 _atom_site_label
 _atom_site_symmetry_multiplicity
 _atom_site_fract_x
 _atom_site_fract_y
 _atom_site_fract_z
 _atom_site_occupancy
  Tm  Tm0  1  0.000000  0.666667  0.333333  1
  Tm  Tm1  1  0.500000  0.333333  0.666667  1
  Mn  Mn2  1  0.500000  0.777623  0.895421  1
  Mn  Mn3  1  0.500000  0.117798  0.222377  1
  Mn  Mn4  1  0.500000  0.104579  0.882202  1
  Co  Co5  1  0.000000  0.570190  0.939808  1
  Co  Co6  1  0.000000  0.369618  0.429810  1
  Co  Co7  1  0.000000  0.060192  0.630382  1
  Co  Co8  1  0.000000  0.881298  0.158974  1
  Co  Co9  1  0.000000  0.277676  0.118702  1
  Co  Co10  1  0.000000  0.841026  0.722324  1
  Co  Co11  1  0.500000  0.948786  0.384922  1
  Co  Co12  1  0.500000  0.436136  0.051214  1
  Co  Co13  1  0.500000  0.615078  0.563864  1
  As  As14  1  0.000000  0.000000  0.000000  1
  As  As15  1  0.500000  0.709572  0.119817  1
  As  As16  1  0.500000  0.410246  0.290428  1
  As  As17  1  0.500000  0.880183  0.589754  1
  As  As18  1  0.000000  0.583814  0.699329  1
  As  As19  1  0.000000  0.115515  0.416186  1
  As  As20  1  0.000000  0.300671  0.884485  1
