# generated using pymatgen
data_Pm2Os3Rh
_symmetry_space_group_name_H-M   'P 1'
_cell_length_a   5.27731843
_cell_length_b   5.27659118
_cell_length_c   5.59228989
_cell_angle_alpha   61.85416989
_cell_angle_beta   61.86336892
_cell_angle_gamma   60.00944308
_symmetry_Int_Tables_number   1
_chemical_formula_structural   Pm2Os3Rh
_chemical_formula_sum   'Pm2 Os3 Rh1'
_cell_volume   113.11511520
_cell_formula_units_Z   1
loop_
 _symmetry_equiv_pos_site_id
 _symmetry_equiv_pos_as_xyz
  1  'x, y, z'
loop_
 _atom_site_type_symbol
 _atom_site_label
 _atom_site_symmetry_multiplicity
 _atom_site_fract_x
 _atom_site_fract_y
 _atom_site_fract_z
 _atom_site_occupancy
  Pm  Pm0  1  0.752393  0.752402  0.742798  1
  Pm  Pm1  1  0.997607  0.997598  0.007202  1
  Os  Os2  1  0.875000  0.375000  0.375000  1
  Os  Os3  1  0.375000  0.875000  0.375000  1
  Os  Os4  1  0.375000  0.375000  0.375000  1
  Rh  Rh5  1  0.375000  0.375000  0.875000  1
