# generated using pymatgen
data_TmHf4Bi3F28
_symmetry_space_group_name_H-M   'P 1'
_cell_length_a   5.83128128
_cell_length_b   9.30579747
_cell_length_c   12.42010400
_cell_angle_alpha   61.89909385
_cell_angle_beta   89.96205357
_cell_angle_gamma   90.01406875
_symmetry_Int_Tables_number   1
_chemical_formula_structural   TmHf4Bi3F28
_chemical_formula_sum   'Tm1 Hf4 Bi3 F28'
_cell_volume   594.52485993
_cell_formula_units_Z   1
loop_
 _symmetry_equiv_pos_site_id
 _symmetry_equiv_pos_as_xyz
  1  'x, y, z'
loop_
 _atom_site_type_symbol
 _atom_site_label
 _atom_site_symmetry_multiplicity
 _atom_site_fract_x
 _atom_site_fract_y
 _atom_site_fract_z
 _atom_site_occupancy
  Tm  Tm0  1  0.756790  0.812304  0.764567  1
  Hf  Hf1  1  0.744767  0.269466  0.458358  1
  Hf  Hf2  1  0.243705  0.724639  0.039130  1
  Hf  Hf3  1  0.257614  0.726033  0.550040  1
  Hf  Hf4  1  0.756566  0.280582  0.952703  1
  Bi  Bi5  1  0.741121  0.815308  0.263087  1
  Bi  Bi6  1  0.242294  0.181851  0.237100  1
  Bi  Bi7  1  0.257627  0.175915  0.736741  1
  F  F8  1  0.466851  0.714946  0.918969  1
  F  F9  1  0.958335  0.286534  0.577740  1
  F  F10  1  0.543770  0.290881  0.075343  1
  F  F11  1  0.043023  0.714281  0.429061  1
  F  F12  1  0.459640  0.278075  0.547561  1
  F  F13  1  0.963084  0.722730  0.942309  1
  F  F14  1  0.536820  0.722336  0.454633  1
  F  F15  1  0.038920  0.284460  0.045318  1
  F  F16  1  0.763928  0.526468  0.857472  1
  F  F17  1  0.267544  0.485370  0.643229  1
  F  F18  1  0.230166  0.483828  0.136565  1
  F  F19  1  0.732108  0.512657  0.362475  1
  F  F20  1  0.759913  0.035048  0.056635  1
  F  F21  1  0.259887  0.971614  0.444775  1
  F  F22  1  0.239585  0.970845  0.941560  1
  F  F23  1  0.741660  0.025296  0.562932  1
  F  F24  1  0.994863  0.739774  0.652074  1
  F  F25  1  0.492317  0.265071  0.855457  1
  F  F26  1  0.011128  0.262726  0.357695  1
  F  F27  1  0.507501  0.736700  0.138953  1
  F  F28  1  0.037989  0.748057  0.161495  1
  F  F29  1  0.541800  0.249128  0.333551  1
  F  F30  1  0.960601  0.255569  0.831037  1
  F  F31  1  0.473071  0.751350  0.670463  1
  F  F32  1  0.418395  0.968941  0.231574  1
  F  F33  1  0.916575  0.027474  0.268597  1
  F  F34  1  0.575740  0.015247  0.766551  1
  F  F35  1  0.064301  0.968499  0.734249  1
