# generated using pymatgen
data_Ho10Cd3In5Pd4
_symmetry_space_group_name_H-M   'P 1'
_cell_length_a   3.59625700
_cell_length_b   8.11006002
_cell_length_c   18.34212404
_cell_angle_alpha   89.99241305
_cell_angle_beta   90.00000000
_cell_angle_gamma   90.00000000
_symmetry_Int_Tables_number   1
_chemical_formula_structural   Ho10Cd3In5Pd4
_chemical_formula_sum   'Ho10 Cd3 In5 Pd4'
_cell_volume   534.96381917
_cell_formula_units_Z   1
loop_
 _symmetry_equiv_pos_site_id
 _symmetry_equiv_pos_as_xyz
  1  'x, y, z'
loop_
 _atom_site_type_symbol
 _atom_site_label
 _atom_site_symmetry_multiplicity
 _atom_site_fract_x
 _atom_site_fract_y
 _atom_site_fract_z
 _atom_site_occupancy
  Ho  Ho0  1  0.000000  0.500521  0.499423  1
  Ho  Ho1  1  0.000000  0.999672  0.999922  1
  Ho  Ho2  1  0.000000  0.741791  0.281031  1
  Ho  Ho3  1  0.000000  0.260341  0.720167  1
  Ho  Ho4  1  0.000000  0.757262  0.780987  1
  Ho  Ho5  1  0.000000  0.241449  0.219117  1
  Ho  Ho6  1  0.000000  0.612112  0.083588  1
  Ho  Ho7  1  0.000000  0.387823  0.916920  1
  Ho  Ho8  1  0.000000  0.885021  0.583554  1
  Ho  Ho9  1  0.000000  0.112733  0.416067  1
  Cd  Cd10  1  0.500000  0.712385  0.931148  1
  Cd  Cd11  1  0.500000  0.287691  0.068852  1
  Cd  Cd12  1  0.500000  0.787119  0.431234  1
  In  In13  1  0.500000  0.211293  0.568584  1
  In  In14  1  0.500000  0.580348  0.648764  1
  In  In15  1  0.500000  0.422303  0.351424  1
  In  In16  1  0.500000  0.922149  0.147659  1
  In  In17  1  0.500000  0.078158  0.851845  1
  Pd  Pd18  1  0.500000  0.524057  0.196428  1
  Pd  Pd19  1  0.500000  0.475452  0.803473  1
  Pd  Pd20  1  0.500000  0.976049  0.696214  1
  Pd  Pd21  1  0.500000  0.024271  0.303597  1
