# generated using pymatgen
data_TbY2Th11Os6
_symmetry_space_group_name_H-M   'P 1'
_cell_length_a   9.88541191
_cell_length_b   10.00139824
_cell_length_c   6.38546065
_cell_angle_alpha   89.99123873
_cell_angle_beta   90.03823340
_cell_angle_gamma   120.23335724
_symmetry_Int_Tables_number   1
_chemical_formula_structural   TbY2Th11Os6
_chemical_formula_sum   'Tb1 Y2 Th11 Os6'
_cell_volume   545.44656563
_cell_formula_units_Z   1
loop_
 _symmetry_equiv_pos_site_id
 _symmetry_equiv_pos_as_xyz
  1  'x, y, z'
loop_
 _atom_site_type_symbol
 _atom_site_label
 _atom_site_symmetry_multiplicity
 _atom_site_fract_x
 _atom_site_fract_y
 _atom_site_fract_z
 _atom_site_occupancy
  Tb  Tb0  1  0.460589  0.535782  0.298502  1
  Y  Y1  1  0.072705  0.535473  0.299656  1
  Y  Y2  1  0.928136  0.463461  0.798715  1
  Th  Th3  1  0.252880  0.128403  0.510845  1
  Th  Th4  1  0.541103  0.080177  0.796326  1
  Th  Th5  1  0.745553  0.872151  0.013374  1
  Th  Th6  1  0.667033  0.333604  0.272981  1
  Th  Th7  1  0.126522  0.870628  0.009503  1
  Th  Th8  1  0.460694  0.919253  0.296460  1
  Th  Th9  1  0.537807  0.465926  0.800417  1
  Th  Th10  1  0.874706  0.129277  0.512183  1
  Th  Th11  1  0.124588  0.253741  0.014025  1
  Th  Th12  1  0.874104  0.746585  0.509594  1
  Th  Th13  1  0.332652  0.665441  0.769784  1
  Os  Os14  1  0.812435  0.629561  0.047158  1
  Os  Os15  1  0.812599  0.182010  0.047793  1
  Os  Os16  1  0.630412  0.814715  0.546451  1
  Os  Os17  1  0.371511  0.187026  0.041411  1
  Os  Os18  1  0.185574  0.368230  0.554492  1
  Os  Os19  1  0.188399  0.818554  0.544326  1
