# generated using pymatgen
data_Sm4Ta3NbN8
_symmetry_space_group_name_H-M   'P 1'
_cell_length_a   3.34081300
_cell_length_b   5.76733092
_cell_length_c   11.04258091
_cell_angle_alpha   90.10588402
_cell_angle_beta   90.00000000
_cell_angle_gamma   90.00000000
_symmetry_Int_Tables_number   1
_chemical_formula_structural   Sm4Ta3NbN8
_chemical_formula_sum   'Sm4 Ta3 Nb1 N8'
_cell_volume   212.76338280
_cell_formula_units_Z   1
loop_
 _symmetry_equiv_pos_site_id
 _symmetry_equiv_pos_as_xyz
  1  'x, y, z'
loop_
 _atom_site_type_symbol
 _atom_site_label
 _atom_site_symmetry_multiplicity
 _atom_site_fract_x
 _atom_site_fract_y
 _atom_site_fract_z
 _atom_site_occupancy
  Sm  Sm0  1  0.250000  0.587717  0.861900  1
  Sm  Sm1  1  0.750000  0.413314  0.138539  1
  Sm  Sm2  1  0.750000  0.916000  0.363233  1
  Sm  Sm3  1  0.250000  0.086895  0.637039  1
  Ta  Ta4  1  0.250000  0.916923  0.111123  1
  Ta  Ta5  1  0.750000  0.082906  0.887990  1
  Ta  Ta6  1  0.750000  0.581216  0.608466  1
  Nb  Nb7  1  0.250000  0.418240  0.390872  1
  N  N8  1  0.250000  0.664348  0.243841  1
  N  N9  1  0.750000  0.337800  0.755069  1
  N  N10  1  0.750000  0.836397  0.746387  1
  N  N11  1  0.250000  0.159751  0.250948  1
  N  N12  1  0.250000  0.733892  0.513018  1
  N  N13  1  0.750000  0.264833  0.492752  1
  N  N14  1  0.750000  0.770825  0.011198  1
  N  N15  1  0.250000  0.228943  0.987625  1
