# generated using pymatgen
data_Sr8NbMo3O16
_symmetry_space_group_name_H-M   'P 1'
_cell_length_a   5.77274520
_cell_length_b   5.77274454
_cell_length_c   12.74911937
_cell_angle_alpha   90.06578149
_cell_angle_beta   89.93421831
_cell_angle_gamma   89.56489030
_symmetry_Int_Tables_number   1
_chemical_formula_structural   Sr8NbMo3O16
_chemical_formula_sum   'Sr8 Nb1 Mo3 O16'
_cell_volume   424.84627541
_cell_formula_units_Z   1
loop_
 _symmetry_equiv_pos_site_id
 _symmetry_equiv_pos_as_xyz
  1  'x, y, z'
loop_
 _atom_site_type_symbol
 _atom_site_label
 _atom_site_symmetry_multiplicity
 _atom_site_fract_x
 _atom_site_fract_y
 _atom_site_fract_z
 _atom_site_occupancy
  Sr  Sr0  1  0.261679  0.765616  0.101793  1
  Sr  Sr1  1  0.263271  0.236729  0.601524  1
  Sr  Sr2  1  0.736827  0.763173  0.602584  1
  Sr  Sr3  1  0.734384  0.238321  0.101793  1
  Sr  Sr4  1  0.765616  0.261679  0.398207  1
  Sr  Sr5  1  0.763173  0.736827  0.897416  1
  Sr  Sr6  1  0.236729  0.263271  0.898476  1
  Sr  Sr7  1  0.238321  0.734384  0.398207  1
  Nb  Nb8  1  0.750000  0.750000  0.250000  1
  Mo  Mo9  1  0.250000  0.750000  0.750000  1
  Mo  Mo10  1  0.250000  0.250000  0.250000  1
  Mo  Mo11  1  0.750000  0.250000  0.750000  1
  O  O12  1  0.289030  0.210970  0.082250  1
  O  O13  1  0.286754  0.784990  0.586691  1
  O  O14  1  0.501247  0.998753  0.778600  1
  O  O15  1  0.507671  0.992329  0.273167  1
  O  O16  1  0.500474  0.500474  0.750000  1
  O  O17  1  0.507252  0.507252  0.250000  1
  O  O18  1  0.715010  0.213246  0.586691  1
  O  O19  1  0.712847  0.787153  0.089811  1
  O  O20  1  0.784990  0.286754  0.913309  1
  O  O21  1  0.787153  0.712847  0.410189  1
  O  O22  1  0.992748  0.992748  0.250000  1
  O  O23  1  0.992329  0.507671  0.226833  1
  O  O24  1  0.999526  0.999526  0.750000  1
  O  O25  1  0.998753  0.501247  0.721400  1
  O  O26  1  0.213246  0.715010  0.913309  1
  O  O27  1  0.210970  0.289030  0.417750  1
