# generated using pymatgen
data_LaPr2Rh9
_symmetry_space_group_name_H-M   'P 1'
_cell_length_a   5.36666500
_cell_length_b   5.36709826
_cell_length_c   17.74314000
_cell_angle_alpha   90.00000000
_cell_angle_beta   90.00000000
_cell_angle_gamma   119.99819440
_symmetry_Int_Tables_number   1
_chemical_formula_structural   LaPr2Rh9
_chemical_formula_sum   'La2 Pr4 Rh18'
_cell_volume   442.60166673
_cell_formula_units_Z   2
loop_
 _symmetry_equiv_pos_site_id
 _symmetry_equiv_pos_as_xyz
  1  'x, y, z'
loop_
 _atom_site_type_symbol
 _atom_site_label
 _atom_site_symmetry_multiplicity
 _atom_site_fract_x
 _atom_site_fract_y
 _atom_site_fract_z
 _atom_site_occupancy
  La  La0  1  0.333334  0.666663  0.750000  1
  La  La1  1  0.666666  0.333337  0.250000  1
  Pr  Pr2  1  0.333319  0.666639  0.957632  1
  Pr  Pr3  1  0.666681  0.333361  0.042368  1
  Pr  Pr4  1  0.666681  0.333361  0.457632  1
  Pr  Pr5  1  0.333319  0.666639  0.542368  1
  Rh  Rh6  1  0.166517  0.833506  0.372555  1
  Rh  Rh7  1  0.166521  0.333051  0.372537  1
  Rh  Rh8  1  0.666970  0.833500  0.372549  1
  Rh  Rh9  1  0.833483  0.166494  0.627445  1
  Rh  Rh10  1  0.833479  0.666949  0.627463  1
  Rh  Rh11  1  0.333030  0.166500  0.627451  1
  Rh  Rh12  1  0.833483  0.166494  0.872555  1
  Rh  Rh13  1  0.833479  0.666949  0.872537  1
  Rh  Rh14  1  0.333030  0.166500  0.872549  1
  Rh  Rh15  1  0.166517  0.833506  0.127445  1
  Rh  Rh16  1  0.166521  0.333051  0.127463  1
  Rh  Rh17  1  0.666970  0.833500  0.127451  1
  Rh  Rh18  1  0.333358  0.666782  0.250000  1
  Rh  Rh19  1  0.666642  0.333218  0.750000  1
  Rh  Rh20  1  0.999974  0.999931  0.250000  1
  Rh  Rh21  1  0.000026  0.000069  0.750000  1
  Rh  Rh22  1  0.000000  0.000000  0.500000  1
  Rh  Rh23  1  0.000000  0.000000  0.000000  1
