# generated using pymatgen
data_Ba5Sb3Au
_symmetry_space_group_name_H-M   'P 1'
_cell_length_a   10.19863200
_cell_length_b   10.19863252
_cell_length_c   8.02838300
_cell_angle_alpha   90.00000000
_cell_angle_beta   90.00000000
_cell_angle_gamma   119.99999830
_symmetry_Int_Tables_number   1
_chemical_formula_structural   Ba5Sb3Au
_chemical_formula_sum   'Ba10 Sb6 Au2'
_cell_volume   723.17363855
_cell_formula_units_Z   2
loop_
 _symmetry_equiv_pos_site_id
 _symmetry_equiv_pos_as_xyz
  1  'x, y, z'
loop_
 _atom_site_type_symbol
 _atom_site_label
 _atom_site_symmetry_multiplicity
 _atom_site_fract_x
 _atom_site_fract_y
 _atom_site_fract_z
 _atom_site_occupancy
  Ba  Ba0  1  0.262456  0.000000  0.250000  1
  Ba  Ba1  1  0.000000  0.737544  0.750000  1
  Ba  Ba2  1  0.737544  0.737544  0.250000  1
  Ba  Ba3  1  0.262456  0.262456  0.750000  1
  Ba  Ba4  1  0.737544  0.000000  0.750000  1
  Ba  Ba5  1  0.000000  0.262456  0.250000  1
  Ba  Ba6  1  0.666667  0.333333  0.500000  1
  Ba  Ba7  1  0.333333  0.666667  0.000000  1
  Ba  Ba8  1  0.333333  0.666667  0.500000  1
  Ba  Ba9  1  0.666667  0.333333  0.000000  1
  Sb  Sb10  1  0.608941  0.608941  0.750000  1
  Sb  Sb11  1  0.000000  0.608941  0.250000  1
  Sb  Sb12  1  0.608941  0.000000  0.250000  1
  Sb  Sb13  1  0.391059  0.000000  0.750000  1
  Sb  Sb14  1  0.000000  0.391059  0.750000  1
  Sb  Sb15  1  0.391059  0.391059  0.250000  1
  Au  Au16  1  0.000000  0.000000  0.500000  1
  Au  Au17  1  0.000000  0.000000  0.000000  1
