# generated using pymatgen
data_Dy16LuSc3Sn16
_symmetry_space_group_name_H-M   'P 1'
_cell_length_a   7.94179300
_cell_length_b   8.09926100
_cell_length_c   15.35490200
_cell_angle_alpha   90.00000000
_cell_angle_beta   90.00000000
_cell_angle_gamma   90.00097624
_symmetry_Int_Tables_number   1
_chemical_formula_structural   Dy16LuSc3Sn16
_chemical_formula_sum   'Dy16 Lu1 Sc3 Sn16'
_cell_volume   987.66805339
_cell_formula_units_Z   1
loop_
 _symmetry_equiv_pos_site_id
 _symmetry_equiv_pos_as_xyz
  1  'x, y, z'
loop_
 _atom_site_type_symbol
 _atom_site_label
 _atom_site_symmetry_multiplicity
 _atom_site_fract_x
 _atom_site_fract_y
 _atom_site_fract_z
 _atom_site_occupancy
  Dy  Dy0  1  0.366876  0.838473  0.877430  1
  Dy  Dy1  1  0.865969  0.662517  0.622391  1
  Dy  Dy2  1  0.633422  0.161675  0.376469  1
  Dy  Dy3  1  0.133559  0.338074  0.123927  1
  Dy  Dy4  1  0.633422  0.161675  0.123531  1
  Dy  Dy5  1  0.133559  0.338074  0.376073  1
  Dy  Dy6  1  0.366876  0.838473  0.622570  1
  Dy  Dy7  1  0.865969  0.662517  0.877609  1
  Dy  Dy8  1  0.521414  0.320180  0.903573  1
  Dy  Dy9  1  0.020881  0.178854  0.596414  1
  Dy  Dy10  1  0.478619  0.679481  0.402575  1
  Dy  Dy11  1  0.978596  0.820348  0.097112  1
  Dy  Dy12  1  0.478619  0.679481  0.097425  1
  Dy  Dy13  1  0.978596  0.820348  0.402888  1
  Dy  Dy14  1  0.521414  0.320180  0.596427  1
  Dy  Dy15  1  0.020881  0.178854  0.903586  1
  Lu  Lu16  1  0.197010  0.502967  0.750000  1
  Sc  Sc17  1  0.698206  0.996650  0.750000  1
  Sc  Sc18  1  0.802175  0.496896  0.250000  1
  Sc  Sc19  1  0.302247  0.002725  0.250000  1
  Sn  Sn20  1  0.293660  0.035140  0.044749  1
  Sn  Sn21  1  0.793649  0.464545  0.455258  1
  Sn  Sn22  1  0.706040  0.965215  0.543753  1
  Sn  Sn23  1  0.205968  0.536414  0.958147  1
  Sn  Sn24  1  0.706040  0.965215  0.956247  1
  Sn  Sn25  1  0.205968  0.536414  0.541853  1
  Sn  Sn26  1  0.293660  0.035140  0.455251  1
  Sn  Sn27  1  0.793649  0.464545  0.044742  1
  Sn  Sn28  1  0.563650  0.619365  0.750000  1
  Sn  Sn29  1  0.058604  0.885422  0.750000  1
  Sn  Sn30  1  0.440833  0.383530  0.250000  1
  Sn  Sn31  1  0.940510  0.116189  0.250000  1
  Sn  Sn32  1  0.333710  0.149185  0.750000  1
  Sn  Sn33  1  0.827415  0.345178  0.750000  1
  Sn  Sn34  1  0.669261  0.846949  0.250000  1
  Sn  Sn35  1  0.169068  0.653116  0.250000  1
