# generated using pymatgen
data_Hf4Al3TcN
_symmetry_space_group_name_H-M   'P 1'
_cell_length_a   7.98181400
_cell_length_b   7.98181563
_cell_length_c   5.41754900
_cell_angle_alpha   90.00000000
_cell_angle_beta   90.00000000
_cell_angle_gamma   120.00000152
_symmetry_Int_Tables_number   1
_chemical_formula_structural   Hf4Al3TcN
_chemical_formula_sum   'Hf8 Al6 Tc2 N2'
_cell_volume   298.90746980
_cell_formula_units_Z   2
loop_
 _symmetry_equiv_pos_site_id
 _symmetry_equiv_pos_as_xyz
  1  'x, y, z'
loop_
 _atom_site_type_symbol
 _atom_site_label
 _atom_site_symmetry_multiplicity
 _atom_site_fract_x
 _atom_site_fract_y
 _atom_site_fract_z
 _atom_site_occupancy
  Hf  Hf0  1  0.227528  0.000000  0.252384  1
  Hf  Hf1  1  0.000000  0.227528  0.252384  1
  Hf  Hf2  1  0.772472  0.772472  0.252384  1
  Hf  Hf3  1  0.666667  0.333333  0.500000  1
  Hf  Hf4  1  0.333333  0.666667  0.500000  1
  Hf  Hf5  1  0.772472  0.000000  0.747616  1
  Hf  Hf6  1  0.000000  0.772472  0.747616  1
  Hf  Hf7  1  0.227528  0.227528  0.747616  1
  Al  Al8  1  0.586906  0.000000  0.222411  1
  Al  Al9  1  0.000000  0.586906  0.222411  1
  Al  Al10  1  0.413094  0.413094  0.222411  1
  Al  Al11  1  0.413094  0.000000  0.777589  1
  Al  Al12  1  0.000000  0.413094  0.777589  1
  Al  Al13  1  0.586906  0.586906  0.777589  1
  Tc  Tc14  1  0.666667  0.333333  0.000000  1
  Tc  Tc15  1  0.333333  0.666667  0.000000  1
  N  N16  1  0.000000  0.000000  0.000000  1
  N  N17  1  0.000000  0.000000  0.500000  1
