# generated using pymatgen
data_Er8Zn7Si8Pd
_symmetry_space_group_name_H-M   'P 1'
_cell_length_a   4.16114800
_cell_length_b   7.20993528
_cell_length_c   15.38139147
_cell_angle_alpha   90.14879423
_cell_angle_beta   90.00000000
_cell_angle_gamma   90.00000000
_symmetry_Int_Tables_number   1
_chemical_formula_structural   Er8Zn7Si8Pd
_chemical_formula_sum   'Er8 Zn7 Si8 Pd1'
_cell_volume   461.46491786
_cell_formula_units_Z   1
loop_
 _symmetry_equiv_pos_site_id
 _symmetry_equiv_pos_as_xyz
  1  'x, y, z'
loop_
 _atom_site_type_symbol
 _atom_site_label
 _atom_site_symmetry_multiplicity
 _atom_site_fract_x
 _atom_site_fract_y
 _atom_site_fract_z
 _atom_site_occupancy
  Er  Er0  1  0.000000  0.254714  0.997712  1
  Er  Er1  1  0.500000  0.735537  0.504990  1
  Er  Er2  1  0.000000  0.264315  0.503521  1
  Er  Er3  1  0.500000  0.746081  0.997531  1
  Er  Er4  1  0.000000  0.244776  0.250568  1
  Er  Er5  1  0.500000  0.755819  0.247997  1
  Er  Er6  1  0.000000  0.245037  0.745623  1
  Er  Er7  1  0.500000  0.753575  0.745921  1
  Zn  Zn8  1  0.500000  0.083446  0.606692  1
  Zn  Zn9  1  0.000000  0.917073  0.889667  1
  Zn  Zn10  1  0.500000  0.080160  0.395265  1
  Zn  Zn11  1  0.000000  0.917020  0.109275  1
  Zn  Zn12  1  0.500000  0.417346  0.115815  1
  Zn  Zn13  1  0.000000  0.584690  0.372834  1
  Zn  Zn14  1  0.500000  0.416710  0.882425  1
  Si  Si15  1  0.000000  0.919505  0.631902  1
  Si  Si16  1  0.500000  0.082932  0.869472  1
  Si  Si17  1  0.000000  0.915416  0.370565  1
  Si  Si18  1  0.500000  0.083744  0.131595  1
  Si  Si19  1  0.000000  0.584196  0.132132  1
  Si  Si20  1  0.500000  0.416650  0.371980  1
  Si  Si21  1  0.000000  0.584225  0.867857  1
  Si  Si22  1  0.500000  0.412309  0.634954  1
  Pd  Pd23  1  0.000000  0.584723  0.623707  1
