# generated using pymatgen
data_ReSeSBr4
_symmetry_space_group_name_H-M   'P 1'
_cell_length_a   10.81307748
_cell_length_b   10.81307717
_cell_length_c   10.81307649
_cell_angle_alpha   115.48271593
_cell_angle_beta   115.48271288
_cell_angle_gamma   98.02021231
_symmetry_Int_Tables_number   1
_chemical_formula_structural   ReSeSBr4
_chemical_formula_sum   'Re4 Se4 S4 Br16'
_cell_volume   944.98639741
_cell_formula_units_Z   4
loop_
 _symmetry_equiv_pos_site_id
 _symmetry_equiv_pos_as_xyz
  1  'x, y, z'
loop_
 _atom_site_type_symbol
 _atom_site_label
 _atom_site_symmetry_multiplicity
 _atom_site_fract_x
 _atom_site_fract_y
 _atom_site_fract_z
 _atom_site_occupancy
  Re  Re0  1  0.685110  0.540334  0.085947  1
  Re  Re1  1  0.454386  0.599163  0.914053  1
  Re  Re2  1  0.400837  0.314890  0.855223  1
  Re  Re3  1  0.459666  0.545614  0.144777  1
  Se  Se4  1  0.894232  0.436949  0.087996  1
  Se  Se5  1  0.348954  0.806236  0.912004  1
  Se  Se6  1  0.193764  0.105768  0.542717  1
  Se  Se7  1  0.563051  0.651046  0.457283  1
  S  S8  1  0.549918  0.434795  0.802653  1
  S  S9  1  0.632142  0.747265  0.197347  1
  S  S10  1  0.252735  0.450082  0.884876  1
  S  S11  1  0.565205  0.367858  0.115124  1
  Br  Br12  1  0.854272  0.309490  0.819184  1
  Br  Br13  1  0.490306  0.035088  0.180816  1
  Br  Br14  1  0.964912  0.145728  0.455218  1
  Br  Br15  1  0.690510  0.509694  0.544782  1
  Br  Br16  1  0.895555  0.701605  0.095177  1
  Br  Br17  1  0.606427  0.800378  0.904823  1
  Br  Br18  1  0.199622  0.104445  0.806050  1
  Br  Br19  1  0.298395  0.393573  0.193950  1
  Br  Br20  1  0.905632  0.633720  0.377032  1
  Br  Br21  1  0.256687  0.528599  0.622968  1
  Br  Br22  1  0.471401  0.094368  0.728088  1
  Br  Br23  1  0.366280  0.743313  0.271912  1
  Br  Br24  1  0.863576  0.228655  0.117814  1
  Br  Br25  1  0.110840  0.745761  0.882186  1
  Br  Br26  1  0.254239  0.136424  0.365079  1
  Br  Br27  1  0.771345  0.889160  0.634921  1
