# generated using pymatgen
data_Li4I(BrO4)3
_symmetry_space_group_name_H-M   'P 1'
_cell_length_a   5.55665029
_cell_length_b   5.76702995
_cell_length_c   9.28315166
_cell_angle_alpha   89.82939889
_cell_angle_beta   90.18323682
_cell_angle_gamma   90.15275588
_symmetry_Int_Tables_number   1
_chemical_formula_structural   Li4I(BrO4)3
_chemical_formula_sum   'Li4 I1 Br3 O12'
_cell_volume   297.47812753
_cell_formula_units_Z   1
loop_
 _symmetry_equiv_pos_site_id
 _symmetry_equiv_pos_as_xyz
  1  'x, y, z'
loop_
 _atom_site_type_symbol
 _atom_site_label
 _atom_site_symmetry_multiplicity
 _atom_site_fract_x
 _atom_site_fract_y
 _atom_site_fract_z
 _atom_site_occupancy
  Li  Li0  1  0.978166  0.411931  0.482281  1
  Li  Li1  1  0.972231  0.089244  0.974622  1
  Li  Li2  1  0.460814  0.586734  0.519221  1
  Li  Li3  1  0.458307  0.909956  0.019676  1
  I  I4  1  0.025820  0.922990  0.317486  1
  Br  Br5  1  0.549568  0.425516  0.184598  1
  Br  Br6  1  0.049571  0.575139  0.817197  1
  Br  Br7  1  0.549789  0.073447  0.682033  1
  O  O8  1  0.677223  0.472440  0.347572  1
  O  O9  1  0.165643  0.145044  0.428777  1
  O  O10  1  0.172852  0.978958  0.145139  1
  O  O11  1  0.664608  0.862375  0.576862  1
  O  O12  1  0.661802  0.639665  0.080448  1
  O  O13  1  0.171686  0.526323  0.654284  1
  O  O14  1  0.187357  0.663644  0.375720  1
  O  O15  1  0.685731  0.181034  0.127245  1
  O  O16  1  0.682162  0.320642  0.625979  1
  O  O17  1  0.183333  0.822869  0.870601  1
  O  O18  1  0.671732  0.025984  0.846632  1
  O  O19  1  0.164408  0.366066  0.923628  1
