# generated using pymatgen
data_Cs3Pr(Si2O5)3
_symmetry_space_group_name_H-M   'P 1'
_cell_length_a   7.38990200
_cell_length_b   14.81145300
_cell_length_c   16.03808200
_cell_angle_alpha   90.00000000
_cell_angle_beta   90.00000000
_cell_angle_gamma   90.00000000
_symmetry_Int_Tables_number   1
_chemical_formula_structural   Cs3Pr(Si2O5)3
_chemical_formula_sum   'Cs12 Pr4 Si24 O60'
_cell_volume   1755.45125076
_cell_formula_units_Z   4
loop_
 _symmetry_equiv_pos_site_id
 _symmetry_equiv_pos_as_xyz
  1  'x, y, z'
loop_
 _atom_site_type_symbol
 _atom_site_label
 _atom_site_symmetry_multiplicity
 _atom_site_fract_x
 _atom_site_fract_y
 _atom_site_fract_z
 _atom_site_occupancy
  Cs  Cs0  1  0.500000  0.551257  0.371982  1
  Cs  Cs1  1  0.500000  0.599514  0.912648  1
  Cs  Cs2  1  0.500000  0.400486  0.087352  1
  Cs  Cs3  1  0.500000  0.099514  0.587352  1
  Cs  Cs4  1  0.000000  0.610970  0.715884  1
  Cs  Cs5  1  0.000000  0.389030  0.284116  1
  Cs  Cs6  1  0.000000  0.110970  0.784116  1
  Cs  Cs7  1  0.000000  0.889030  0.215884  1
  Cs  Cs8  1  0.500000  0.900486  0.412648  1
  Cs  Cs9  1  0.500000  0.051257  0.128018  1
  Cs  Cs10  1  0.500000  0.448743  0.628018  1
  Cs  Cs11  1  0.500000  0.948743  0.871982  1
  Pr  Pr12  1  0.000000  0.500000  0.000000  1
  Pr  Pr13  1  0.000000  0.000000  0.500000  1
  Pr  Pr14  1  0.000000  0.500000  0.500000  1
  Pr  Pr15  1  0.000000  0.000000  0.000000  1
  Si  Si16  1  0.712954  0.198346  0.959360  1
  Si  Si17  1  0.712954  0.801654  0.040640  1
  Si  Si18  1  0.287046  0.698346  0.540640  1
  Si  Si19  1  0.287046  0.301654  0.459359  1
  Si  Si20  1  0.287046  0.801654  0.040640  1
  Si  Si21  1  0.287046  0.198346  0.959360  1
  Si  Si22  1  0.712954  0.301654  0.459359  1
  Si  Si23  1  0.712954  0.698346  0.540640  1
  Si  Si24  1  0.000000  0.778740  0.412723  1
  Si  Si25  1  0.000000  0.221260  0.587277  1
  Si  Si26  1  0.000000  0.278740  0.087277  1
  Si  Si27  1  0.000000  0.721260  0.912723  1
  Si  Si28  1  0.710575  0.364563  0.852564  1
  Si  Si29  1  0.710575  0.635437  0.147436  1
  Si  Si30  1  0.289425  0.864563  0.647436  1
  Si  Si31  1  0.000000  0.872969  0.790149  1
  Si  Si32  1  0.289425  0.135437  0.352564  1
  Si  Si33  1  0.000000  0.127031  0.209851  1
  Si  Si34  1  0.289425  0.364563  0.852564  1
  Si  Si35  1  0.710575  0.135437  0.352564  1
  Si  Si36  1  0.289425  0.635437  0.147436  1
  Si  Si37  1  0.000000  0.627031  0.290149  1
  Si  Si38  1  0.000000  0.372969  0.709851  1
  Si  Si39  1  0.710575  0.864563  0.647436  1
  O  O40  1  0.754856  0.257037  0.873718  1
  O  O41  1  0.500000  0.784703  0.014441  1
  O  O42  1  0.500000  0.215297  0.985559  1
  O  O43  1  0.500000  0.284703  0.485559  1
  O  O44  1  0.500000  0.715297  0.514441  1
  O  O45  1  0.761609  0.094421  0.946065  1
  O  O46  1  0.761609  0.905579  0.053935  1
  O  O47  1  0.238391  0.594421  0.553935  1
  O  O48  1  0.238391  0.405579  0.446065  1
  O  O49  1  0.238391  0.905579  0.053935  1
  O  O50  1  0.238391  0.094421  0.946065  1
  O  O51  1  0.761609  0.405579  0.446065  1
  O  O52  1  0.761609  0.594421  0.553935  1
  O  O53  1  0.754856  0.742963  0.126282  1
  O  O54  1  0.245144  0.757037  0.626282  1
  O  O55  1  0.245144  0.242963  0.373718  1
  O  O56  1  0.245144  0.742963  0.126282  1
  O  O57  1  0.500000  0.628007  0.180182  1
  O  O58  1  0.754856  0.242963  0.373718  1
  O  O59  1  0.754856  0.757037  0.626282  1
  O  O60  1  0.752345  0.429764  0.929084  1
  O  O61  1  0.752345  0.570236  0.070916  1
  O  O62  1  0.247655  0.929764  0.570916  1
  O  O63  1  0.247655  0.070236  0.429084  1
  O  O64  1  0.247655  0.570236  0.070916  1
  O  O65  1  0.245144  0.257037  0.873718  1
  O  O66  1  0.752345  0.070236  0.429084  1
  O  O67  1  0.752345  0.929764  0.570916  1
  O  O68  1  0.817771  0.756786  0.960569  1
  O  O69  1  0.817771  0.243214  0.039431  1
  O  O70  1  0.182229  0.256786  0.539431  1
  O  O71  1  0.182229  0.743214  0.460569  1
  O  O72  1  0.182229  0.243214  0.039431  1
  O  O73  1  0.182229  0.756786  0.960569  1
  O  O74  1  0.817771  0.743214  0.460569  1
  O  O75  1  0.817771  0.256786  0.539431  1
  O  O76  1  0.000000  0.614895  0.899197  1
  O  O77  1  0.000000  0.385105  0.100803  1
  O  O78  1  0.000000  0.114895  0.600803  1
  O  O79  1  0.000000  0.885105  0.399197  1
  O  O80  1  0.000000  0.766884  0.818777  1
  O  O81  1  0.000000  0.233116  0.181223  1
  O  O82  1  0.000000  0.266884  0.681223  1
  O  O83  1  0.000000  0.733116  0.318777  1
  O  O84  1  0.000000  0.937436  0.868976  1
  O  O85  1  0.000000  0.062564  0.131024  1
  O  O86  1  0.000000  0.437436  0.631024  1
  O  O87  1  0.000000  0.562564  0.368976  1
  O  O88  1  0.820123  0.891699  0.733034  1
  O  O89  1  0.820123  0.108301  0.266966  1
  O  O90  1  0.179877  0.391699  0.766966  1
  O  O91  1  0.179877  0.608301  0.233034  1
  O  O92  1  0.179877  0.108301  0.266966  1
  O  O93  1  0.179877  0.891699  0.733034  1
  O  O94  1  0.820123  0.608301  0.233034  1
  O  O95  1  0.820123  0.391699  0.766966  1
  O  O96  1  0.500000  0.871993  0.680182  1
  O  O97  1  0.500000  0.128007  0.319818  1
  O  O98  1  0.500000  0.371993  0.819818  1
  O  O99  1  0.247655  0.429764  0.929084  1
