# generated using pymatgen
data_Ho2Sc18InBi11
_symmetry_space_group_name_H-M   'P 1'
_cell_length_a   7.82256037
_cell_length_b   9.04999513
_cell_length_c   11.44835815
_cell_angle_alpha   89.92196077
_cell_angle_beta   89.96667757
_cell_angle_gamma   89.98927549
_symmetry_Int_Tables_number   1
_chemical_formula_structural   Ho2Sc18InBi11
_chemical_formula_sum   'Ho2 Sc18 In1 Bi11'
_cell_volume   810.47568886
_cell_formula_units_Z   1
loop_
 _symmetry_equiv_pos_site_id
 _symmetry_equiv_pos_as_xyz
  1  'x, y, z'
loop_
 _atom_site_type_symbol
 _atom_site_label
 _atom_site_symmetry_multiplicity
 _atom_site_fract_x
 _atom_site_fract_y
 _atom_site_fract_z
 _atom_site_occupancy
  Ho  Ho0  1  0.685238  0.750095  0.780741  1
  Ho  Ho1  1  0.185129  0.750423  0.719743  1
  Sc  Sc2  1  0.354190  0.752966  0.223351  1
  Sc  Sc3  1  0.847325  0.751977  0.277832  1
  Sc  Sc4  1  0.650420  0.249862  0.782432  1
  Sc  Sc5  1  0.150640  0.249922  0.718284  1
  Sc  Sc6  1  0.694693  0.565618  0.061799  1
  Sc  Sc7  1  0.199215  0.934424  0.437028  1
  Sc  Sc8  1  0.305982  0.067742  0.940526  1
  Sc  Sc9  1  0.806638  0.432557  0.560130  1
  Sc  Sc10  1  0.306614  0.431733  0.939974  1
  Sc  Sc11  1  0.804405  0.068243  0.559048  1
  Sc  Sc12  1  0.694753  0.933388  0.064073  1
  Sc  Sc13  1  0.194766  0.565887  0.438316  1
  Sc  Sc14  1  0.481964  0.246758  0.484448  1
  Sc  Sc15  1  0.980195  0.250239  0.012858  1
  Sc  Sc16  1  0.517970  0.751786  0.506009  1
  Sc  Sc17  1  0.018609  0.749613  0.991693  1
  Sc  Sc18  1  0.314758  0.249114  0.220041  1
  Sc  Sc19  1  0.809623  0.247407  0.281973  1
  In  In20  1  0.563565  0.997182  0.325002  1
  Bi  Bi21  1  0.401870  0.749861  0.966607  1
  Bi  Bi22  1  0.902142  0.750787  0.533280  1
  Bi  Bi23  1  0.594295  0.249410  0.041390  1
  Bi  Bi24  1  0.093896  0.250034  0.459019  1
  Bi  Bi25  1  0.065889  0.503591  0.174935  1
  Bi  Bi26  1  0.435998  0.489660  0.670959  1
  Bi  Bi27  1  0.935985  0.010251  0.828415  1
  Bi  Bi28  1  0.436790  0.010060  0.671477  1
  Bi  Bi29  1  0.935656  0.489666  0.828468  1
  Bi  Bi30  1  0.565621  0.503210  0.325445  1
  Bi  Bi31  1  0.065166  0.996534  0.174705  1
