# generated using pymatgen
data_Al20NiRh7
_symmetry_space_group_name_H-M   'P 1'
_cell_length_a   7.93498600
_cell_length_b   7.93498697
_cell_length_c   7.85818600
_cell_angle_alpha   90.00000000
_cell_angle_beta   90.00000000
_cell_angle_gamma   120.00000428
_symmetry_Int_Tables_number   1
_chemical_formula_structural   Al20NiRh7
_chemical_formula_sum   'Al20 Ni1 Rh7'
_cell_volume   428.49454753
_cell_formula_units_Z   1
loop_
 _symmetry_equiv_pos_site_id
 _symmetry_equiv_pos_as_xyz
  1  'x, y, z'
loop_
 _atom_site_type_symbol
 _atom_site_label
 _atom_site_symmetry_multiplicity
 _atom_site_fract_x
 _atom_site_fract_y
 _atom_site_fract_z
 _atom_site_occupancy
  Al  Al0  1  0.000000  0.000000  0.000099  1
  Al  Al1  1  0.000000  0.000000  0.499901  1
  Al  Al2  1  0.471511  0.943021  0.250000  1
  Al  Al3  1  0.527106  0.472894  0.750000  1
  Al  Al4  1  0.945787  0.472894  0.750000  1
  Al  Al5  1  0.056979  0.528489  0.250000  1
  Al  Al6  1  0.471511  0.528489  0.250000  1
  Al  Al7  1  0.527106  0.054213  0.750000  1
  Al  Al8  1  0.195739  0.391476  0.938131  1
  Al  Al9  1  0.807316  0.192684  0.442536  1
  Al  Al10  1  0.385367  0.192684  0.442536  1
  Al  Al11  1  0.608524  0.804261  0.938131  1
  Al  Al12  1  0.195739  0.804261  0.938131  1
  Al  Al13  1  0.807316  0.614633  0.057464  1
  Al  Al14  1  0.807316  0.192684  0.057464  1
  Al  Al15  1  0.807316  0.614633  0.442536  1
  Al  Al16  1  0.385367  0.192684  0.057464  1
  Al  Al17  1  0.608524  0.804261  0.561869  1
  Al  Al18  1  0.195739  0.391476  0.561869  1
  Al  Al19  1  0.195739  0.804261  0.561869  1
  Ni  Ni20  1  0.333333  0.666667  0.750000  1
  Rh  Rh21  1  0.666667  0.333333  0.250000  1
  Rh  Rh22  1  0.130253  0.260507  0.250000  1
  Rh  Rh23  1  0.870468  0.129532  0.750000  1
  Rh  Rh24  1  0.259066  0.129532  0.750000  1
  Rh  Rh25  1  0.739493  0.869747  0.250000  1
  Rh  Rh26  1  0.130253  0.869747  0.250000  1
  Rh  Rh27  1  0.870468  0.740934  0.750000  1
