# generated using pymatgen
data_NdDyCd2(Ir2O7)2
_symmetry_space_group_name_H-M   'P 1'
_cell_length_a   7.28069527
_cell_length_b   7.28069621
_cell_length_c   7.42249647
_cell_angle_alpha   59.38813540
_cell_angle_beta   59.38813363
_cell_angle_gamma   59.19531011
_symmetry_Int_Tables_number   1
_chemical_formula_structural   NdDyCd2(Ir2O7)2
_chemical_formula_sum   'Nd1 Dy1 Cd2 Ir4 O14'
_cell_volume   273.93030986
_cell_formula_units_Z   1
loop_
 _symmetry_equiv_pos_site_id
 _symmetry_equiv_pos_as_xyz
  1  'x, y, z'
loop_
 _atom_site_type_symbol
 _atom_site_label
 _atom_site_symmetry_multiplicity
 _atom_site_fract_x
 _atom_site_fract_y
 _atom_site_fract_z
 _atom_site_occupancy
  Nd  Nd0  1  0.125000  0.125000  0.125000  1
  Dy  Dy1  1  0.125000  0.125000  0.625000  1
  Cd  Cd2  1  0.625000  0.125000  0.125000  1
  Cd  Cd3  1  0.125000  0.625000  0.125000  1
  Ir  Ir4  1  0.125000  0.625000  0.625000  1
  Ir  Ir5  1  0.625000  0.125000  0.625000  1
  Ir  Ir6  1  0.625000  0.625000  0.125000  1
  Ir  Ir7  1  0.625000  0.625000  0.625000  1
  O  O8  1  0.698000  0.698000  0.302963  1
  O  O9  1  0.289612  0.289612  0.705044  1
  O  O10  1  0.711354  0.295911  0.694489  1
  O  O11  1  0.295558  0.703698  0.299474  1
  O  O12  1  0.295911  0.711354  0.694489  1
  O  O13  1  0.703698  0.295558  0.299474  1
  O  O14  1  0.552000  0.552000  0.947037  1
  O  O15  1  0.960388  0.960388  0.544956  1
  O  O16  1  0.538646  0.954089  0.555511  1
  O  O17  1  0.954442  0.546302  0.950526  1
  O  O18  1  0.954089  0.538646  0.555511  1
  O  O19  1  0.546302  0.954442  0.950526  1
  O  O20  1  0.253594  0.253594  0.254819  1
  O  O21  1  0.996406  0.996406  0.995181  1
