# generated using pymatgen
data_RuPbI18
_symmetry_space_group_name_H-M   'P 1'
_cell_length_a   10.31785196
_cell_length_b   10.31785261
_cell_length_c   10.31785064
_cell_angle_alpha   94.15887145
_cell_angle_beta   94.15887338
_cell_angle_gamma   94.15885821
_symmetry_Int_Tables_number   1
_chemical_formula_structural   RuPbI18
_chemical_formula_sum   'Ru1 Pb1 I18'
_cell_volume   1089.29602515
_cell_formula_units_Z   1
loop_
 _symmetry_equiv_pos_site_id
 _symmetry_equiv_pos_as_xyz
  1  'x, y, z'
loop_
 _atom_site_type_symbol
 _atom_site_label
 _atom_site_symmetry_multiplicity
 _atom_site_fract_x
 _atom_site_fract_y
 _atom_site_fract_z
 _atom_site_occupancy
  Ru  Ru0  1  0.000000  0.000000  0.000000  1
  Pb  Pb1  1  0.500000  0.500000  0.500000  1
  I  I2  1  0.994297  0.737241  0.974729  1
  I  I3  1  0.974729  0.994297  0.737241  1
  I  I4  1  0.737241  0.974729  0.994297  1
  I  I5  1  0.005703  0.262759  0.025271  1
  I  I6  1  0.025271  0.005703  0.262759  1
  I  I7  1  0.262759  0.025271  0.005703  1
  I  I8  1  0.478791  0.811165  0.533572  1
  I  I9  1  0.533572  0.478791  0.811165  1
  I  I10  1  0.811165  0.533572  0.478791  1
  I  I11  1  0.521209  0.188835  0.466428  1
  I  I12  1  0.466428  0.521209  0.188835  1
  I  I13  1  0.188835  0.466428  0.521209  1
  I  I14  1  0.636167  0.098647  0.232196  1
  I  I15  1  0.232196  0.636167  0.098647  1
  I  I16  1  0.098647  0.232196  0.636167  1
  I  I17  1  0.363833  0.901353  0.767804  1
  I  I18  1  0.767804  0.363833  0.901353  1
  I  I19  1  0.901353  0.767804  0.363833  1
