# generated using pymatgen
data_La20Co3SiSb8
_symmetry_space_group_name_H-M   'P 1'
_cell_length_a   8.34846889
_cell_length_b   9.29722600
_cell_length_c   12.78707831
_cell_angle_alpha   90.00000000
_cell_angle_beta   90.21525743
_cell_angle_gamma   90.00000000
_symmetry_Int_Tables_number   1
_chemical_formula_structural   La20Co3SiSb8
_chemical_formula_sum   'La20 Co3 Si1 Sb8'
_cell_volume   992.49535139
_cell_formula_units_Z   1
loop_
 _symmetry_equiv_pos_site_id
 _symmetry_equiv_pos_as_xyz
  1  'x, y, z'
loop_
 _atom_site_type_symbol
 _atom_site_label
 _atom_site_symmetry_multiplicity
 _atom_site_fract_x
 _atom_site_fract_y
 _atom_site_fract_z
 _atom_site_occupancy
  La  La0  1  0.146334  0.750000  0.199839  1
  La  La1  1  0.648141  0.250000  0.297635  1
  La  La2  1  0.850918  0.250000  0.798819  1
  La  La3  1  0.339233  0.750000  0.714109  1
  La  La4  1  0.459643  0.750000  0.997005  1
  La  La5  1  0.952422  0.250000  0.501654  1
  La  La6  1  0.552538  0.250000  0.005244  1
  La  La7  1  0.043475  0.750000  0.498023  1
  La  La8  1  0.633281  0.750000  0.291622  1
  La  La9  1  0.122847  0.250000  0.194725  1
  La  La10  1  0.375081  0.250000  0.698310  1
  La  La11  1  0.874058  0.750000  0.802958  1
  La  La12  1  0.815972  0.968333  0.062610  1
  La  La13  1  0.315460  0.044944  0.438461  1
  La  La14  1  0.182508  0.469451  0.939160  1
  La  La15  1  0.687408  0.523475  0.562955  1
  La  La16  1  0.182508  0.030549  0.939160  1
  La  La17  1  0.687408  0.976525  0.562955  1
  La  La18  1  0.815972  0.531667  0.062610  1
  La  La19  1  0.315460  0.455056  0.438461  1
  Co  Co20  1  0.922662  0.250000  0.010433  1
  Co  Co21  1  0.575217  0.250000  0.511072  1
  Co  Co22  1  0.073907  0.750000  0.984405  1
  Si  Si23  1  0.437522  0.750000  0.487682  1
  Sb  Sb24  1  0.926628  0.993385  0.326357  1
  Sb  Sb25  1  0.421261  0.006193  0.174545  1
  Sb  Sb26  1  0.074202  0.492195  0.672579  1
  Sb  Sb27  1  0.572921  0.505939  0.826565  1
  Sb  Sb28  1  0.074202  0.007805  0.672579  1
  Sb  Sb29  1  0.572921  0.994061  0.826565  1
  Sb  Sb30  1  0.926628  0.506615  0.326357  1
  Sb  Sb31  1  0.421261  0.493807  0.174545  1
