# generated using pymatgen
data_TbDyVGa6
_symmetry_space_group_name_H-M   'P 1'
_cell_length_a   6.23266952
_cell_length_b   6.23267025
_cell_length_c   6.23267100
_cell_angle_alpha   60.00000133
_cell_angle_beta   59.99999746
_cell_angle_gamma   59.99999912
_symmetry_Int_Tables_number   1
_chemical_formula_structural   TbDyVGa6
_chemical_formula_sum   'Tb1 Dy1 V1 Ga6'
_cell_volume   171.20145371
_cell_formula_units_Z   1
loop_
 _symmetry_equiv_pos_site_id
 _symmetry_equiv_pos_as_xyz
  1  'x, y, z'
loop_
 _atom_site_type_symbol
 _atom_site_label
 _atom_site_symmetry_multiplicity
 _atom_site_fract_x
 _atom_site_fract_y
 _atom_site_fract_z
 _atom_site_occupancy
  Tb  Tb0  1  0.250000  0.250000  0.250000  1
  Dy  Dy1  1  0.750000  0.750000  0.750000  1
  V  V2  1  0.500000  0.500000  0.500000  1
  Ga  Ga3  1  0.782050  0.782050  0.217950  1
  Ga  Ga4  1  0.217950  0.782050  0.217950  1
  Ga  Ga5  1  0.782050  0.217950  0.217950  1
  Ga  Ga6  1  0.217950  0.217950  0.782050  1
  Ga  Ga7  1  0.782050  0.217950  0.782050  1
  Ga  Ga8  1  0.217950  0.782050  0.782050  1
