# generated using pymatgen
data_MgSc3(CdPd5)2
_symmetry_space_group_name_H-M   'P 1'
_cell_length_a   4.23238600
_cell_length_b   5.57642996
_cell_length_c   11.00218100
_cell_angle_alpha   89.75265796
_cell_angle_beta   90.00000000
_cell_angle_gamma   90.00000000
_symmetry_Int_Tables_number   1
_chemical_formula_structural   MgSc3(CdPd5)2
_chemical_formula_sum   'Mg1 Sc3 Cd2 Pd10'
_cell_volume   259.66670058
_cell_formula_units_Z   1
loop_
 _symmetry_equiv_pos_site_id
 _symmetry_equiv_pos_as_xyz
  1  'x, y, z'
loop_
 _atom_site_type_symbol
 _atom_site_label
 _atom_site_symmetry_multiplicity
 _atom_site_fract_x
 _atom_site_fract_y
 _atom_site_fract_z
 _atom_site_occupancy
  Mg  Mg0  1  0.500000  0.700288  0.364240  1
  Sc  Sc1  1  0.500000  0.197560  0.140554  1
  Sc  Sc2  1  0.500000  0.800968  0.863767  1
  Sc  Sc3  1  0.500000  0.304393  0.633756  1
  Cd  Cd4  1  0.000000  0.997199  0.497976  1
  Cd  Cd5  1  0.000000  0.497971  0.000797  1
  Pd  Pd6  1  0.500000  0.216160  0.381813  1
  Pd  Pd7  1  0.500000  0.788373  0.619896  1
  Pd  Pd8  1  0.500000  0.283831  0.880933  1
  Pd  Pd9  1  0.500000  0.714589  0.118051  1
  Pd  Pd10  1  0.000000  0.448930  0.249164  1
  Pd  Pd11  1  0.000000  0.551390  0.749925  1
  Pd  Pd12  1  0.000000  0.051769  0.748813  1
  Pd  Pd13  1  0.000000  0.948868  0.250582  1
  Pd  Pd14  1  0.000000  0.998531  0.999987  1
  Pd  Pd15  1  0.000000  0.499182  0.499745  1
