# generated using pymatgen
data_Tb8In2CoPt
_symmetry_space_group_name_H-M   'P 1'
_cell_length_a   9.70577920
_cell_length_b   9.70377351
_cell_length_c   9.70377398
_cell_angle_alpha   60.09481696
_cell_angle_beta   59.99316511
_cell_angle_gamma   59.99316954
_symmetry_Int_Tables_number   1
_chemical_formula_structural   Tb8In2CoPt
_chemical_formula_sum   'Tb16 In4 Co2 Pt2'
_cell_volume   646.63923105
_cell_formula_units_Z   2
loop_
 _symmetry_equiv_pos_site_id
 _symmetry_equiv_pos_as_xyz
  1  'x, y, z'
loop_
 _atom_site_type_symbol
 _atom_site_label
 _atom_site_symmetry_multiplicity
 _atom_site_fract_x
 _atom_site_fract_y
 _atom_site_fract_z
 _atom_site_occupancy
  Tb  Tb0  1  0.440221  0.439632  0.051911  1
  Tb  Tb1  1  0.588866  0.600599  0.600599  1
  Tb  Tb2  1  0.185658  0.814342  0.814342  1
  Tb  Tb3  1  0.068236  0.051911  0.439632  1
  Tb  Tb4  1  0.439202  0.060798  0.060798  1
  Tb  Tb5  1  0.810864  0.189628  0.812797  1
  Tb  Tb6  1  0.440221  0.051911  0.439632  1
  Tb  Tb7  1  0.595945  0.199017  0.609094  1
  Tb  Tb8  1  0.810864  0.812797  0.189628  1
  Tb  Tb9  1  0.209936  0.600599  0.600599  1
  Tb  Tb10  1  0.808649  0.191351  0.191351  1
  Tb  Tb11  1  0.059234  0.440766  0.440766  1
  Tb  Tb12  1  0.186710  0.812797  0.189628  1
  Tb  Tb13  1  0.595945  0.609094  0.199017  1
  Tb  Tb14  1  0.186710  0.189628  0.812797  1
  Tb  Tb15  1  0.068236  0.439632  0.051911  1
  In  In16  1  0.832503  0.830468  0.504526  1
  In  In17  1  0.834080  0.831914  0.831914  1
  In  In18  1  0.502092  0.831914  0.831914  1
  In  In19  1  0.832503  0.504526  0.830468  1
  Co  Co20  1  0.392061  0.826200  0.389679  1
  Co  Co21  1  0.392061  0.389679  0.826200  1
  Pt  Pt22  1  0.395756  0.390399  0.390399  1
  Pt  Pt23  1  0.823446  0.390399  0.390399  1
