# generated using pymatgen
data_Zr3Zn3Ga2Pd
_symmetry_space_group_name_H-M   'P 1'
_cell_length_a   6.65693100
_cell_length_b   6.65693094
_cell_length_c   4.12045800
_cell_angle_alpha   90.00000000
_cell_angle_beta   90.00000000
_cell_angle_gamma   120.00000526
_symmetry_Int_Tables_number   1
_chemical_formula_structural   Zr3Zn3Ga2Pd
_chemical_formula_sum   'Zr3 Zn3 Ga2 Pd1'
_cell_volume   158.13361799
_cell_formula_units_Z   1
loop_
 _symmetry_equiv_pos_site_id
 _symmetry_equiv_pos_as_xyz
  1  'x, y, z'
loop_
 _atom_site_type_symbol
 _atom_site_label
 _atom_site_symmetry_multiplicity
 _atom_site_fract_x
 _atom_site_fract_y
 _atom_site_fract_z
 _atom_site_occupancy
  Zr  Zr0  1  0.415827  0.000000  0.000000  1
  Zr  Zr1  1  0.000000  0.415827  0.000000  1
  Zr  Zr2  1  0.584174  0.584173  0.000000  1
  Zn  Zn3  1  0.754423  0.000000  0.499999  1
  Zn  Zn4  1  0.245578  0.245577  0.499999  1
  Zn  Zn5  1  0.000000  0.754423  0.499999  1
  Ga  Ga6  1  0.666668  0.333334  0.499999  1
  Ga  Ga7  1  0.333333  0.666666  0.499999  1
  Pd  Pd8  1  0.000000  0.000000  0.000000  1
