# generated using pymatgen
data_Tb3Y(As4O9)2
_symmetry_space_group_name_H-M   'P 1'
_cell_length_a   6.77511642
_cell_length_b   7.57696609
_cell_length_c   9.83780603
_cell_angle_alpha   94.99459701
_cell_angle_beta   104.18888390
_cell_angle_gamma   104.72283192
_symmetry_Int_Tables_number   1
_chemical_formula_structural   Tb3Y(As4O9)2
_chemical_formula_sum   'Tb3 Y1 As8 O18'
_cell_volume   467.49356641
_cell_formula_units_Z   1
loop_
 _symmetry_equiv_pos_site_id
 _symmetry_equiv_pos_as_xyz
  1  'x, y, z'
loop_
 _atom_site_type_symbol
 _atom_site_label
 _atom_site_symmetry_multiplicity
 _atom_site_fract_x
 _atom_site_fract_y
 _atom_site_fract_z
 _atom_site_occupancy
  Tb  Tb0  1  0.244201  0.939376  0.615772  1
  Tb  Tb1  1  0.755801  0.060571  0.384212  1
  Tb  Tb2  1  0.720934  0.530623  0.409016  1
  Y  Y3  1  0.279189  0.469376  0.591098  1
  As  As4  1  0.681347  0.775026  0.077128  1
  As  As5  1  0.318679  0.225034  0.922826  1
  As  As6  1  0.172071  0.753087  0.913179  1
  As  As7  1  0.827957  0.246878  0.086821  1
  As  As8  1  0.744650  0.915687  0.709596  1
  As  As9  1  0.255307  0.084230  0.290386  1
  As  As10  1  0.809669  0.350993  0.701660  1
  As  As11  1  0.190268  0.649001  0.298378  1
  O  O12  1  0.723433  0.750547  0.257520  1
  O  O13  1  0.276534  0.249604  0.742356  1
  O  O14  1  0.316231  0.978812  0.871231  1
  O  O15  1  0.683769  0.021247  0.128755  1
  O  O16  1  0.607736  0.323957  0.985362  1
  O  O17  1  0.392231  0.676045  0.014638  1
  O  O18  1  0.128559  0.647551  0.738347  1
  O  O19  1  0.871377  0.352405  0.261633  1
  O  O20  1  0.846445  0.874527  0.559332  1
  O  O21  1  0.153576  0.125488  0.440674  1
  O  O22  1  0.485071  0.769178  0.666989  1
  O  O23  1  0.514865  0.230719  0.332975  1
  O  O24  1  0.372294  0.534792  0.379203  1
  O  O25  1  0.627416  0.465139  0.620852  1
  O  O26  1  0.089630  0.669387  0.453052  1
  O  O27  1  0.910748  0.330707  0.547014  1
  O  O28  1  0.374840  0.898909  0.358461  1
  O  O29  1  0.625174  0.101103  0.641535  1
