# generated using pymatgen
data_Tm(S8F)3
_symmetry_space_group_name_H-M   'P 1'
_cell_length_a   14.51881873
_cell_length_b   14.51881869
_cell_length_c   14.51881869
_cell_angle_alpha   118.53082034
_cell_angle_beta   118.53082717
_cell_angle_gamma   118.53081396
_symmetry_Int_Tables_number   1
_chemical_formula_structural   Tm(S8F)3
_chemical_formula_sum   'Tm1 S24 F3'
_cell_volume   956.52017634
_cell_formula_units_Z   1
loop_
 _symmetry_equiv_pos_site_id
 _symmetry_equiv_pos_as_xyz
  1  'x, y, z'
loop_
 _atom_site_type_symbol
 _atom_site_label
 _atom_site_symmetry_multiplicity
 _atom_site_fract_x
 _atom_site_fract_y
 _atom_site_fract_z
 _atom_site_occupancy
  Tm  Tm0  1  0.813538  0.813538  0.813538  1
  S  S1  1  0.801326  0.528024  0.528024  1
  S  S2  1  0.528024  0.528024  0.801326  1
  S  S3  1  0.528024  0.801326  0.528024  1
  S  S4  1  0.252460  0.387072  0.636833  1
  S  S5  1  0.341115  0.946216  0.341115  1
  S  S6  1  0.341115  0.341115  0.946216  1
  S  S7  1  0.946216  0.341115  0.341115  1
  S  S8  1  0.123114  0.739482  0.256745  1
  S  S9  1  0.256745  0.123114  0.739482  1
  S  S10  1  0.739482  0.256745  0.123114  1
  S  S11  1  0.739482  0.123114  0.256745  1
  S  S12  1  0.256745  0.739482  0.123114  1
  S  S13  1  0.123114  0.256745  0.739482  1
  S  S14  1  0.344312  0.877335  0.532407  1
  S  S15  1  0.532407  0.344312  0.877335  1
  S  S16  1  0.877335  0.532407  0.344312  1
  S  S17  1  0.877335  0.344312  0.532407  1
  S  S18  1  0.532407  0.877335  0.344312  1
  S  S19  1  0.344312  0.532407  0.877335  1
  S  S20  1  0.252460  0.636833  0.387072  1
  S  S21  1  0.387072  0.252460  0.636833  1
  S  S22  1  0.636833  0.387072  0.252460  1
  S  S23  1  0.636833  0.252460  0.387072  1
  S  S24  1  0.387072  0.636833  0.252460  1
  F  F25  1  0.893434  0.016493  0.016493  1
  F  F26  1  0.016493  0.016493  0.893434  1
  F  F27  1  0.016493  0.893434  0.016493  1
