# generated using pymatgen
data_Sc4Mn2OsRu5
_symmetry_space_group_name_H-M   'P 1'
_cell_length_a   5.11365566
_cell_length_b   5.00631503
_cell_length_c   8.65080600
_cell_angle_alpha   90.00000000
_cell_angle_beta   90.00000000
_cell_angle_gamma   118.81406576
_symmetry_Int_Tables_number   1
_chemical_formula_structural   Sc4Mn2OsRu5
_chemical_formula_sum   'Sc4 Mn2 Os1 Ru5'
_cell_volume   194.04556456
_cell_formula_units_Z   1
loop_
 _symmetry_equiv_pos_site_id
 _symmetry_equiv_pos_as_xyz
  1  'x, y, z'
loop_
 _atom_site_type_symbol
 _atom_site_label
 _atom_site_symmetry_multiplicity
 _atom_site_fract_x
 _atom_site_fract_y
 _atom_site_fract_z
 _atom_site_occupancy
  Sc  Sc0  1  0.330346  0.664464  0.065470  1
  Sc  Sc1  1  0.669091  0.332521  0.566127  1
  Sc  Sc2  1  0.669091  0.332521  0.933873  1
  Sc  Sc3  1  0.330346  0.664464  0.434530  1
  Mn  Mn4  1  0.830993  0.170616  0.250000  1
  Mn  Mn5  1  0.164641  0.340846  0.750000  1
  Os  Os6  1  0.165801  0.827735  0.750000  1
  Ru  Ru7  1  0.004940  0.005068  0.000226  1
  Ru  Ru8  1  0.004940  0.005068  0.499774  1
  Ru  Ru9  1  0.830925  0.658129  0.250000  1
  Ru  Ru10  1  0.648097  0.824268  0.750000  1
  Ru  Ru11  1  0.350791  0.174299  0.250000  1
