# generated using pymatgen
data_Y9Tm(In3S)2
_symmetry_space_group_name_H-M   'P 1'
_cell_length_a   9.13448700
_cell_length_b   9.13445978
_cell_length_c   6.71197700
_cell_angle_alpha   89.99998746
_cell_angle_beta   89.99981810
_cell_angle_gamma   120.00001529
_symmetry_Int_Tables_number   1
_chemical_formula_structural   Y9Tm(In3S)2
_chemical_formula_sum   'Y9 Tm1 In6 S2'
_cell_volume   485.00705315
_cell_formula_units_Z   1
loop_
 _symmetry_equiv_pos_site_id
 _symmetry_equiv_pos_as_xyz
  1  'x, y, z'
loop_
 _atom_site_type_symbol
 _atom_site_label
 _atom_site_symmetry_multiplicity
 _atom_site_fract_x
 _atom_site_fract_y
 _atom_site_fract_z
 _atom_site_occupancy
  Y  Y0  1  0.332978  0.666769  0.000152  1
  Y  Y1  1  0.757599  0.757607  0.249580  1
  Y  Y2  1  0.241956  0.999959  0.249401  1
  Y  Y3  1  0.999589  0.241824  0.249262  1
  Y  Y4  1  0.667073  0.333051  0.500015  1
  Y  Y5  1  0.333191  0.667185  0.499886  1
  Y  Y6  1  0.241826  0.241635  0.750600  1
  Y  Y7  1  0.758085  0.000406  0.750451  1
  Y  Y8  1  0.000204  0.758063  0.750770  1
  Tm  Tm9  1  0.667139  0.333394  0.000014  1
  In  In10  1  0.598724  0.000859  0.248325  1
  In  In11  1  0.999070  0.597855  0.248419  1
  In  In12  1  0.402358  0.401504  0.248408  1
  In  In13  1  0.402225  0.000924  0.751725  1
  In  In14  1  0.999288  0.401199  0.751797  1
  In  In15  1  0.598456  0.597756  0.751333  1
  S  S16  1  0.000109  0.999909  0.999734  1
  S  S17  1  0.000131  0.000104  0.500127  1
