# generated using pymatgen
data_Sr(Ac4Pd3)2
_symmetry_space_group_name_H-M   'P 1'
_cell_length_a   8.14977007
_cell_length_b   8.14976987
_cell_length_c   8.14977071
_cell_angle_alpha   72.06952725
_cell_angle_beta   72.06953174
_cell_angle_gamma   72.06952713
_symmetry_Int_Tables_number   1
_chemical_formula_structural   Sr(Ac4Pd3)2
_chemical_formula_sum   'Sr1 Ac8 Pd6'
_cell_volume   476.22494306
_cell_formula_units_Z   1
loop_
 _symmetry_equiv_pos_site_id
 _symmetry_equiv_pos_as_xyz
  1  'x, y, z'
loop_
 _atom_site_type_symbol
 _atom_site_label
 _atom_site_symmetry_multiplicity
 _atom_site_fract_x
 _atom_site_fract_y
 _atom_site_fract_z
 _atom_site_occupancy
  Sr  Sr0  1  0.000000  0.000000  0.000000  1
  Ac  Ac1  1  0.797034  0.797034  0.797034  1
  Ac  Ac2  1  0.202966  0.202966  0.202966  1
  Ac  Ac3  1  0.329224  0.616678  0.833963  1
  Ac  Ac4  1  0.833963  0.329224  0.616678  1
  Ac  Ac5  1  0.616677  0.833963  0.329224  1
  Ac  Ac6  1  0.670776  0.383322  0.166037  1
  Ac  Ac7  1  0.166037  0.670776  0.383322  1
  Ac  Ac8  1  0.383322  0.166037  0.670776  1
  Pd  Pd9  1  0.154236  0.958858  0.588343  1
  Pd  Pd10  1  0.588343  0.154236  0.958858  1
  Pd  Pd11  1  0.958858  0.588343  0.154236  1
  Pd  Pd12  1  0.845764  0.041142  0.411657  1
  Pd  Pd13  1  0.411657  0.845764  0.041142  1
  Pd  Pd14  1  0.041142  0.411657  0.845764  1
