# generated using pymatgen
data_Nd15Ho(In3Ru)2
_symmetry_space_group_name_H-M   'P 1'
_cell_length_a   10.81167200
_cell_length_b   10.81167234
_cell_length_c   7.18290900
_cell_angle_alpha   90.00000000
_cell_angle_beta   90.00000000
_cell_angle_gamma   119.99999896
_symmetry_Int_Tables_number   1
_chemical_formula_structural   Nd15Ho(In3Ru)2
_chemical_formula_sum   'Nd15 Ho1 In6 Ru2'
_cell_volume   727.13782664
_cell_formula_units_Z   1
loop_
 _symmetry_equiv_pos_site_id
 _symmetry_equiv_pos_as_xyz
  1  'x, y, z'
loop_
 _atom_site_type_symbol
 _atom_site_label
 _atom_site_symmetry_multiplicity
 _atom_site_fract_x
 _atom_site_fract_y
 _atom_site_fract_z
 _atom_site_occupancy
  Nd  Nd0  1  0.535557  0.071114  0.507085  1
  Nd  Nd1  1  0.928886  0.464443  0.507085  1
  Nd  Nd2  1  0.535557  0.464443  0.507085  1
  Nd  Nd3  1  0.464474  0.928950  0.006310  1
  Nd  Nd4  1  0.071050  0.535526  0.006310  1
  Nd  Nd5  1  0.464474  0.535526  0.006310  1
  Nd  Nd6  1  0.174672  0.349345  0.716140  1
  Nd  Nd7  1  0.650655  0.825328  0.716140  1
  Nd  Nd8  1  0.174672  0.825328  0.716140  1
  Nd  Nd9  1  0.825357  0.650713  0.213106  1
  Nd  Nd10  1  0.349287  0.174643  0.213106  1
  Nd  Nd11  1  0.825357  0.174643  0.213106  1
  Nd  Nd12  1  0.666667  0.333333  0.885860  1
  Nd  Nd13  1  0.333333  0.666667  0.384089  1
  Nd  Nd14  1  0.000000  0.000000  0.496331  1
  Ho  Ho15  1  0.000000  0.000000  0.993960  1
  In  In16  1  0.837786  0.675571  0.754601  1
  In  In17  1  0.324429  0.162214  0.754601  1
  In  In18  1  0.837786  0.162214  0.754601  1
  In  In19  1  0.162328  0.324657  0.249582  1
  In  In20  1  0.675343  0.837672  0.249582  1
  In  In21  1  0.162328  0.837672  0.249582  1
  Ru  Ru22  1  0.666667  0.333333  0.279600  1
  Ru  Ru23  1  0.333333  0.666667  0.777728  1
