# generated using pymatgen
data_YbPr(FeO3)2
_symmetry_space_group_name_H-M   'P 1'
_cell_length_a   5.46912900
_cell_length_b   5.57663400
_cell_length_c   7.76433900
_cell_angle_alpha   90.00000000
_cell_angle_beta   90.00000000
_cell_angle_gamma   90.00000000
_symmetry_Int_Tables_number   1
_chemical_formula_structural   YbPr(FeO3)2
_chemical_formula_sum   'Yb2 Pr2 Fe4 O12'
_cell_volume   236.80714307
_cell_formula_units_Z   2
loop_
 _symmetry_equiv_pos_site_id
 _symmetry_equiv_pos_as_xyz
  1  'x, y, z'
loop_
 _atom_site_type_symbol
 _atom_site_label
 _atom_site_symmetry_multiplicity
 _atom_site_fract_x
 _atom_site_fract_y
 _atom_site_fract_z
 _atom_site_occupancy
  Yb  Yb0  1  0.012412  0.946428  0.750000  1
  Yb  Yb1  1  0.512412  0.553572  0.250000  1
  Pr  Pr2  1  0.489394  0.453918  0.750000  1
  Pr  Pr3  1  0.989394  0.046082  0.250000  1
  Fe  Fe4  1  0.999139  0.502705  0.499286  1
  Fe  Fe5  1  0.499139  0.997295  0.500714  1
  Fe  Fe6  1  0.499139  0.997295  0.999286  1
  Fe  Fe7  1  0.999139  0.502705  0.000714  1
  O  O8  1  0.708213  0.293369  0.454859  1
  O  O9  1  0.208213  0.206631  0.545141  1
  O  O10  1  0.786893  0.788938  0.041349  1
  O  O11  1  0.286893  0.711062  0.958651  1
  O  O12  1  0.286893  0.711062  0.541349  1
  O  O13  1  0.786893  0.788938  0.458651  1
  O  O14  1  0.208213  0.206631  0.954859  1
  O  O15  1  0.708213  0.293369  0.045141  1
  O  O16  1  0.085928  0.482854  0.250000  1
  O  O17  1  0.585928  0.017146  0.750000  1
  O  O18  1  0.423776  0.975284  0.250000  1
  O  O19  1  0.923776  0.524716  0.750000  1
