# generated using pymatgen
data_Ni2PPt
_symmetry_space_group_name_H-M   'P 1'
_cell_length_a   4.52300489
_cell_length_b   4.52300409
_cell_length_c   6.65628200
_cell_angle_alpha   90.00000000
_cell_angle_beta   90.00000000
_cell_angle_gamma   134.51236874
_symmetry_Int_Tables_number   1
_chemical_formula_structural   Ni2PPt
_chemical_formula_sum   'Ni4 P2 Pt2'
_cell_volume   97.10367221
_cell_formula_units_Z   2
loop_
 _symmetry_equiv_pos_site_id
 _symmetry_equiv_pos_as_xyz
  1  'x, y, z'
loop_
 _atom_site_type_symbol
 _atom_site_label
 _atom_site_symmetry_multiplicity
 _atom_site_fract_x
 _atom_site_fract_y
 _atom_site_fract_z
 _atom_site_occupancy
  Ni  Ni0  1  0.853167  0.146833  0.054174  1
  Ni  Ni1  1  0.146833  0.853167  0.945826  1
  Ni  Ni2  1  0.146833  0.853167  0.554174  1
  Ni  Ni3  1  0.853167  0.146833  0.445826  1
  P  P4  1  0.266938  0.733062  0.250000  1
  P  P5  1  0.733062  0.266938  0.750000  1
  Pt  Pt6  1  0.554364  0.445636  0.250000  1
  Pt  Pt7  1  0.445636  0.554364  0.750000  1
