# generated using pymatgen
data_Tb2DyY9Ru4
_symmetry_space_group_name_H-M   'P 1'
_cell_length_a   6.36856203
_cell_length_b   7.32663603
_cell_length_c   9.24797200
_cell_angle_alpha   90.00000000
_cell_angle_beta   90.00000000
_cell_angle_gamma   89.92049283
_symmetry_Int_Tables_number   1
_chemical_formula_structural   Tb2DyY9Ru4
_chemical_formula_sum   'Tb2 Dy1 Y9 Ru4'
_cell_volume   431.51121659
_cell_formula_units_Z   1
loop_
 _symmetry_equiv_pos_site_id
 _symmetry_equiv_pos_as_xyz
  1  'x, y, z'
loop_
 _atom_site_type_symbol
 _atom_site_label
 _atom_site_symmetry_multiplicity
 _atom_site_fract_x
 _atom_site_fract_y
 _atom_site_fract_z
 _atom_site_occupancy
  Tb  Tb0  1  0.636389  0.043046  0.250000  1
  Tb  Tb1  1  0.136062  0.457355  0.750000  1
  Dy  Dy2  1  0.363476  0.957097  0.750000  1
  Y  Y3  1  0.328992  0.676541  0.065166  1
  Y  Y4  1  0.171469  0.176187  0.435278  1
  Y  Y5  1  0.670925  0.323455  0.565341  1
  Y  Y6  1  0.828631  0.823853  0.934745  1
  Y  Y7  1  0.670925  0.323455  0.934659  1
  Y  Y8  1  0.828631  0.823853  0.565255  1
  Y  Y9  1  0.328992  0.676541  0.434834  1
  Y  Y10  1  0.171469  0.176187  0.064722  1
  Y  Y11  1  0.865182  0.541373  0.250000  1
  Ru  Ru12  1  0.035668  0.886507  0.250000  1
  Ru  Ru13  1  0.463237  0.384296  0.250000  1
  Ru  Ru14  1  0.966200  0.115103  0.750000  1
  Ru  Ru15  1  0.533752  0.615148  0.750000  1
