# generated using pymatgen
data_Rb(PdO2)8
_symmetry_space_group_name_H-M   'P 1'
_cell_length_a   6.27891079
_cell_length_b   7.45957049
_cell_length_c   7.45984444
_cell_angle_alpha   87.45879126
_cell_angle_beta   77.85503138
_cell_angle_gamma   77.85238696
_symmetry_Int_Tables_number   1
_chemical_formula_structural   Rb(PdO2)8
_chemical_formula_sum   'Rb1 Pd8 O16'
_cell_volume   333.93530705
_cell_formula_units_Z   1
loop_
 _symmetry_equiv_pos_site_id
 _symmetry_equiv_pos_as_xyz
  1  'x, y, z'
loop_
 _atom_site_type_symbol
 _atom_site_label
 _atom_site_symmetry_multiplicity
 _atom_site_fract_x
 _atom_site_fract_y
 _atom_site_fract_z
 _atom_site_occupancy
  Rb  Rb0  1  0.500000  0.000000  0.000000  1
  Pd  Pd1  1  0.925840  0.480900  0.815908  1
  Pd  Pd2  1  0.425315  0.483006  0.815737  1
  Pd  Pd3  1  0.574685  0.516994  0.184263  1
  Pd  Pd4  1  0.074160  0.519100  0.184092  1
  Pd  Pd5  1  0.333035  0.184182  0.483120  1
  Pd  Pd6  1  0.833777  0.184231  0.480856  1
  Pd  Pd7  1  0.166223  0.815769  0.519144  1
  Pd  Pd8  1  0.666965  0.815818  0.516880  1
  O  O9  1  0.523532  0.280052  0.628676  1
  O  O10  1  0.022312  0.280398  0.627349  1
  O  O11  1  0.977688  0.719602  0.372651  1
  O  O12  1  0.476468  0.719948  0.371324  1
  O  O13  1  0.837113  0.373219  0.280905  1
  O  O14  1  0.336610  0.370922  0.279662  1
  O  O15  1  0.663390  0.629078  0.720338  1
  O  O16  1  0.162887  0.626781  0.719095  1
  O  O17  1  0.825524  0.643723  0.049098  1
  O  O18  1  0.328020  0.644202  0.048977  1
  O  O19  1  0.671980  0.355798  0.951023  1
  O  O20  1  0.174476  0.356277  0.950902  1
  O  O21  1  0.850142  0.951146  0.643507  1
  O  O22  1  0.352541  0.950692  0.644358  1
  O  O23  1  0.647459  0.049308  0.355642  1
  O  O24  1  0.149858  0.048854  0.356493  1
