# generated using pymatgen
data_Zr4Ta4SiAs3
_symmetry_space_group_name_H-M   'P 1'
_cell_length_a   3.62734900
_cell_length_b   7.07478981
_cell_length_c   8.55163400
_cell_angle_alpha   90.06014190
_cell_angle_beta   90.00000000
_cell_angle_gamma   90.00000000
_symmetry_Int_Tables_number   1
_chemical_formula_structural   Zr4Ta4SiAs3
_chemical_formula_sum   'Zr4 Ta4 Si1 As3'
_cell_volume   219.45816844
_cell_formula_units_Z   1
loop_
 _symmetry_equiv_pos_site_id
 _symmetry_equiv_pos_as_xyz
  1  'x, y, z'
loop_
 _atom_site_type_symbol
 _atom_site_label
 _atom_site_symmetry_multiplicity
 _atom_site_fract_x
 _atom_site_fract_y
 _atom_site_fract_z
 _atom_site_occupancy
  Zr  Zr0  1  0.250000  0.543313  0.830572  1
  Zr  Zr1  1  0.750000  0.958188  0.335833  1
  Zr  Zr2  1  0.250000  0.034780  0.666804  1
  Zr  Zr3  1  0.750000  0.459912  0.167505  1
  Ta  Ta4  1  0.250000  0.135771  0.059518  1
  Ta  Ta5  1  0.750000  0.866026  0.938455  1
  Ta  Ta6  1  0.250000  0.635781  0.441952  1
  Ta  Ta7  1  0.750000  0.368608  0.560463  1
  Si  Si8  1  0.750000  0.742068  0.642270  1
  As  As9  1  0.250000  0.756712  0.142761  1
  As  As10  1  0.750000  0.243996  0.855590  1
  As  As11  1  0.250000  0.254843  0.358275  1
