# generated using pymatgen
data_HfZr7Cu4
_symmetry_space_group_name_H-M   'P 1'
_cell_length_a   4.55538701
_cell_length_b   11.22383101
_cell_length_c   4.55076500
_cell_angle_alpha   90.00000000
_cell_angle_beta   90.00000000
_cell_angle_gamma   90.00572529
_symmetry_Int_Tables_number   1
_chemical_formula_structural   HfZr7Cu4
_chemical_formula_sum   'Hf1 Zr7 Cu4'
_cell_volume   232.67557994
_cell_formula_units_Z   1
loop_
 _symmetry_equiv_pos_site_id
 _symmetry_equiv_pos_as_xyz
  1  'x, y, z'
loop_
 _atom_site_type_symbol
 _atom_site_label
 _atom_site_symmetry_multiplicity
 _atom_site_fract_x
 _atom_site_fract_y
 _atom_site_fract_z
 _atom_site_occupancy
  Hf  Hf0  1  0.417034  0.154197  0.000000  1
  Zr  Zr1  1  0.917046  0.343299  0.000000  1
  Zr  Zr2  1  0.917146  0.654598  0.000000  1
  Zr  Zr3  1  0.417110  0.845692  0.000000  1
  Zr  Zr4  1  0.916136  0.154617  0.499999  1
  Zr  Zr5  1  0.416201  0.343310  0.499999  1
  Zr  Zr6  1  0.416188  0.654601  0.499999  1
  Zr  Zr7  1  0.916292  0.844579  0.499999  1
  Cu  Cu8  1  0.920667  0.002535  0.000000  1
  Cu  Cu9  1  0.420516  0.500062  0.000000  1
  Cu  Cu10  1  0.412910  0.002564  0.499999  1
  Cu  Cu11  1  0.912684  0.499945  0.499999  1
