# generated using pymatgen
data_Ho8Zr11Si16Au
_symmetry_space_group_name_H-M   'P 1'
_cell_length_a   7.07574922
_cell_length_b   7.28412339
_cell_length_c   13.94105000
_cell_angle_alpha   90.00000000
_cell_angle_beta   90.00000000
_cell_angle_gamma   89.69514907
_symmetry_Int_Tables_number   1
_chemical_formula_structural   Ho8Zr11Si16Au
_chemical_formula_sum   'Ho8 Zr11 Si16 Au1'
_cell_volume   718.52033501
_cell_formula_units_Z   1
loop_
 _symmetry_equiv_pos_site_id
 _symmetry_equiv_pos_as_xyz
  1  'x, y, z'
loop_
 _atom_site_type_symbol
 _atom_site_label
 _atom_site_symmetry_multiplicity
 _atom_site_fract_x
 _atom_site_fract_y
 _atom_site_fract_z
 _atom_site_occupancy
  Ho  Ho0  1  0.011600  0.175344  0.098772  1
  Ho  Ho1  1  0.987559  0.818659  0.902206  1
  Ho  Ho2  1  0.483447  0.673249  0.901677  1
  Ho  Ho3  1  0.987559  0.818659  0.597794  1
  Ho  Ho4  1  0.512469  0.324148  0.096205  1
  Ho  Ho5  1  0.011600  0.175344  0.401228  1
  Ho  Ho6  1  0.512469  0.324148  0.403795  1
  Ho  Ho7  1  0.483447  0.673249  0.598323  1
  Zr  Zr8  1  0.842122  0.503612  0.250000  1
  Zr  Zr9  1  0.341172  0.999236  0.250000  1
  Zr  Zr10  1  0.656298  0.998963  0.750000  1
  Zr  Zr11  1  0.322310  0.182741  0.627074  1
  Zr  Zr12  1  0.669398  0.822330  0.376199  1
  Zr  Zr13  1  0.171005  0.681261  0.375276  1
  Zr  Zr14  1  0.669398  0.822330  0.123801  1
  Zr  Zr15  1  0.842382  0.322748  0.626739  1
  Zr  Zr16  1  0.322310  0.182741  0.872926  1
  Zr  Zr17  1  0.842382  0.322748  0.873261  1
  Zr  Zr18  1  0.171005  0.681261  0.124724  1
  Si  Si19  1  0.028947  0.092973  0.750000  1
  Si  Si20  1  0.964517  0.884530  0.250000  1
  Si  Si21  1  0.466634  0.616372  0.250000  1
  Si  Si22  1  0.539272  0.380704  0.750000  1
  Si  Si23  1  0.287137  0.876440  0.750000  1
  Si  Si24  1  0.715522  0.127997  0.250000  1
  Si  Si25  1  0.217430  0.373168  0.250000  1
  Si  Si26  1  0.776174  0.625971  0.750000  1
  Si  Si27  1  0.162252  0.461442  0.530218  1
  Si  Si28  1  0.841944  0.532366  0.461283  1
  Si  Si29  1  0.342849  0.970088  0.461403  1
  Si  Si30  1  0.841944  0.532366  0.038717  1
  Si  Si31  1  0.655237  0.033417  0.542741  1
  Si  Si32  1  0.162252  0.461442  0.969782  1
  Si  Si33  1  0.655237  0.033417  0.957259  1
  Si  Si34  1  0.342849  0.970088  0.038597  1
  Au  Au35  1  0.159874  0.524449  0.750000  1
