# generated using pymatgen
data_Tb6Al24ZnRu7
_symmetry_space_group_name_H-M   'P 1'
_cell_length_a   8.84545101
_cell_length_b   8.84545025
_cell_length_c   9.55077601
_cell_angle_alpha   90.00531510
_cell_angle_beta   89.99468552
_cell_angle_gamma   119.90568900
_symmetry_Int_Tables_number   1
_chemical_formula_structural   Tb6Al24ZnRu7
_chemical_formula_sum   'Tb6 Al24 Zn1 Ru7'
_cell_volume   647.77048866
_cell_formula_units_Z   1
loop_
 _symmetry_equiv_pos_site_id
 _symmetry_equiv_pos_as_xyz
  1  'x, y, z'
loop_
 _atom_site_type_symbol
 _atom_site_label
 _atom_site_symmetry_multiplicity
 _atom_site_fract_x
 _atom_site_fract_y
 _atom_site_fract_z
 _atom_site_occupancy
  Tb  Tb0  1  0.385668  0.192649  0.252534  1
  Tb  Tb1  1  0.806077  0.193923  0.247193  1
  Tb  Tb2  1  0.807351  0.614332  0.252534  1
  Tb  Tb3  1  0.614332  0.807351  0.747466  1
  Tb  Tb4  1  0.193923  0.806077  0.752807  1
  Tb  Tb5  1  0.192649  0.385668  0.747466  1
  Al  Al6  1  0.438688  0.878382  0.251544  1
  Al  Al7  1  0.121618  0.561312  0.251544  1
  Al  Al8  1  0.436390  0.563610  0.244982  1
  Al  Al9  1  0.561312  0.121618  0.748456  1
  Al  Al10  1  0.878382  0.438688  0.748456  1
  Al  Al11  1  0.563610  0.436390  0.755018  1
  Al  Al12  1  0.162693  0.837307  0.421913  1
  Al  Al13  1  0.150505  0.321916  0.418712  1
  Al  Al14  1  0.678084  0.849495  0.418712  1
  Al  Al15  1  0.837307  0.162693  0.578087  1
  Al  Al16  1  0.849495  0.678084  0.581288  1
  Al  Al17  1  0.321916  0.150505  0.581288  1
  Al  Al18  1  0.837532  0.162468  0.922222  1
  Al  Al19  1  0.837897  0.675664  0.923595  1
  Al  Al20  1  0.324336  0.162103  0.923595  1
  Al  Al21  1  0.162468  0.837532  0.077778  1
  Al  Al22  1  0.162103  0.324336  0.076405  1
  Al  Al23  1  0.675664  0.837897  0.076405  1
  Al  Al24  1  0.328994  0.671006  0.519123  1
  Al  Al25  1  0.671006  0.328994  0.480877  1
  Al  Al26  1  0.666446  0.333554  0.014881  1
  Al  Al27  1  0.333554  0.666446  0.985119  1
  Al  Al28  1  0.000903  0.999097  0.249630  1
  Al  Al29  1  0.999097  0.000903  0.750370  1
  Zn  Zn30  1  0.500000  0.500000  0.500000  1
  Ru  Ru31  1  0.000000  0.000000  0.500000  1
  Ru  Ru32  1  0.000000  0.000000  0.000000  1
  Ru  Ru33  1  0.500000  0.000000  0.500000  1
  Ru  Ru34  1  0.000000  0.500000  0.500000  1
  Ru  Ru35  1  0.500000  0.000000  0.000000  1
  Ru  Ru36  1  0.000000  0.500000  0.000000  1
  Ru  Ru37  1  0.500000  0.500000  0.000000  1
