# generated using pymatgen
data_Er2In(Co3B2)3
_symmetry_space_group_name_H-M   'P 1'
_cell_length_a   5.78181305
_cell_length_b   5.78181337
_cell_length_c   5.78181322
_cell_angle_alpha   95.84703260
_cell_angle_beta   95.84703628
_cell_angle_gamma   95.84703461
_symmetry_Int_Tables_number   1
_chemical_formula_structural   Er2In(Co3B2)3
_chemical_formula_sum   'Er2 In1 Co9 B6'
_cell_volume   190.04197362
_cell_formula_units_Z   1
loop_
 _symmetry_equiv_pos_site_id
 _symmetry_equiv_pos_as_xyz
  1  'x, y, z'
loop_
 _atom_site_type_symbol
 _atom_site_label
 _atom_site_symmetry_multiplicity
 _atom_site_fract_x
 _atom_site_fract_y
 _atom_site_fract_z
 _atom_site_occupancy
  Er  Er0  1  0.672777  0.672777  0.672777  1
  Er  Er1  1  0.327223  0.327223  0.327223  1
  In  In2  1  0.000000  0.000000  0.000000  1
  Co  Co3  1  0.000000  0.000000  0.500000  1
  Co  Co4  1  0.500000  0.000000  0.000000  1
  Co  Co5  1  0.000000  0.500000  0.000000  1
  Co  Co6  1  0.702075  0.197506  0.702075  1
  Co  Co7  1  0.702075  0.702075  0.197506  1
  Co  Co8  1  0.197506  0.702075  0.702075  1
  Co  Co9  1  0.297925  0.802494  0.297925  1
  Co  Co10  1  0.297925  0.297925  0.802494  1
  Co  Co11  1  0.802494  0.297925  0.297925  1
  B  B12  1  0.616667  0.383333  0.000000  1
  B  B13  1  0.000000  0.616667  0.383333  1
  B  B14  1  0.383333  0.000000  0.616667  1
  B  B15  1  0.000000  0.383333  0.616667  1
  B  B16  1  0.616667  0.000000  0.383333  1
  B  B17  1  0.383333  0.616667  0.000000  1
