# generated using pymatgen
data_Zr12Tc6Ru5Pt
_symmetry_space_group_name_H-M   'P 1'
_cell_length_a   4.66196100
_cell_length_b   6.56912300
_cell_length_c   13.99685600
_cell_angle_alpha   90.00002972
_cell_angle_beta   90.00049144
_cell_angle_gamma   90.00000872
_symmetry_Int_Tables_number   1
_chemical_formula_structural   Zr12Tc6Ru5Pt
_chemical_formula_sum   'Zr12 Tc6 Ru5 Pt1'
_cell_volume   428.65364823
_cell_formula_units_Z   1
loop_
 _symmetry_equiv_pos_site_id
 _symmetry_equiv_pos_as_xyz
  1  'x, y, z'
loop_
 _atom_site_type_symbol
 _atom_site_label
 _atom_site_symmetry_multiplicity
 _atom_site_fract_x
 _atom_site_fract_y
 _atom_site_fract_z
 _atom_site_occupancy
  Zr  Zr0  1  0.500002  0.255079  0.000000  1
  Zr  Zr1  1  0.500000  0.744921  0.000000  1
  Zr  Zr2  1  0.999983  0.252900  0.169848  1
  Zr  Zr3  1  0.999983  0.747100  0.169847  1
  Zr  Zr4  1  0.499986  0.249740  0.333796  1
  Zr  Zr5  1  0.499985  0.750260  0.333795  1
  Zr  Zr6  1  0.999999  0.249957  0.500000  1
  Zr  Zr7  1  0.000001  0.750043  0.500000  1
  Zr  Zr8  1  0.500015  0.249741  0.666206  1
  Zr  Zr9  1  0.500014  0.750261  0.666205  1
  Zr  Zr10  1  0.000017  0.252900  0.830153  1
  Zr  Zr11  1  0.000017  0.747100  0.830152  1
  Tc  Tc12  1  0.000000  0.500000  0.000000  1
  Tc  Tc13  1  0.499983  0.000000  0.165448  1
  Tc  Tc14  1  0.999986  0.500000  0.333177  1
  Tc  Tc15  1  0.499999  0.000000  0.500000  1
  Tc  Tc16  1  0.000014  0.500000  0.666824  1
  Tc  Tc17  1  0.500018  0.000000  0.834553  1
  Ru  Ru18  1  0.499992  0.499999  0.166239  1
  Ru  Ru19  1  0.999980  0.000000  0.332544  1
  Ru  Ru20  1  0.499999  0.500000  0.500000  1
  Ru  Ru21  1  0.000020  0.000000  0.667456  1
  Ru  Ru22  1  0.500009  0.500001  0.833761  1
  Pt  Pt23  1  0.000000  0.000000  0.000000  1
