# generated using pymatgen
data_HfZr5PCl15
_symmetry_space_group_name_H-M   'P 1'
_cell_length_a   8.99482748
_cell_length_b   8.99482811
_cell_length_c   8.99482800
_cell_angle_alpha   109.49455817
_cell_angle_beta   109.49455284
_cell_angle_gamma   109.42455983
_symmetry_Int_Tables_number   1
_chemical_formula_structural   HfZr5PCl15
_chemical_formula_sum   'Hf1 Zr5 P1 Cl15'
_cell_volume   560.21723903
_cell_formula_units_Z   1
loop_
 _symmetry_equiv_pos_site_id
 _symmetry_equiv_pos_as_xyz
  1  'x, y, z'
loop_
 _atom_site_type_symbol
 _atom_site_label
 _atom_site_symmetry_multiplicity
 _atom_site_fract_x
 _atom_site_fract_y
 _atom_site_fract_z
 _atom_site_occupancy
  Hf  Hf0  1  0.240462  0.240462  0.000000  1
  Zr  Zr1  1  0.767083  0.767083  0.000000  1
  Zr  Zr2  1  0.761177  0.998062  0.763115  1
  Zr  Zr3  1  0.998062  0.761177  0.763115  1
  Zr  Zr4  1  0.998062  0.234948  0.236885  1
  Zr  Zr5  1  0.234948  0.998062  0.236885  1
  P  P6  1  0.003642  0.003642  0.000000  1
  Cl  Cl7  1  0.752629  0.505713  0.753084  1
  Cl  Cl8  1  0.490475  0.490475  0.000000  1
  Cl  Cl9  1  0.000981  0.500981  0.500000  1
  Cl  Cl10  1  0.500981  0.000981  0.500000  1
  Cl  Cl11  1  0.247700  0.005011  0.757311  1
  Cl  Cl12  1  0.005011  0.247700  0.757311  1
  Cl  Cl13  1  0.752629  0.999545  0.246916  1
  Cl  Cl14  1  0.505713  0.752629  0.753084  1
  Cl  Cl15  1  0.999545  0.752629  0.246916  1
  Cl  Cl16  1  0.247562  0.247562  0.493720  1
  Cl  Cl17  1  0.753841  0.247562  0.000000  1
  Cl  Cl18  1  0.490390  0.247700  0.242689  1
  Cl  Cl19  1  0.247700  0.490390  0.242689  1
  Cl  Cl20  1  0.753841  0.753841  0.506280  1
  Cl  Cl21  1  0.247562  0.753841  0.000000  1
