# generated using pymatgen
data_Pr2Nd(EuIr)2
_symmetry_space_group_name_H-M   'P 1'
_cell_length_a   8.83069673
_cell_length_b   8.83069665
_cell_length_c   7.46750300
_cell_angle_alpha   83.26567437
_cell_angle_beta   83.26567444
_cell_angle_gamma   44.93248009
_symmetry_Int_Tables_number   1
_chemical_formula_structural   Pr2Nd(EuIr)2
_chemical_formula_sum   'Pr4 Nd2 Eu4 Ir4'
_cell_volume   407.95553100
_cell_formula_units_Z   2
loop_
 _symmetry_equiv_pos_site_id
 _symmetry_equiv_pos_as_xyz
  1  'x, y, z'
loop_
 _atom_site_type_symbol
 _atom_site_label
 _atom_site_symmetry_multiplicity
 _atom_site_fract_x
 _atom_site_fract_y
 _atom_site_fract_z
 _atom_site_occupancy
  Pr  Pr0  1  0.348237  0.212009  0.815682  1
  Pr  Pr1  1  0.787991  0.651763  0.684318  1
  Pr  Pr2  1  0.651763  0.787991  0.184318  1
  Pr  Pr3  1  0.212009  0.348237  0.315682  1
  Nd  Nd4  1  0.565731  0.434269  0.750000  1
  Nd  Nd5  1  0.434269  0.565731  0.250000  1
  Eu  Eu6  1  0.016639  0.800742  0.917349  1
  Eu  Eu7  1  0.199258  0.983361  0.582651  1
  Eu  Eu8  1  0.983361  0.199258  0.082651  1
  Eu  Eu9  1  0.800742  0.016639  0.417349  1
  Ir  Ir10  1  0.185577  0.588631  0.571961  1
  Ir  Ir11  1  0.411369  0.814423  0.928039  1
  Ir  Ir12  1  0.814423  0.411369  0.428039  1
  Ir  Ir13  1  0.588631  0.185577  0.071961  1
