# generated using pymatgen
data_Ti10Zn2InBi5
_symmetry_space_group_name_H-M   'P 1'
_cell_length_a   8.38616300
_cell_length_b   8.42378607
_cell_length_c   5.63832000
_cell_angle_alpha   90.00000000
_cell_angle_beta   90.00000000
_cell_angle_gamma   119.85236989
_symmetry_Int_Tables_number   1
_chemical_formula_structural   Ti10Zn2InBi5
_chemical_formula_sum   'Ti10 Zn2 In1 Bi5'
_cell_volume   345.45789700
_cell_formula_units_Z   1
loop_
 _symmetry_equiv_pos_site_id
 _symmetry_equiv_pos_as_xyz
  1  'x, y, z'
loop_
 _atom_site_type_symbol
 _atom_site_label
 _atom_site_symmetry_multiplicity
 _atom_site_fract_x
 _atom_site_fract_y
 _atom_site_fract_z
 _atom_site_occupancy
  Ti  Ti0  1  0.271160  0.000000  0.750000  1
  Ti  Ti1  1  0.731732  0.000000  0.250000  1
  Ti  Ti2  1  0.996825  0.266881  0.750000  1
  Ti  Ti3  1  0.000366  0.731618  0.250000  1
  Ti  Ti4  1  0.729944  0.733119  0.750000  1
  Ti  Ti5  1  0.268748  0.268382  0.250000  1
  Ti  Ti6  1  0.334137  0.667681  0.502115  1
  Ti  Ti7  1  0.666457  0.332319  0.502115  1
  Ti  Ti8  1  0.666457  0.332319  0.997885  1
  Ti  Ti9  1  0.334137  0.667681  0.997885  1
  Zn  Zn10  1  0.998127  0.000000  0.501575  1
  Zn  Zn11  1  0.998127  0.000000  0.998425  1
  In  In12  1  0.618001  0.000000  0.750000  1
  Bi  Bi13  1  0.386979  0.000000  0.250000  1
  Bi  Bi14  1  0.999851  0.617391  0.750000  1
  Bi  Bi15  1  0.999294  0.382099  0.250000  1
  Bi  Bi16  1  0.382460  0.382609  0.750000  1
  Bi  Bi17  1  0.617195  0.617901  0.250000  1
