# generated using pymatgen
data_Ho9TmIr3Os
_symmetry_space_group_name_H-M   'P 1'
_cell_length_a   6.45670287
_cell_length_b   7.23084716
_cell_length_c   8.39568011
_cell_angle_alpha   96.41951971
_cell_angle_beta   112.31960554
_cell_angle_gamma   89.98565738
_symmetry_Int_Tables_number   1
_chemical_formula_structural   Ho9TmIr3Os
_chemical_formula_sum   'Ho9 Tm1 Ir3 Os1'
_cell_volume   359.95242425
_cell_formula_units_Z   1
loop_
 _symmetry_equiv_pos_site_id
 _symmetry_equiv_pos_as_xyz
  1  'x, y, z'
loop_
 _atom_site_type_symbol
 _atom_site_label
 _atom_site_symmetry_multiplicity
 _atom_site_fract_x
 _atom_site_fract_y
 _atom_site_fract_z
 _atom_site_occupancy
  Ho  Ho0  1  0.970279  0.917533  0.182601  1
  Ho  Ho1  1  0.789229  0.581601  0.821543  1
  Ho  Ho2  1  0.029594  0.082020  0.818841  1
  Ho  Ho3  1  0.211263  0.418486  0.183009  1
  Ho  Ho4  1  0.656014  0.816895  0.439989  1
  Ho  Ho5  1  0.210701  0.681651  0.556900  1
  Ho  Ho6  1  0.346488  0.182002  0.559321  1
  Ho  Ho7  1  0.786664  0.319171  0.439829  1
  Ho  Ho8  1  0.427000  0.749637  0.000366  1
  Tm  Tm9  1  0.574518  0.251331  0.000864  1
  Ir  Ir10  1  0.607185  0.927692  0.780949  1
  Ir  Ir11  1  0.174078  0.424908  0.781727  1
  Ir  Ir12  1  0.391639  0.074045  0.218287  1
  Os  Os13  1  0.825347  0.573030  0.215774  1
