# generated using pymatgen
data_SmTm4Th3(ReB6)4
_symmetry_space_group_name_H-M   'P 1'
_cell_length_a   3.73771700
_cell_length_b   9.21408351
_cell_length_c   11.65089391
_cell_angle_alpha   89.93433188
_cell_angle_beta   90.00000000
_cell_angle_gamma   90.00000000
_symmetry_Int_Tables_number   1
_chemical_formula_structural   SmTm4Th3(ReB6)4
_chemical_formula_sum   'Sm1 Tm4 Th3 Re4 B24'
_cell_volume   401.25228872
_cell_formula_units_Z   1
loop_
 _symmetry_equiv_pos_site_id
 _symmetry_equiv_pos_as_xyz
  1  'x, y, z'
loop_
 _atom_site_type_symbol
 _atom_site_label
 _atom_site_symmetry_multiplicity
 _atom_site_fract_x
 _atom_site_fract_y
 _atom_site_fract_z
 _atom_site_occupancy
  Sm  Sm0  1  0.000000  0.322431  0.413674  1
  Tm  Tm1  1  0.000000  0.945025  0.371767  1
  Tm  Tm2  1  0.000000  0.056897  0.627540  1
  Tm  Tm3  1  0.000000  0.443975  0.128626  1
  Tm  Tm4  1  0.000000  0.555037  0.872681  1
  Th  Th5  1  0.000000  0.676275  0.585371  1
  Th  Th6  1  0.000000  0.821360  0.086101  1
  Th  Th7  1  0.000000  0.178631  0.914486  1
  Re  Re8  1  0.000000  0.640276  0.319466  1
  Re  Re9  1  0.000000  0.360225  0.680680  1
  Re  Re10  1  0.000000  0.138689  0.180306  1
  Re  Re11  1  0.000000  0.860638  0.819252  1
  B  B12  1  0.500000  0.555174  0.430277  1
  B  B13  1  0.500000  0.443778  0.569111  1
  B  B14  1  0.500000  0.056084  0.070460  1
  B  B15  1  0.500000  0.943835  0.929452  1
  B  B16  1  0.500000  0.749936  0.416567  1
  B  B17  1  0.500000  0.249891  0.582351  1
  B  B18  1  0.500000  0.250963  0.083778  1
  B  B19  1  0.500000  0.749173  0.916709  1
  B  B20  1  0.500000  0.791518  0.266771  1
  B  B21  1  0.500000  0.208683  0.732976  1
  B  B22  1  0.500000  0.292261  0.234144  1
  B  B23  1  0.500000  0.708377  0.766498  1
  B  B24  1  0.500000  0.629647  0.186367  1
  B  B25  1  0.500000  0.369845  0.813925  1
  B  B26  1  0.500000  0.130873  0.314813  1
  B  B27  1  0.500000  0.869963  0.685730  1
  B  B28  1  0.500000  0.984964  0.214507  1
  B  B29  1  0.500000  0.015412  0.785587  1
  B  B30  1  0.500000  0.483490  0.286156  1
  B  B31  1  0.500000  0.514959  0.713854  1
  B  B32  1  0.500000  0.601381  0.027928  1
  B  B33  1  0.500000  0.398607  0.972622  1
  B  B34  1  0.500000  0.100950  0.472065  1
  B  B35  1  0.500000  0.900778  0.527400  1
