# generated using pymatgen
data_Zr10BeGa3Bi4
_symmetry_space_group_name_H-M   'P 1'
_cell_length_a   8.67172836
_cell_length_b   8.67172900
_cell_length_c   5.88306898
_cell_angle_alpha   90.08215668
_cell_angle_beta   90.08215424
_cell_angle_gamma   119.90683556
_symmetry_Int_Tables_number   1
_chemical_formula_structural   Zr10BeGa3Bi4
_chemical_formula_sum   'Zr10 Be1 Ga3 Bi4'
_cell_volume   383.48739997
_cell_formula_units_Z   1
loop_
 _symmetry_equiv_pos_site_id
 _symmetry_equiv_pos_as_xyz
  1  'x, y, z'
loop_
 _atom_site_type_symbol
 _atom_site_label
 _atom_site_symmetry_multiplicity
 _atom_site_fract_x
 _atom_site_fract_y
 _atom_site_fract_z
 _atom_site_occupancy
  Zr  Zr0  1  0.667667  0.327137  0.007645  1
  Zr  Zr1  1  0.327137  0.667667  0.007645  1
  Zr  Zr2  1  0.327098  0.667959  0.491371  1
  Zr  Zr3  1  0.667959  0.327098  0.491371  1
  Zr  Zr4  1  0.747190  0.747190  0.762626  1
  Zr  Zr5  1  0.249717  0.997204  0.767944  1
  Zr  Zr6  1  0.997204  0.249717  0.767944  1
  Zr  Zr7  1  0.259037  0.259037  0.234853  1
  Zr  Zr8  1  0.739493  0.018698  0.238377  1
  Zr  Zr9  1  0.018698  0.739493  0.238377  1
  Be  Be10  1  0.997627  0.997627  0.023804  1
  Ga  Ga11  1  0.999388  0.999388  0.481783  1
  Ga  Ga12  1  0.387577  0.003173  0.249486  1
  Ga  Ga13  1  0.003173  0.387577  0.249486  1
  Bi  Bi14  1  0.391375  0.391375  0.744655  1
  Bi  Bi15  1  0.602194  0.996866  0.744770  1
  Bi  Bi16  1  0.996866  0.602194  0.744770  1
  Bi  Bi17  1  0.620602  0.620602  0.253094  1
