# generated using pymatgen
data_Yb3Pr(OsC2)2
_symmetry_space_group_name_H-M   'P 1'
_cell_length_a   5.17280900
_cell_length_b   6.44546703
_cell_length_c   10.28421400
_cell_angle_alpha   90.32708408
_cell_angle_beta   90.00000000
_cell_angle_gamma   90.00000000
_symmetry_Int_Tables_number   1
_chemical_formula_structural   Yb3Pr(OsC2)2
_chemical_formula_sum   'Yb6 Pr2 Os4 C8'
_cell_volume   342.88213846
_cell_formula_units_Z   2
loop_
 _symmetry_equiv_pos_site_id
 _symmetry_equiv_pos_as_xyz
  1  'x, y, z'
loop_
 _atom_site_type_symbol
 _atom_site_label
 _atom_site_symmetry_multiplicity
 _atom_site_fract_x
 _atom_site_fract_y
 _atom_site_fract_z
 _atom_site_occupancy
  Yb  Yb0  1  0.750000  0.803456  0.047209  1
  Yb  Yb1  1  0.250000  0.196544  0.952791  1
  Yb  Yb2  1  0.250000  0.535154  0.216204  1
  Yb  Yb3  1  0.750000  0.464846  0.783796  1
  Yb  Yb4  1  0.750000  0.972373  0.739210  1
  Yb  Yb5  1  0.250000  0.027627  0.260790  1
  Pr  Pr6  1  0.250000  0.703710  0.550376  1
  Pr  Pr7  1  0.750000  0.296290  0.449624  1
  Os  Os8  1  0.250000  0.731870  0.859954  1
  Os  Os9  1  0.750000  0.268130  0.140046  1
  Os  Os10  1  0.750000  0.770674  0.344526  1
  Os  Os11  1  0.250000  0.229326  0.655474  1
  C  C12  1  0.250000  0.470820  0.762892  1
  C  C13  1  0.750000  0.529180  0.237108  1
  C  C14  1  0.750000  0.030699  0.251719  1
  C  C15  1  0.250000  0.969301  0.748281  1
  C  C16  1  0.250000  0.800255  0.034770  1
  C  C17  1  0.750000  0.199745  0.965230  1
  C  C18  1  0.750000  0.707084  0.524385  1
  C  C19  1  0.250000  0.292916  0.475615  1
