# generated using pymatgen
data_Sr10Re3OsN14
_symmetry_space_group_name_H-M   'P 1'
_cell_length_a   6.39208249
_cell_length_b   9.41149168
_cell_length_c   9.41638473
_cell_angle_alpha   115.08990759
_cell_angle_beta   100.70872434
_cell_angle_gamma   88.97771156
_symmetry_Int_Tables_number   1
_chemical_formula_structural   Sr10Re3OsN14
_chemical_formula_sum   'Sr10 Re3 Os1 N14'
_cell_volume   502.91090009
_cell_formula_units_Z   1
loop_
 _symmetry_equiv_pos_site_id
 _symmetry_equiv_pos_as_xyz
  1  'x, y, z'
loop_
 _atom_site_type_symbol
 _atom_site_label
 _atom_site_symmetry_multiplicity
 _atom_site_fract_x
 _atom_site_fract_y
 _atom_site_fract_z
 _atom_site_occupancy
  Sr  Sr0  1  0.879545  0.598217  0.339804  1
  Sr  Sr1  1  0.276976  0.988895  0.570743  1
  Sr  Sr2  1  0.680078  0.402725  0.838629  1
  Sr  Sr3  1  0.312024  0.591966  0.154792  1
  Sr  Sr4  1  0.383585  0.783576  0.897687  1
  Sr  Sr5  1  0.617140  0.214993  0.103960  1
  Sr  Sr6  1  0.119527  0.398655  0.658141  1
  Sr  Sr7  1  0.878795  0.853925  0.750154  1
  Sr  Sr8  1  0.129548  0.148108  0.252719  1
  Sr  Sr9  1  0.723690  0.014061  0.431032  1
  Re  Re10  1  0.425245  0.637938  0.521613  1
  Re  Re11  1  0.120539  0.218784  0.922978  1
  Re  Re12  1  0.878174  0.780292  0.076938  1
  Os  Os13  1  0.576864  0.359893  0.475859  1
  N  N14  1  0.470417  0.533239  0.666458  1
  N  N15  1  0.525932  0.470188  0.332808  1
  N  N16  1  0.177704  0.737958  0.593094  1
  N  N17  1  0.823402  0.261651  0.397612  1
  N  N18  1  0.433756  0.203481  0.513232  1
  N  N19  1  0.571314  0.803450  0.504131  1
  N  N20  1  0.945080  0.137231  0.722602  1
  N  N21  1  0.054967  0.864009  0.276503  1
  N  N22  1  0.230026  0.060354  0.974253  1
  N  N23  1  0.767271  0.937285  0.024489  1
  N  N24  1  0.349269  0.328532  0.915451  1
  N  N25  1  0.974877  0.349901  0.076201  1
  N  N26  1  0.024501  0.650687  0.922770  1
  N  N27  1  0.649754  0.670006  0.085347  1
