# generated using pymatgen
data_NaNb6SbS12
_symmetry_space_group_name_H-M   'P 1'
_cell_length_a   5.85310300
_cell_length_b   5.85310335
_cell_length_c   14.21706900
_cell_angle_alpha   90.00000000
_cell_angle_beta   90.00000000
_cell_angle_gamma   120.00000370
_symmetry_Int_Tables_number   1
_chemical_formula_structural   NaNb6SbS12
_chemical_formula_sum   'Na1 Nb6 Sb1 S12'
_cell_volume   421.80628426
_cell_formula_units_Z   1
loop_
 _symmetry_equiv_pos_site_id
 _symmetry_equiv_pos_as_xyz
  1  'x, y, z'
loop_
 _atom_site_type_symbol
 _atom_site_label
 _atom_site_symmetry_multiplicity
 _atom_site_fract_x
 _atom_site_fract_y
 _atom_site_fract_z
 _atom_site_occupancy
  Na  Na0  1  0.666667  0.333333  0.750000  1
  Nb  Nb1  1  0.333333  0.666667  0.002135  1
  Nb  Nb2  1  0.000000  0.000000  0.003353  1
  Nb  Nb3  1  0.666667  0.333333  0.003437  1
  Nb  Nb4  1  0.333333  0.666667  0.497865  1
  Nb  Nb5  1  0.000000  0.000000  0.496647  1
  Nb  Nb6  1  0.666667  0.333333  0.496563  1
  Sb  Sb7  1  0.333333  0.666667  0.250000  1
  S  S8  1  0.668257  0.666614  0.386809  1
  S  S9  1  0.667537  0.669333  0.606276  1
  S  S10  1  0.001796  0.669333  0.893724  1
  S  S11  1  0.667537  0.998204  0.893724  1
  S  S12  1  0.668257  0.001643  0.113191  1
  S  S13  1  0.333386  0.001643  0.386809  1
  S  S14  1  0.001796  0.332463  0.606276  1
  S  S15  1  0.330667  0.998204  0.606276  1
  S  S16  1  0.998357  0.666614  0.113191  1
  S  S17  1  0.330667  0.332463  0.893724  1
  S  S18  1  0.998357  0.331743  0.386809  1
  S  S19  1  0.333386  0.331743  0.113191  1
