# generated using pymatgen
data_La11PrTc2(PtI6)2
_symmetry_space_group_name_H-M   'P 1'
_cell_length_a   11.05062279
_cell_length_b   11.04830214
_cell_length_c   11.05801958
_cell_angle_alpha   110.59204882
_cell_angle_beta   110.03029664
_cell_angle_gamma   107.81781034
_symmetry_Int_Tables_number   1
_chemical_formula_structural   La11PrTc2(PtI6)2
_chemical_formula_sum   'La11 Pr1 Tc2 Pt2 I12'
_cell_volume   1038.44487889
_cell_formula_units_Z   1
loop_
 _symmetry_equiv_pos_site_id
 _symmetry_equiv_pos_as_xyz
  1  'x, y, z'
loop_
 _atom_site_type_symbol
 _atom_site_label
 _atom_site_symmetry_multiplicity
 _atom_site_fract_x
 _atom_site_fract_y
 _atom_site_fract_z
 _atom_site_occupancy
  La  La0  1  0.748902  0.229864  0.270392  1
  La  La1  1  0.726547  0.009816  0.465350  1
  La  La2  1  0.239619  0.456131  0.466843  1
  La  La3  1  0.269113  0.744995  0.226578  1
  La  La4  1  0.046232  0.262105  0.034432  1
  La  La5  1  0.017905  0.039362  0.272063  1
  La  La6  1  0.489078  0.770735  0.032739  1
  La  La7  1  0.475017  0.227961  0.453262  1
  La  La8  1  0.018428  0.476854  0.745520  1
  La  La9  1  0.273018  0.024826  0.046716  1
  La  La10  1  0.230069  0.274879  0.754573  1
  Pr  Pr11  1  0.461666  0.479106  0.230846  1
  Tc  Tc12  1  0.237918  0.260845  0.251466  1
  Tc  Tc13  1  0.513793  0.987771  0.250214  1
  Pt  Pt14  1  0.000987  0.251127  0.502812  1
  Pt  Pt15  1  0.248988  0.500096  0.996776  1
  I  I16  1  0.244393  0.756237  0.742998  1
  I  I17  1  0.513650  0.502009  0.758170  1
  I  I18  1  0.986481  0.745828  0.989635  1
  I  I19  1  0.743289  0.256573  0.756480  1
  I  I20  1  0.999489  0.986868  0.742574  1
  I  I21  1  0.256041  0.996483  0.510185  1
  I  I22  1  0.753495  0.517087  0.511148  1
  I  I23  1  0.505143  0.245566  0.990084  1
  I  I24  1  0.757164  0.738585  0.249090  1
  I  I25  1  0.740171  0.989724  0.979270  1
  I  I26  1  0.992257  0.509570  0.250895  1
  I  I27  1  0.511151  0.758993  0.518890  1
