# generated using pymatgen
data_Nd8Zn8AgIr4Rh3
_symmetry_space_group_name_H-M   'P 1'
_cell_length_a   4.04568700
_cell_length_b   7.37819680
_cell_length_c   16.76592567
_cell_angle_alpha   90.10471523
_cell_angle_beta   90.00000000
_cell_angle_gamma   90.00000000
_symmetry_Int_Tables_number   1
_chemical_formula_structural   Nd8Zn8AgIr4Rh3
_chemical_formula_sum   'Nd8 Zn8 Ag1 Ir4 Rh3'
_cell_volume   500.45994774
_cell_formula_units_Z   1
loop_
 _symmetry_equiv_pos_site_id
 _symmetry_equiv_pos_as_xyz
  1  'x, y, z'
loop_
 _atom_site_type_symbol
 _atom_site_label
 _atom_site_symmetry_multiplicity
 _atom_site_fract_x
 _atom_site_fract_y
 _atom_site_fract_z
 _atom_site_occupancy
  Nd  Nd0  1  0.750000  0.451495  0.213097  1
  Nd  Nd1  1  0.750000  0.949173  0.282083  1
  Nd  Nd2  1  0.750000  0.832101  0.060512  1
  Nd  Nd3  1  0.250000  0.037894  0.724847  1
  Nd  Nd4  1  0.250000  0.170135  0.940863  1
  Nd  Nd5  1  0.250000  0.550892  0.787806  1
  Nd  Nd6  1  0.750000  0.334428  0.428837  1
  Nd  Nd7  1  0.250000  0.676020  0.559920  1
  Zn  Zn8  1  0.250000  0.991245  0.432539  1
  Zn  Zn9  1  0.750000  0.500863  0.940528  1
  Zn  Zn10  1  0.750000  0.993084  0.560373  1
  Zn  Zn11  1  0.250000  0.623289  0.346665  1
  Zn  Zn12  1  0.750000  0.386649  0.660409  1
  Zn  Zn13  1  0.750000  0.875724  0.853504  1
  Zn  Zn14  1  0.250000  0.498855  0.059488  1
  Zn  Zn15  1  0.250000  0.123335  0.149638  1
  Ag  Ag16  1  0.250000  0.244048  0.567210  1
  Ir  Ir17  1  0.750000  0.257891  0.065383  1
  Ir  Ir18  1  0.250000  0.244044  0.313191  1
  Ir  Ir19  1  0.750000  0.253673  0.812710  1
  Ir  Ir20  1  0.750000  0.754443  0.684194  1
  Rh  Rh21  1  0.250000  0.743290  0.936658  1
  Rh  Rh22  1  0.750000  0.757354  0.434132  1
  Rh  Rh23  1  0.250000  0.750072  0.185415  1
