# generated using pymatgen
data_Dy16Tm4(Ir3Ru)3
_symmetry_space_group_name_H-M   'P 1'
_cell_length_a   10.80710000
_cell_length_b   10.80710000
_cell_length_c   6.40349400
_cell_angle_alpha   90.00000000
_cell_angle_beta   90.00000000
_cell_angle_gamma   90.00000000
_symmetry_Int_Tables_number   1
_chemical_formula_structural   Dy16Tm4(Ir3Ru)3
_chemical_formula_sum   'Dy16 Tm4 Ir9 Ru3'
_cell_volume   747.88590280
_cell_formula_units_Z   1
loop_
 _symmetry_equiv_pos_site_id
 _symmetry_equiv_pos_as_xyz
  1  'x, y, z'
loop_
 _atom_site_type_symbol
 _atom_site_label
 _atom_site_symmetry_multiplicity
 _atom_site_fract_x
 _atom_site_fract_y
 _atom_site_fract_z
 _atom_site_occupancy
  Dy  Dy0  1  0.293188  0.086784  0.378497  1
  Dy  Dy1  1  0.293194  0.913504  0.878888  1
  Dy  Dy2  1  0.706806  0.086496  0.878888  1
  Dy  Dy3  1  0.706812  0.913216  0.378497  1
  Dy  Dy4  1  0.586496  0.793194  0.878888  1
  Dy  Dy5  1  0.586784  0.206812  0.378497  1
  Dy  Dy6  1  0.413216  0.793188  0.378497  1
  Dy  Dy7  1  0.413504  0.206806  0.878888  1
  Dy  Dy8  1  0.208415  0.412600  0.622930  1
  Dy  Dy9  1  0.208193  0.587399  0.119941  1
  Dy  Dy10  1  0.791807  0.412601  0.119941  1
  Dy  Dy11  1  0.791585  0.587400  0.622930  1
  Dy  Dy12  1  0.912601  0.708193  0.119941  1
  Dy  Dy13  1  0.912600  0.291585  0.622930  1
  Dy  Dy14  1  0.087400  0.708415  0.622930  1
  Dy  Dy15  1  0.087399  0.291807  0.119941  1
  Tm  Tm16  1  0.000000  0.000000  0.499516  1
  Tm  Tm17  1  0.000000  0.000000  0.999542  1
  Tm  Tm18  1  0.500000  0.500000  0.999542  1
  Tm  Tm19  1  0.500000  0.500000  0.499516  1
  Ir  Ir20  1  0.848915  0.151619  0.249969  1
  Ir  Ir21  1  0.848532  0.848511  0.749665  1
  Ir  Ir22  1  0.151468  0.151489  0.749665  1
  Ir  Ir23  1  0.151085  0.848381  0.249969  1
  Ir  Ir24  1  0.651489  0.348532  0.749665  1
  Ir  Ir25  1  0.651619  0.651085  0.249969  1
  Ir  Ir26  1  0.348381  0.348915  0.249969  1
  Ir  Ir27  1  0.348511  0.651468  0.749665  1
  Ir  Ir28  1  0.000000  0.500000  0.377308  1
  Ru  Ru29  1  0.500000  0.000000  0.124060  1
  Ru  Ru30  1  0.500000  0.000000  0.623890  1
  Ru  Ru31  1  0.000000  0.500000  0.877066  1
