# generated using pymatgen
data_Pr6DySiBr12
_symmetry_space_group_name_H-M   'P 1'
_cell_length_a   9.61773069
_cell_length_b   9.61772980
_cell_length_c   9.61773047
_cell_angle_alpha   107.73537136
_cell_angle_beta   107.73536612
_cell_angle_gamma   107.73535357
_symmetry_Int_Tables_number   1
_chemical_formula_structural   Pr6DySiBr12
_chemical_formula_sum   'Pr6 Dy1 Si1 Br12'
_cell_volume   725.53119784
_cell_formula_units_Z   1
loop_
 _symmetry_equiv_pos_site_id
 _symmetry_equiv_pos_as_xyz
  1  'x, y, z'
loop_
 _atom_site_type_symbol
 _atom_site_label
 _atom_site_symmetry_multiplicity
 _atom_site_fract_x
 _atom_site_fract_y
 _atom_site_fract_z
 _atom_site_occupancy
  Pr  Pr0  1  0.105867  0.318518  0.026792  1
  Pr  Pr1  1  0.318518  0.026793  0.105866  1
  Pr  Pr2  1  0.026793  0.105866  0.318519  1
  Pr  Pr3  1  0.973208  0.894134  0.681482  1
  Pr  Pr4  1  0.681482  0.973208  0.894134  1
  Pr  Pr5  1  0.894133  0.681482  0.973208  1
  Dy  Dy6  1  0.500000  0.500000  0.500000  1
  Si  Si7  1  0.000000  0.000000  0.000000  1
  Br  Br8  1  0.222549  0.685840  0.074661  1
  Br  Br9  1  0.466040  0.388772  0.176755  1
  Br  Br10  1  0.685841  0.074661  0.222549  1
  Br  Br11  1  0.925340  0.777451  0.314160  1
  Br  Br12  1  0.176755  0.466040  0.388772  1
  Br  Br13  1  0.388772  0.176755  0.466040  1
  Br  Br14  1  0.611228  0.823245  0.533961  1
  Br  Br15  1  0.823246  0.533960  0.611228  1
  Br  Br16  1  0.074661  0.222549  0.685841  1
  Br  Br17  1  0.314160  0.925340  0.777451  1
  Br  Br18  1  0.533960  0.611228  0.823246  1
  Br  Br19  1  0.777451  0.314160  0.925339  1
