# generated using pymatgen
data_Tm7Th(InAu2)4
_symmetry_space_group_name_H-M   'P 1'
_cell_length_a   7.98489272
_cell_length_b   7.98489272
_cell_length_c   7.35600300
_cell_angle_alpha   90.00000000
_cell_angle_beta   90.00000000
_cell_angle_gamma   89.92480052
_symmetry_Int_Tables_number   1
_chemical_formula_structural   Tm7Th(InAu2)4
_chemical_formula_sum   'Tm7 Th1 In4 Au8'
_cell_volume   469.00739967
_cell_formula_units_Z   1
loop_
 _symmetry_equiv_pos_site_id
 _symmetry_equiv_pos_as_xyz
  1  'x, y, z'
loop_
 _atom_site_type_symbol
 _atom_site_label
 _atom_site_symmetry_multiplicity
 _atom_site_fract_x
 _atom_site_fract_y
 _atom_site_fract_z
 _atom_site_occupancy
  Tm  Tm0  1  0.843555  0.159895  0.500000  1
  Tm  Tm1  1  0.159895  0.843555  0.500000  1
  Tm  Tm2  1  0.340047  0.340047  0.000000  1
  Tm  Tm3  1  0.656718  0.656718  0.000000  1
  Tm  Tm4  1  0.317295  0.317295  0.500000  1
  Tm  Tm5  1  0.182855  0.820538  0.000000  1
  Tm  Tm6  1  0.820538  0.182855  0.000000  1
  Th  Th7  1  0.683309  0.683309  0.500000  1
  In  In8  1  0.497062  0.003565  0.249282  1
  In  In9  1  0.003565  0.497062  0.750718  1
  In  In10  1  0.497062  0.003565  0.750718  1
  In  In11  1  0.003565  0.497062  0.249282  1
  Au  Au12  1  0.626733  0.366988  0.269282  1
  Au  Au13  1  0.366988  0.626733  0.269282  1
  Au  Au14  1  0.129525  0.129525  0.773214  1
  Au  Au15  1  0.874021  0.874021  0.781762  1
  Au  Au16  1  0.366988  0.626733  0.730718  1
  Au  Au17  1  0.626733  0.366988  0.730718  1
  Au  Au18  1  0.874021  0.874021  0.218238  1
  Au  Au19  1  0.129525  0.129525  0.226786  1
