# generated using pymatgen
data_Yb10PtRh3
_symmetry_space_group_name_H-M   'P 1'
_cell_length_a   8.52725999
_cell_length_b   8.51662522
_cell_length_c   7.48131237
_cell_angle_alpha   83.20809531
_cell_angle_beta   83.33479953
_cell_angle_gamma   43.94804276
_symmetry_Int_Tables_number   1
_chemical_formula_structural   Yb10PtRh3
_chemical_formula_sum   'Yb10 Pt1 Rh3'
_cell_volume   374.04320136
_cell_formula_units_Z   1
loop_
 _symmetry_equiv_pos_site_id
 _symmetry_equiv_pos_as_xyz
  1  'x, y, z'
loop_
 _atom_site_type_symbol
 _atom_site_label
 _atom_site_symmetry_multiplicity
 _atom_site_fract_x
 _atom_site_fract_y
 _atom_site_fract_z
 _atom_site_occupancy
  Yb  Yb0  1  0.032552  0.791452  0.916729  1
  Yb  Yb1  1  0.203258  0.973912  0.581243  1
  Yb  Yb2  1  0.974747  0.202958  0.081314  1
  Yb  Yb3  1  0.799503  0.024518  0.424024  1
  Yb  Yb4  1  0.363346  0.199677  0.817446  1
  Yb  Yb5  1  0.798358  0.634371  0.678072  1
  Yb  Yb6  1  0.634545  0.796981  0.177802  1
  Yb  Yb7  1  0.197257  0.367352  0.324741  1
  Yb  Yb8  1  0.572742  0.429412  0.746275  1
  Yb  Yb9  1  0.426411  0.575567  0.252917  1
  Pt  Pt10  1  0.599943  0.179196  0.080594  1
  Rh  Rh11  1  0.176575  0.601194  0.581174  1
  Rh  Rh12  1  0.395264  0.826895  0.920057  1
  Rh  Rh13  1  0.825499  0.396515  0.417612  1
