# generated using pymatgen
data_TcMo2IrRh4
_symmetry_space_group_name_H-M   'P 1'
_cell_length_a   5.50574216
_cell_length_b   5.54495215
_cell_length_c   4.39803500
_cell_angle_alpha   90.00000000
_cell_angle_beta   90.00000000
_cell_angle_gamma   119.79383117
_symmetry_Int_Tables_number   1
_chemical_formula_structural   TcMo2IrRh4
_chemical_formula_sum   'Tc1 Mo2 Ir1 Rh4'
_cell_volume   116.52027075
_cell_formula_units_Z   1
loop_
 _symmetry_equiv_pos_site_id
 _symmetry_equiv_pos_as_xyz
  1  'x, y, z'
loop_
 _atom_site_type_symbol
 _atom_site_label
 _atom_site_symmetry_multiplicity
 _atom_site_fract_x
 _atom_site_fract_y
 _atom_site_fract_z
 _atom_site_occupancy
  Tc  Tc0  1  0.833340  0.665056  0.250000  1
  Mo  Mo1  1  0.330274  0.664040  0.250000  1
  Mo  Mo2  1  0.669788  0.336095  0.750000  1
  Ir  Ir3  1  0.165709  0.832825  0.750000  1
  Rh  Rh4  1  0.665802  0.833423  0.750000  1
  Rh  Rh5  1  0.333735  0.167845  0.250000  1
  Rh  Rh6  1  0.833161  0.166552  0.250000  1
  Rh  Rh7  1  0.168191  0.334163  0.750000  1
