# generated using pymatgen
data_Tb2Al9TcRu4
_symmetry_space_group_name_H-M   'P 1'
_cell_length_a   7.98710226
_cell_length_b   7.98710221
_cell_length_c   7.98710368
_cell_angle_alpha   134.12597565
_cell_angle_beta   134.12597134
_cell_angle_gamma   66.89131320
_symmetry_Int_Tables_number   1
_chemical_formula_structural   Tb2Al9TcRu4
_chemical_formula_sum   'Tb2 Al9 Tc1 Ru4'
_cell_volume   258.29132209
_cell_formula_units_Z   1
loop_
 _symmetry_equiv_pos_site_id
 _symmetry_equiv_pos_as_xyz
  1  'x, y, z'
loop_
 _atom_site_type_symbol
 _atom_site_label
 _atom_site_symmetry_multiplicity
 _atom_site_fract_x
 _atom_site_fract_y
 _atom_site_fract_z
 _atom_site_occupancy
  Tb  Tb0  1  0.000339  0.500339  0.500000  1
  Tb  Tb1  1  0.500339  0.000339  0.500000  1
  Al  Al2  1  0.438913  0.861156  0.000000  1
  Al  Al3  1  0.138503  0.138503  0.578930  1
  Al  Al4  1  0.861156  0.438913  0.000000  1
  Al  Al5  1  0.861156  0.861156  0.422242  1
  Al  Al6  1  0.559572  0.138503  0.000000  1
  Al  Al7  1  0.138503  0.559572  0.000000  1
  Al  Al8  1  0.559572  0.559572  0.421070  1
  Al  Al9  1  0.000428  0.000428  0.000000  1
  Al  Al10  1  0.438913  0.438913  0.577758  1
  Tc  Tc11  1  0.184727  0.184727  0.000000  1
  Ru  Ru12  1  0.816840  0.816840  0.000000  1
  Ru  Ru13  1  0.250365  0.750365  0.500000  1
  Ru  Ru14  1  0.750365  0.250365  0.500000  1
  Ru  Ru15  1  0.500311  0.500311  0.000000  1
