# generated using pymatgen
data_Cd3FeAs(PN2)6
_symmetry_space_group_name_H-M   'P 1'
_cell_length_a   7.34998881
_cell_length_b   7.37840155
_cell_length_c   7.37840083
_cell_angle_alpha   109.54909342
_cell_angle_beta   109.39323109
_cell_angle_gamma   109.39323925
_symmetry_Int_Tables_number   1
_chemical_formula_structural   Cd3FeAs(PN2)6
_chemical_formula_sum   'Cd3 Fe1 As1 P6 N12'
_cell_volume   308.32333744
_cell_formula_units_Z   1
loop_
 _symmetry_equiv_pos_site_id
 _symmetry_equiv_pos_as_xyz
  1  'x, y, z'
loop_
 _atom_site_type_symbol
 _atom_site_label
 _atom_site_symmetry_multiplicity
 _atom_site_fract_x
 _atom_site_fract_y
 _atom_site_fract_z
 _atom_site_occupancy
  Cd  Cd0  1  0.004203  0.000000  0.680112  1
  Cd  Cd1  1  0.004203  0.680112  0.000000  1
  Cd  Cd2  1  0.324090  0.319888  0.319888  1
  Fe  Fe3  1  0.616791  0.000000  0.000000  1
  As  As4  1  0.944323  0.000000  0.000000  1
  P  P5  1  0.255728  0.748360  0.501000  1
  P  P6  1  0.754728  0.247360  0.499000  1
  P  P7  1  0.754728  0.499000  0.247360  1
  P  P8  1  0.255728  0.501000  0.748360  1
  P  P9  1  0.507368  0.752640  0.251640  1
  P  P10  1  0.507368  0.251640  0.752640  1
  N  N11  1  0.706573  0.274645  0.274645  1
  N  N12  1  0.293375  0.718851  0.288791  1
  N  N13  1  0.304756  0.579460  0.579460  1
  N  N14  1  0.574524  0.569941  0.281149  1
  N  N15  1  0.431928  0.725355  0.000000  1
  N  N16  1  0.004584  0.711209  0.430059  1
  N  N17  1  0.574524  0.281149  0.569941  1
  N  N18  1  0.725295  0.000000  0.420540  1
  N  N19  1  0.431928  0.000000  0.725355  1
  N  N20  1  0.725295  0.420540  0.000000  1
  N  N21  1  0.293375  0.288791  0.718851  1
  N  N22  1  0.004584  0.430059  0.711209  1
