# generated using pymatgen
data_La8Zn5Ga3Ir3Rh5
_symmetry_space_group_name_H-M   'P 1'
_cell_length_a   4.06499200
_cell_length_b   7.52588457
_cell_length_c   16.66451937
_cell_angle_alpha   89.64838105
_cell_angle_beta   90.00000000
_cell_angle_gamma   90.00000000
_symmetry_Int_Tables_number   1
_chemical_formula_structural   La8Zn5Ga3Ir3Rh5
_chemical_formula_sum   'La8 Zn5 Ga3 Ir3 Rh5'
_cell_volume   509.80238475
_cell_formula_units_Z   1
loop_
 _symmetry_equiv_pos_site_id
 _symmetry_equiv_pos_as_xyz
  1  'x, y, z'
loop_
 _atom_site_type_symbol
 _atom_site_label
 _atom_site_symmetry_multiplicity
 _atom_site_fract_x
 _atom_site_fract_y
 _atom_site_fract_z
 _atom_site_occupancy
  La  La0  1  0.750000  0.326481  0.440174  1
  La  La1  1  0.250000  0.051333  0.717487  1
  La  La2  1  0.250000  0.546627  0.783257  1
  La  La3  1  0.250000  0.673986  0.560142  1
  La  La4  1  0.750000  0.824451  0.058082  1
  La  La5  1  0.250000  0.173876  0.940760  1
  La  La6  1  0.750000  0.450245  0.216670  1
  La  La7  1  0.750000  0.950153  0.282699  1
  Zn  Zn8  1  0.750000  0.002864  0.562579  1
  Zn  Zn9  1  0.250000  0.502078  0.058695  1
  Zn  Zn10  1  0.750000  0.374597  0.649482  1
  Zn  Zn11  1  0.750000  0.499003  0.940679  1
  Zn  Zn12  1  0.250000  0.621541  0.349370  1
  Ga  Ga13  1  0.250000  0.121760  0.149779  1
  Ga  Ga14  1  0.250000  0.998404  0.439217  1
  Ga  Ga15  1  0.750000  0.878643  0.850401  1
  Ir  Ir16  1  0.750000  0.242038  0.817698  1
  Ir  Ir17  1  0.250000  0.241165  0.315328  1
  Ir  Ir18  1  0.250000  0.743805  0.929296  1
  Rh  Rh19  1  0.250000  0.238957  0.564309  1
  Rh  Rh20  1  0.250000  0.758914  0.181881  1
  Rh  Rh21  1  0.750000  0.767534  0.434720  1
  Rh  Rh22  1  0.750000  0.258430  0.071015  1
  Rh  Rh23  1  0.750000  0.753117  0.686279  1
