# generated using pymatgen
data_TbTh5PtCl15
_symmetry_space_group_name_H-M   'P 1'
_cell_length_a   9.87177181
_cell_length_b   9.87177312
_cell_length_c   9.87177262
_cell_angle_alpha   110.21150132
_cell_angle_beta   109.10234764
_cell_angle_gamma   109.10235255
_symmetry_Int_Tables_number   1
_chemical_formula_structural   TbTh5PtCl15
_chemical_formula_sum   'Tb1 Th5 Pt1 Cl15'
_cell_volume   740.47278383
_cell_formula_units_Z   1
loop_
 _symmetry_equiv_pos_site_id
 _symmetry_equiv_pos_as_xyz
  1  'x, y, z'
loop_
 _atom_site_type_symbol
 _atom_site_label
 _atom_site_symmetry_multiplicity
 _atom_site_fract_x
 _atom_site_fract_y
 _atom_site_fract_z
 _atom_site_occupancy
  Tb  Tb0  1  0.000000  0.248251  0.248251  1
  Th  Th1  1  0.000000  0.744290  0.744290  1
  Th  Th2  1  0.248352  0.004315  0.252667  1
  Th  Th3  1  0.751648  0.004315  0.755963  1
  Th  Th4  1  0.248352  0.252667  0.004315  1
  Th  Th5  1  0.751648  0.755963  0.004315  1
  Pt  Pt6  1  0.000000  0.995857  0.995857  1
  Cl  Cl7  1  0.486971  0.244221  0.244221  1
  Cl  Cl8  1  0.513029  0.757249  0.757249  1
  Cl  Cl9  1  0.000000  0.244221  0.757249  1
  Cl  Cl10  1  0.000000  0.757249  0.244221  1
  Cl  Cl11  1  0.239410  0.486095  0.246686  1
  Cl  Cl12  1  0.760590  0.007276  0.246686  1
  Cl  Cl13  1  0.756433  0.511697  0.755264  1
  Cl  Cl14  1  0.243567  0.998830  0.755264  1
  Cl  Cl15  1  0.239410  0.246686  0.486095  1
  Cl  Cl16  1  0.756433  0.755264  0.511697  1
  Cl  Cl17  1  0.760590  0.246686  0.007276  1
  Cl  Cl18  1  0.243567  0.755264  0.998830  1
  Cl  Cl19  1  0.000000  0.495475  0.495475  1
  Cl  Cl20  1  0.500000  0.994064  0.494064  1
  Cl  Cl21  1  0.500000  0.494064  0.994064  1
