# generated using pymatgen
data_Mg3Zr12Cu(Ir2N)4
_symmetry_space_group_name_H-M   'P 1'
_cell_length_a   8.62872050
_cell_length_b   8.62872148
_cell_length_c   8.62872005
_cell_angle_alpha   59.63375260
_cell_angle_beta   59.63374814
_cell_angle_gamma   59.63375240
_symmetry_Int_Tables_number   1
_chemical_formula_structural   Mg3Zr12Cu(Ir2N)4
_chemical_formula_sum   'Mg3 Zr12 Cu1 Ir8 N4'
_cell_volume   450.49980622
_cell_formula_units_Z   1
loop_
 _symmetry_equiv_pos_site_id
 _symmetry_equiv_pos_as_xyz
  1  'x, y, z'
loop_
 _atom_site_type_symbol
 _atom_site_label
 _atom_site_symmetry_multiplicity
 _atom_site_fract_x
 _atom_site_fract_y
 _atom_site_fract_z
 _atom_site_occupancy
  Mg  Mg0  1  0.125000  0.625000  0.625000  1
  Mg  Mg1  1  0.625000  0.125000  0.625000  1
  Mg  Mg2  1  0.625000  0.625000  0.125000  1
  Zr  Zr3  1  0.807704  0.807704  0.194146  1
  Zr  Zr4  1  0.190532  0.190532  0.809283  1
  Zr  Zr5  1  0.807704  0.194146  0.807704  1
  Zr  Zr6  1  0.190532  0.809283  0.190532  1
  Zr  Zr7  1  0.194146  0.807704  0.807704  1
  Zr  Zr8  1  0.809283  0.190532  0.190532  1
  Zr  Zr9  1  0.442296  0.442296  0.055854  1
  Zr  Zr10  1  0.059468  0.059468  0.440717  1
  Zr  Zr11  1  0.442296  0.055854  0.442296  1
  Zr  Zr12  1  0.059468  0.440717  0.059468  1
  Zr  Zr13  1  0.055854  0.442296  0.442296  1
  Zr  Zr14  1  0.440717  0.059468  0.059468  1
  Cu  Cu15  1  0.625000  0.625000  0.625000  1
  Ir  Ir16  1  0.754580  0.417494  0.417494  1
  Ir  Ir17  1  0.417494  0.754580  0.417494  1
  Ir  Ir18  1  0.417494  0.417494  0.754580  1
  Ir  Ir19  1  0.414047  0.414047  0.414047  1
  Ir  Ir20  1  0.495420  0.832506  0.832506  1
  Ir  Ir21  1  0.832506  0.495420  0.832506  1
  Ir  Ir22  1  0.832506  0.832506  0.495420  1
  Ir  Ir23  1  0.835953  0.835953  0.835953  1
  N  N24  1  0.625000  0.125000  0.125000  1
  N  N25  1  0.125000  0.625000  0.125000  1
  N  N26  1  0.125000  0.125000  0.625000  1
  N  N27  1  0.125000  0.125000  0.125000  1
