# generated using pymatgen
data_LiTb3In4Co
_symmetry_space_group_name_H-M   'P 1'
_cell_length_a   8.11679600
_cell_length_b   8.11679590
_cell_length_c   3.64937400
_cell_angle_alpha   90.00000000
_cell_angle_beta   90.00000000
_cell_angle_gamma   119.99999224
_symmetry_Int_Tables_number   1
_chemical_formula_structural   LiTb3In4Co
_chemical_formula_sum   'Li1 Tb3 In4 Co1'
_cell_volume   208.21801218
_cell_formula_units_Z   1
loop_
 _symmetry_equiv_pos_site_id
 _symmetry_equiv_pos_as_xyz
  1  'x, y, z'
loop_
 _atom_site_type_symbol
 _atom_site_label
 _atom_site_symmetry_multiplicity
 _atom_site_fract_x
 _atom_site_fract_y
 _atom_site_fract_z
 _atom_site_occupancy
  Li  Li0  1  0.666667  0.333333  0.500000  1
  Tb  Tb1  1  0.713590  0.954129  0.500000  1
  Tb  Tb2  1  0.240539  0.286410  0.500000  1
  Tb  Tb3  1  0.045871  0.759461  0.500000  1
  In  In4  1  0.933016  0.336084  0.000000  1
  In  In5  1  0.403069  0.066984  0.000000  1
  In  In6  1  0.663916  0.596931  0.000000  1
  In  In7  1  0.333333  0.666667  0.000000  1
  Co  Co8  1  0.000000  0.000000  0.000000  1
