# generated using pymatgen
data_Nb6Si3Ni3C
_symmetry_space_group_name_H-M   'P 1'
_cell_length_a   8.00472909
_cell_length_b   8.00476124
_cell_length_c   7.95036100
_cell_angle_alpha   60.20559146
_cell_angle_beta   60.20558342
_cell_angle_gamma   60.12873420
_symmetry_Int_Tables_number   1
_chemical_formula_structural   Nb6Si3Ni3C
_chemical_formula_sum   'Nb12 Si6 Ni6 C2'
_cell_volume   361.68692935
_cell_formula_units_Z   2
loop_
 _symmetry_equiv_pos_site_id
 _symmetry_equiv_pos_as_xyz
  1  'x, y, z'
loop_
 _atom_site_type_symbol
 _atom_site_label
 _atom_site_symmetry_multiplicity
 _atom_site_fract_x
 _atom_site_fract_y
 _atom_site_fract_z
 _atom_site_occupancy
  Nb  Nb0  1  0.302960  0.696071  0.697151  1
  Nb  Nb1  1  0.305095  0.305096  0.696627  1
  Nb  Nb2  1  0.554513  0.943810  0.557289  1
  Nb  Nb3  1  0.943816  0.554515  0.557286  1
  Nb  Nb4  1  0.553854  0.947083  0.946172  1
  Nb  Nb5  1  0.695470  0.306204  0.305649  1
  Nb  Nb6  1  0.947087  0.553855  0.946171  1
  Nb  Nb7  1  0.306192  0.695473  0.305654  1
  Nb  Nb8  1  0.553341  0.553342  0.944293  1
  Nb  Nb9  1  0.696067  0.302968  0.697148  1
  Nb  Nb10  1  0.696661  0.696663  0.301014  1
  Nb  Nb11  1  0.944916  0.944920  0.556732  1
  Si  Si12  1  0.914750  0.243509  0.913148  1
  Si  Si13  1  0.335249  0.006521  0.321356  1
  Si  Si14  1  0.337049  0.337021  0.325076  1
  Si  Si15  1  0.006521  0.335245  0.321359  1
  Si  Si16  1  0.912976  0.912998  0.249136  1
  Si  Si17  1  0.243504  0.914759  0.913146  1
  Ni  Ni18  1  0.326292  0.326284  0.015210  1
  Ni  Ni19  1  0.135149  0.135152  0.605212  1
  Ni  Ni20  1  0.923663  0.923661  0.917668  1
  Ni  Ni21  1  0.125020  0.624994  0.138632  1
  Ni  Ni22  1  0.114859  0.114857  0.125527  1
  Ni  Ni23  1  0.625004  0.125004  0.138537  1
  C  C24  1  0.749285  0.749285  0.753101  1
  C  C25  1  0.500705  0.500711  0.501708  1
