# generated using pymatgen
data_Th8Sc12Zn3Sb13
_symmetry_space_group_name_H-M   'P 1'
_cell_length_a   7.93188500
_cell_length_b   7.85338882
_cell_length_c   14.95195300
_cell_angle_alpha   90.00000000
_cell_angle_beta   90.00000000
_cell_angle_gamma   89.83947303
_symmetry_Int_Tables_number   1
_chemical_formula_structural   Th8Sc12Zn3Sb13
_chemical_formula_sum   'Th8 Sc12 Zn3 Sb13'
_cell_volume   931.38604732
_cell_formula_units_Z   1
loop_
 _symmetry_equiv_pos_site_id
 _symmetry_equiv_pos_as_xyz
  1  'x, y, z'
loop_
 _atom_site_type_symbol
 _atom_site_label
 _atom_site_symmetry_multiplicity
 _atom_site_fract_x
 _atom_site_fract_y
 _atom_site_fract_z
 _atom_site_occupancy
  Th  Th0  1  0.520974  0.322240  0.907574  1
  Th  Th1  1  0.013673  0.182358  0.599566  1
  Th  Th2  1  0.486403  0.685024  0.401396  1
  Th  Th3  1  0.987268  0.814116  0.098435  1
  Th  Th4  1  0.486403  0.685024  0.098604  1
  Th  Th5  1  0.987268  0.814116  0.401565  1
  Th  Th6  1  0.520974  0.322240  0.592426  1
  Th  Th7  1  0.013673  0.182358  0.900434  1
  Sc  Sc8  1  0.347928  0.850543  0.874101  1
  Sc  Sc9  1  0.848648  0.643917  0.624665  1
  Sc  Sc10  1  0.647358  0.147554  0.372775  1
  Sc  Sc11  1  0.148108  0.352769  0.127146  1
  Sc  Sc12  1  0.647358  0.147554  0.127225  1
  Sc  Sc13  1  0.148108  0.352769  0.372854  1
  Sc  Sc14  1  0.347928  0.850543  0.625899  1
  Sc  Sc15  1  0.848648  0.643917  0.875335  1
  Sc  Sc16  1  0.179187  0.501286  0.750000  1
  Sc  Sc17  1  0.680845  0.006895  0.750000  1
  Sc  Sc18  1  0.821952  0.510005  0.250000  1
  Sc  Sc19  1  0.319279  0.990260  0.250000  1
  Zn  Zn20  1  0.818660  0.355263  0.750000  1
  Zn  Zn21  1  0.681431  0.855017  0.250000  1
  Zn  Zn22  1  0.181059  0.645216  0.250000  1
  Sb  Sb23  1  0.302810  0.052121  0.045555  1
  Sb  Sb24  1  0.804776  0.448190  0.451571  1
  Sb  Sb25  1  0.697426  0.948883  0.546009  1
  Sb  Sb26  1  0.197017  0.550162  0.954319  1
  Sb  Sb27  1  0.697426  0.948883  0.953991  1
  Sb  Sb28  1  0.197017  0.550162  0.545681  1
  Sb  Sb29  1  0.302810  0.052121  0.454445  1
  Sb  Sb30  1  0.804776  0.448190  0.048429  1
  Sb  Sb31  1  0.550105  0.626114  0.750000  1
  Sb  Sb32  1  0.037205  0.860870  0.750000  1
  Sb  Sb33  1  0.450147  0.375755  0.250000  1
  Sb  Sb34  1  0.950400  0.124437  0.250000  1
  Sb  Sb35  1  0.324958  0.153130  0.750000  1
