# generated using pymatgen
data_Nd8Zn2CuSi12Rh
_symmetry_space_group_name_H-M   'P 1'
_cell_length_a   8.19148400
_cell_length_b   8.19148466
_cell_length_c   8.51942300
_cell_angle_alpha   90.00000000
_cell_angle_beta   90.00000000
_cell_angle_gamma   119.99999734
_symmetry_Int_Tables_number   1
_chemical_formula_structural   Nd8Zn2CuSi12Rh
_chemical_formula_sum   'Nd8 Zn2 Cu1 Si12 Rh1'
_cell_volume   495.06934452
_cell_formula_units_Z   1
loop_
 _symmetry_equiv_pos_site_id
 _symmetry_equiv_pos_as_xyz
  1  'x, y, z'
loop_
 _atom_site_type_symbol
 _atom_site_label
 _atom_site_symmetry_multiplicity
 _atom_site_fract_x
 _atom_site_fract_y
 _atom_site_fract_z
 _atom_site_occupancy
  Nd  Nd0  1  0.000000  0.000000  0.749457  1
  Nd  Nd1  1  0.000000  0.000000  0.250540  1
  Nd  Nd2  1  0.498594  0.501406  0.750250  1
  Nd  Nd3  1  0.498594  0.997189  0.750250  1
  Nd  Nd4  1  0.002811  0.501406  0.750250  1
  Nd  Nd5  1  0.499211  0.500789  0.249597  1
  Nd  Nd6  1  0.001581  0.500789  0.249597  1
  Nd  Nd7  1  0.499211  0.998419  0.249597  1
  Zn  Zn8  1  0.666667  0.333333  0.998757  1
  Zn  Zn9  1  0.666667  0.333333  0.501376  1
  Cu  Cu10  1  0.333333  0.666667  0.498762  1
  Si  Si11  1  0.836748  0.163252  0.999875  1
  Si  Si12  1  0.836748  0.673496  0.999875  1
  Si  Si13  1  0.326504  0.163252  0.999875  1
  Si  Si14  1  0.835357  0.164643  0.499833  1
  Si  Si15  1  0.835357  0.670713  0.499833  1
  Si  Si16  1  0.329287  0.164643  0.499833  1
  Si  Si17  1  0.171044  0.828956  0.500230  1
  Si  Si18  1  0.657912  0.828956  0.500230  1
  Si  Si19  1  0.171044  0.342088  0.500230  1
  Si  Si20  1  0.169834  0.830166  0.000098  1
  Si  Si21  1  0.660334  0.830166  0.000098  1
  Si  Si22  1  0.169834  0.339666  0.000098  1
  Rh  Rh23  1  0.333333  0.666667  0.001456  1
