# generated using pymatgen
data_CaLaGeRh3
_symmetry_space_group_name_H-M   'P 1'
_cell_length_a   5.19317658
_cell_length_b   5.19317676
_cell_length_c   5.19317635
_cell_angle_alpha   66.60969515
_cell_angle_beta   66.60969084
_cell_angle_gamma   66.60969472
_symmetry_Int_Tables_number   1
_chemical_formula_structural   CaLaGeRh3
_chemical_formula_sum   'Ca1 La1 Ge1 Rh3'
_cell_volume   113.11789847
_cell_formula_units_Z   1
loop_
 _symmetry_equiv_pos_site_id
 _symmetry_equiv_pos_as_xyz
  1  'x, y, z'
loop_
 _atom_site_type_symbol
 _atom_site_label
 _atom_site_symmetry_multiplicity
 _atom_site_fract_x
 _atom_site_fract_y
 _atom_site_fract_z
 _atom_site_occupancy
  Ca  Ca0  1  0.629012  0.629012  0.629012  1
  La  La1  1  0.367971  0.367971  0.367971  1
  Ge  Ge2  1  0.999895  0.999895  0.999895  1
  Rh  Rh3  1  0.001261  0.001261  0.500598  1
  Rh  Rh4  1  0.500598  0.001261  0.001261  1
  Rh  Rh5  1  0.001261  0.500598  0.001261  1
