# generated using pymatgen
data_Tb6YCo4Sn23Ir2
_symmetry_space_group_name_H-M   'P 1'
_cell_length_a   9.77416198
_cell_length_b   9.77416133
_cell_length_c   10.04193792
_cell_angle_alpha   90.23920464
_cell_angle_beta   89.76079438
_cell_angle_gamma   120.03235041
_symmetry_Int_Tables_number   1
_chemical_formula_structural   Tb6YCo4Sn23Ir2
_chemical_formula_sum   'Tb6 Y1 Co4 Sn23 Ir2'
_cell_volume   830.53987668
_cell_formula_units_Z   1
loop_
 _symmetry_equiv_pos_site_id
 _symmetry_equiv_pos_as_xyz
  1  'x, y, z'
loop_
 _atom_site_type_symbol
 _atom_site_label
 _atom_site_symmetry_multiplicity
 _atom_site_fract_x
 _atom_site_fract_y
 _atom_site_fract_z
 _atom_site_occupancy
  Tb  Tb0  1  0.999990  0.000010  0.000047  1
  Tb  Tb1  1  0.521768  0.478232  0.693155  1
  Tb  Tb2  1  0.479191  0.956730  0.306033  1
  Tb  Tb3  1  0.520749  0.043276  0.693950  1
  Tb  Tb4  1  0.043270  0.520809  0.306033  1
  Tb  Tb5  1  0.956724  0.479251  0.693950  1
  Y  Y6  1  0.478148  0.521852  0.306950  1
  Co  Co7  1  0.830750  0.664069  0.197491  1
  Co  Co8  1  0.169313  0.335963  0.802513  1
  Co  Co9  1  0.335931  0.169250  0.197491  1
  Co  Co10  1  0.664037  0.830687  0.802513  1
  Sn  Sn11  1  0.351057  0.004683  0.006202  1
  Sn  Sn12  1  0.648944  0.995373  0.993833  1
  Sn  Sn13  1  0.004627  0.351056  0.993833  1
  Sn  Sn14  1  0.995317  0.648943  0.006202  1
  Sn  Sn15  1  0.654138  0.654013  0.999973  1
  Sn  Sn16  1  0.345987  0.345862  0.999973  1
  Sn  Sn17  1  0.335846  0.664154  0.819742  1
  Sn  Sn18  1  0.664173  0.335827  0.180369  1
  Sn  Sn19  1  0.999923  0.000077  0.499997  1
  Sn  Sn20  1  0.779265  0.220735  0.456748  1
  Sn  Sn21  1  0.220716  0.779284  0.543251  1
  Sn  Sn22  1  0.781028  0.561787  0.450184  1
  Sn  Sn23  1  0.218729  0.438141  0.549656  1
  Sn  Sn24  1  0.438213  0.218972  0.450184  1
  Sn  Sn25  1  0.561859  0.781271  0.549656  1
  Sn  Sn26  1  0.333925  0.666075  0.117050  1
  Sn  Sn27  1  0.666136  0.333864  0.883018  1
  Sn  Sn28  1  0.117082  0.882918  0.273812  1
  Sn  Sn29  1  0.882924  0.117076  0.726190  1
  Sn  Sn30  1  0.124524  0.237165  0.278925  1
  Sn  Sn31  1  0.875681  0.762867  0.721040  1
  Sn  Sn32  1  0.762835  0.875476  0.278925  1
  Sn  Sn33  1  0.237133  0.124319  0.721040  1
  Ir  Ir34  1  0.832351  0.167649  0.196383  1
  Ir  Ir35  1  0.167717  0.832283  0.803688  1
