# generated using pymatgen
data_SrY6PtI12
_symmetry_space_group_name_H-M   'P 1'
_cell_length_a   9.82315019
_cell_length_b   9.82315150
_cell_length_c   9.82315077
_cell_angle_alpha   106.43814229
_cell_angle_beta   106.43815243
_cell_angle_gamma   106.43815330
_symmetry_Int_Tables_number   1
_chemical_formula_structural   SrY6PtI12
_chemical_formula_sum   'Sr1 Y6 Pt1 I12'
_cell_volume   801.19293329
_cell_formula_units_Z   1
loop_
 _symmetry_equiv_pos_site_id
 _symmetry_equiv_pos_as_xyz
  1  'x, y, z'
loop_
 _atom_site_type_symbol
 _atom_site_label
 _atom_site_symmetry_multiplicity
 _atom_site_fract_x
 _atom_site_fract_y
 _atom_site_fract_z
 _atom_site_occupancy
  Sr  Sr0  1  0.000000  0.000000  0.000000  1
  Y  Y1  1  0.403798  0.476477  0.200343  1
  Y  Y2  1  0.200343  0.403798  0.476477  1
  Y  Y3  1  0.476477  0.200343  0.403798  1
  Y  Y4  1  0.596202  0.523523  0.799657  1
  Y  Y5  1  0.799657  0.596202  0.523523  1
  Y  Y6  1  0.523523  0.799657  0.596202  1
  Pt  Pt7  1  0.500000  0.500000  0.500000  1
  I  I8  1  0.048565  0.363276  0.128027  1
  I  I9  1  0.128027  0.048565  0.363276  1
  I  I10  1  0.363276  0.128027  0.048565  1
  I  I11  1  0.951435  0.636724  0.871973  1
  I  I12  1  0.871973  0.951435  0.636724  1
  I  I13  1  0.636724  0.871973  0.951435  1
  I  I14  1  0.722141  0.573832  0.176278  1
  I  I15  1  0.176278  0.722141  0.573832  1
  I  I16  1  0.573832  0.176278  0.722141  1
  I  I17  1  0.277859  0.426168  0.823722  1
  I  I18  1  0.823722  0.277859  0.426168  1
  I  I19  1  0.426168  0.823722  0.277859  1
