# generated using pymatgen
data_TbLuMn3Ni9P7
_symmetry_space_group_name_H-M   'P 1'
_cell_length_a   9.09385800
_cell_length_b   9.09385969
_cell_length_c   3.65059200
_cell_angle_alpha   90.00000000
_cell_angle_beta   90.00000000
_cell_angle_gamma   120.00000015
_symmetry_Int_Tables_number   1
_chemical_formula_structural   TbLuMn3Ni9P7
_chemical_formula_sum   'Tb1 Lu1 Mn3 Ni9 P7'
_cell_volume   261.45102361
_cell_formula_units_Z   1
loop_
 _symmetry_equiv_pos_site_id
 _symmetry_equiv_pos_as_xyz
  1  'x, y, z'
loop_
 _atom_site_type_symbol
 _atom_site_label
 _atom_site_symmetry_multiplicity
 _atom_site_fract_x
 _atom_site_fract_y
 _atom_site_fract_z
 _atom_site_occupancy
  Tb  Tb0  1  0.000000  0.000000  0.500000  1
  Lu  Lu1  1  0.666667  0.333333  0.000000  1
  Mn  Mn2  1  0.554969  0.765107  0.500000  1
  Mn  Mn3  1  0.234893  0.789861  0.500000  1
  Mn  Mn4  1  0.210139  0.445031  0.500000  1
  Ni  Ni5  1  0.768414  0.726233  0.000000  1
  Ni  Ni6  1  0.273767  0.042182  0.000000  1
  Ni  Ni7  1  0.957818  0.231586  0.000000  1
  Ni  Ni8  1  0.487021  0.944907  0.000000  1
  Ni  Ni9  1  0.055093  0.542115  0.000000  1
  Ni  Ni10  1  0.457885  0.512979  0.000000  1
  Ni  Ni11  1  0.713473  0.103086  0.500000  1
  Ni  Ni12  1  0.896914  0.610388  0.500000  1
  Ni  Ni13  1  0.389612  0.286527  0.500000  1
  P  P14  1  0.447254  0.075003  0.500000  1
  P  P15  1  0.924997  0.372252  0.500000  1
  P  P16  1  0.627748  0.552746  0.500000  1
  P  P17  1  0.739077  0.958695  0.000000  1
  P  P18  1  0.041305  0.780382  0.000000  1
  P  P19  1  0.219618  0.260923  0.000000  1
  P  P20  1  0.333333  0.666667  0.000000  1
