# generated using pymatgen
data_Er4MnSi4Ir
_symmetry_space_group_name_H-M   'P 1'
_cell_length_a   5.66088730
_cell_length_b   5.66088724
_cell_length_c   9.93109100
_cell_angle_alpha   116.44543687
_cell_angle_beta   116.44543763
_cell_angle_gamma   43.12355118
_symmetry_Int_Tables_number   1
_chemical_formula_structural   Er4MnSi4Ir
_chemical_formula_sum   'Er4 Mn1 Si4 Ir1'
_cell_volume   190.98249897
_cell_formula_units_Z   1
loop_
 _symmetry_equiv_pos_site_id
 _symmetry_equiv_pos_as_xyz
  1  'x, y, z'
loop_
 _atom_site_type_symbol
 _atom_site_label
 _atom_site_symmetry_multiplicity
 _atom_site_fract_x
 _atom_site_fract_y
 _atom_site_fract_z
 _atom_site_occupancy
  Er  Er0  1  0.185270  0.185270  0.109224  1
  Er  Er1  1  0.994893  0.994893  0.323839  1
  Er  Er2  1  0.004376  0.004376  0.677078  1
  Er  Er3  1  0.812441  0.812441  0.888041  1
  Mn  Mn4  1  0.725853  0.725853  0.370436  1
  Si  Si5  1  0.492005  0.492005  0.121391  1
  Si  Si6  1  0.362461  0.362461  0.438399  1
  Si  Si7  1  0.639635  0.639635  0.561961  1
  Si  Si8  1  0.509332  0.509332  0.879040  1
  Ir  Ir9  1  0.273735  0.273735  0.630591  1
