# generated using pymatgen
data_TbDyCrGeO8
_symmetry_space_group_name_H-M   'P 1'
_cell_length_a   5.99099956
_cell_length_b   5.99099918
_cell_length_c   5.99099910
_cell_angle_alpha   106.10333091
_cell_angle_beta   106.10332555
_cell_angle_gamma   116.43991920
_symmetry_Int_Tables_number   1
_chemical_formula_structural   TbDyCrGeO8
_chemical_formula_sum   'Tb1 Dy1 Cr1 Ge1 O8'
_cell_volume   163.67169858
_cell_formula_units_Z   1
loop_
 _symmetry_equiv_pos_site_id
 _symmetry_equiv_pos_as_xyz
  1  'x, y, z'
loop_
 _atom_site_type_symbol
 _atom_site_label
 _atom_site_symmetry_multiplicity
 _atom_site_fract_x
 _atom_site_fract_y
 _atom_site_fract_z
 _atom_site_occupancy
  Tb  Tb0  1  0.750000  0.250000  0.500000  1
  Dy  Dy1  1  0.500000  0.500000  0.000000  1
  Cr  Cr2  1  0.000000  0.000000  0.000000  1
  Ge  Ge3  1  0.250000  0.750000  0.500000  1
  O  O4  1  0.836277  0.016323  0.180046  1
  O  O5  1  0.876746  0.562827  0.313920  1
  O  O6  1  0.248908  0.562827  0.686080  1
  O  O7  1  0.836277  0.656231  0.819954  1
  O  O8  1  0.343769  0.163723  0.180046  1
  O  O9  1  0.437173  0.751092  0.313920  1
  O  O10  1  0.437173  0.123254  0.686080  1
  O  O11  1  0.983677  0.163723  0.819954  1
