# generated using pymatgen
data_Er3Lu9Tc3Ir
_symmetry_space_group_name_H-M   'P 1'
_cell_length_a   6.18345792
_cell_length_b   7.33085008
_cell_length_c   8.90945600
_cell_angle_alpha   90.00000000
_cell_angle_beta   90.00000000
_cell_angle_gamma   89.94397320
_symmetry_Int_Tables_number   1
_chemical_formula_structural   Er3Lu9Tc3Ir
_chemical_formula_sum   'Er3 Lu9 Tc3 Ir1'
_cell_volume   403.86547382
_cell_formula_units_Z   1
loop_
 _symmetry_equiv_pos_site_id
 _symmetry_equiv_pos_as_xyz
  1  'x, y, z'
loop_
 _atom_site_type_symbol
 _atom_site_label
 _atom_site_symmetry_multiplicity
 _atom_site_fract_x
 _atom_site_fract_y
 _atom_site_fract_z
 _atom_site_occupancy
  Er  Er0  1  0.876974  0.538690  0.250000  1
  Er  Er1  1  0.623155  0.037325  0.250000  1
  Er  Er2  1  0.128307  0.459063  0.750000  1
  Lu  Lu3  1  0.335440  0.676630  0.062835  1
  Lu  Lu4  1  0.160898  0.174813  0.438079  1
  Lu  Lu5  1  0.661727  0.322977  0.561355  1
  Lu  Lu6  1  0.837579  0.825620  0.938341  1
  Lu  Lu7  1  0.661727  0.322977  0.938645  1
  Lu  Lu8  1  0.837579  0.825620  0.561659  1
  Lu  Lu9  1  0.335440  0.676630  0.437165  1
  Lu  Lu10  1  0.160898  0.174813  0.061921  1
  Lu  Lu11  1  0.374551  0.961605  0.750000  1
  Tc  Tc12  1  0.041837  0.882771  0.250000  1
  Tc  Tc13  1  0.460123  0.384964  0.250000  1
  Tc  Tc14  1  0.959905  0.116917  0.750000  1
  Ir  Ir15  1  0.543861  0.618585  0.750000  1
