# generated using pymatgen
data_HgIr3RhPb3O14
_symmetry_space_group_name_H-M   'P 1'
_cell_length_a   7.39062116
_cell_length_b   7.39062047
_cell_length_c   7.28600897
_cell_angle_alpha   59.52389830
_cell_angle_beta   59.52389728
_cell_angle_gamma   60.00000826
_symmetry_Int_Tables_number   1
_chemical_formula_structural   HgIr3RhPb3O14
_chemical_formula_sum   'Hg1 Ir3 Rh1 Pb3 O14'
_cell_volume   279.36596218
_cell_formula_units_Z   1
loop_
 _symmetry_equiv_pos_site_id
 _symmetry_equiv_pos_as_xyz
  1  'x, y, z'
loop_
 _atom_site_type_symbol
 _atom_site_label
 _atom_site_symmetry_multiplicity
 _atom_site_fract_x
 _atom_site_fract_y
 _atom_site_fract_z
 _atom_site_occupancy
  Hg  Hg0  1  0.125000  0.125000  0.625000  1
  Ir  Ir1  1  0.125000  0.625000  0.625000  1
  Ir  Ir2  1  0.625000  0.125000  0.625000  1
  Ir  Ir3  1  0.625000  0.625000  0.625000  1
  Rh  Rh4  1  0.625000  0.625000  0.125000  1
  Pb  Pb5  1  0.625000  0.125000  0.125000  1
  Pb  Pb6  1  0.125000  0.625000  0.125000  1
  Pb  Pb7  1  0.125000  0.125000  0.125000  1
  O  O8  1  0.706168  0.706168  0.294444  1
  O  O9  1  0.303109  0.303109  0.705952  1
  O  O10  1  0.687828  0.303109  0.705952  1
  O  O11  1  0.293219  0.706168  0.294444  1
  O  O12  1  0.303109  0.687828  0.705952  1
  O  O13  1  0.706168  0.293219  0.294444  1
  O  O14  1  0.543832  0.543832  0.955556  1
  O  O15  1  0.946891  0.946891  0.544048  1
  O  O16  1  0.562172  0.946891  0.544048  1
  O  O17  1  0.956781  0.543832  0.955556  1
  O  O18  1  0.946891  0.562172  0.544048  1
  O  O19  1  0.543832  0.956781  0.955556  1
  O  O20  1  0.242165  0.242165  0.273504  1
  O  O21  1  0.007835  0.007835  0.976496  1
