# generated using pymatgen
data_Ce8Ho12Si15Ge
_symmetry_space_group_name_H-M   'P 1'
_cell_length_a   7.57263366
_cell_length_b   7.85161566
_cell_length_c   14.91525600
_cell_angle_alpha   90.01446330
_cell_angle_beta   89.90387186
_cell_angle_gamma   90.01848647
_symmetry_Int_Tables_number   1
_chemical_formula_structural   Ce8Ho12Si15Ge
_chemical_formula_sum   'Ce8 Ho12 Si15 Ge1'
_cell_volume   886.82115389
_cell_formula_units_Z   1
loop_
 _symmetry_equiv_pos_site_id
 _symmetry_equiv_pos_as_xyz
  1  'x, y, z'
loop_
 _atom_site_type_symbol
 _atom_site_label
 _atom_site_symmetry_multiplicity
 _atom_site_fract_x
 _atom_site_fract_y
 _atom_site_fract_z
 _atom_site_occupancy
  Ce  Ce0  1  0.976557  0.823072  0.098333  1
  Ce  Ce1  1  0.474322  0.679104  0.400846  1
  Ce  Ce2  1  0.522306  0.320147  0.901133  1
  Ce  Ce3  1  0.025971  0.178976  0.599100  1
  Ce  Ce4  1  0.025917  0.177369  0.901186  1
  Ce  Ce5  1  0.525750  0.320570  0.599109  1
  Ce  Ce6  1  0.474915  0.679343  0.098852  1
  Ce  Ce7  1  0.974351  0.820822  0.401524  1
  Ho  Ho8  1  0.651292  0.985195  0.250005  1
  Ho  Ho9  1  0.150902  0.514713  0.250037  1
  Ho  Ho10  1  0.849262  0.486456  0.748991  1
  Ho  Ho11  1  0.348632  0.013507  0.749906  1
  Ho  Ho12  1  0.679920  0.823847  0.876541  1
  Ho  Ho13  1  0.181574  0.678688  0.622175  1
  Ho  Ho14  1  0.819909  0.320488  0.123065  1
  Ho  Ho15  1  0.317984  0.178315  0.377623  1
  Ho  Ho16  1  0.319097  0.178449  0.122772  1
  Ho  Ho17  1  0.818468  0.321010  0.377461  1
  Ho  Ho18  1  0.182466  0.678218  0.877962  1
  Ho  Ho19  1  0.682063  0.821662  0.622195  1
  Si  Si20  1  0.769925  0.621708  0.249908  1
  Si  Si21  1  0.269335  0.878313  0.250301  1
  Si  Si22  1  0.730153  0.122992  0.749987  1
  Si  Si23  1  0.229263  0.377706  0.750246  1
  Si  Si24  1  0.025041  0.108334  0.250358  1
  Si  Si25  1  0.525222  0.390987  0.250143  1
  Si  Si26  1  0.475071  0.609630  0.750173  1
  Si  Si27  1  0.975493  0.889905  0.749893  1
  Si  Si28  1  0.355122  0.971274  0.539600  1
  Si  Si29  1  0.645599  0.028653  0.039710  1
  Si  Si30  1  0.144394  0.472151  0.459723  1
  Si  Si31  1  0.150115  0.471543  0.041118  1
  Si  Si32  1  0.644823  0.026855  0.459471  1
  Si  Si33  1  0.355301  0.971169  0.960601  1
  Si  Si34  1  0.855652  0.528288  0.539542  1
  Ge  Ge35  1  0.847833  0.530542  0.960410  1
