# generated using pymatgen
data_RbEu2(H6Ir)2
_symmetry_space_group_name_H-M   'P 1'
_cell_length_a   5.25253500
_cell_length_b   5.25253584
_cell_length_c   8.68451200
_cell_angle_alpha   90.00000000
_cell_angle_beta   90.00000000
_cell_angle_gamma   119.99998843
_symmetry_Int_Tables_number   1
_chemical_formula_structural   RbEu2(H6Ir)2
_chemical_formula_sum   'Rb1 Eu2 H12 Ir2'
_cell_volume   207.49807936
_cell_formula_units_Z   1
loop_
 _symmetry_equiv_pos_site_id
 _symmetry_equiv_pos_as_xyz
  1  'x, y, z'
loop_
 _atom_site_type_symbol
 _atom_site_label
 _atom_site_symmetry_multiplicity
 _atom_site_fract_x
 _atom_site_fract_y
 _atom_site_fract_z
 _atom_site_occupancy
  Rb  Rb0  1  0.000000  0.000000  0.000000  1
  Eu  Eu1  1  0.666667  0.333333  0.359811  1
  Eu  Eu2  1  0.333333  0.666667  0.640189  1
  H  H3  1  0.176035  0.823965  0.382462  1
  H  H4  1  0.647930  0.823965  0.382462  1
  H  H5  1  0.176035  0.352070  0.382462  1
  H  H6  1  0.823965  0.176035  0.617538  1
  H  H7  1  0.352070  0.176035  0.617538  1
  H  H8  1  0.823965  0.647930  0.617538  1
  H  H9  1  0.524013  0.048025  0.842981  1
  H  H10  1  0.524013  0.475987  0.842981  1
  H  H11  1  0.951975  0.475987  0.842981  1
  H  H12  1  0.475987  0.951975  0.157019  1
  H  H13  1  0.475987  0.524013  0.157019  1
  H  H14  1  0.048025  0.524013  0.157019  1
  Ir  Ir15  1  0.666667  0.333333  0.722165  1
  Ir  Ir16  1  0.333333  0.666667  0.277835  1
