# generated using pymatgen
data_Dy4Er3Lu5Co5Sn
_symmetry_space_group_name_H-M   'P 1'
_cell_length_a   8.18276878
_cell_length_b   8.17588759
_cell_length_c   8.17588721
_cell_angle_alpha   106.73777527
_cell_angle_beta   110.60848669
_cell_angle_gamma   111.06513952
_symmetry_Int_Tables_number   1
_chemical_formula_structural   Dy4Er3Lu5Co5Sn
_chemical_formula_sum   'Dy4 Er3 Lu5 Co5 Sn1'
_cell_volume   420.53786718
_cell_formula_units_Z   1
loop_
 _symmetry_equiv_pos_site_id
 _symmetry_equiv_pos_as_xyz
  1  'x, y, z'
loop_
 _atom_site_type_symbol
 _atom_site_label
 _atom_site_symmetry_multiplicity
 _atom_site_fract_x
 _atom_site_fract_y
 _atom_site_fract_z
 _atom_site_occupancy
  Dy  Dy0  1  0.195192  0.213492  0.407899  1
  Dy  Dy1  1  0.804932  0.787231  0.593486  1
  Dy  Dy2  1  0.195192  0.787293  0.981699  1
  Dy  Dy3  1  0.804932  0.211446  0.017701  1
  Er  Er4  1  0.474804  0.289212  0.185592  1
  Er  Er5  1  0.104517  0.289743  0.814773  1
  Er  Er6  1  0.895150  0.710933  0.184217  1
  Lu  Lu7  1  0.526077  0.710912  0.815164  1
  Lu  Lu8  1  0.307140  0.622107  0.316119  1
  Lu  Lu9  1  0.307140  0.991022  0.685033  1
  Lu  Lu10  1  0.692839  0.378385  0.684867  1
  Lu  Lu11  1  0.692839  0.007971  0.314454  1
  Co  Co12  1  0.500058  0.613656  0.112383  1
  Co  Co13  1  0.500058  0.387675  0.886402  1
  Co  Co14  1  0.376724  0.999906  0.376818  1
  Co  Co15  1  0.622982  0.999581  0.623402  1
  Co  Co16  1  0.999453  0.999444  0.000008  1
  Sn  Sn17  1  0.999972  0.499989  0.499983  1
