# generated using pymatgen
data_PaAl7Cu5
_symmetry_space_group_name_H-M   'P 1'
_cell_length_a   5.08397216
_cell_length_b   6.70346115
_cell_length_c   6.70346221
_cell_angle_alpha   97.94804401
_cell_angle_beta   112.28445269
_cell_angle_gamma   67.71554455
_symmetry_Int_Tables_number   1
_chemical_formula_structural   PaAl7Cu5
_chemical_formula_sum   'Pa1 Al7 Cu5'
_cell_volume   195.60024153
_cell_formula_units_Z   1
loop_
 _symmetry_equiv_pos_site_id
 _symmetry_equiv_pos_as_xyz
  1  'x, y, z'
loop_
 _atom_site_type_symbol
 _atom_site_label
 _atom_site_symmetry_multiplicity
 _atom_site_fract_x
 _atom_site_fract_y
 _atom_site_fract_z
 _atom_site_occupancy
  Pa  Pa0  1  0.999946  0.000054  0.999946  1
  Al  Al1  1  0.650426  0.349574  0.650426  1
  Al  Al2  1  0.346257  0.653743  0.346257  1
  Al  Al3  1  0.992932  0.355388  0.341251  1
  Al  Al4  1  0.992932  0.658749  0.644612  1
  Al  Al5  1  0.276061  0.223939  0.776061  1
  Al  Al6  1  0.506117  0.784515  0.796750  1
  Al  Al7  1  0.506117  0.203250  0.215485  1
  Cu  Cu8  1  0.499791  0.000022  0.502528  1
  Cu  Cu9  1  0.002715  0.000022  0.502528  1
  Cu  Cu10  1  0.499791  0.497472  0.999978  1
  Cu  Cu11  1  0.002715  0.497472  0.999978  1
  Cu  Cu12  1  0.724201  0.775799  0.224201  1
