# generated using pymatgen
data_Tb4Ho3Er(ReB6)4
_symmetry_space_group_name_H-M   'P 1'
_cell_length_a   3.68299000
_cell_length_b   9.17199600
_cell_length_c   11.56438600
_cell_angle_alpha   90.00328781
_cell_angle_beta   90.00000000
_cell_angle_gamma   90.00000000
_symmetry_Int_Tables_number   1
_chemical_formula_structural   Tb4Ho3Er(ReB6)4
_chemical_formula_sum   'Tb4 Ho3 Er1 Re4 B24'
_cell_volume   390.64923235
_cell_formula_units_Z   1
loop_
 _symmetry_equiv_pos_site_id
 _symmetry_equiv_pos_as_xyz
  1  'x, y, z'
loop_
 _atom_site_type_symbol
 _atom_site_label
 _atom_site_symmetry_multiplicity
 _atom_site_fract_x
 _atom_site_fract_y
 _atom_site_fract_z
 _atom_site_occupancy
  Tb  Tb0  1  0.000000  0.323482  0.413943  1
  Tb  Tb1  1  0.000000  0.676507  0.586167  1
  Tb  Tb2  1  0.000000  0.823385  0.086026  1
  Tb  Tb3  1  0.000000  0.176589  0.913894  1
  Ho  Ho4  1  0.000000  0.943200  0.369993  1
  Ho  Ho5  1  0.000000  0.056819  0.630078  1
  Ho  Ho6  1  0.000000  0.443267  0.129811  1
  Er  Er7  1  0.000000  0.556830  0.869882  1
  Re  Re8  1  0.000000  0.638999  0.320460  1
  Re  Re9  1  0.000000  0.361198  0.679684  1
  Re  Re10  1  0.000000  0.139010  0.179473  1
  Re  Re11  1  0.000000  0.860740  0.820534  1
  B  B12  1  0.500000  0.553513  0.432589  1
  B  B13  1  0.500000  0.446520  0.567545  1
  B  B14  1  0.500000  0.053489  0.067396  1
  B  B15  1  0.500000  0.946325  0.932546  1
  B  B16  1  0.500000  0.749310  0.418153  1
  B  B17  1  0.500000  0.250756  0.581923  1
  B  B18  1  0.500000  0.249346  0.081828  1
  B  B19  1  0.500000  0.750235  0.918135  1
  B  B20  1  0.500000  0.792099  0.265574  1
  B  B21  1  0.500000  0.208053  0.734470  1
  B  B22  1  0.500000  0.292133  0.234388  1
  B  B23  1  0.500000  0.707553  0.765693  1
  B  B24  1  0.500000  0.630661  0.185563  1
  B  B25  1  0.500000  0.369642  0.814569  1
  B  B26  1  0.500000  0.130702  0.314371  1
  B  B27  1  0.500000  0.869187  0.685700  1
  B  B28  1  0.500000  0.982542  0.212134  1
  B  B29  1  0.500000  0.017373  0.787901  1
  B  B30  1  0.500000  0.482516  0.287828  1
  B  B31  1  0.500000  0.517668  0.712395  1
  B  B32  1  0.500000  0.599143  0.027293  1
  B  B33  1  0.500000  0.401213  0.972014  1
  B  B34  1  0.500000  0.099308  0.472299  1
  B  B35  1  0.500000  0.900692  0.527748  1
