# generated using pymatgen
data_Gd3Th(Pt2Pb)2
_symmetry_space_group_name_H-M   'P 1'
_cell_length_a   8.13052400
_cell_length_b   8.13052324
_cell_length_c   3.68281100
_cell_angle_alpha   90.00000000
_cell_angle_beta   90.00000000
_cell_angle_gamma   88.88835796
_symmetry_Int_Tables_number   1
_chemical_formula_structural   Gd3Th(Pt2Pb)2
_chemical_formula_sum   'Gd3 Th1 Pt4 Pb2'
_cell_volume   243.40792682
_cell_formula_units_Z   1
loop_
 _symmetry_equiv_pos_site_id
 _symmetry_equiv_pos_as_xyz
  1  'x, y, z'
loop_
 _atom_site_type_symbol
 _atom_site_label
 _atom_site_symmetry_multiplicity
 _atom_site_fract_x
 _atom_site_fract_y
 _atom_site_fract_z
 _atom_site_occupancy
  Gd  Gd0  1  0.830842  0.332915  0.500000  1
  Gd  Gd1  1  0.167085  0.669159  0.500000  1
  Gd  Gd2  1  0.671036  0.828965  0.500000  1
  Th  Th3  1  0.332629  0.167371  0.500000  1
  Pt  Pt4  1  0.623140  0.129608  0.000000  1
  Pt  Pt5  1  0.131511  0.368489  0.000000  1
  Pt  Pt6  1  0.876270  0.623731  0.000000  1
  Pt  Pt7  1  0.370392  0.876861  0.000000  1
  Pb  Pb8  1  0.993523  0.996425  0.000000  1
  Pb  Pb9  1  0.503575  0.506477  0.000000  1
