# generated using pymatgen
data_HfSi4Mo3Ir4
_symmetry_space_group_name_H-M   'P 1'
_cell_length_a   3.88271800
_cell_length_b   6.32079363
_cell_length_c   7.22965303
_cell_angle_alpha   90.30167947
_cell_angle_beta   90.00000000
_cell_angle_gamma   90.00000000
_symmetry_Int_Tables_number   1
_chemical_formula_structural   HfSi4Mo3Ir4
_chemical_formula_sum   'Hf1 Si4 Mo3 Ir4'
_cell_volume   177.42666738
_cell_formula_units_Z   1
loop_
 _symmetry_equiv_pos_site_id
 _symmetry_equiv_pos_as_xyz
  1  'x, y, z'
loop_
 _atom_site_type_symbol
 _atom_site_label
 _atom_site_symmetry_multiplicity
 _atom_site_fract_x
 _atom_site_fract_y
 _atom_site_fract_z
 _atom_site_occupancy
  Hf  Hf0  1  0.250000  0.474155  0.175628  1
  Si  Si1  1  0.250000  0.228137  0.867242  1
  Si  Si2  1  0.250000  0.737884  0.622751  1
  Si  Si3  1  0.750000  0.776758  0.123404  1
  Si  Si4  1  0.750000  0.252137  0.384701  1
  Mo  Mo5  1  0.750000  0.528455  0.824291  1
  Mo  Mo6  1  0.250000  0.974495  0.333420  1
  Mo  Mo7  1  0.750000  0.024801  0.672065  1
  Ir  Ir8  1  0.250000  0.852387  0.938001  1
  Ir  Ir9  1  0.250000  0.353969  0.561543  1
  Ir  Ir10  1  0.750000  0.644974  0.436096  1
  Ir  Ir11  1  0.750000  0.151847  0.060856  1
