# generated using pymatgen
data_Tb5AlPtO12
_symmetry_space_group_name_H-M   'P 1'
_cell_length_a   6.86583666
_cell_length_b   6.86583808
_cell_length_c   7.30274678
_cell_angle_alpha   74.50740297
_cell_angle_beta   74.50739735
_cell_angle_gamma   50.56025138
_symmetry_Int_Tables_number   1
_chemical_formula_structural   Tb5AlPtO12
_chemical_formula_sum   'Tb5 Al1 Pt1 O12'
_cell_volume   253.99666296
_cell_formula_units_Z   1
loop_
 _symmetry_equiv_pos_site_id
 _symmetry_equiv_pos_as_xyz
  1  'x, y, z'
loop_
 _atom_site_type_symbol
 _atom_site_label
 _atom_site_symmetry_multiplicity
 _atom_site_fract_x
 _atom_site_fract_y
 _atom_site_fract_z
 _atom_site_occupancy
  Tb  Tb0  1  0.694213  0.690211  0.667151  1
  Tb  Tb1  1  0.686176  0.706280  0.141737  1
  Tb  Tb2  1  0.996835  0.003165  0.000000  1
  Tb  Tb3  1  0.293720  0.313824  0.858263  1
  Tb  Tb4  1  0.309789  0.305787  0.332849  1
  Al  Al5  1  0.252650  0.747350  0.500000  1
  Pt  Pt6  1  0.760371  0.239629  0.500000  1
  O  O7  1  0.399198  0.908281  0.923506  1
  O  O8  1  0.575090  0.095747  0.583592  1
  O  O9  1  0.904253  0.424910  0.416408  1
  O  O10  1  0.091719  0.600802  0.076494  1
  O  O11  1  0.014240  0.985808  0.321930  1
  O  O12  1  0.497889  0.502442  0.680008  1
  O  O13  1  0.899627  0.404164  0.926752  1
  O  O14  1  0.097946  0.581301  0.581092  1
  O  O15  1  0.418699  0.902054  0.418908  1
  O  O16  1  0.595836  0.100373  0.073248  1
  O  O17  1  0.497558  0.502111  0.319992  1
  O  O18  1  0.014192  0.985760  0.678070  1
