# generated using pymatgen
data_Zr6Zn23Sn
_symmetry_space_group_name_H-M   'P 1'
_cell_length_a   8.87434909
_cell_length_b   8.87433088
_cell_length_c   8.87433100
_cell_angle_alpha   60.00009923
_cell_angle_beta   60.00011936
_cell_angle_gamma   60.00012033
_symmetry_Int_Tables_number   1
_chemical_formula_structural   Zr6Zn23Sn
_chemical_formula_sum   'Zr6 Zn23 Sn1'
_cell_volume   494.18989846
_cell_formula_units_Z   1
loop_
 _symmetry_equiv_pos_site_id
 _symmetry_equiv_pos_as_xyz
  1  'x, y, z'
loop_
 _atom_site_type_symbol
 _atom_site_label
 _atom_site_symmetry_multiplicity
 _atom_site_fract_x
 _atom_site_fract_y
 _atom_site_fract_z
 _atom_site_occupancy
  Zr  Zr0  1  0.731247  0.268753  0.268753  1
  Zr  Zr1  1  0.268753  0.731247  0.731247  1
  Zr  Zr2  1  0.268754  0.731247  0.268751  1
  Zr  Zr3  1  0.731246  0.268753  0.731249  1
  Zr  Zr4  1  0.268754  0.268751  0.731247  1
  Zr  Zr5  1  0.731246  0.731249  0.268753  1
  Zn  Zn6  1  0.129783  0.129783  0.129783  1
  Zn  Zn7  1  0.870217  0.870217  0.870217  1
  Zn  Zn8  1  0.129782  0.129782  0.610654  1
  Zn  Zn9  1  0.129782  0.610654  0.129782  1
  Zn  Zn10  1  0.870218  0.870218  0.389346  1
  Zn  Zn11  1  0.870218  0.389346  0.870218  1
  Zn  Zn12  1  0.610653  0.129782  0.129782  1
  Zn  Zn13  1  0.389347  0.870218  0.870218  1
  Zn  Zn14  1  0.500000  0.000000  0.000000  1
  Zn  Zn15  1  0.000000  0.500000  0.500000  1
  Zn  Zn16  1  0.000000  0.500000  0.000000  1
  Zn  Zn17  1  0.500000  0.000000  0.500000  1
  Zn  Zn18  1  0.000000  0.000000  0.500000  1
  Zn  Zn19  1  0.500000  0.500000  0.000000  1
  Zn  Zn20  1  0.344172  0.344172  0.344172  1
  Zn  Zn21  1  0.655828  0.655828  0.655828  1
  Zn  Zn22  1  0.344170  0.344170  0.967488  1
  Zn  Zn23  1  0.344170  0.967488  0.344170  1
  Zn  Zn24  1  0.655830  0.655830  0.032512  1
  Zn  Zn25  1  0.655830  0.032512  0.655830  1
  Zn  Zn26  1  0.967488  0.344170  0.344170  1
  Zn  Zn27  1  0.032512  0.655830  0.655830  1
  Zn  Zn28  1  0.000000  0.000000  0.000000  1
  Sn  Sn29  1  0.500000  0.500000  0.500000  1
