# generated using pymatgen
data_Dy8ReTc(B12Ru)2
_symmetry_space_group_name_H-M   'P 1'
_cell_length_a   3.67666300
_cell_length_b   9.15870722
_cell_length_c   11.54909890
_cell_angle_alpha   89.81974075
_cell_angle_beta   90.00000000
_cell_angle_gamma   90.00000000
_symmetry_Int_Tables_number   1
_chemical_formula_structural   Dy8ReTc(B12Ru)2
_chemical_formula_sum   'Dy8 Re1 Tc1 B24 Ru2'
_cell_volume   388.89642555
_cell_formula_units_Z   1
loop_
 _symmetry_equiv_pos_site_id
 _symmetry_equiv_pos_as_xyz
  1  'x, y, z'
loop_
 _atom_site_type_symbol
 _atom_site_label
 _atom_site_symmetry_multiplicity
 _atom_site_fract_x
 _atom_site_fract_y
 _atom_site_fract_z
 _atom_site_occupancy
  Dy  Dy0  1  0.000000  0.325506  0.415316  1
  Dy  Dy1  1  0.000000  0.674838  0.584578  1
  Dy  Dy2  1  0.000000  0.821886  0.087627  1
  Dy  Dy3  1  0.000000  0.178550  0.912359  1
  Dy  Dy4  1  0.000000  0.942186  0.370475  1
  Dy  Dy5  1  0.000000  0.056815  0.629038  1
  Dy  Dy6  1  0.000000  0.443163  0.130087  1
  Dy  Dy7  1  0.000000  0.557198  0.870851  1
  Re  Re8  1  0.000000  0.361950  0.679378  1
  Tc  Tc9  1  0.000000  0.638382  0.320370  1
  B  B10  1  0.500000  0.553367  0.432696  1
  B  B11  1  0.500000  0.446978  0.566848  1
  B  B12  1  0.500000  0.053794  0.067125  1
  B  B13  1  0.500000  0.946164  0.932921  1
  B  B14  1  0.500000  0.748140  0.418991  1
  B  B15  1  0.500000  0.251489  0.580857  1
  B  B16  1  0.500000  0.248076  0.081106  1
  B  B17  1  0.500000  0.751919  0.919054  1
  B  B18  1  0.500000  0.791393  0.265413  1
  B  B19  1  0.500000  0.208336  0.734416  1
  B  B20  1  0.500000  0.290451  0.234047  1
  B  B21  1  0.500000  0.709506  0.766228  1
  B  B22  1  0.500000  0.631819  0.185374  1
  B  B23  1  0.500000  0.368446  0.814719  1
  B  B24  1  0.500000  0.131179  0.313715  1
  B  B25  1  0.500000  0.868559  0.686257  1
  B  B26  1  0.500000  0.983522  0.211816  1
  B  B27  1  0.500000  0.016324  0.788073  1
  B  B28  1  0.500000  0.483398  0.287633  1
  B  B29  1  0.500000  0.517113  0.712445  1
  B  B30  1  0.500000  0.604737  0.029062  1
  B  B31  1  0.500000  0.395490  0.971406  1
  B  B32  1  0.500000  0.103912  0.470746  1
  B  B33  1  0.500000  0.895418  0.528999  1
  Ru  Ru34  1  0.000000  0.137792  0.178349  1
  Ru  Ru35  1  0.000000  0.862204  0.821626  1
