# generated using pymatgen
data_Li4Nd3ThPd4
_symmetry_space_group_name_H-M   'P 1'
_cell_length_a   4.09885000
_cell_length_b   7.31314801
_cell_length_c   8.66096465
_cell_angle_alpha   90.47669316
_cell_angle_beta   90.00000000
_cell_angle_gamma   90.00000000
_symmetry_Int_Tables_number   1
_chemical_formula_structural   Li4Nd3ThPd4
_chemical_formula_sum   'Li4 Nd3 Th1 Pd4'
_cell_volume   259.60773203
_cell_formula_units_Z   1
loop_
 _symmetry_equiv_pos_site_id
 _symmetry_equiv_pos_as_xyz
  1  'x, y, z'
loop_
 _atom_site_type_symbol
 _atom_site_label
 _atom_site_symmetry_multiplicity
 _atom_site_fract_x
 _atom_site_fract_y
 _atom_site_fract_z
 _atom_site_occupancy
  Li  Li0  1  0.250000  0.128013  0.057295  1
  Li  Li1  1  0.250000  0.633037  0.441481  1
  Li  Li2  1  0.750000  0.866117  0.945035  1
  Li  Li3  1  0.750000  0.376706  0.558311  1
  Nd  Nd4  1  0.250000  0.543421  0.812951  1
  Nd  Nd5  1  0.750000  0.956758  0.309349  1
  Nd  Nd6  1  0.750000  0.452618  0.188491  1
  Th  Th7  1  0.250000  0.045153  0.686391  1
  Pd  Pd8  1  0.250000  0.245693  0.391431  1
  Pd  Pd9  1  0.250000  0.742874  0.117426  1
  Pd  Pd10  1  0.750000  0.767989  0.619379  1
  Pd  Pd11  1  0.750000  0.241622  0.872459  1
