# generated using pymatgen
data_Pr8Sm2CdSi4Ge
_symmetry_space_group_name_H-M   'P 1'
_cell_length_a   7.78473000
_cell_length_b   9.26417667
_cell_length_c   7.78473000
_cell_angle_alpha   114.84420910
_cell_angle_beta   90.00000000
_cell_angle_gamma   114.84420910
_symmetry_Int_Tables_number   1
_chemical_formula_structural   Pr8Sm2CdSi4Ge
_chemical_formula_sum   'Pr8 Sm2 Cd1 Si4 Ge1'
_cell_volume   451.57226405
_cell_formula_units_Z   1
loop_
 _symmetry_equiv_pos_site_id
 _symmetry_equiv_pos_as_xyz
  1  'x, y, z'
loop_
 _atom_site_type_symbol
 _atom_site_label
 _atom_site_symmetry_multiplicity
 _atom_site_fract_x
 _atom_site_fract_y
 _atom_site_fract_z
 _atom_site_occupancy
  Pr  Pr0  1  0.524243  0.719932  0.672889  1
  Pr  Pr1  1  0.195690  0.719932  0.047044  1
  Pr  Pr2  1  0.672889  0.719932  0.195690  1
  Pr  Pr3  1  0.047044  0.719932  0.524243  1
  Pr  Pr4  1  0.452956  0.280068  0.304310  1
  Pr  Pr5  1  0.827111  0.280068  0.975757  1
  Pr  Pr6  1  0.304310  0.280068  0.827111  1
  Pr  Pr7  1  0.975757  0.280068  0.452956  1
  Sm  Sm8  1  0.979430  0.958860  0.979430  1
  Sm  Sm9  1  0.520570  0.041140  0.520570  1
  Cd  Cd10  1  0.750000  0.500000  0.750000  1
  Si  Si11  1  0.883475  0.000000  0.616525  1
  Si  Si12  1  0.116525  0.000000  0.383475  1
  Si  Si13  1  0.616525  0.000000  0.116525  1
  Si  Si14  1  0.383475  0.000000  0.883475  1
  Ge  Ge15  1  0.250000  0.500000  0.250000  1
