# generated using pymatgen
data_Tb12CuTc3
_symmetry_space_group_name_H-M   'P 1'
_cell_length_a   6.35335206
_cell_length_b   7.38609315
_cell_length_c   9.30265000
_cell_angle_alpha   90.00000000
_cell_angle_beta   90.00000000
_cell_angle_gamma   90.01409965
_symmetry_Int_Tables_number   1
_chemical_formula_structural   Tb12CuTc3
_chemical_formula_sum   'Tb12 Cu1 Tc3'
_cell_volume   436.54032835
_cell_formula_units_Z   1
loop_
 _symmetry_equiv_pos_site_id
 _symmetry_equiv_pos_as_xyz
  1  'x, y, z'
loop_
 _atom_site_type_symbol
 _atom_site_label
 _atom_site_symmetry_multiplicity
 _atom_site_fract_x
 _atom_site_fract_y
 _atom_site_fract_z
 _atom_site_occupancy
  Tb  Tb0  1  0.327492  0.676109  0.068822  1
  Tb  Tb1  1  0.165497  0.178891  0.435358  1
  Tb  Tb2  1  0.666519  0.317149  0.559231  1
  Tb  Tb3  1  0.841290  0.827505  0.940317  1
  Tb  Tb4  1  0.666519  0.317149  0.940769  1
  Tb  Tb5  1  0.841290  0.827505  0.559683  1
  Tb  Tb6  1  0.327492  0.676109  0.431178  1
  Tb  Tb7  1  0.165497  0.178891  0.064642  1
  Tb  Tb8  1  0.867495  0.541904  0.250000  1
  Tb  Tb9  1  0.627241  0.039618  0.250000  1
  Tb  Tb10  1  0.128478  0.454298  0.750000  1
  Tb  Tb11  1  0.369608  0.967101  0.750000  1
  Cu  Cu12  1  0.550231  0.612088  0.750000  1
  Tc  Tc13  1  0.037947  0.885874  0.250000  1
  Tc  Tc14  1  0.464140  0.387059  0.250000  1
  Tc  Tc15  1  0.953264  0.112747  0.750000  1
