# generated using pymatgen
data_Ta4Mn5VSi2
_symmetry_space_group_name_H-M   'P 1'
_cell_length_a   4.86458720
_cell_length_b   4.89614443
_cell_length_c   7.94375400
_cell_angle_alpha   90.00000000
_cell_angle_beta   90.00000000
_cell_angle_gamma   120.21484437
_symmetry_Int_Tables_number   1
_chemical_formula_structural   Ta4Mn5VSi2
_chemical_formula_sum   'Ta4 Mn5 V1 Si2'
_cell_volume   163.49796202
_cell_formula_units_Z   1
loop_
 _symmetry_equiv_pos_site_id
 _symmetry_equiv_pos_as_xyz
  1  'x, y, z'
loop_
 _atom_site_type_symbol
 _atom_site_label
 _atom_site_symmetry_multiplicity
 _atom_site_fract_x
 _atom_site_fract_y
 _atom_site_fract_z
 _atom_site_occupancy
  Ta  Ta0  1  0.333269  0.666635  0.938630  1
  Ta  Ta1  1  0.667308  0.333653  0.066186  1
  Ta  Ta2  1  0.667308  0.333653  0.433814  1
  Ta  Ta3  1  0.333269  0.666635  0.561370  1
  Mn  Mn4  1  0.172923  0.829654  0.250000  1
  Mn  Mn5  1  0.172923  0.343268  0.250000  1
  Mn  Mn6  1  0.658391  0.829195  0.250000  1
  Mn  Mn7  1  0.830603  0.169527  0.750000  1
  Mn  Mn8  1  0.830603  0.661077  0.750000  1
  V  V9  1  0.349637  0.174819  0.750000  1
  Si  Si10  1  0.991882  0.995941  0.495829  1
  Si  Si11  1  0.991882  0.995941  0.004171  1
