# generated using pymatgen
data_Sr2Cd14Ag3
_symmetry_space_group_name_H-M   'P 1'
_cell_length_a   7.70342027
_cell_length_b   7.70342033
_cell_length_c   7.70342140
_cell_angle_alpha   83.57396673
_cell_angle_beta   83.57397098
_cell_angle_gamma   83.57395906
_symmetry_Int_Tables_number   1
_chemical_formula_structural   Sr2Cd14Ag3
_chemical_formula_sum   'Sr2 Cd14 Ag3'
_cell_volume   449.12289108
_cell_formula_units_Z   1
loop_
 _symmetry_equiv_pos_site_id
 _symmetry_equiv_pos_as_xyz
  1  'x, y, z'
loop_
 _atom_site_type_symbol
 _atom_site_label
 _atom_site_symmetry_multiplicity
 _atom_site_fract_x
 _atom_site_fract_y
 _atom_site_fract_z
 _atom_site_occupancy
  Sr  Sr0  1  0.341890  0.341890  0.341890  1
  Sr  Sr1  1  0.658110  0.658110  0.658110  1
  Cd  Cd2  1  0.297893  0.702107  0.000000  1
  Cd  Cd3  1  0.846347  0.349862  0.349862  1
  Cd  Cd4  1  0.650138  0.153653  0.650138  1
  Cd  Cd5  1  0.105986  0.105986  0.105986  1
  Cd  Cd6  1  0.297893  0.000000  0.702107  1
  Cd  Cd7  1  0.702107  0.297893  0.000000  1
  Cd  Cd8  1  0.349862  0.349862  0.846347  1
  Cd  Cd9  1  0.894014  0.894014  0.894014  1
  Cd  Cd10  1  0.000000  0.702107  0.297893  1
  Cd  Cd11  1  0.702107  0.000000  0.297893  1
  Cd  Cd12  1  0.349862  0.846347  0.349862  1
  Cd  Cd13  1  0.153653  0.650138  0.650138  1
  Cd  Cd14  1  0.650138  0.650138  0.153653  1
  Cd  Cd15  1  0.000000  0.297893  0.702107  1
  Ag  Ag16  1  0.000000  0.000000  0.500000  1
  Ag  Ag17  1  0.500000  0.000000  0.000000  1
  Ag  Ag18  1  0.000000  0.500000  0.000000  1
