# generated using pymatgen
data_Sc11Ti2Al9Rh8
_symmetry_space_group_name_H-M   'P 1'
_cell_length_a   9.07946521
_cell_length_b   9.05640575
_cell_length_c   9.07946518
_cell_angle_alpha   59.63368607
_cell_angle_beta   59.73888560
_cell_angle_gamma   59.63369263
_symmetry_Int_Tables_number   1
_chemical_formula_structural   Sc11Ti2Al9Rh8
_chemical_formula_sum   'Sc11 Ti2 Al9 Rh8'
_cell_volume   523.93778074
_cell_formula_units_Z   1
loop_
 _symmetry_equiv_pos_site_id
 _symmetry_equiv_pos_as_xyz
  1  'x, y, z'
loop_
 _atom_site_type_symbol
 _atom_site_label
 _atom_site_symmetry_multiplicity
 _atom_site_fract_x
 _atom_site_fract_y
 _atom_site_fract_z
 _atom_site_occupancy
  Sc  Sc0  1  0.225133  0.200609  0.789340  1
  Sc  Sc1  1  0.789340  0.200609  0.225133  1
  Sc  Sc2  1  0.207724  0.794916  0.207724  1
  Sc  Sc3  1  0.800166  0.801398  0.185908  1
  Sc  Sc4  1  0.185908  0.801398  0.800166  1
  Sc  Sc5  1  0.796479  0.177606  0.796479  1
  Sc  Sc6  1  0.380239  0.382831  0.380239  1
  Sc  Sc7  1  0.380368  0.863881  0.380368  1
  Sc  Sc8  1  0.858408  0.383995  0.381578  1
  Sc  Sc9  1  0.381578  0.383995  0.858408  1
  Sc  Sc10  1  0.839479  0.474577  0.839479  1
  Ti  Ti11  1  0.499854  0.829842  0.832430  1
  Ti  Ti12  1  0.832430  0.829842  0.499854  1
  Al  Al13  1  0.161740  0.166146  0.161740  1
  Al  Al14  1  0.164060  0.509785  0.164060  1
  Al  Al15  1  0.516759  0.165805  0.160785  1
  Al  Al16  1  0.160785  0.165805  0.516759  1
  Al  Al17  1  0.615745  0.621814  0.615745  1
  Al  Al18  1  0.620257  0.141091  0.620257  1
  Al  Al19  1  0.144952  0.620976  0.617019  1
  Al  Al20  1  0.617019  0.620976  0.144952  1
  Al  Al21  1  0.825662  0.822289  0.825662  1
  Rh  Rh22  1  0.997914  0.000320  0.498264  1
  Rh  Rh23  1  0.498264  0.000320  0.997914  1
  Rh  Rh24  1  0.001670  0.503697  0.001670  1
  Rh  Rh25  1  0.489992  0.511457  0.001872  1
  Rh  Rh26  1  0.001872  0.511457  0.489992  1
  Rh  Rh27  1  0.504242  0.999024  0.504242  1
  Rh  Rh28  1  0.500376  0.500470  0.500376  1
  Rh  Rh29  1  0.001585  0.013068  0.001585  1
