# generated using pymatgen
data_Hf4Pt2N
_symmetry_space_group_name_H-M   'P 1'
_cell_length_a   8.76958441
_cell_length_b   8.76958376
_cell_length_c   8.76958400
_cell_angle_alpha   59.99999909
_cell_angle_beta   60.00000155
_cell_angle_gamma   59.99999857
_symmetry_Int_Tables_number   1
_chemical_formula_structural   Hf4Pt2N
_chemical_formula_sum   'Hf16 Pt8 N4'
_cell_volume   476.89413908
_cell_formula_units_Z   4
loop_
 _symmetry_equiv_pos_site_id
 _symmetry_equiv_pos_as_xyz
  1  'x, y, z'
loop_
 _atom_site_type_symbol
 _atom_site_label
 _atom_site_symmetry_multiplicity
 _atom_site_fract_x
 _atom_site_fract_y
 _atom_site_fract_z
 _atom_site_occupancy
  Hf  Hf0  1  0.125000  0.625000  0.625000  1
  Hf  Hf1  1  0.625000  0.125000  0.625000  1
  Hf  Hf2  1  0.625000  0.625000  0.125000  1
  Hf  Hf3  1  0.625000  0.625000  0.625000  1
  Hf  Hf4  1  0.817420  0.817420  0.182580  1
  Hf  Hf5  1  0.182580  0.182580  0.817420  1
  Hf  Hf6  1  0.817420  0.182580  0.817420  1
  Hf  Hf7  1  0.182580  0.817420  0.182580  1
  Hf  Hf8  1  0.182580  0.817420  0.817420  1
  Hf  Hf9  1  0.817420  0.182580  0.182580  1
  Hf  Hf10  1  0.432580  0.432580  0.067420  1
  Hf  Hf11  1  0.067420  0.067420  0.432580  1
  Hf  Hf12  1  0.432580  0.067420  0.432580  1
  Hf  Hf13  1  0.067420  0.432580  0.067420  1
  Hf  Hf14  1  0.067420  0.432580  0.432580  1
  Hf  Hf15  1  0.432580  0.067420  0.067420  1
  Pt  Pt16  1  0.781613  0.406129  0.406129  1
  Pt  Pt17  1  0.406129  0.781613  0.406129  1
  Pt  Pt18  1  0.406129  0.406129  0.781613  1
  Pt  Pt19  1  0.406129  0.406129  0.406129  1
  Pt  Pt20  1  0.468387  0.843871  0.843871  1
  Pt  Pt21  1  0.843871  0.468387  0.843871  1
  Pt  Pt22  1  0.843871  0.843871  0.468387  1
  Pt  Pt23  1  0.843871  0.843871  0.843871  1
  N  N24  1  0.625000  0.125000  0.125000  1
  N  N25  1  0.125000  0.625000  0.125000  1
  N  N26  1  0.125000  0.125000  0.625000  1
  N  N27  1  0.125000  0.125000  0.125000  1
