# generated using pymatgen
data_La12Co6Hg
_symmetry_space_group_name_H-M   'P 1'
_cell_length_a   8.76563529
_cell_length_b   8.76563605
_cell_length_c   8.76563500
_cell_angle_alpha   109.47122283
_cell_angle_beta   109.47122460
_cell_angle_gamma   109.47121491
_symmetry_Int_Tables_number   1
_chemical_formula_structural   La12Co6Hg
_chemical_formula_sum   'La12 Co6 Hg1'
_cell_volume   518.47559799
_cell_formula_units_Z   1
loop_
 _symmetry_equiv_pos_site_id
 _symmetry_equiv_pos_as_xyz
  1  'x, y, z'
loop_
 _atom_site_type_symbol
 _atom_site_label
 _atom_site_symmetry_multiplicity
 _atom_site_fract_x
 _atom_site_fract_y
 _atom_site_fract_z
 _atom_site_occupancy
  La  La0  1  0.810303  0.688293  0.498596  1
  La  La1  1  0.189697  0.311707  0.501404  1
  La  La2  1  0.189697  0.688293  0.877991  1
  La  La3  1  0.810303  0.311707  0.122009  1
  La  La4  1  0.688293  0.498596  0.810303  1
  La  La5  1  0.311707  0.501404  0.189697  1
  La  La6  1  0.688293  0.877991  0.189697  1
  La  La7  1  0.311707  0.122009  0.810303  1
  La  La8  1  0.498596  0.810303  0.688293  1
  La  La9  1  0.501404  0.189697  0.311707  1
  La  La10  1  0.122009  0.810303  0.311707  1
  La  La11  1  0.877991  0.189697  0.688293  1
  Co  Co12  1  0.880267  0.380267  0.500000  1
  Co  Co13  1  0.119733  0.619733  0.500000  1
  Co  Co14  1  0.380267  0.500000  0.880267  1
  Co  Co15  1  0.619733  0.500000  0.119733  1
  Co  Co16  1  0.500000  0.880267  0.380267  1
  Co  Co17  1  0.500000  0.119733  0.619733  1
  Hg  Hg18  1  0.000000  0.000000  0.000000  1
