# generated using pymatgen
data_Yb2Zn3Ru
_symmetry_space_group_name_H-M   'P 1'
_cell_length_a   5.43705727
_cell_length_b   5.43705703
_cell_length_c   8.70348800
_cell_angle_alpha   90.00000000
_cell_angle_beta   90.00000000
_cell_angle_gamma   119.98027252
_symmetry_Int_Tables_number   1
_chemical_formula_structural   Yb2Zn3Ru
_chemical_formula_sum   'Yb4 Zn6 Ru2'
_cell_volume   222.86304536
_cell_formula_units_Z   2
loop_
 _symmetry_equiv_pos_site_id
 _symmetry_equiv_pos_as_xyz
  1  'x, y, z'
loop_
 _atom_site_type_symbol
 _atom_site_label
 _atom_site_symmetry_multiplicity
 _atom_site_fract_x
 _atom_site_fract_y
 _atom_site_fract_z
 _atom_site_occupancy
  Yb  Yb0  1  0.666727  0.333273  0.554580  1
  Yb  Yb1  1  0.333273  0.666727  0.445420  1
  Yb  Yb2  1  0.333273  0.666727  0.054580  1
  Yb  Yb3  1  0.666727  0.333273  0.945420  1
  Zn  Zn4  1  0.163626  0.327112  0.750000  1
  Zn  Zn5  1  0.163618  0.836382  0.750000  1
  Zn  Zn6  1  0.672888  0.836374  0.750000  1
  Zn  Zn7  1  0.836374  0.672888  0.250000  1
  Zn  Zn8  1  0.836382  0.163618  0.250000  1
  Zn  Zn9  1  0.327112  0.163626  0.250000  1
  Ru  Ru10  1  0.000000  0.000000  0.500000  1
  Ru  Ru11  1  0.000000  0.000000  0.000000  1
