# generated using pymatgen
data_Lu12Tc2Ni2AgSn
_symmetry_space_group_name_H-M   'P 1'
_cell_length_a   8.26241198
_cell_length_b   8.26241293
_cell_length_c   8.26241197
_cell_angle_alpha   113.98489584
_cell_angle_beta   110.84470667
_cell_angle_gamma   103.74894091
_symmetry_Int_Tables_number   1
_chemical_formula_structural   Lu12Tc2Ni2AgSn
_chemical_formula_sum   'Lu12 Tc2 Ni2 Ag1 Sn1'
_cell_volume   430.64331170
_cell_formula_units_Z   1
loop_
 _symmetry_equiv_pos_site_id
 _symmetry_equiv_pos_as_xyz
  1  'x, y, z'
loop_
 _atom_site_type_symbol
 _atom_site_label
 _atom_site_symmetry_multiplicity
 _atom_site_fract_x
 _atom_site_fract_y
 _atom_site_fract_z
 _atom_site_occupancy
  Lu  Lu0  1  0.666807  0.849816  0.183010  1
  Lu  Lu1  1  0.333193  0.516204  0.183010  1
  Lu  Lu2  1  0.817373  0.785814  0.603187  1
  Lu  Lu3  1  0.182627  0.785814  0.968441  1
  Lu  Lu4  1  0.817373  0.214186  0.031559  1
  Lu  Lu5  1  0.182627  0.214186  0.396813  1
  Lu  Lu6  1  0.666807  0.483796  0.816990  1
  Lu  Lu7  1  0.333193  0.150184  0.816990  1
  Lu  Lu8  1  0.566824  0.262911  0.303912  1
  Lu  Lu9  1  0.433176  0.737089  0.696088  1
  Lu  Lu10  1  0.041000  0.737089  0.303912  1
  Lu  Lu11  1  0.959000  0.262911  0.696088  1
  Tc  Tc12  1  0.324389  0.500000  0.824389  1
  Tc  Tc13  1  0.675611  0.500000  0.175611  1
  Ni  Ni14  1  0.880585  0.880585  0.000000  1
  Ni  Ni15  1  0.119415  0.119415  0.000000  1
  Ag  Ag16  1  0.000000  0.500000  0.500000  1
  Sn  Sn17  1  0.500000  0.000000  0.500000  1
