# generated using pymatgen
data_Sr6MgZn(PdO6)2
_symmetry_space_group_name_H-M   'P 1'
_cell_length_a   6.74863245
_cell_length_b   6.74863354
_cell_length_c   6.74863288
_cell_angle_alpha   92.12503709
_cell_angle_beta   92.12503711
_cell_angle_gamma   92.12502615
_symmetry_Int_Tables_number   1
_chemical_formula_structural   Sr6MgZn(PdO6)2
_chemical_formula_sum   'Sr6 Mg1 Zn1 Pd2 O12'
_cell_volume   306.70978942
_cell_formula_units_Z   1
loop_
 _symmetry_equiv_pos_site_id
 _symmetry_equiv_pos_as_xyz
  1  'x, y, z'
loop_
 _atom_site_type_symbol
 _atom_site_label
 _atom_site_symmetry_multiplicity
 _atom_site_fract_x
 _atom_site_fract_y
 _atom_site_fract_z
 _atom_site_occupancy
  Sr  Sr0  1  0.615152  0.250000  0.884848  1
  Sr  Sr1  1  0.884848  0.615152  0.250000  1
  Sr  Sr2  1  0.750000  0.116371  0.383629  1
  Sr  Sr3  1  0.383629  0.750000  0.116371  1
  Sr  Sr4  1  0.116371  0.383629  0.750000  1
  Sr  Sr5  1  0.250000  0.884848  0.615152  1
  Mg  Mg6  1  0.750000  0.750000  0.750000  1
  Zn  Zn7  1  0.250000  0.250000  0.250000  1
  Pd  Pd8  1  0.998861  0.998861  0.998861  1
  Pd  Pd9  1  0.501139  0.501139  0.501139  1
  O  O10  1  0.594141  0.788535  0.463845  1
  O  O11  1  0.463845  0.594141  0.788535  1
  O  O12  1  0.788535  0.463845  0.594141  1
  O  O13  1  0.905859  0.036155  0.711465  1
  O  O14  1  0.711465  0.905859  0.036155  1
  O  O15  1  0.036155  0.711465  0.905859  1
  O  O16  1  0.409173  0.213336  0.540743  1
  O  O17  1  0.540743  0.409173  0.213336  1
  O  O18  1  0.213336  0.540743  0.409173  1
  O  O19  1  0.090827  0.959257  0.286664  1
  O  O20  1  0.959257  0.286664  0.090827  1
  O  O21  1  0.286664  0.090827  0.959257  1
