# generated using pymatgen
data_K8Li4ScGa3As8
_symmetry_space_group_name_H-M   'P 1'
_cell_length_a   10.00030869
_cell_length_b   10.00032525
_cell_length_c   6.37651706
_cell_angle_alpha   90.12087349
_cell_angle_beta   89.87910476
_cell_angle_gamma   101.43708209
_symmetry_Int_Tables_number   1
_chemical_formula_structural   K8Li4ScGa3As8
_chemical_formula_sum   'K8 Li4 Sc1 Ga3 As8'
_cell_volume   625.02718423
_cell_formula_units_Z   1
loop_
 _symmetry_equiv_pos_site_id
 _symmetry_equiv_pos_as_xyz
  1  'x, y, z'
loop_
 _atom_site_type_symbol
 _atom_site_label
 _atom_site_symmetry_multiplicity
 _atom_site_fract_x
 _atom_site_fract_y
 _atom_site_fract_z
 _atom_site_occupancy
  K  K0  1  0.080709  0.429975  0.743662  1
  K  K1  1  0.669359  0.330980  0.775981  1
  K  K2  1  0.330979  0.669359  0.224020  1
  K  K3  1  0.575859  0.921183  0.748505  1
  K  K4  1  0.429976  0.080711  0.256339  1
  K  K5  1  0.921183  0.575860  0.251493  1
  K  K6  1  0.821813  0.170338  0.283208  1
  K  K7  1  0.170339  0.821814  0.716793  1
  Li  Li8  1  0.120956  0.120956  0.500000  1
  Li  Li9  1  0.876345  0.876345  0.500000  1
  Li  Li10  1  0.381655  0.381655  0.000000  1
  Li  Li11  1  0.621783  0.621784  0.999999  1
  Sc  Sc12  1  0.124919  0.124919  0.000000  1
  Ga  Ga13  1  0.870215  0.870215  0.000000  1
  Ga  Ga14  1  0.371189  0.371189  0.500000  1
  Ga  Ga15  1  0.633496  0.633496  0.500000  1
  As  As16  1  0.843491  0.657657  0.753493  1
  As  As17  1  0.091720  0.898143  0.222008  1
  As  As18  1  0.410935  0.593648  0.713699  1
  As  As19  1  0.593651  0.410934  0.286300  1
  As  As20  1  0.657657  0.843491  0.246507  1
  As  As21  1  0.159936  0.343694  0.254861  1
  As  As22  1  0.343694  0.159936  0.745139  1
  As  As23  1  0.898143  0.091720  0.777992  1
