# generated using pymatgen
data_Na(LiP)4
_symmetry_space_group_name_H-M   'P 1'
_cell_length_a   4.07238135
_cell_length_b   5.95250228
_cell_length_c   7.39475452
_cell_angle_alpha   101.05363245
_cell_angle_beta   106.16631752
_cell_angle_gamma   109.91042349
_symmetry_Int_Tables_number   1
_chemical_formula_structural   Na(LiP)4
_chemical_formula_sum   'Na1 Li4 P4'
_cell_volume   153.51047639
_cell_formula_units_Z   1
loop_
 _symmetry_equiv_pos_site_id
 _symmetry_equiv_pos_as_xyz
  1  'x, y, z'
loop_
 _atom_site_type_symbol
 _atom_site_label
 _atom_site_symmetry_multiplicity
 _atom_site_fract_x
 _atom_site_fract_y
 _atom_site_fract_z
 _atom_site_occupancy
  Na  Na0  1  0.218858  0.916759  0.041642  1
  Li  Li1  1  0.681496  0.342720  0.531250  1
  Li  Li2  1  0.859447  0.315747  0.922676  1
  Li  Li3  1  0.610389  0.541833  0.194627  1
  Li  Li4  1  0.415412  0.782059  0.562836  1
  P  P5  1  0.934102  0.004204  0.378365  1
  P  P6  1  0.156432  0.122734  0.707161  1
  P  P7  1  0.417611  0.529642  0.827109  1
  P  P8  1  0.053413  0.337513  0.284420  1
