# generated using pymatgen
data_BaNd8Ho11Sn16
_symmetry_space_group_name_H-M   'P 1'
_cell_length_a   8.15100119
_cell_length_b   8.34436895
_cell_length_c   15.69334100
_cell_angle_alpha   89.99953308
_cell_angle_beta   89.98751597
_cell_angle_gamma   89.94425845
_symmetry_Int_Tables_number   1
_chemical_formula_structural   BaNd8Ho11Sn16
_chemical_formula_sum   'Ba1 Nd8 Ho11 Sn16'
_cell_volume   1067.38144971
_cell_formula_units_Z   1
loop_
 _symmetry_equiv_pos_site_id
 _symmetry_equiv_pos_as_xyz
  1  'x, y, z'
loop_
 _atom_site_type_symbol
 _atom_site_label
 _atom_site_symmetry_multiplicity
 _atom_site_fract_x
 _atom_site_fract_y
 _atom_site_fract_z
 _atom_site_occupancy
  Ba  Ba0  1  0.508412  0.325867  0.908168  1
  Nd  Nd1  1  0.008589  0.178271  0.594250  1
  Nd  Nd2  1  0.491224  0.677778  0.403130  1
  Nd  Nd3  1  0.986896  0.822496  0.098925  1
  Nd  Nd4  1  0.492654  0.681289  0.098417  1
  Nd  Nd5  1  0.990561  0.820885  0.403627  1
  Nd  Nd6  1  0.509232  0.321796  0.595641  1
  Nd  Nd7  1  0.010861  0.174161  0.901790  1
  Nd  Nd8  1  0.312642  0.998961  0.250506  1
  Ho  Ho9  1  0.351629  0.837187  0.875561  1
  Ho  Ho10  1  0.854268  0.664941  0.622402  1
  Ho  Ho11  1  0.645920  0.166421  0.376644  1
  Ho  Ho12  1  0.148474  0.330949  0.126720  1
  Ho  Ho13  1  0.649303  0.163107  0.123632  1
  Ho  Ho14  1  0.146107  0.335700  0.376416  1
  Ho  Ho15  1  0.352597  0.835360  0.622091  1
  Ho  Ho16  1  0.852391  0.665328  0.873076  1
  Ho  Ho17  1  0.187957  0.501446  0.747863  1
  Ho  Ho18  1  0.687082  0.999046  0.748340  1
  Ho  Ho19  1  0.813825  0.497732  0.251894  1
  Sn  Sn20  1  0.304596  0.033973  0.042769  1
  Sn  Sn21  1  0.808342  0.459493  0.458294  1
  Sn  Sn22  1  0.690173  0.960186  0.541192  1
  Sn  Sn23  1  0.173738  0.548465  0.962692  1
  Sn  Sn24  1  0.694156  0.950067  0.960011  1
  Sn  Sn25  1  0.192089  0.540743  0.541109  1
  Sn  Sn26  1  0.309854  0.042428  0.459945  1
  Sn  Sn27  1  0.826245  0.465326  0.045597  1
  Sn  Sn28  1  0.551817  0.628566  0.746961  1
  Sn  Sn29  1  0.050888  0.875561  0.748491  1
  Sn  Sn30  1  0.450959  0.378779  0.248874  1
  Sn  Sn31  1  0.943066  0.125926  0.251901  1
  Sn  Sn32  1  0.311977  0.139914  0.745368  1
  Sn  Sn33  1  0.823703  0.357828  0.746300  1
  Sn  Sn34  1  0.685808  0.856078  0.250497  1
  Sn  Sn35  1  0.181962  0.637945  0.250904  1
