# generated using pymatgen
data_Dy3Tm7(In2Bi)2
_symmetry_space_group_name_H-M   'P 1'
_cell_length_a   6.54521600
_cell_length_b   8.96097878
_cell_length_c   8.96602280
_cell_angle_alpha   119.92570607
_cell_angle_beta   89.99994638
_cell_angle_gamma   89.99993475
_symmetry_Int_Tables_number   1
_chemical_formula_structural   Dy3Tm7(In2Bi)2
_chemical_formula_sum   'Dy3 Tm7 In4 Bi2'
_cell_volume   455.75825591
_cell_formula_units_Z   1
loop_
 _symmetry_equiv_pos_site_id
 _symmetry_equiv_pos_as_xyz
  1  'x, y, z'
loop_
 _atom_site_type_symbol
 _atom_site_label
 _atom_site_symmetry_multiplicity
 _atom_site_fract_x
 _atom_site_fract_y
 _atom_site_fract_z
 _atom_site_occupancy
  Dy  Dy0  1  0.749999  0.228774  0.991104  1
  Dy  Dy1  1  0.749997  0.770851  0.761791  1
  Dy  Dy2  1  0.250001  0.764874  0.000691  1
  Tm  Tm3  1  0.492980  0.328507  0.667039  1
  Tm  Tm4  1  0.492964  0.671045  0.338446  1
  Tm  Tm5  1  0.007036  0.671038  0.338440  1
  Tm  Tm6  1  0.007018  0.328508  0.667041  1
  Tm  Tm7  1  0.750001  0.000144  0.239959  1
  Tm  Tm8  1  0.249998  0.235455  0.235864  1
  Tm  Tm9  1  0.249998  0.000227  0.762674  1
  In  In10  1  0.750001  0.000080  0.595309  1
  In  In11  1  0.250008  0.397158  0.003007  1
  In  In12  1  0.249998  0.602577  0.604958  1
  In  In13  1  0.249999  0.000639  0.398146  1
  Bi  Bi14  1  0.750001  0.604213  0.999863  1
  Bi  Bi15  1  0.749999  0.395908  0.395669  1
