# generated using pymatgen
data_Pr8Tm12Sn9Bi7
_symmetry_space_group_name_H-M   'P 1'
_cell_length_a   8.27536845
_cell_length_b   8.26926901
_cell_length_c   15.63045800
_cell_angle_alpha   90.03991659
_cell_angle_beta   89.94060197
_cell_angle_gamma   90.00087976
_symmetry_Int_Tables_number   1
_chemical_formula_structural   Pr8Tm12Sn9Bi7
_chemical_formula_sum   'Pr8 Tm12 Sn9 Bi7'
_cell_volume   1069.61091056
_cell_formula_units_Z   1
loop_
 _symmetry_equiv_pos_site_id
 _symmetry_equiv_pos_as_xyz
  1  'x, y, z'
loop_
 _atom_site_type_symbol
 _atom_site_label
 _atom_site_symmetry_multiplicity
 _atom_site_fract_x
 _atom_site_fract_y
 _atom_site_fract_z
 _atom_site_occupancy
  Pr  Pr0  1  0.528952  0.325697  0.899491  1
  Pr  Pr1  1  0.025951  0.176556  0.602392  1
  Pr  Pr2  1  0.474132  0.676623  0.397582  1
  Pr  Pr3  1  0.974179  0.819789  0.101792  1
  Pr  Pr4  1  0.479954  0.673762  0.100786  1
  Pr  Pr5  1  0.973924  0.822823  0.397632  1
  Pr  Pr6  1  0.525918  0.323027  0.602177  1
  Pr  Pr7  1  0.023186  0.179320  0.899090  1
  Tm  Tm8  1  0.363276  0.841140  0.872752  1
  Tm  Tm9  1  0.863975  0.658953  0.627280  1
  Tm  Tm10  1  0.635373  0.159104  0.372548  1
  Tm  Tm11  1  0.131019  0.341133  0.127007  1
  Tm  Tm12  1  0.639463  0.164079  0.126133  1
  Tm  Tm13  1  0.135791  0.340691  0.372531  1
  Tm  Tm14  1  0.363626  0.841177  0.627996  1
  Tm  Tm15  1  0.862029  0.656631  0.874655  1
  Tm  Tm16  1  0.194997  0.500383  0.750221  1
  Tm  Tm17  1  0.694971  0.999818  0.750457  1
  Tm  Tm18  1  0.805010  0.499007  0.246270  1
  Tm  Tm19  1  0.305486  0.000512  0.248976  1
  Sn  Sn20  1  0.794706  0.460147  0.043214  1
  Sn  Sn21  1  0.559663  0.628952  0.749974  1
  Sn  Sn22  1  0.058777  0.870824  0.750695  1
  Sn  Sn23  1  0.439249  0.370927  0.250119  1
  Sn  Sn24  1  0.940219  0.127421  0.250830  1
  Sn  Sn25  1  0.333547  0.145287  0.750894  1
  Sn  Sn26  1  0.833137  0.355769  0.749832  1
  Sn  Sn27  1  0.666992  0.856636  0.249809  1
  Sn  Sn28  1  0.168214  0.644162  0.250026  1
  Bi  Bi29  1  0.293294  0.039945  0.043304  1
  Bi  Bi30  1  0.792892  0.459829  0.456272  1
  Bi  Bi31  1  0.706691  0.959843  0.543199  1
  Bi  Bi32  1  0.205257  0.540485  0.957355  1
  Bi  Bi33  1  0.706147  0.959954  0.956662  1
  Bi  Bi34  1  0.207207  0.539995  0.543221  1
  Bi  Bi35  1  0.292801  0.039599  0.456825  1
