# generated using pymatgen
data_CrCuAg2F7
_symmetry_space_group_name_H-M   'P 1'
_cell_length_a   7.55941609
_cell_length_b   7.55941671
_cell_length_c   7.55941685
_cell_angle_alpha   119.80774789
_cell_angle_beta   119.53488982
_cell_angle_gamma   90.57040388
_symmetry_Int_Tables_number   1
_chemical_formula_structural   CrCuAg2F7
_chemical_formula_sum   'Cr2 Cu2 Ag4 F14'
_cell_volume   306.95571451
_cell_formula_units_Z   2
loop_
 _symmetry_equiv_pos_site_id
 _symmetry_equiv_pos_as_xyz
  1  'x, y, z'
loop_
 _atom_site_type_symbol
 _atom_site_label
 _atom_site_symmetry_multiplicity
 _atom_site_fract_x
 _atom_site_fract_y
 _atom_site_fract_z
 _atom_site_occupancy
  Cr  Cr0  1  0.500000  0.500000  0.500000  1
  Cr  Cr1  1  0.500000  0.000000  0.000000  1
  Cu  Cu2  1  0.000000  0.500000  0.500000  1
  Cu  Cu3  1  0.500000  0.000000  0.500000  1
  Ag  Ag4  1  0.500000  0.500000  0.000000  1
  Ag  Ag5  1  0.000000  0.000000  0.000000  1
  Ag  Ag6  1  0.000000  0.500000  0.000000  1
  Ag  Ag7  1  0.000000  0.000000  0.500000  1
  F  F8  1  0.872493  0.590335  0.282160  1
  F  F9  1  0.191825  0.909665  0.282160  1
  F  F10  1  0.194080  0.834847  0.783214  1
  F  F11  1  0.448368  0.665153  0.359233  1
  F  F12  1  0.448368  0.089134  0.783214  1
  F  F13  1  0.194080  0.410866  0.359233  1
  F  F14  1  0.805920  0.589134  0.640767  1
  F  F15  1  0.551632  0.910866  0.216786  1
  F  F16  1  0.551632  0.334847  0.640767  1
  F  F17  1  0.805920  0.165153  0.216786  1
  F  F18  1  0.431021  0.250000  0.181021  1
  F  F19  1  0.127507  0.409665  0.717840  1
  F  F20  1  0.808175  0.090335  0.717840  1
  F  F21  1  0.568979  0.750000  0.818979  1
