# generated using pymatgen
data_Tb5Y3Hf11Si16W
_symmetry_space_group_name_H-M   'P 1'
_cell_length_a   7.25699988
_cell_length_b   7.25661860
_cell_length_c   13.32381103
_cell_angle_alpha   89.94235957
_cell_angle_beta   90.05545838
_cell_angle_gamma   90.06567363
_symmetry_Int_Tables_number   1
_chemical_formula_structural   Tb5Y3Hf11Si16W
_chemical_formula_sum   'Tb5 Y3 Hf11 Si16 W1'
_cell_volume   701.64780275
_cell_formula_units_Z   1
loop_
 _symmetry_equiv_pos_site_id
 _symmetry_equiv_pos_as_xyz
  1  'x, y, z'
loop_
 _atom_site_type_symbol
 _atom_site_label
 _atom_site_symmetry_multiplicity
 _atom_site_fract_x
 _atom_site_fract_y
 _atom_site_fract_z
 _atom_site_occupancy
  Tb  Tb0  1  0.501688  0.845203  0.034222  1
  Tb  Tb1  1  0.845202  0.501682  0.965802  1
  Tb  Tb2  1  0.495440  0.156789  0.534468  1
  Tb  Tb3  1  0.343017  0.998420  0.787301  1
  Tb  Tb4  1  0.656780  0.004196  0.283442  1
  Y  Y5  1  0.998449  0.343046  0.212701  1
  Y  Y6  1  0.004204  0.656774  0.716549  1
  Y  Y7  1  0.156751  0.495479  0.465505  1
  Hf  Hf8  1  0.825675  0.825672  0.499973  1
  Hf  Hf9  1  0.324508  0.674290  0.248901  1
  Hf  Hf10  1  0.674290  0.324500  0.751089  1
  Hf  Hf11  1  0.148606  0.996948  0.373627  1
  Hf  Hf12  1  0.852892  0.005144  0.877403  1
  Hf  Hf13  1  0.504141  0.648768  0.624658  1
  Hf  Hf14  1  0.348767  0.493276  0.877287  1
  Hf  Hf15  1  0.493230  0.348798  0.122745  1
  Hf  Hf16  1  0.648769  0.504132  0.375357  1
  Hf  Hf17  1  0.997032  0.148560  0.626391  1
  Hf  Hf18  1  0.005126  0.852908  0.122628  1
  Si  Si19  1  0.362798  0.295210  0.316259  1
  Si  Si20  1  0.636419  0.704882  0.817451  1
  Si  Si21  1  0.204941  0.863028  0.567119  1
  Si  Si22  1  0.137796  0.797600  0.933245  1
  Si  Si23  1  0.797652  0.137811  0.066781  1
  Si  Si24  1  0.863041  0.204980  0.432881  1
  Si  Si25  1  0.295146  0.362840  0.683742  1
  Si  Si26  1  0.704878  0.636370  0.182536  1
  Si  Si27  1  0.294132  0.051000  0.182505  1
  Si  Si28  1  0.704228  0.951908  0.686007  1
  Si  Si29  1  0.450776  0.795577  0.435046  1
  Si  Si30  1  0.203786  0.545913  0.064164  1
  Si  Si31  1  0.545937  0.203797  0.935855  1
  Si  Si32  1  0.795626  0.450810  0.564913  1
  Si  Si33  1  0.050993  0.294157  0.817473  1
  Si  Si34  1  0.951953  0.704201  0.313974  1
  W  W35  1  0.175336  0.175329  0.999997  1
