# generated using pymatgen
data_Dy5CrP12Ir6(Ru2Rh)4
_symmetry_space_group_name_H-M   'P 1'
_cell_length_a   12.64962900
_cell_length_b   12.58360976
_cell_length_c   3.95662900
_cell_angle_alpha   90.00000000
_cell_angle_beta   90.00000000
_cell_angle_gamma   119.97654928
_symmetry_Int_Tables_number   1
_chemical_formula_structural   Dy5CrP12Ir6(Ru2Rh)4
_chemical_formula_sum   'Dy5 Cr1 P12 Ir6 Ru8 Rh4'
_cell_volume   545.55880442
_cell_formula_units_Z   1
loop_
 _symmetry_equiv_pos_site_id
 _symmetry_equiv_pos_as_xyz
  1  'x, y, z'
loop_
 _atom_site_type_symbol
 _atom_site_label
 _atom_site_symmetry_multiplicity
 _atom_site_fract_x
 _atom_site_fract_y
 _atom_site_fract_z
 _atom_site_occupancy
  Dy  Dy0  1  0.666381  0.332184  0.000000  1
  Dy  Dy1  1  0.334480  0.667310  0.000000  1
  Dy  Dy2  1  0.811578  0.000989  0.500000  1
  Dy  Dy3  1  0.185054  0.187370  0.500000  1
  Dy  Dy4  1  0.999733  0.812944  0.500000  1
  Cr  Cr5  1  0.445897  0.000593  0.000000  1
  P  P6  1  0.632634  0.998353  0.000000  1
  P  P7  1  0.365035  0.370110  0.000000  1
  P  P8  1  0.000711  0.634517  0.000000  1
  P  P9  1  0.688144  0.518732  0.500000  1
  P  P10  1  0.830040  0.307389  0.500000  1
  P  P11  1  0.317568  0.834330  0.500000  1
  P  P12  1  0.518329  0.687165  0.500000  1
  P  P13  1  0.180769  0.000542  0.000000  1
  P  P14  1  0.819101  0.819304  0.000000  1
  P  P15  1  0.995751  0.181149  0.000000  1
  P  P16  1  0.479671  0.166970  0.500000  1
  P  P17  1  0.172308  0.481572  0.500000  1
  Ir  Ir18  1  0.624620  0.803428  0.000000  1
  Ir  Ir19  1  0.180750  0.376975  0.000000  1
  Ir  Ir20  1  0.375624  0.183827  0.000000  1
  Ir  Ir21  1  0.195033  0.817935  0.000000  1
  Ir  Ir22  1  0.806301  0.622879  0.000000  1
  Ir  Ir23  1  0.999896  0.000407  0.000000  1
  Ru  Ru24  1  0.362329  0.488530  0.500000  1
  Ru  Ru25  1  0.512674  0.872131  0.500000  1
  Ru  Ru26  1  0.715293  0.713428  0.500000  1
  Ru  Ru27  1  0.001215  0.287046  0.500000  1
  Ru  Ru28  1  0.551919  0.547530  0.000000  1
  Ru  Ru29  1  0.000238  0.452071  0.000000  1
  Ru  Ru30  1  0.817588  0.196066  0.000000  1
  Ru  Ru31  1  0.283751  0.000275  0.500000  1
  Rh  Rh32  1  0.870454  0.507843  0.500000  1
  Rh  Rh33  1  0.492407  0.361170  0.500000  1
  Rh  Rh34  1  0.636173  0.128052  0.500000  1
  Rh  Rh35  1  0.130554  0.638885  0.500000  1
