# generated using pymatgen
data_DyEr7(WC2)4
_symmetry_space_group_name_H-M   'P 1'
_cell_length_a   5.71514087
_cell_length_b   5.71514150
_cell_length_c   9.79139546
_cell_angle_alpha   89.91624835
_cell_angle_beta   89.91624543
_cell_angle_gamma   89.97476676
_symmetry_Int_Tables_number   1
_chemical_formula_structural   DyEr7(WC2)4
_chemical_formula_sum   'Dy1 Er7 W4 C8'
_cell_volume   319.81405757
_cell_formula_units_Z   1
loop_
 _symmetry_equiv_pos_site_id
 _symmetry_equiv_pos_as_xyz
  1  'x, y, z'
loop_
 _atom_site_type_symbol
 _atom_site_label
 _atom_site_symmetry_multiplicity
 _atom_site_fract_x
 _atom_site_fract_y
 _atom_site_fract_z
 _atom_site_occupancy
  Dy  Dy0  1  0.799211  0.799211  0.657925  1
  Er  Er1  1  0.200206  0.200206  0.341788  1
  Er  Er2  1  0.300895  0.701267  0.842863  1
  Er  Er3  1  0.701267  0.300895  0.842863  1
  Er  Er4  1  0.701602  0.300399  0.158010  1
  Er  Er5  1  0.300399  0.701602  0.158010  1
  Er  Er6  1  0.199687  0.199687  0.657290  1
  Er  Er7  1  0.798742  0.798742  0.342134  1
  W  W8  1  0.320466  0.676346  0.499070  1
  W  W9  1  0.823217  0.823217  0.000772  1
  W  W10  1  0.179548  0.179548  0.000994  1
  W  W11  1  0.676346  0.320466  0.499070  1
  C  C12  1  0.000628  0.000628  0.156619  1
  C  C13  1  0.497649  0.497649  0.655363  1
  C  C14  1  0.496732  0.998757  0.497950  1
  C  C15  1  0.499187  0.499187  0.343359  1
  C  C16  1  0.002128  0.002128  0.845603  1
  C  C17  1  0.501460  0.001871  0.001184  1
  C  C18  1  0.001871  0.501460  0.001184  1
  C  C19  1  0.998757  0.496732  0.497950  1
