# generated using pymatgen
data_La10Sn6PCl
_symmetry_space_group_name_H-M   'P 1'
_cell_length_a   9.64490700
_cell_length_b   9.64490684
_cell_length_c   7.07997200
_cell_angle_alpha   90.00000000
_cell_angle_beta   90.00000000
_cell_angle_gamma   120.00000400
_symmetry_Int_Tables_number   1
_chemical_formula_structural   La10Sn6PCl
_chemical_formula_sum   'La10 Sn6 P1 Cl1'
_cell_volume   570.37205007
_cell_formula_units_Z   1
loop_
 _symmetry_equiv_pos_site_id
 _symmetry_equiv_pos_as_xyz
  1  'x, y, z'
loop_
 _atom_site_type_symbol
 _atom_site_label
 _atom_site_symmetry_multiplicity
 _atom_site_fract_x
 _atom_site_fract_y
 _atom_site_fract_z
 _atom_site_occupancy
  La  La0  1  0.248568  0.248568  0.761654  1
  La  La1  1  0.000000  0.751432  0.761654  1
  La  La2  1  0.751432  0.000000  0.761654  1
  La  La3  1  0.000000  0.248568  0.238346  1
  La  La4  1  0.333333  0.666667  0.500000  1
  La  La5  1  0.751432  0.751432  0.238346  1
  La  La6  1  0.666667  0.333333  0.500000  1
  La  La7  1  0.248568  0.000000  0.238346  1
  La  La8  1  0.333333  0.666667  0.000000  1
  La  La9  1  0.666667  0.333333  0.000000  1
  Sn  Sn10  1  0.606700  0.000000  0.249772  1
  Sn  Sn11  1  0.000000  0.393300  0.750228  1
  Sn  Sn12  1  0.393300  0.000000  0.750228  1
  Sn  Sn13  1  0.606700  0.606700  0.750228  1
  Sn  Sn14  1  0.000000  0.606700  0.249772  1
  Sn  Sn15  1  0.393300  0.393300  0.249772  1
  P  P16  1  0.000000  0.000000  0.000000  1
  Cl  Cl17  1  0.000000  0.000000  0.500000  1
