# generated using pymatgen
data_ErTm(ZnP)6
_symmetry_space_group_name_H-M   'P 1'
_cell_length_a   3.99219000
_cell_length_b   3.99219054
_cell_length_c   19.80902400
_cell_angle_alpha   90.00000000
_cell_angle_beta   90.00000000
_cell_angle_gamma   120.00001212
_symmetry_Int_Tables_number   1
_chemical_formula_structural   ErTm(ZnP)6
_chemical_formula_sum   'Er1 Tm1 Zn6 P6'
_cell_volume   273.41108617
_cell_formula_units_Z   1
loop_
 _symmetry_equiv_pos_site_id
 _symmetry_equiv_pos_as_xyz
  1  'x, y, z'
loop_
 _atom_site_type_symbol
 _atom_site_label
 _atom_site_symmetry_multiplicity
 _atom_site_fract_x
 _atom_site_fract_y
 _atom_site_fract_z
 _atom_site_occupancy
  Er  Er0  1  0.000000  0.000000  0.500000  1
  Tm  Tm1  1  0.000000  0.000000  0.000000  1
  Zn  Zn2  1  0.333333  0.666667  0.750000  1
  Zn  Zn3  1  0.666667  0.333333  0.250000  1
  Zn  Zn4  1  0.333333  0.666667  0.128034  1
  Zn  Zn5  1  0.666667  0.333333  0.871966  1
  Zn  Zn6  1  0.666667  0.333333  0.628047  1
  Zn  Zn7  1  0.333333  0.666667  0.371953  1
  P  P8  1  0.333333  0.666667  0.582993  1
  P  P9  1  0.666667  0.333333  0.417007  1
  P  P10  1  0.666667  0.333333  0.082693  1
  P  P11  1  0.333333  0.666667  0.917307  1
  P  P12  1  0.333333  0.666667  0.249996  1
  P  P13  1  0.666667  0.333333  0.750004  1
