# generated using pymatgen
data_LaBe3AsP2
_symmetry_space_group_name_H-M   'P 1'
_cell_length_a   3.78258500
_cell_length_b   10.73275400
_cell_length_c   11.57332900
_cell_angle_alpha   90.00000000
_cell_angle_beta   90.00000000
_cell_angle_gamma   90.00000000
_symmetry_Int_Tables_number   1
_chemical_formula_structural   LaBe3AsP2
_chemical_formula_sum   'La4 Be12 As4 P8'
_cell_volume   469.84885238
_cell_formula_units_Z   4
loop_
 _symmetry_equiv_pos_site_id
 _symmetry_equiv_pos_as_xyz
  1  'x, y, z'
loop_
 _atom_site_type_symbol
 _atom_site_label
 _atom_site_symmetry_multiplicity
 _atom_site_fract_x
 _atom_site_fract_y
 _atom_site_fract_z
 _atom_site_occupancy
  La  La0  1  0.750000  0.936982  0.332673  1
  La  La1  1  0.250000  0.436982  0.167327  1
  La  La2  1  0.750000  0.563018  0.832673  1
  La  La3  1  0.250000  0.063018  0.667327  1
  Be  Be4  1  0.750000  0.249091  0.455718  1
  Be  Be5  1  0.250000  0.749091  0.044282  1
  Be  Be6  1  0.750000  0.250909  0.955718  1
  Be  Be7  1  0.250000  0.750909  0.544282  1
  Be  Be8  1  0.750000  0.642001  0.295891  1
  Be  Be9  1  0.250000  0.142001  0.204109  1
  Be  Be10  1  0.750000  0.857999  0.795891  1
  Be  Be11  1  0.250000  0.357999  0.704109  1
  Be  Be12  1  0.750000  0.038580  0.064050  1
  Be  Be13  1  0.250000  0.538580  0.435950  1
  Be  Be14  1  0.750000  0.461420  0.564050  1
  Be  Be15  1  0.250000  0.961420  0.935950  1
  As  As16  1  0.750000  0.644616  0.095702  1
  As  As17  1  0.250000  0.144616  0.404298  1
  As  As18  1  0.750000  0.855384  0.595702  1
  As  As19  1  0.250000  0.355384  0.904298  1
  P  P20  1  0.750000  0.443541  0.374859  1
  P  P21  1  0.250000  0.943541  0.125141  1
  P  P22  1  0.750000  0.056459  0.874859  1
  P  P23  1  0.250000  0.556459  0.625141  1
  P  P24  1  0.750000  0.223262  0.142628  1
  P  P25  1  0.250000  0.723262  0.357372  1
  P  P26  1  0.750000  0.276738  0.642628  1
  P  P27  1  0.250000  0.776738  0.857372  1
