# generated using pymatgen
data_Tb2Th3Bi3Se
_symmetry_space_group_name_H-M   'P 1'
_cell_length_a   9.46830715
_cell_length_b   9.47639232
_cell_length_c   6.71689300
_cell_angle_alpha   90.00000000
_cell_angle_beta   90.00000000
_cell_angle_gamma   120.02824739
_symmetry_Int_Tables_number   1
_chemical_formula_structural   Tb2Th3Bi3Se
_chemical_formula_sum   'Tb4 Th6 Bi6 Se2'
_cell_volume   521.78398352
_cell_formula_units_Z   2
loop_
 _symmetry_equiv_pos_site_id
 _symmetry_equiv_pos_as_xyz
  1  'x, y, z'
loop_
 _atom_site_type_symbol
 _atom_site_label
 _atom_site_symmetry_multiplicity
 _atom_site_fract_x
 _atom_site_fract_y
 _atom_site_fract_z
 _atom_site_occupancy
  Tb  Tb0  1  0.000000  0.257478  0.250000  1
  Tb  Tb1  1  0.260976  0.260835  0.750000  1
  Tb  Tb2  1  0.739024  0.999859  0.750000  1
  Tb  Tb3  1  0.000000  0.737781  0.750000  1
  Th  Th4  1  0.664697  0.334538  0.498742  1
  Th  Th5  1  0.335303  0.669842  0.498742  1
  Th  Th6  1  0.335303  0.669842  0.001258  1
  Th  Th7  1  0.664697  0.334538  0.001258  1
  Th  Th8  1  0.739837  0.737975  0.250000  1
  Th  Th9  1  0.260163  0.998137  0.250000  1
  Bi  Bi10  1  0.383012  0.386946  0.250000  1
  Bi  Bi11  1  0.616988  0.003933  0.250000  1
  Bi  Bi12  1  0.000000  0.605062  0.250000  1
  Bi  Bi13  1  0.612810  0.613238  0.750000  1
  Bi  Bi14  1  0.387190  0.000429  0.750000  1
  Bi  Bi15  1  0.000000  0.387541  0.750000  1
  Se  Se16  1  0.000000  0.001015  0.503858  1
  Se  Se17  1  0.000000  0.001015  0.996142  1
