# generated using pymatgen
data_Hf4Mn4As3P
_symmetry_space_group_name_H-M   'P 1'
_cell_length_a   3.68170600
_cell_length_b   6.54492717
_cell_length_c   7.66164782
_cell_angle_alpha   89.70213013
_cell_angle_beta   90.00000000
_cell_angle_gamma   90.00000000
_symmetry_Int_Tables_number   1
_chemical_formula_structural   Hf4Mn4As3P
_chemical_formula_sum   'Hf4 Mn4 As3 P1'
_cell_volume   184.61638356
_cell_formula_units_Z   1
loop_
 _symmetry_equiv_pos_site_id
 _symmetry_equiv_pos_as_xyz
  1  'x, y, z'
loop_
 _atom_site_type_symbol
 _atom_site_label
 _atom_site_symmetry_multiplicity
 _atom_site_fract_x
 _atom_site_fract_y
 _atom_site_fract_z
 _atom_site_occupancy
  Hf  Hf0  1  0.250000  0.536359  0.175340  1
  Hf  Hf1  1  0.750000  0.458970  0.818671  1
  Hf  Hf2  1  0.750000  0.975796  0.673844  1
  Hf  Hf3  1  0.250000  0.038633  0.330506  1
  Mn  Mn4  1  0.250000  0.625045  0.561904  1
  Mn  Mn5  1  0.750000  0.359503  0.447413  1
  Mn  Mn6  1  0.750000  0.865526  0.060604  1
  Mn  Mn7  1  0.250000  0.139472  0.931662  1
  As  As8  1  0.250000  0.761841  0.867971  1
  As  As9  1  0.750000  0.238192  0.130533  1
  As  As10  1  0.750000  0.736786  0.372877  1
  P  P11  1  0.250000  0.263876  0.628674  1
