# generated using pymatgen
data_La19Eu(Ir5Os)2
_symmetry_space_group_name_H-M   'P 1'
_cell_length_a   11.41137200
_cell_length_b   11.43881320
_cell_length_c   6.63014500
_cell_angle_alpha   90.00000000
_cell_angle_beta   90.00000000
_cell_angle_gamma   89.97372335
_symmetry_Int_Tables_number   1
_chemical_formula_structural   La19Eu(Ir5Os)2
_chemical_formula_sum   'La19 Eu1 Ir10 Os2'
_cell_volume   865.44966059
_cell_formula_units_Z   1
loop_
 _symmetry_equiv_pos_site_id
 _symmetry_equiv_pos_as_xyz
  1  'x, y, z'
loop_
 _atom_site_type_symbol
 _atom_site_label
 _atom_site_symmetry_multiplicity
 _atom_site_fract_x
 _atom_site_fract_y
 _atom_site_fract_z
 _atom_site_occupancy
  La  La0  1  0.291768  0.088005  0.391348  1
  La  La1  1  0.294754  0.910994  0.890810  1
  La  La2  1  0.705246  0.089006  0.890810  1
  La  La3  1  0.708232  0.911995  0.391348  1
  La  La4  1  0.589426  0.795431  0.889636  1
  La  La5  1  0.587830  0.204045  0.388707  1
  La  La6  1  0.412170  0.795955  0.388707  1
  La  La7  1  0.410574  0.204569  0.889636  1
  La  La8  1  0.207605  0.408922  0.613402  1
  La  La9  1  0.208178  0.592440  0.112138  1
  La  La10  1  0.791822  0.407560  0.112138  1
  La  La11  1  0.792395  0.591078  0.613402  1
  La  La12  1  0.907874  0.709441  0.111521  1
  La  La13  1  0.908683  0.287548  0.610526  1
  La  La14  1  0.091317  0.712452  0.610526  1
  La  La15  1  0.092126  0.290559  0.111521  1
  La  La16  1  0.000000  0.000000  0.994447  1
  La  La17  1  0.500000  0.500000  0.994850  1
  La  La18  1  0.500000  0.500000  0.494985  1
  Eu  Eu19  1  0.000000  0.000000  0.494931  1
  Ir  Ir20  1  0.847601  0.156888  0.244585  1
  Ir  Ir21  1  0.847423  0.843417  0.752819  1
  Ir  Ir22  1  0.152577  0.156583  0.752819  1
  Ir  Ir23  1  0.152399  0.843112  0.244585  1
  Ir  Ir24  1  0.654734  0.349385  0.748376  1
  Ir  Ir25  1  0.654974  0.650834  0.250112  1
  Ir  Ir26  1  0.345026  0.349166  0.250112  1
  Ir  Ir27  1  0.345266  0.650615  0.748376  1
  Ir  Ir28  1  0.000000  0.500000  0.880598  1
  Ir  Ir29  1  0.000000  0.500000  0.382250  1
  Os  Os30  1  0.500000  0.000000  0.125561  1
  Os  Os31  1  0.500000  0.000000  0.624406  1
