# generated using pymatgen
data_NdSm3(CrN3)4
_symmetry_space_group_name_H-M   'P 1'
_cell_length_a   7.08575433
_cell_length_b   7.08575458
_cell_length_c   5.93498061
_cell_angle_alpha   77.55461644
_cell_angle_beta   77.55462612
_cell_angle_gamma   86.94392881
_symmetry_Int_Tables_number   1
_chemical_formula_structural   NdSm3(CrN3)4
_chemical_formula_sum   'Nd1 Sm3 Cr4 N12'
_cell_volume   284.13610137
_cell_formula_units_Z   1
loop_
 _symmetry_equiv_pos_site_id
 _symmetry_equiv_pos_as_xyz
  1  'x, y, z'
loop_
 _atom_site_type_symbol
 _atom_site_label
 _atom_site_symmetry_multiplicity
 _atom_site_fract_x
 _atom_site_fract_y
 _atom_site_fract_z
 _atom_site_occupancy
  Nd  Nd0  1  0.333951  0.666049  0.750000  1
  Sm  Sm1  1  0.666341  0.333659  0.250000  1
  Sm  Sm2  1  0.092628  0.907372  0.250000  1
  Sm  Sm3  1  0.906096  0.093904  0.750000  1
  Cr  Cr4  1  0.376911  0.199334  0.754462  1
  Cr  Cr5  1  0.624319  0.800637  0.244338  1
  Cr  Cr6  1  0.800666  0.623089  0.745538  1
  Cr  Cr7  1  0.199363  0.375681  0.255662  1
  N  N8  1  0.996436  0.771672  0.658669  1
  N  N9  1  0.868086  0.400027  0.847233  1
  N  N10  1  0.770291  0.998652  0.159079  1
  N  N11  1  0.131732  0.599045  0.157049  1
  N  N12  1  0.001348  0.229709  0.340921  1
  N  N13  1  0.228328  0.003564  0.841331  1
  N  N14  1  0.599973  0.131914  0.652767  1
  N  N15  1  0.629264  0.677228  0.996957  1
  N  N16  1  0.371408  0.320868  0.004216  1
  N  N17  1  0.400955  0.868268  0.342951  1
  N  N18  1  0.679132  0.628592  0.495784  1
  N  N19  1  0.322772  0.370736  0.503043  1
