# generated using pymatgen
data_Y2Tc2C3
_symmetry_space_group_name_H-M   'P 1'
_cell_length_a   5.75959928
_cell_length_b   5.75959865
_cell_length_c   5.69163133
_cell_angle_alpha   74.77336418
_cell_angle_beta   74.77336469
_cell_angle_gamma   34.30722031
_symmetry_Int_Tables_number   1
_chemical_formula_structural   Y2Tc2C3
_chemical_formula_sum   'Y2 Tc2 C3'
_cell_volume   102.31918500
_cell_formula_units_Z   1
loop_
 _symmetry_equiv_pos_site_id
 _symmetry_equiv_pos_as_xyz
  1  'x, y, z'
loop_
 _atom_site_type_symbol
 _atom_site_label
 _atom_site_symmetry_multiplicity
 _atom_site_fract_x
 _atom_site_fract_y
 _atom_site_fract_z
 _atom_site_occupancy
  Y  Y0  1  0.388741  0.388741  0.325598  1
  Y  Y1  1  0.611259  0.611259  0.674402  1
  Tc  Tc2  1  0.153420  0.153420  0.114798  1
  Tc  Tc3  1  0.846580  0.846580  0.885202  1
  C  C4  1  0.723507  0.723507  0.240918  1
  C  C5  1  0.276493  0.276493  0.759082  1
  C  C6  1  0.000000  0.000000  0.000000  1
