# generated using pymatgen
data_Er3Sc2InBi2
_symmetry_space_group_name_H-M   'P 1'
_cell_length_a   8.92242400
_cell_length_b   8.89967427
_cell_length_c   6.21592000
_cell_angle_alpha   90.00000000
_cell_angle_beta   90.00000000
_cell_angle_gamma   119.91569694
_symmetry_Int_Tables_number   1
_chemical_formula_structural   Er3Sc2InBi2
_chemical_formula_sum   'Er6 Sc4 In2 Bi4'
_cell_volume   427.82023427
_cell_formula_units_Z   2
loop_
 _symmetry_equiv_pos_site_id
 _symmetry_equiv_pos_as_xyz
  1  'x, y, z'
loop_
 _atom_site_type_symbol
 _atom_site_label
 _atom_site_symmetry_multiplicity
 _atom_site_fract_x
 _atom_site_fract_y
 _atom_site_fract_z
 _atom_site_occupancy
  Er  Er0  1  0.241352  0.009427  0.250000  1
  Er  Er1  1  0.241352  0.231925  0.750000  1
  Er  Er2  1  0.007018  0.767134  0.750000  1
  Er  Er3  1  0.007018  0.239885  0.250000  1
  Er  Er4  1  0.758586  0.760849  0.250000  1
  Er  Er5  1  0.758586  0.997736  0.750000  1
  Sc  Sc6  1  0.334224  0.667113  0.000000  1
  Sc  Sc7  1  0.658321  0.329160  0.500000  1
  Sc  Sc8  1  0.658321  0.329160  0.000000  1
  Sc  Sc9  1  0.334224  0.667113  0.500000  1
  In  In10  1  0.399209  0.403515  0.250000  1
  In  In11  1  0.399209  0.995694  0.750000  1
  Bi  Bi12  1  0.603262  0.001224  0.250000  1
  Bi  Bi13  1  0.603262  0.602038  0.750000  1
  Bi  Bi14  1  0.998027  0.393880  0.750000  1
  Bi  Bi15  1  0.998027  0.604147  0.250000  1
