# generated using pymatgen
data_SrNdB4Rh5
_symmetry_space_group_name_H-M   'P 1'
_cell_length_a   7.58451834
_cell_length_b   6.33119153
_cell_length_c   5.72856843
_cell_angle_alpha   77.76230991
_cell_angle_beta   54.66492464
_cell_angle_gamma   47.57276204
_symmetry_Int_Tables_number   1
_chemical_formula_structural   SrNdB4Rh5
_chemical_formula_sum   'Sr1 Nd1 B4 Rh5'
_cell_volume   158.22050420
_cell_formula_units_Z   1
loop_
 _symmetry_equiv_pos_site_id
 _symmetry_equiv_pos_as_xyz
  1  'x, y, z'
loop_
 _atom_site_type_symbol
 _atom_site_label
 _atom_site_symmetry_multiplicity
 _atom_site_fract_x
 _atom_site_fract_y
 _atom_site_fract_z
 _atom_site_occupancy
  Sr  Sr0  1  0.144287  0.144287  0.855713  1
  Nd  Nd1  1  0.856631  0.856631  0.143369  1
  B  B2  1  0.791403  0.467694  0.532306  1
  B  B3  1  0.208674  0.532940  0.467060  1
  B  B4  1  0.532940  0.208674  0.791326  1
  B  B5  1  0.467694  0.791403  0.208597  1
  Rh  Rh6  1  0.498316  0.498316  0.501684  1
  Rh  Rh7  1  0.499895  0.499895  0.000105  1
  Rh  Rh8  1  0.999895  0.999895  0.500105  1
  Rh  Rh9  1  0.750133  0.750133  0.749867  1
  Rh  Rh10  1  0.250133  0.250133  0.249867  1
