# generated using pymatgen
data_Tb9Ho3(Si2Ni)4
_symmetry_space_group_name_H-M   'P 1'
_cell_length_a   4.12200100
_cell_length_b   11.26588951
_cell_length_c   11.31175754
_cell_angle_alpha   90.08101602
_cell_angle_beta   90.00000000
_cell_angle_gamma   90.00000000
_symmetry_Int_Tables_number   1
_chemical_formula_structural   Tb9Ho3(Si2Ni)4
_chemical_formula_sum   'Tb9 Ho3 Si8 Ni4'
_cell_volume   525.29496004
_cell_formula_units_Z   1
loop_
 _symmetry_equiv_pos_site_id
 _symmetry_equiv_pos_as_xyz
  1  'x, y, z'
loop_
 _atom_site_type_symbol
 _atom_site_label
 _atom_site_symmetry_multiplicity
 _atom_site_fract_x
 _atom_site_fract_y
 _atom_site_fract_z
 _atom_site_occupancy
  Tb  Tb0  1  0.750000  0.559658  0.618013  1
  Tb  Tb1  1  0.250000  0.125102  0.557870  1
  Tb  Tb2  1  0.250000  0.374566  0.058319  1
  Tb  Tb3  1  0.750000  0.875531  0.441411  1
  Tb  Tb4  1  0.750000  0.624980  0.942515  1
  Tb  Tb5  1  0.250000  0.804807  0.714417  1
  Tb  Tb6  1  0.250000  0.696431  0.214443  1
  Tb  Tb7  1  0.750000  0.196161  0.285042  1
  Tb  Tb8  1  0.750000  0.302885  0.785277  1
  Ho  Ho9  1  0.250000  0.058892  0.883018  1
  Ho  Ho10  1  0.250000  0.441325  0.382952  1
  Ho  Ho11  1  0.750000  0.941121  0.116905  1
  Si  Si12  1  0.250000  0.814607  0.975278  1
  Si  Si13  1  0.250000  0.686580  0.474740  1
  Si  Si14  1  0.750000  0.185409  0.024525  1
  Si  Si15  1  0.750000  0.314090  0.524317  1
  Si  Si16  1  0.250000  0.494660  0.803549  1
  Si  Si17  1  0.250000  0.003626  0.301587  1
  Si  Si18  1  0.750000  0.503695  0.198198  1
  Si  Si19  1  0.750000  0.996851  0.698296  1
  Ni  Ni20  1  0.250000  0.366722  0.628759  1
  Ni  Ni21  1  0.250000  0.132133  0.128441  1
  Ni  Ni22  1  0.750000  0.632858  0.370950  1
  Ni  Ni23  1  0.750000  0.867309  0.871178  1
