# generated using pymatgen
data_W2IN2Cl5
_symmetry_space_group_name_H-M   'P 1'
_cell_length_a   8.63142195
_cell_length_b   8.43465469
_cell_length_c   9.34965311
_cell_angle_alpha   97.78690110
_cell_angle_beta   106.92887098
_cell_angle_gamma   109.38293645
_symmetry_Int_Tables_number   1
_chemical_formula_structural   W2IN2Cl5
_chemical_formula_sum   'W4 I2 N4 Cl10'
_cell_volume   593.61019766
_cell_formula_units_Z   2
loop_
 _symmetry_equiv_pos_site_id
 _symmetry_equiv_pos_as_xyz
  1  'x, y, z'
loop_
 _atom_site_type_symbol
 _atom_site_label
 _atom_site_symmetry_multiplicity
 _atom_site_fract_x
 _atom_site_fract_y
 _atom_site_fract_z
 _atom_site_occupancy
  W  W0  1  0.005434  0.054009  0.230268  1
  W  W1  1  0.994566  0.945991  0.769732  1
  W  W2  1  0.887967  0.660437  0.384470  1
  W  W3  1  0.112033  0.339563  0.615530  1
  I  I4  1  0.330970  0.059031  0.308094  1
  I  I5  1  0.669030  0.940969  0.691906  1
  N  N6  1  0.048573  0.212762  0.393809  1
  N  N7  1  0.951427  0.787238  0.606191  1
  N  N8  1  0.949571  0.839888  0.309384  1
  N  N9  1  0.050429  0.160112  0.690616  1
  Cl  Cl10  1  0.945087  0.781788  0.949666  1
  Cl  Cl11  1  0.054913  0.218212  0.050334  1
  Cl  Cl12  1  0.704262  0.962225  0.112779  1
  Cl  Cl13  1  0.295738  0.037775  0.887221  1
  Cl  Cl14  1  0.168764  0.640750  0.466164  1
  Cl  Cl15  1  0.831236  0.359250  0.533836  1
  Cl  Cl16  1  0.788805  0.433055  0.169624  1
  Cl  Cl17  1  0.211195  0.566945  0.830376  1
  Cl  Cl18  1  0.603212  0.624179  0.354585  1
  Cl  Cl19  1  0.396788  0.375821  0.645415  1
