# generated using pymatgen
data_RbAcHgTe3
_symmetry_space_group_name_H-M   'P 1'
_cell_length_a   8.53313063
_cell_length_b   8.53313003
_cell_length_c   12.59596200
_cell_angle_alpha   90.00000000
_cell_angle_beta   90.00000000
_cell_angle_gamma   147.32766708
_symmetry_Int_Tables_number   1
_chemical_formula_structural   RbAcHgTe3
_chemical_formula_sum   'Rb2 Ac2 Hg2 Te6'
_cell_volume   495.11747971
_cell_formula_units_Z   2
loop_
 _symmetry_equiv_pos_site_id
 _symmetry_equiv_pos_as_xyz
  1  'x, y, z'
loop_
 _atom_site_type_symbol
 _atom_site_label
 _atom_site_symmetry_multiplicity
 _atom_site_fract_x
 _atom_site_fract_y
 _atom_site_fract_z
 _atom_site_occupancy
  Rb  Rb0  1  0.251315  0.748685  0.246329  1
  Rb  Rb1  1  0.748685  0.251315  0.746329  1
  Ac  Ac2  1  0.995699  0.004301  0.003182  1
  Ac  Ac3  1  0.004301  0.995699  0.503182  1
  Hg  Hg4  1  0.543412  0.456588  0.252116  1
  Hg  Hg5  1  0.456588  0.543412  0.752116  1
  Te  Te6  1  0.639294  0.360706  0.440054  1
  Te  Te7  1  0.368297  0.631703  0.558569  1
  Te  Te8  1  0.631703  0.368297  0.058569  1
  Te  Te9  1  0.360706  0.639294  0.940054  1
  Te  Te10  1  0.931395  0.068605  0.254952  1
  Te  Te11  1  0.068605  0.931395  0.754952  1
