# generated using pymatgen
data_Rb3Co2Br9
_symmetry_space_group_name_H-M   'P 1'
_cell_length_a   7.43563400
_cell_length_b   7.43563319
_cell_length_c   18.69972300
_cell_angle_alpha   90.00000000
_cell_angle_beta   90.00000000
_cell_angle_gamma   120.00000361
_symmetry_Int_Tables_number   1
_chemical_formula_structural   Rb3Co2Br9
_chemical_formula_sum   'Rb6 Co4 Br18'
_cell_volume   895.36837558
_cell_formula_units_Z   2
loop_
 _symmetry_equiv_pos_site_id
 _symmetry_equiv_pos_as_xyz
  1  'x, y, z'
loop_
 _atom_site_type_symbol
 _atom_site_label
 _atom_site_symmetry_multiplicity
 _atom_site_fract_x
 _atom_site_fract_y
 _atom_site_fract_z
 _atom_site_occupancy
  Rb  Rb0  1  0.666667  0.333333  0.932612  1
  Rb  Rb1  1  0.333333  0.666667  0.432612  1
  Rb  Rb2  1  0.666667  0.333333  0.567388  1
  Rb  Rb3  1  0.333333  0.666667  0.067388  1
  Rb  Rb4  1  0.000000  0.000000  0.750000  1
  Rb  Rb5  1  0.000000  0.000000  0.250000  1
  Co  Co6  1  0.333333  0.666667  0.665980  1
  Co  Co7  1  0.666667  0.333333  0.165980  1
  Co  Co8  1  0.666667  0.333333  0.334020  1
  Co  Co9  1  0.333333  0.666667  0.834020  1
  Br  Br10  1  0.820313  0.640624  0.405649  1
  Br  Br11  1  0.179687  0.359376  0.905649  1
  Br  Br12  1  0.179687  0.820313  0.905649  1
  Br  Br13  1  0.179687  0.359376  0.594351  1
  Br  Br14  1  0.640624  0.820313  0.905649  1
  Br  Br15  1  0.359376  0.179687  0.405649  1
  Br  Br16  1  0.039369  0.519684  0.750000  1
  Br  Br17  1  0.820313  0.179687  0.405649  1
  Br  Br18  1  0.519684  0.039369  0.250000  1
  Br  Br19  1  0.480316  0.519684  0.750000  1
  Br  Br20  1  0.519684  0.480316  0.250000  1
  Br  Br21  1  0.960631  0.480316  0.250000  1
  Br  Br22  1  0.359376  0.179687  0.094351  1
  Br  Br23  1  0.480316  0.960631  0.750000  1
  Br  Br24  1  0.820313  0.640624  0.094351  1
  Br  Br25  1  0.179687  0.820313  0.594351  1
  Br  Br26  1  0.640624  0.820313  0.594351  1
  Br  Br27  1  0.820313  0.179687  0.094351  1
