# generated using pymatgen
data_DyZr3(Ta3Si4)2
_symmetry_space_group_name_H-M   'P 1'
_cell_length_a   6.90984556
_cell_length_b   6.91291455
_cell_length_c   12.82858600
_cell_angle_alpha   90.00000000
_cell_angle_beta   90.00000000
_cell_angle_gamma   89.88378157
_symmetry_Int_Tables_number   1
_chemical_formula_structural   DyZr3(Ta3Si4)2
_chemical_formula_sum   'Dy2 Zr6 Ta12 Si16'
_cell_volume   612.78401212
_cell_formula_units_Z   2
loop_
 _symmetry_equiv_pos_site_id
 _symmetry_equiv_pos_as_xyz
  1  'x, y, z'
loop_
 _atom_site_type_symbol
 _atom_site_label
 _atom_site_symmetry_multiplicity
 _atom_site_fract_x
 _atom_site_fract_y
 _atom_site_fract_z
 _atom_site_occupancy
  Dy  Dy0  1  0.997992  0.661698  0.030968  1
  Dy  Dy1  1  0.002008  0.338302  0.530968  1
  Zr  Zr2  1  0.657214  0.004284  0.968519  1
  Zr  Zr3  1  0.161288  0.498099  0.781617  1
  Zr  Zr4  1  0.838712  0.501901  0.281617  1
  Zr  Zr5  1  0.498110  0.160453  0.219395  1
  Zr  Zr6  1  0.501890  0.839547  0.719395  1
  Zr  Zr7  1  0.342786  0.995716  0.468519  1
  Ta  Ta8  1  0.347524  0.507138  0.375183  1
  Ta  Ta9  1  0.844651  0.996029  0.372931  1
  Ta  Ta10  1  0.006285  0.153134  0.126299  1
  Ta  Ta11  1  0.993715  0.846866  0.626299  1
  Ta  Ta12  1  0.652476  0.492862  0.875183  1
  Ta  Ta13  1  0.504193  0.347055  0.624178  1
  Ta  Ta14  1  0.495807  0.652945  0.124178  1
  Ta  Ta15  1  0.155349  0.003971  0.872931  1
  Ta  Ta16  1  0.667936  0.671680  0.500289  1
  Ta  Ta17  1  0.829028  0.169057  0.750403  1
  Ta  Ta18  1  0.170972  0.830943  0.250403  1
  Ta  Ta19  1  0.332064  0.328320  0.000289  1
  Si  Si20  1  0.044502  0.705302  0.436055  1
  Si  Si21  1  0.955498  0.294698  0.936055  1
  Si  Si22  1  0.699833  0.043342  0.563552  1
  Si  Si23  1  0.203271  0.454652  0.187581  1
  Si  Si24  1  0.796729  0.545348  0.687581  1
  Si  Si25  1  0.455795  0.201616  0.813196  1
  Si  Si26  1  0.544205  0.798384  0.313196  1
  Si  Si27  1  0.300167  0.956658  0.063552  1
  Si  Si28  1  0.864081  0.794428  0.820696  1
  Si  Si29  1  0.135919  0.205572  0.320696  1
  Si  Si30  1  0.789995  0.868276  0.179890  1
  Si  Si31  1  0.294499  0.637875  0.572491  1
  Si  Si32  1  0.705501  0.362125  0.072491  1
  Si  Si33  1  0.632054  0.292423  0.426757  1
  Si  Si34  1  0.367946  0.707577  0.926757  1
  Si  Si35  1  0.210005  0.131724  0.679890  1
