# generated using pymatgen
data_Hf18Re2Mo6RhSe
_symmetry_space_group_name_H-M   'P 1'
_cell_length_a   8.70504400
_cell_length_b   8.70496369
_cell_length_c   8.60654200
_cell_angle_alpha   90.00000000
_cell_angle_beta   90.00000000
_cell_angle_gamma   119.99978531
_symmetry_Int_Tables_number   1
_chemical_formula_structural   Hf18Re2Mo6RhSe
_chemical_formula_sum   'Hf18 Re2 Mo6 Rh1 Se1'
_cell_volume   564.80456477
_cell_formula_units_Z   1
loop_
 _symmetry_equiv_pos_site_id
 _symmetry_equiv_pos_as_xyz
  1  'x, y, z'
loop_
 _atom_site_type_symbol
 _atom_site_label
 _atom_site_symmetry_multiplicity
 _atom_site_fract_x
 _atom_site_fract_y
 _atom_site_fract_z
 _atom_site_occupancy
  Hf  Hf0  1  0.197294  0.802707  0.446592  1
  Hf  Hf1  1  0.197293  0.394589  0.446593  1
  Hf  Hf2  1  0.605409  0.802706  0.446594  1
  Hf  Hf3  1  0.807483  0.192515  0.546943  1
  Hf  Hf4  1  0.807481  0.614962  0.546939  1
  Hf  Hf5  1  0.385032  0.192515  0.546943  1
  Hf  Hf6  1  0.807483  0.192515  0.953057  1
  Hf  Hf7  1  0.807481  0.614962  0.953061  1
  Hf  Hf8  1  0.385032  0.192515  0.953057  1
  Hf  Hf9  1  0.197294  0.802707  0.053408  1
  Hf  Hf10  1  0.197293  0.394589  0.053407  1
  Hf  Hf11  1  0.605409  0.802706  0.053406  1
  Hf  Hf12  1  0.542512  0.457483  0.250000  1
  Hf  Hf13  1  0.542510  0.085027  0.250000  1
  Hf  Hf14  1  0.914964  0.457480  0.250000  1
  Hf  Hf15  1  0.455507  0.544502  0.750000  1
  Hf  Hf16  1  0.455498  0.911011  0.750000  1
  Hf  Hf17  1  0.089008  0.544509  0.750000  1
  Re  Re18  1  0.000005  0.000000  0.497929  1
  Re  Re19  1  0.000005  0.000000  0.002071  1
  Mo  Mo20  1  0.889245  0.110745  0.250000  1
  Mo  Mo21  1  0.889248  0.778496  0.250000  1
  Mo  Mo22  1  0.221508  0.110755  0.250000  1
  Mo  Mo23  1  0.109971  0.890032  0.750000  1
  Mo  Mo24  1  0.109970  0.219940  0.750000  1
  Mo  Mo25  1  0.780071  0.890032  0.750000  1
  Rh  Rh26  1  0.333332  0.666666  0.250000  1
  Se  Se27  1  0.666659  0.333329  0.750000  1
