# generated using pymatgen
data_Ho8Zn(Ga4Ag)3
_symmetry_space_group_name_H-M   'P 1'
_cell_length_a   7.03038900
_cell_length_b   8.99848336
_cell_length_c   8.99848400
_cell_angle_alpha   120.00000235
_cell_angle_beta   90.00000000
_cell_angle_gamma   90.00000000
_symmetry_Int_Tables_number   1
_chemical_formula_structural   Ho8Zn(Ga4Ag)3
_chemical_formula_sum   'Ho8 Zn1 Ga12 Ag3'
_cell_volume   493.00195761
_cell_formula_units_Z   1
loop_
 _symmetry_equiv_pos_site_id
 _symmetry_equiv_pos_as_xyz
  1  'x, y, z'
loop_
 _atom_site_type_symbol
 _atom_site_label
 _atom_site_symmetry_multiplicity
 _atom_site_fract_x
 _atom_site_fract_y
 _atom_site_fract_z
 _atom_site_occupancy
  Ho  Ho0  1  0.747119  0.000000  0.000000  1
  Ho  Ho1  1  0.251722  0.000000  0.000000  1
  Ho  Ho2  1  0.753383  0.490626  0.509374  1
  Ho  Ho3  1  0.253438  0.512326  0.487674  1
  Ho  Ho4  1  0.753383  0.018747  0.509374  1
  Ho  Ho5  1  0.253438  0.975348  0.487674  1
  Ho  Ho6  1  0.753383  0.490626  0.981253  1
  Ho  Ho7  1  0.253438  0.512326  0.024652  1
  Zn  Zn8  1  0.509946  0.666667  0.333333  1
  Ga  Ga9  1  0.965055  0.835043  0.164957  1
  Ga  Ga10  1  0.031433  0.165362  0.834638  1
  Ga  Ga11  1  0.965055  0.329915  0.164957  1
  Ga  Ga12  1  0.464875  0.164378  0.835622  1
  Ga  Ga13  1  0.031433  0.669276  0.834638  1
  Ga  Ga14  1  0.535705  0.831054  0.168946  1
  Ga  Ga15  1  0.965055  0.835043  0.670085  1
  Ga  Ga16  1  0.464875  0.671244  0.835622  1
  Ga  Ga17  1  0.031433  0.165362  0.330724  1
  Ga  Ga18  1  0.535705  0.337893  0.168946  1
  Ga  Ga19  1  0.464875  0.164378  0.328756  1
  Ga  Ga20  1  0.535705  0.831054  0.662107  1
  Ag  Ag21  1  0.975497  0.666667  0.333333  1
  Ag  Ag22  1  0.030708  0.333333  0.666667  1
  Ag  Ag23  1  0.473347  0.333333  0.666667  1
