# generated using pymatgen
data_PrNdSi6HgPd20
_symmetry_space_group_name_H-M   'P 1'
_cell_length_a   8.74427908
_cell_length_b   8.74417610
_cell_length_c   8.74411200
_cell_angle_alpha   59.99813154
_cell_angle_beta   59.99837738
_cell_angle_gamma   59.99882767
_symmetry_Int_Tables_number   1
_chemical_formula_structural   PrNdSi6HgPd20
_chemical_formula_sum   'Pr1 Nd1 Si6 Hg1 Pd20'
_cell_volume   472.74648978
_cell_formula_units_Z   1
loop_
 _symmetry_equiv_pos_site_id
 _symmetry_equiv_pos_as_xyz
  1  'x, y, z'
loop_
 _atom_site_type_symbol
 _atom_site_label
 _atom_site_symmetry_multiplicity
 _atom_site_fract_x
 _atom_site_fract_y
 _atom_site_fract_z
 _atom_site_occupancy
  Pr  Pr0  1  0.749982  0.750001  0.750024  1
  Nd  Nd1  1  0.250023  0.249998  0.249978  1
  Si  Si2  1  0.733013  0.733057  0.266934  1
  Si  Si3  1  0.266987  0.266944  0.733066  1
  Si  Si4  1  0.732992  0.266957  0.733048  1
  Si  Si5  1  0.267009  0.733044  0.266951  1
  Si  Si6  1  0.266961  0.733029  0.733044  1
  Si  Si7  1  0.733039  0.266972  0.266956  1
  Hg  Hg8  1  0.000000  0.000001  0.999999  1
  Pd  Pd9  1  0.614320  0.614327  0.614311  1
  Pd  Pd10  1  0.385354  0.385348  0.385365  1
  Pd  Pd11  1  0.156999  0.614332  0.614341  1
  Pd  Pd12  1  0.614315  0.157049  0.614318  1
  Pd  Pd13  1  0.843978  0.385342  0.385334  1
  Pd  Pd14  1  0.385359  0.843927  0.385357  1
  Pd  Pd15  1  0.614316  0.614312  0.157077  1
  Pd  Pd16  1  0.385360  0.385361  0.843900  1
  Pd  Pd17  1  0.000100  0.000091  0.655270  1
  Pd  Pd18  1  0.000065  0.000076  0.344564  1
  Pd  Pd19  1  0.344533  0.655295  0.000080  1
  Pd  Pd20  1  0.655301  0.344537  0.000086  1
  Pd  Pd21  1  0.000102  0.655264  0.000094  1
  Pd  Pd22  1  0.655310  0.000089  0.344521  1
  Pd  Pd23  1  0.000062  0.344569  0.000070  1
  Pd  Pd24  1  0.344522  0.000079  0.655313  1
  Pd  Pd25  1  0.655261  0.000099  0.000095  1
  Pd  Pd26  1  0.344573  0.000068  0.000071  1
  Pd  Pd27  1  0.000089  0.655302  0.344524  1
  Pd  Pd28  1  0.000077  0.344532  0.655311  1
