# generated using pymatgen
data_RbVH5
_symmetry_space_group_name_H-M   'P 1'
_cell_length_a   10.93153400
_cell_length_b   7.11693100
_cell_length_c   4.89650100
_cell_angle_alpha   90.00000000
_cell_angle_beta   90.00000000
_cell_angle_gamma   90.00000000
_symmetry_Int_Tables_number   1
_chemical_formula_structural   RbVH5
_chemical_formula_sum   'Rb4 V4 H20'
_cell_volume   380.94275008
_cell_formula_units_Z   4
loop_
 _symmetry_equiv_pos_site_id
 _symmetry_equiv_pos_as_xyz
  1  'x, y, z'
loop_
 _atom_site_type_symbol
 _atom_site_label
 _atom_site_symmetry_multiplicity
 _atom_site_fract_x
 _atom_site_fract_y
 _atom_site_fract_z
 _atom_site_occupancy
  Rb  Rb0  1  0.669505  0.070365  0.337712  1
  Rb  Rb1  1  0.169505  0.429634  0.337712  1
  Rb  Rb2  1  0.830495  0.570365  0.837712  1
  Rb  Rb3  1  0.330495  0.929635  0.837712  1
  V  V4  1  0.515217  0.565349  0.305413  1
  V  V5  1  0.015217  0.934651  0.305413  1
  V  V6  1  0.984783  0.065348  0.805412  1
  V  V7  1  0.484783  0.434652  0.805412  1
  H  H8  1  0.350162  0.319796  0.787604  1
  H  H9  1  0.850162  0.180204  0.787604  1
  H  H10  1  0.966404  0.707404  0.301548  1
  H  H11  1  0.466404  0.792595  0.301548  1
  H  H12  1  0.589347  0.401765  0.082739  1
  H  H13  1  0.089346  0.098235  0.082739  1
  H  H14  1  0.390763  0.503375  0.084877  1
  H  H15  1  0.890763  0.996626  0.084877  1
  H  H16  1  0.966593  0.150408  0.467105  1
  H  H17  1  0.466593  0.349593  0.467105  1
  H  H18  1  0.149838  0.819796  0.287603  1
  H  H19  1  0.649838  0.680203  0.287603  1
  H  H20  1  0.533597  0.207404  0.801550  1
  H  H21  1  0.033597  0.292595  0.801550  1
  H  H22  1  0.910654  0.901764  0.582739  1
  H  H23  1  0.410654  0.598236  0.582739  1
  H  H24  1  0.109237  0.003374  0.584877  1
  H  H25  1  0.609237  0.496626  0.584877  1
  H  H26  1  0.533407  0.650408  0.967107  1
  H  H27  1  0.033407  0.849593  0.967107  1
