# generated using pymatgen
data_Zr6TiNb3(Sn3B)2
_symmetry_space_group_name_H-M   'P 1'
_cell_length_a   8.42349800
_cell_length_b   8.42349778
_cell_length_c   5.65986300
_cell_angle_alpha   90.00000000
_cell_angle_beta   90.00000000
_cell_angle_gamma   120.00000087
_symmetry_Int_Tables_number   1
_chemical_formula_structural   Zr6TiNb3(Sn3B)2
_chemical_formula_sum   'Zr6 Ti1 Nb3 Sn6 B2'
_cell_volume   347.79352279
_cell_formula_units_Z   1
loop_
 _symmetry_equiv_pos_site_id
 _symmetry_equiv_pos_as_xyz
  1  'x, y, z'
loop_
 _atom_site_type_symbol
 _atom_site_label
 _atom_site_symmetry_multiplicity
 _atom_site_fract_x
 _atom_site_fract_y
 _atom_site_fract_z
 _atom_site_occupancy
  Zr  Zr0  1  0.764477  0.765547  0.750289  1
  Zr  Zr1  1  0.234453  0.998930  0.750289  1
  Zr  Zr2  1  0.001070  0.235523  0.750289  1
  Zr  Zr3  1  0.234453  0.235523  0.249711  1
  Zr  Zr4  1  0.764477  0.998930  0.249711  1
  Zr  Zr5  1  0.001070  0.765547  0.249711  1
  Ti  Ti6  1  0.666667  0.333333  0.500000  1
  Nb  Nb7  1  0.666667  0.333333  0.000000  1
  Nb  Nb8  1  0.333333  0.666667  0.000000  1
  Nb  Nb9  1  0.333333  0.666667  0.500000  1
  Sn  Sn10  1  0.404944  0.402976  0.748861  1
  Sn  Sn11  1  0.597024  0.001968  0.748861  1
  Sn  Sn12  1  0.998032  0.595056  0.748861  1
  Sn  Sn13  1  0.597024  0.595056  0.251139  1
  Sn  Sn14  1  0.404944  0.001968  0.251139  1
  Sn  Sn15  1  0.998032  0.402976  0.251139  1
  B  B16  1  0.000000  0.000000  0.000000  1
  B  B17  1  0.000000  0.000000  0.500000  1
