# generated using pymatgen
data_CePr4USe10
_symmetry_space_group_name_H-M   'P 1'
_cell_length_a   7.94179200
_cell_length_b   8.50894700
_cell_length_c   12.60243500
_cell_angle_alpha   90.00000000
_cell_angle_beta   90.00000000
_cell_angle_gamma   90.00000000
_symmetry_Int_Tables_number   1
_chemical_formula_structural   CePr4USe10
_chemical_formula_sum   'Ce2 Pr8 U2 Se20'
_cell_volume   851.62576714
_cell_formula_units_Z   2
loop_
 _symmetry_equiv_pos_site_id
 _symmetry_equiv_pos_as_xyz
  1  'x, y, z'
loop_
 _atom_site_type_symbol
 _atom_site_label
 _atom_site_symmetry_multiplicity
 _atom_site_fract_x
 _atom_site_fract_y
 _atom_site_fract_z
 _atom_site_occupancy
  Ce  Ce0  1  0.073760  0.750000  0.491721  1
  Ce  Ce1  1  0.426240  0.750000  0.991721  1
  Pr  Pr2  1  0.524544  0.499544  0.322336  1
  Pr  Pr3  1  0.975456  0.000456  0.822336  1
  Pr  Pr4  1  0.478282  0.998447  0.677914  1
  Pr  Pr5  1  0.021718  0.501553  0.177914  1
  Pr  Pr6  1  0.478282  0.501553  0.677914  1
  Pr  Pr7  1  0.021718  0.998447  0.177914  1
  Pr  Pr8  1  0.524544  0.000456  0.322336  1
  Pr  Pr9  1  0.975456  0.499544  0.822336  1
  U  U10  1  0.935594  0.250000  0.507297  1
  U  U11  1  0.564406  0.250000  0.007297  1
  Se  Se12  1  0.837681  0.963293  0.596200  1
  Se  Se13  1  0.662319  0.536707  0.096200  1
  Se  Se14  1  0.164522  0.454369  0.403495  1
  Se  Se15  1  0.335478  0.045631  0.903495  1
  Se  Se16  1  0.164522  0.045631  0.403495  1
  Se  Se17  1  0.335478  0.454369  0.903495  1
  Se  Se18  1  0.837681  0.536707  0.596200  1
  Se  Se19  1  0.662319  0.963293  0.096200  1
  Se  Se20  1  0.826975  0.750000  0.312527  1
  Se  Se21  1  0.673025  0.750000  0.812527  1
  Se  Se22  1  0.169770  0.250000  0.683368  1
  Se  Se23  1  0.330230  0.250000  0.183368  1
  Se  Se24  1  0.458207  0.750000  0.499187  1
  Se  Se25  1  0.041793  0.750000  0.999187  1
  Se  Se26  1  0.550847  0.250000  0.500842  1
  Se  Se27  1  0.949153  0.250000  0.000842  1
  Se  Se28  1  0.196719  0.750000  0.715842  1
  Se  Se29  1  0.303281  0.750000  0.215842  1
  Se  Se30  1  0.807086  0.250000  0.289323  1
  Se  Se31  1  0.692914  0.250000  0.789323  1
