# generated using pymatgen
data_Tm2ThCo2
_symmetry_space_group_name_H-M   'P 1'
_cell_length_a   5.95753073
_cell_length_b   5.95753083
_cell_length_c   5.95752981
_cell_angle_alpha   143.47271491
_cell_angle_beta   118.11548190
_cell_angle_gamma   74.04849068
_symmetry_Int_Tables_number   1
_chemical_formula_structural   Tm2ThCo2
_chemical_formula_sum   'Tm2 Th1 Co2'
_cell_volume   108.80879730
_cell_formula_units_Z   1
loop_
 _symmetry_equiv_pos_site_id
 _symmetry_equiv_pos_as_xyz
  1  'x, y, z'
loop_
 _atom_site_type_symbol
 _atom_site_label
 _atom_site_symmetry_multiplicity
 _atom_site_fract_x
 _atom_site_fract_y
 _atom_site_fract_z
 _atom_site_occupancy
  Tm  Tm0  1  0.688023  0.188023  0.500000  1
  Tm  Tm1  1  0.311977  0.811976  0.500000  1
  Th  Th2  1  0.000000  0.000000  0.000000  1
  Co  Co3  1  0.695655  0.500000  0.195656  1
  Co  Co4  1  0.304344  0.500000  0.804344  1
