# generated using pymatgen
data_Rb4CeZrBr12
_symmetry_space_group_name_H-M   'P 1'
_cell_length_a   7.84096300
_cell_length_b   7.84096300
_cell_length_c   11.19177700
_cell_angle_alpha   90.00000000
_cell_angle_beta   90.00000000
_cell_angle_gamma   90.00000000
_symmetry_Int_Tables_number   1
_chemical_formula_structural   Rb4CeZrBr12
_chemical_formula_sum   'Rb4 Ce1 Zr1 Br12'
_cell_volume   688.07829279
_cell_formula_units_Z   1
loop_
 _symmetry_equiv_pos_site_id
 _symmetry_equiv_pos_as_xyz
  1  'x, y, z'
loop_
 _atom_site_type_symbol
 _atom_site_label
 _atom_site_symmetry_multiplicity
 _atom_site_fract_x
 _atom_site_fract_y
 _atom_site_fract_z
 _atom_site_occupancy
  Rb  Rb0  1  0.500000  0.000000  0.752396  1
  Rb  Rb1  1  0.500000  0.000000  0.247604  1
  Rb  Rb2  1  0.000000  0.500000  0.247604  1
  Rb  Rb3  1  0.000000  0.500000  0.752396  1
  Ce  Ce4  1  0.500000  0.500000  0.500000  1
  Zr  Zr5  1  0.000000  0.000000  0.000000  1
  Br  Br6  1  0.794201  0.268864  0.000000  1
  Br  Br7  1  0.205799  0.731136  0.000000  1
  Br  Br8  1  0.500000  0.500000  0.250282  1
  Br  Br9  1  0.285339  0.216485  0.500000  1
  Br  Br10  1  0.268864  0.205799  0.000000  1
  Br  Br11  1  0.783515  0.285339  0.500000  1
  Br  Br12  1  0.000000  0.000000  0.236570  1
  Br  Br13  1  0.714661  0.783515  0.500000  1
  Br  Br14  1  0.216485  0.714661  0.500000  1
  Br  Br15  1  0.500000  0.500000  0.749718  1
  Br  Br16  1  0.731136  0.794201  0.000000  1
  Br  Br17  1  0.000000  0.000000  0.763430  1
