# generated using pymatgen
data_NdEu(H4Pd)2
_symmetry_space_group_name_H-M   'P 1'
_cell_length_a   3.86074019
_cell_length_b   5.21487300
_cell_length_c   6.55409463
_cell_angle_alpha   90.00000000
_cell_angle_beta   107.27702833
_cell_angle_gamma   90.00000000
_symmetry_Int_Tables_number   1
_chemical_formula_structural   NdEu(H4Pd)2
_chemical_formula_sum   'Nd1 Eu1 H8 Pd2'
_cell_volume   126.00152289
_cell_formula_units_Z   1
loop_
 _symmetry_equiv_pos_site_id
 _symmetry_equiv_pos_as_xyz
  1  'x, y, z'
loop_
 _atom_site_type_symbol
 _atom_site_label
 _atom_site_symmetry_multiplicity
 _atom_site_fract_x
 _atom_site_fract_y
 _atom_site_fract_z
 _atom_site_occupancy
  Nd  Nd0  1  0.135288  0.249999  0.772110  1
  Eu  Eu1  1  0.862838  0.750000  0.224171  1
  H  H2  1  0.304299  0.006785  0.109000  1
  H  H3  1  0.304299  0.493214  0.109000  1
  H  H4  1  0.918175  0.249999  0.335435  1
  H  H5  1  0.500954  0.002285  0.502309  1
  H  H6  1  0.500954  0.497716  0.502309  1
  H  H7  1  0.088573  0.750000  0.677944  1
  H  H8  1  0.691135  0.486281  0.881695  1
  H  H9  1  0.691135  0.013718  0.881695  1
  Pd  Pd10  1  0.406176  0.249999  0.311951  1
  Pd  Pd11  1  0.596170  0.750000  0.692380  1
