# generated using pymatgen
data_La9Pr(Ir2Ru)2
_symmetry_space_group_name_H-M   'P 1'
_cell_length_a   11.40910300
_cell_length_b   11.40910300
_cell_length_c   6.66774200
_cell_angle_alpha   90.00000000
_cell_angle_beta   90.00000000
_cell_angle_gamma   90.00000000
_symmetry_Int_Tables_number   1
_chemical_formula_structural   La9Pr(Ir2Ru)2
_chemical_formula_sum   'La18 Pr2 Ir8 Ru4'
_cell_volume   867.92418202
_cell_formula_units_Z   2
loop_
 _symmetry_equiv_pos_site_id
 _symmetry_equiv_pos_as_xyz
  1  'x, y, z'
loop_
 _atom_site_type_symbol
 _atom_site_label
 _atom_site_symmetry_multiplicity
 _atom_site_fract_x
 _atom_site_fract_y
 _atom_site_fract_z
 _atom_site_occupancy
  La  La0  1  0.294034  0.089439  0.384745  1
  La  La1  1  0.294034  0.910561  0.884745  1
  La  La2  1  0.705966  0.089439  0.884745  1
  La  La3  1  0.705966  0.910561  0.384745  1
  La  La4  1  0.589305  0.793244  0.885675  1
  La  La5  1  0.589305  0.206756  0.385675  1
  La  La6  1  0.410695  0.793244  0.385675  1
  La  La7  1  0.410695  0.206756  0.885675  1
  La  La8  1  0.206756  0.410695  0.614325  1
  La  La9  1  0.206756  0.589305  0.114325  1
  La  La10  1  0.793244  0.410695  0.114325  1
  La  La11  1  0.793244  0.589305  0.614325  1
  La  La12  1  0.910561  0.705966  0.115255  1
  La  La13  1  0.910561  0.294034  0.615255  1
  La  La14  1  0.089439  0.705966  0.615255  1
  La  La15  1  0.089439  0.294034  0.115255  1
  La  La16  1  0.000000  0.000000  0.500000  1
  La  La17  1  0.000000  0.000000  0.000000  1
  Pr  Pr18  1  0.500000  0.500000  0.000000  1
  Pr  Pr19  1  0.500000  0.500000  0.500000  1
  Ir  Ir20  1  0.847357  0.152643  0.250000  1
  Ir  Ir21  1  0.847357  0.847357  0.750000  1
  Ir  Ir22  1  0.152643  0.152643  0.750000  1
  Ir  Ir23  1  0.152643  0.847357  0.250000  1
  Ir  Ir24  1  0.653855  0.346145  0.750000  1
  Ir  Ir25  1  0.653855  0.653855  0.250000  1
  Ir  Ir26  1  0.346145  0.346145  0.250000  1
  Ir  Ir27  1  0.346145  0.653855  0.750000  1
  Ru  Ru28  1  0.500000  0.000000  0.115795  1
  Ru  Ru29  1  0.500000  0.000000  0.615795  1
  Ru  Ru30  1  0.000000  0.500000  0.884205  1
  Ru  Ru31  1  0.000000  0.500000  0.384205  1
