# generated using pymatgen
data_Hf2UF12
_symmetry_space_group_name_H-M   'P 1'
_cell_length_a   8.15782167
_cell_length_b   8.15817484
_cell_length_c   7.86226825
_cell_angle_alpha   61.61810279
_cell_angle_beta   61.61989975
_cell_angle_gamma   79.44631158
_symmetry_Int_Tables_number   1
_chemical_formula_structural   Hf2UF12
_chemical_formula_sum   'Hf4 U2 F24'
_cell_volume   404.41267267
_cell_formula_units_Z   2
loop_
 _symmetry_equiv_pos_site_id
 _symmetry_equiv_pos_as_xyz
  1  'x, y, z'
loop_
 _atom_site_type_symbol
 _atom_site_label
 _atom_site_symmetry_multiplicity
 _atom_site_fract_x
 _atom_site_fract_y
 _atom_site_fract_z
 _atom_site_occupancy
  Hf  Hf0  1  0.350610  0.350613  0.775469  1
  Hf  Hf1  1  0.649390  0.649387  0.224531  1
  Hf  Hf2  1  0.188946  0.188949  0.431371  1
  Hf  Hf3  1  0.811054  0.811051  0.568629  1
  U  U4  1  0.779016  0.220985  0.999999  1
  U  U5  1  0.220984  0.779015  0.000001  1
  F  F6  1  0.438281  0.696555  0.133570  1
  F  F7  1  0.303445  0.561719  0.866429  1
  F  F8  1  0.561719  0.303445  0.866430  1
  F  F9  1  0.696555  0.438281  0.133571  1
  F  F10  1  0.222146  0.222147  0.140994  1
  F  F11  1  0.777854  0.777853  0.859006  1
  F  F12  1  0.000000  0.000000  0.000000  1
  F  F13  1  0.000000  0.000000  0.500000  1
  F  F14  1  0.387375  0.612624  0.499999  1
  F  F15  1  0.612625  0.387376  0.500001  1
  F  F16  1  0.832319  0.534222  0.719640  1
  F  F17  1  0.465777  0.167679  0.280366  1
  F  F18  1  0.167681  0.465778  0.280360  1
  F  F19  1  0.534223  0.832321  0.719634  1
  F  F20  1  0.711913  0.711911  0.427739  1
  F  F21  1  0.288087  0.288089  0.572261  1
  F  F22  1  0.935684  0.646001  0.108873  1
  F  F23  1  0.354000  0.064318  0.891130  1
  F  F24  1  0.064316  0.353999  0.891127  1
  F  F25  1  0.646000  0.935682  0.108870  1
  F  F26  1  0.780810  0.062221  0.332678  1
  F  F27  1  0.937778  0.219188  0.667319  1
  F  F28  1  0.219190  0.937779  0.667322  1
  F  F29  1  0.062222  0.780812  0.332681  1
