# generated using pymatgen
data_Pr16Hg4Ir3Pd
_symmetry_space_group_name_H-M   'P 1'
_cell_length_a   10.01374695
_cell_length_b   10.01374664
_cell_length_c   10.01374656
_cell_angle_alpha   60.27808734
_cell_angle_beta   60.27809129
_cell_angle_gamma   60.27808546
_symmetry_Int_Tables_number   1
_chemical_formula_structural   Pr16Hg4Ir3Pd
_chemical_formula_sum   'Pr16 Hg4 Ir3 Pd1'
_cell_volume   714.49567984
_cell_formula_units_Z   1
loop_
 _symmetry_equiv_pos_site_id
 _symmetry_equiv_pos_as_xyz
  1  'x, y, z'
loop_
 _atom_site_type_symbol
 _atom_site_label
 _atom_site_symmetry_multiplicity
 _atom_site_fract_x
 _atom_site_fract_y
 _atom_site_fract_z
 _atom_site_occupancy
  Pr  Pr0  1  0.347585  0.347585  0.347585  1
  Pr  Pr1  1  0.354075  0.354075  0.944858  1
  Pr  Pr2  1  0.354075  0.944858  0.354075  1
  Pr  Pr3  1  0.944858  0.354075  0.354075  1
  Pr  Pr4  1  0.803866  0.191313  0.191313  1
  Pr  Pr5  1  0.190088  0.808809  0.808809  1
  Pr  Pr6  1  0.191313  0.803866  0.191313  1
  Pr  Pr7  1  0.808809  0.190088  0.808809  1
  Pr  Pr8  1  0.191313  0.191313  0.803866  1
  Pr  Pr9  1  0.808809  0.808809  0.190088  1
  Pr  Pr10  1  0.940614  0.561745  0.561745  1
  Pr  Pr11  1  0.562621  0.939061  0.939061  1
  Pr  Pr12  1  0.561745  0.940614  0.561745  1
  Pr  Pr13  1  0.939061  0.562621  0.939061  1
  Pr  Pr14  1  0.561745  0.561745  0.940614  1
  Pr  Pr15  1  0.939061  0.939061  0.562621  1
  Hg  Hg16  1  0.584056  0.584056  0.584056  1
  Hg  Hg17  1  0.583940  0.583940  0.248451  1
  Hg  Hg18  1  0.583940  0.248451  0.583940  1
  Hg  Hg19  1  0.248451  0.583940  0.583940  1
  Ir  Ir20  1  0.142154  0.142154  0.573008  1
  Ir  Ir21  1  0.142154  0.573008  0.142154  1
  Ir  Ir22  1  0.573008  0.142154  0.142154  1
  Pd  Pd23  1  0.142655  0.142655  0.142655  1
