# generated using pymatgen
data_PrY7Sc12Ga11Si5
_symmetry_space_group_name_H-M   'P 1'
_cell_length_a   7.20622046
_cell_length_b   7.56663361
_cell_length_c   14.38127686
_cell_angle_alpha   90.03636865
_cell_angle_beta   90.15840756
_cell_angle_gamma   90.16556871
_symmetry_Int_Tables_number   1
_chemical_formula_structural   PrY7Sc12Ga11Si5
_chemical_formula_sum   'Pr1 Y7 Sc12 Ga11 Si5'
_cell_volume   784.15900463
_cell_formula_units_Z   1
loop_
 _symmetry_equiv_pos_site_id
 _symmetry_equiv_pos_as_xyz
  1  'x, y, z'
loop_
 _atom_site_type_symbol
 _atom_site_label
 _atom_site_symmetry_multiplicity
 _atom_site_fract_x
 _atom_site_fract_y
 _atom_site_fract_z
 _atom_site_occupancy
  Pr  Pr0  1  0.010326  0.176620  0.094010  1
  Y  Y1  1  0.013882  0.178758  0.405275  1
  Y  Y2  1  0.512644  0.322133  0.406733  1
  Y  Y3  1  0.490928  0.679732  0.904297  1
  Y  Y4  1  0.489012  0.681102  0.593263  1
  Y  Y5  1  0.987907  0.818925  0.593567  1
  Y  Y6  1  0.986009  0.821988  0.903854  1
  Y  Y7  1  0.510455  0.322324  0.094503  1
  Sc  Sc8  1  0.327487  0.171614  0.621367  1
  Sc  Sc9  1  0.671424  0.823299  0.379001  1
  Sc  Sc10  1  0.664464  0.992035  0.751587  1
  Sc  Sc11  1  0.174211  0.674560  0.378249  1
  Sc  Sc12  1  0.823274  0.326696  0.876463  1
  Sc  Sc13  1  0.826586  0.329064  0.622134  1
  Sc  Sc14  1  0.839338  0.495178  0.252648  1
  Sc  Sc15  1  0.336598  0.006093  0.252847  1
  Sc  Sc16  1  0.331483  0.174121  0.875807  1
  Sc  Sc17  1  0.172769  0.670930  0.123779  1
  Sc  Sc18  1  0.670285  0.826382  0.123068  1
  Sc  Sc19  1  0.160058  0.505886  0.750216  1
  Ga  Ga20  1  0.284106  0.873592  0.748897  1
  Ga  Ga21  1  0.469051  0.615506  0.251451  1
  Ga  Ga22  1  0.030478  0.119535  0.749034  1
  Ga  Ga23  1  0.530336  0.386805  0.748334  1
  Ga  Ga24  1  0.158809  0.464573  0.541051  1
  Ga  Ga25  1  0.968092  0.878526  0.252078  1
  Ga  Ga26  1  0.712453  0.125361  0.252852  1
  Ga  Ga27  1  0.838948  0.539314  0.040240  1
  Ga  Ga28  1  0.343740  0.960959  0.040048  1
  Ga  Ga29  1  0.160156  0.467188  0.956563  1
  Ga  Ga30  1  0.660093  0.036328  0.541261  1
  Si  Si31  1  0.342432  0.966114  0.458178  1
  Si  Si32  1  0.844166  0.532579  0.458211  1
  Si  Si33  1  0.782634  0.625038  0.748869  1
  Si  Si34  1  0.219948  0.377444  0.252595  1
  Si  Si35  1  0.655421  0.033700  0.957671  1
