# generated using pymatgen
data_Hf2Co3Cu4
_symmetry_space_group_name_H-M   'P 1'
_cell_length_a   4.73769762
_cell_length_b   4.72394013
_cell_length_c   6.40381028
_cell_angle_alpha   82.41491975
_cell_angle_beta   74.73819756
_cell_angle_gamma   59.90361536
_symmetry_Int_Tables_number   1
_chemical_formula_structural   Hf2Co3Cu4
_chemical_formula_sum   'Hf2 Co3 Cu4'
_cell_volume   119.62594442
_cell_formula_units_Z   1
loop_
 _symmetry_equiv_pos_site_id
 _symmetry_equiv_pos_as_xyz
  1  'x, y, z'
loop_
 _atom_site_type_symbol
 _atom_site_label
 _atom_site_symmetry_multiplicity
 _atom_site_fract_x
 _atom_site_fract_y
 _atom_site_fract_z
 _atom_site_occupancy
  Hf  Hf0  1  0.092523  0.000000  0.252101  1
  Hf  Hf1  1  0.907477  0.000000  0.747899  1
  Co  Co2  1  0.500000  0.500000  0.500000  1
  Co  Co3  1  0.000000  0.500000  0.500000  1
  Co  Co4  1  0.500000  0.000000  0.500000  1
  Cu  Cu5  1  0.536303  0.674984  0.847316  1
  Cu  Cu6  1  0.211287  0.325016  0.847316  1
  Cu  Cu7  1  0.463697  0.325016  0.152684  1
  Cu  Cu8  1  0.788713  0.674984  0.152684  1
