# generated using pymatgen
data_TbEr2Bi3(SbO7)2
_symmetry_space_group_name_H-M   'P 1'
_cell_length_a   6.47026589
_cell_length_b   6.67435315
_cell_length_c   7.61868825
_cell_angle_alpha   106.66178240
_cell_angle_beta   89.62210484
_cell_angle_gamma   98.44474156
_symmetry_Int_Tables_number   1
_chemical_formula_structural   TbEr2Bi3(SbO7)2
_chemical_formula_sum   'Tb1 Er2 Bi3 Sb2 O14'
_cell_volume   311.56154412
_cell_formula_units_Z   1
loop_
 _symmetry_equiv_pos_site_id
 _symmetry_equiv_pos_as_xyz
  1  'x, y, z'
loop_
 _atom_site_type_symbol
 _atom_site_label
 _atom_site_symmetry_multiplicity
 _atom_site_fract_x
 _atom_site_fract_y
 _atom_site_fract_z
 _atom_site_occupancy
  Tb  Tb0  1  0.543790  0.995854  0.752543  1
  Er  Er1  1  0.459177  0.001813  0.250546  1
  Er  Er2  1  0.256706  0.531372  0.883144  1
  Bi  Bi3  1  0.741541  0.483284  0.116569  1
  Bi  Bi4  1  0.727251  0.464204  0.613569  1
  Bi  Bi5  1  0.259704  0.528310  0.387036  1
  Sb  Sb6  1  0.003274  0.007344  0.502023  1
  Sb  Sb7  1  0.005268  0.001213  0.000143  1
  O  O8  1  0.442734  0.652370  0.164161  1
  O  O9  1  0.540897  0.348021  0.826599  1
  O  O10  1  0.295160  0.930592  0.955498  1
  O  O11  1  0.709801  0.041606  0.048844  1
  O  O12  1  0.290834  0.929822  0.512335  1
  O  O13  1  0.711797  0.076278  0.486247  1
  O  O14  1  0.529806  0.351351  0.345689  1
  O  O15  1  0.450786  0.642679  0.660665  1
  O  O16  1  0.939310  0.680594  0.953679  1
  O  O17  1  0.087377  0.311485  0.033714  1
  O  O18  1  0.094124  0.316182  0.623057  1
  O  O19  1  0.903309  0.698665  0.382410  1
  O  O20  1  0.901916  0.944764  0.736216  1
  O  O21  1  0.105440  0.062198  0.265311  1
