# generated using pymatgen
data_Ho9ErIn8(PtRh)2
_symmetry_space_group_name_H-M   'P 1'
_cell_length_a   3.60786300
_cell_length_b   8.11212691
_cell_length_c   18.22237019
_cell_angle_alpha   90.15089025
_cell_angle_beta   90.00000000
_cell_angle_gamma   90.00000000
_symmetry_Int_Tables_number   1
_chemical_formula_structural   Ho9ErIn8(PtRh)2
_chemical_formula_sum   'Ho9 Er1 In8 Pt2 Rh2'
_cell_volume   533.32032300
_cell_formula_units_Z   1
loop_
 _symmetry_equiv_pos_site_id
 _symmetry_equiv_pos_as_xyz
  1  'x, y, z'
loop_
 _atom_site_type_symbol
 _atom_site_label
 _atom_site_symmetry_multiplicity
 _atom_site_fract_x
 _atom_site_fract_y
 _atom_site_fract_z
 _atom_site_occupancy
  Ho  Ho0  1  0.000000  0.115227  0.412401  1
  Ho  Ho1  1  0.000000  0.884730  0.587539  1
  Ho  Ho2  1  0.000000  0.382974  0.913953  1
  Ho  Ho3  1  0.000000  0.617059  0.086094  1
  Ho  Ho4  1  0.000000  0.238822  0.221396  1
  Ho  Ho5  1  0.000000  0.761192  0.778605  1
  Ho  Ho6  1  0.000000  0.251376  0.720379  1
  Ho  Ho7  1  0.000000  0.000001  0.000007  1
  Ho  Ho8  1  0.000000  0.499988  0.499989  1
  Er  Er9  1  0.000000  0.748634  0.279635  1
  In  In10  1  0.500000  0.423087  0.351456  1
  In  In11  1  0.500000  0.577070  0.648493  1
  In  In12  1  0.500000  0.072940  0.850318  1
  In  In13  1  0.500000  0.926879  0.149813  1
  In  In14  1  0.500000  0.292172  0.066109  1
  In  In15  1  0.500000  0.707905  0.933877  1
  In  In16  1  0.500000  0.206464  0.567833  1
  In  In17  1  0.500000  0.793529  0.431991  1
  Pt  Pt18  1  0.500000  0.478259  0.803247  1
  Pt  Pt19  1  0.500000  0.522258  0.196940  1
  Rh  Rh20  1  0.500000  0.021353  0.304522  1
  Rh  Rh21  1  0.500000  0.978080  0.695401  1
