# generated using pymatgen
data_Tb4Fe3Co(P3Ir4)4
_symmetry_space_group_name_H-M   'P 1'
_cell_length_a   3.92837900
_cell_length_b   10.73415955
_cell_length_c   12.40283823
_cell_angle_alpha   90.26478895
_cell_angle_beta   90.00000000
_cell_angle_gamma   90.00000000
_symmetry_Int_Tables_number   1
_chemical_formula_structural   Tb4Fe3Co(P3Ir4)4
_chemical_formula_sum   'Tb4 Fe3 Co1 P12 Ir16'
_cell_volume   522.99539955
_cell_formula_units_Z   1
loop_
 _symmetry_equiv_pos_site_id
 _symmetry_equiv_pos_as_xyz
  1  'x, y, z'
loop_
 _atom_site_type_symbol
 _atom_site_label
 _atom_site_symmetry_multiplicity
 _atom_site_fract_x
 _atom_site_fract_y
 _atom_site_fract_z
 _atom_site_occupancy
  Tb  Tb0  1  0.250000  0.582721  0.709132  1
  Tb  Tb1  1  0.250000  0.917886  0.211571  1
  Tb  Tb2  1  0.750000  0.418084  0.288535  1
  Tb  Tb3  1  0.750000  0.082791  0.790731  1
  Fe  Fe4  1  0.250000  0.043868  0.433788  1
  Fe  Fe5  1  0.750000  0.541073  0.066023  1
  Fe  Fe6  1  0.750000  0.957537  0.566508  1
  Co  Co7  1  0.250000  0.461842  0.931738  1
  P  P8  1  0.250000  0.430840  0.104357  1
  P  P9  1  0.250000  0.068335  0.606149  1
  P  P10  1  0.750000  0.570685  0.894135  1
  P  P11  1  0.750000  0.932942  0.394363  1
  P  P12  1  0.250000  0.269864  0.872323  1
  P  P13  1  0.250000  0.231715  0.368219  1
  P  P14  1  0.750000  0.730136  0.130984  1
  P  P15  1  0.750000  0.769347  0.630526  1
  P  P16  1  0.250000  0.596379  0.386320  1
  P  P17  1  0.250000  0.901753  0.886301  1
  P  P18  1  0.750000  0.403671  0.612593  1
  P  P19  1  0.750000  0.096162  0.114671  1
  Ir  Ir20  1  0.250000  0.719719  0.985524  1
  Ir  Ir21  1  0.250000  0.778936  0.485778  1
  Ir  Ir22  1  0.750000  0.273014  0.011202  1
  Ir  Ir23  1  0.750000  0.219429  0.516541  1
  Ir  Ir24  1  0.250000  0.407952  0.479266  1
  Ir  Ir25  1  0.250000  0.088990  0.979084  1
  Ir  Ir26  1  0.750000  0.591995  0.520175  1
  Ir  Ir27  1  0.750000  0.907179  0.022932  1
  Ir  Ir28  1  0.250000  0.235040  0.175128  1
  Ir  Ir29  1  0.250000  0.263502  0.679871  1
  Ir  Ir30  1  0.750000  0.766241  0.823077  1
  Ir  Ir31  1  0.750000  0.735660  0.323072  1
  Ir  Ir32  1  0.250000  0.882012  0.700279  1
  Ir  Ir33  1  0.250000  0.617596  0.200345  1
  Ir  Ir34  1  0.750000  0.119480  0.300596  1
  Ir  Ir35  1  0.750000  0.385622  0.798163  1
