# generated using pymatgen
data_Nd4Si10(OsPt)3
_symmetry_space_group_name_H-M   'P 1'
_cell_length_a   8.24588124
_cell_length_b   8.26811844
_cell_length_c   8.26811744
_cell_angle_alpha   137.40946762
_cell_angle_beta   105.57265390
_cell_angle_gamma   89.77323764
_symmetry_Int_Tables_number   1
_chemical_formula_structural   Nd4Si10(OsPt)3
_chemical_formula_sum   'Nd4 Si10 Os3 Pt3'
_cell_volume   350.89072836
_cell_formula_units_Z   1
loop_
 _symmetry_equiv_pos_site_id
 _symmetry_equiv_pos_as_xyz
  1  'x, y, z'
loop_
 _atom_site_type_symbol
 _atom_site_label
 _atom_site_symmetry_multiplicity
 _atom_site_fract_x
 _atom_site_fract_y
 _atom_site_fract_z
 _atom_site_occupancy
  Nd  Nd0  1  0.863645  0.628591  0.235054  1
  Nd  Nd1  1  0.137700  0.371191  0.766509  1
  Nd  Nd2  1  0.396919  0.131665  0.265254  1
  Nd  Nd3  1  0.604312  0.870221  0.734091  1
  Si  Si4  1  0.493813  0.753922  0.254032  1
  Si  Si5  1  0.493813  0.239781  0.739891  1
  Si  Si6  1  0.222615  0.973063  0.744117  1
  Si  Si7  1  0.776138  0.523741  0.747099  1
  Si  Si8  1  0.776138  0.029039  0.252397  1
  Si  Si9  1  0.222615  0.478498  0.249552  1
  Si  Si10  1  0.052503  0.898182  0.154321  1
  Si  Si11  1  0.958445  0.104877  0.853567  1
  Si  Si12  1  0.747379  0.394594  0.352785  1
  Si  Si13  1  0.252688  0.604033  0.648656  1
  Os  Os14  1  0.999666  0.750559  0.751484  1
  Os  Os15  1  0.999666  0.248182  0.249107  1
  Os  Os16  1  0.246138  0.859674  0.386465  1
  Pt  Pt17  1  0.750645  0.138656  0.611987  1
  Pt  Pt18  1  0.474529  0.361809  0.112720  1
  Pt  Pt19  1  0.530632  0.639722  0.890911  1
