# generated using pymatgen
data_Er3Lu5V2(B12Rh)2
_symmetry_space_group_name_H-M   'P 1'
_cell_length_a   3.55865800
_cell_length_b   9.08937693
_cell_length_c   11.48122003
_cell_angle_alpha   90.31059191
_cell_angle_beta   90.00000000
_cell_angle_gamma   90.00000000
_symmetry_Int_Tables_number   1
_chemical_formula_structural   Er3Lu5V2(B12Rh)2
_chemical_formula_sum   'Er3 Lu5 V2 B24 Rh2'
_cell_volume   371.36590177
_cell_formula_units_Z   1
loop_
 _symmetry_equiv_pos_site_id
 _symmetry_equiv_pos_as_xyz
  1  'x, y, z'
loop_
 _atom_site_type_symbol
 _atom_site_label
 _atom_site_symmetry_multiplicity
 _atom_site_fract_x
 _atom_site_fract_y
 _atom_site_fract_z
 _atom_site_occupancy
  Er  Er0  1  0.500000  0.317978  0.411723  1
  Er  Er1  1  0.500000  0.682014  0.588275  1
  Er  Er2  1  0.500000  0.174387  0.916812  1
  Lu  Lu3  1  0.500000  0.825738  0.083005  1
  Lu  Lu4  1  0.500000  0.442027  0.127191  1
  Lu  Lu5  1  0.500000  0.558214  0.872971  1
  Lu  Lu6  1  0.500000  0.054176  0.628728  1
  Lu  Lu7  1  0.500000  0.945733  0.371196  1
  V  V8  1  0.500000  0.139628  0.181711  1
  V  V9  1  0.500000  0.860039  0.818407  1
  B  B10  1  0.000000  0.104513  0.472241  1
  B  B11  1  0.000000  0.895477  0.527708  1
  B  B12  1  0.000000  0.395825  0.970864  1
  B  B13  1  0.000000  0.604746  0.029311  1
  B  B14  1  0.000000  0.131678  0.316673  1
  B  B15  1  0.000000  0.868278  0.683300  1
  B  B16  1  0.000000  0.368616  0.816199  1
  B  B17  1  0.000000  0.631826  0.183554  1
  B  B18  1  0.000000  0.051920  0.066671  1
  B  B19  1  0.000000  0.947434  0.933686  1
  B  B20  1  0.000000  0.446058  0.566047  1
  B  B21  1  0.000000  0.553958  0.433930  1
  B  B22  1  0.000000  0.481672  0.287531  1
  B  B23  1  0.000000  0.518406  0.712470  1
  B  B24  1  0.000000  0.019865  0.787226  1
  B  B25  1  0.000000  0.979546  0.212506  1
  B  B26  1  0.000000  0.249499  0.080106  1
  B  B27  1  0.000000  0.750562  0.920484  1
  B  B28  1  0.000000  0.249033  0.579573  1
  B  B29  1  0.000000  0.750947  0.420391  1
  B  B30  1  0.000000  0.295075  0.235804  1
  B  B31  1  0.000000  0.704911  0.764231  1
  B  B32  1  0.000000  0.206973  0.735640  1
  B  B33  1  0.000000  0.793126  0.263967  1
  Rh  Rh34  1  0.500000  0.361029  0.679087  1
  Rh  Rh35  1  0.500000  0.639091  0.320781  1
