# generated using pymatgen
data_La6CeNdTe12
_symmetry_space_group_name_H-M   'P 1'
_cell_length_a   4.50823700
_cell_length_b   12.17175717
_cell_length_c   12.45489432
_cell_angle_alpha   89.93892689
_cell_angle_beta   90.00000000
_cell_angle_gamma   90.00000000
_symmetry_Int_Tables_number   1
_chemical_formula_structural   La6CeNdTe12
_chemical_formula_sum   'La6 Ce1 Nd1 Te12'
_cell_volume   683.43909561
_cell_formula_units_Z   1
loop_
 _symmetry_equiv_pos_site_id
 _symmetry_equiv_pos_as_xyz
  1  'x, y, z'
loop_
 _atom_site_type_symbol
 _atom_site_label
 _atom_site_symmetry_multiplicity
 _atom_site_fract_x
 _atom_site_fract_y
 _atom_site_fract_z
 _atom_site_occupancy
  La  La0  1  0.250000  0.314044  0.986926  1
  La  La1  1  0.750000  0.812666  0.513122  1
  La  La2  1  0.750000  0.685967  0.011922  1
  La  La3  1  0.250000  0.999012  0.805462  1
  La  La4  1  0.250000  0.500056  0.307597  1
  La  La5  1  0.750000  0.001773  0.194397  1
  Ce  Ce6  1  0.750000  0.497023  0.692342  1
  Nd  Nd7  1  0.250000  0.185921  0.486375  1
  Te  Te8  1  0.250000  0.623062  0.547957  1
  Te  Te9  1  0.250000  0.874647  0.045737  1
  Te  Te10  1  0.750000  0.372562  0.457523  1
  Te  Te11  1  0.750000  0.125677  0.954231  1
  Te  Te12  1  0.250000  0.944878  0.380112  1
  Te  Te13  1  0.250000  0.556847  0.875478  1
  Te  Te14  1  0.750000  0.058672  0.619903  1
  Te  Te15  1  0.750000  0.443056  0.121700  1
  Te  Te16  1  0.250000  0.303167  0.724162  1
  Te  Te17  1  0.250000  0.200840  0.229141  1
  Te  Te18  1  0.750000  0.699505  0.273470  1
  Te  Te19  1  0.750000  0.800626  0.772443  1
