# generated using pymatgen
data_CsMgSc(H6Rh)2
_symmetry_space_group_name_H-M   'P 1'
_cell_length_a   4.66686500
_cell_length_b   4.66686592
_cell_length_c   9.22281200
_cell_angle_alpha   90.00000000
_cell_angle_beta   90.00000000
_cell_angle_gamma   119.99998637
_symmetry_Int_Tables_number   1
_chemical_formula_structural   CsMgSc(H6Rh)2
_chemical_formula_sum   'Cs1 Mg1 Sc1 H12 Rh2'
_cell_volume   173.95808147
_cell_formula_units_Z   1
loop_
 _symmetry_equiv_pos_site_id
 _symmetry_equiv_pos_as_xyz
  1  'x, y, z'
loop_
 _atom_site_type_symbol
 _atom_site_label
 _atom_site_symmetry_multiplicity
 _atom_site_fract_x
 _atom_site_fract_y
 _atom_site_fract_z
 _atom_site_occupancy
  Cs  Cs0  1  0.000000  0.000000  0.994099  1
  Mg  Mg1  1  0.333333  0.666667  0.630156  1
  Sc  Sc2  1  0.666667  0.333333  0.390954  1
  H  H3  1  0.158727  0.841273  0.402691  1
  H  H4  1  0.682545  0.841273  0.402691  1
  H  H5  1  0.158727  0.317455  0.402691  1
  H  H6  1  0.837929  0.162071  0.589891  1
  H  H7  1  0.324143  0.162071  0.589891  1
  H  H8  1  0.837929  0.675857  0.589891  1
  H  H9  1  0.508021  0.016042  0.798866  1
  H  H10  1  0.508021  0.491979  0.798866  1
  H  H11  1  0.983958  0.491979  0.798866  1
  H  H12  1  0.500123  0.000246  0.204760  1
  H  H13  1  0.500123  0.499877  0.204760  1
  H  H14  1  0.999754  0.499877  0.204760  1
  Rh  Rh15  1  0.666667  0.333333  0.687356  1
  Rh  Rh16  1  0.333333  0.666667  0.308811  1
