# generated using pymatgen
data_Tm6Zn22AsAu
_symmetry_space_group_name_H-M   'P 1'
_cell_length_a   9.03954955
_cell_length_b   9.03954968
_cell_length_c   9.03955000
_cell_angle_alpha   60.00000615
_cell_angle_beta   60.00000568
_cell_angle_gamma   60.00000637
_symmetry_Int_Tables_number   1
_chemical_formula_structural   Tm6Zn22AsAu
_chemical_formula_sum   'Tm6 Zn22 As1 Au1'
_cell_volume   522.30653416
_cell_formula_units_Z   1
loop_
 _symmetry_equiv_pos_site_id
 _symmetry_equiv_pos_as_xyz
  1  'x, y, z'
loop_
 _atom_site_type_symbol
 _atom_site_label
 _atom_site_symmetry_multiplicity
 _atom_site_fract_x
 _atom_site_fract_y
 _atom_site_fract_z
 _atom_site_occupancy
  Tm  Tm0  1  0.715740  0.284260  0.284259  1
  Tm  Tm1  1  0.284260  0.715740  0.715741  1
  Tm  Tm2  1  0.284247  0.715754  0.284246  1
  Tm  Tm3  1  0.715753  0.284246  0.715754  1
  Tm  Tm4  1  0.284260  0.284259  0.715741  1
  Tm  Tm5  1  0.715740  0.715741  0.284259  1
  Zn  Zn6  1  0.125721  0.125874  0.125721  1
  Zn  Zn7  1  0.874279  0.874126  0.874279  1
  Zn  Zn8  1  0.125873  0.125719  0.622688  1
  Zn  Zn9  1  0.125720  0.622688  0.125720  1
  Zn  Zn10  1  0.874127  0.874281  0.377312  1
  Zn  Zn11  1  0.874280  0.377312  0.874280  1
  Zn  Zn12  1  0.622688  0.125720  0.125873  1
  Zn  Zn13  1  0.377312  0.874280  0.874127  1
  Zn  Zn14  1  0.500000  0.000000  0.000000  1
  Zn  Zn15  1  0.000000  0.500000  0.500000  1
  Zn  Zn16  1  0.000000  0.500000  0.000000  1
  Zn  Zn17  1  0.500000  0.000000  0.500000  1
  Zn  Zn18  1  0.000000  0.000000  0.500000  1
  Zn  Zn19  1  0.500000  0.500000  0.000000  1
  Zn  Zn20  1  0.331786  0.331937  0.331789  1
  Zn  Zn21  1  0.668214  0.668063  0.668211  1
  Zn  Zn22  1  0.331936  0.331785  0.004491  1
  Zn  Zn23  1  0.331788  0.004490  0.331786  1
  Zn  Zn24  1  0.668064  0.668215  0.995509  1
  Zn  Zn25  1  0.668212  0.995510  0.668214  1
  Zn  Zn26  1  0.004491  0.331787  0.331936  1
  Zn  Zn27  1  0.995509  0.668213  0.668064  1
  As  As28  1  0.500000  0.500000  0.500000  1
  Au  Au29  1  0.000000  0.000000  0.000000  1
