# generated using pymatgen
data_CrSb12Pd2Ru
_symmetry_space_group_name_H-M   'P 1'
_cell_length_a   8.19131702
_cell_length_b   8.20768335
_cell_length_c   9.44770724
_cell_angle_alpha   54.61677322
_cell_angle_beta   54.93336439
_cell_angle_gamma   70.62379583
_symmetry_Int_Tables_number   1
_chemical_formula_structural   CrSb12Pd2Ru
_chemical_formula_sum   'Cr1 Sb12 Pd2 Ru1'
_cell_volume   423.86425658
_cell_formula_units_Z   1
loop_
 _symmetry_equiv_pos_site_id
 _symmetry_equiv_pos_as_xyz
  1  'x, y, z'
loop_
 _atom_site_type_symbol
 _atom_site_label
 _atom_site_symmetry_multiplicity
 _atom_site_fract_x
 _atom_site_fract_y
 _atom_site_fract_z
 _atom_site_occupancy
  Cr  Cr0  1  0.000000  0.500000  0.500000  1
  Sb  Sb1  1  0.662099  0.668257  0.490579  1
  Sb  Sb2  1  0.337901  0.331743  0.509421  1
  Sb  Sb3  1  0.651943  0.651590  0.195269  1
  Sb  Sb4  1  0.348057  0.348410  0.804731  1
  Sb  Sb5  1  0.159309  0.851362  0.654567  1
  Sb  Sb6  1  0.840691  0.148638  0.345433  1
  Sb  Sb7  1  0.848178  0.156229  0.654886  1
  Sb  Sb8  1  0.151822  0.843771  0.345114  1
  Sb  Sb9  1  0.811451  0.497048  0.843422  1
  Sb  Sb10  1  0.188549  0.502952  0.156578  1
  Sb  Sb11  1  0.505086  0.186903  0.158260  1
  Sb  Sb12  1  0.494914  0.813097  0.841740  1
  Pd  Pd13  1  0.000000  0.500000  0.000000  1
  Pd  Pd14  1  0.500000  0.000000  0.000000  1
  Ru  Ru15  1  0.500000  0.000000  0.500000  1
