# generated using pymatgen
data_DyY9Os4
_symmetry_space_group_name_H-M   'P 1'
_cell_length_a   6.42159108
_cell_length_b   7.38983019
_cell_length_c   8.48510360
_cell_angle_alpha   96.85937628
_cell_angle_beta   112.23485498
_cell_angle_gamma   89.99999663
_symmetry_Int_Tables_number   1
_chemical_formula_structural   DyY9Os4
_chemical_formula_sum   'Dy1 Y9 Os4'
_cell_volume   369.59928587
_cell_formula_units_Z   1
loop_
 _symmetry_equiv_pos_site_id
 _symmetry_equiv_pos_as_xyz
  1  'x, y, z'
loop_
 _atom_site_type_symbol
 _atom_site_label
 _atom_site_symmetry_multiplicity
 _atom_site_fract_x
 _atom_site_fract_y
 _atom_site_fract_z
 _atom_site_occupancy
  Dy  Dy0  1  0.576733  0.750000  0.000000  1
  Y  Y1  1  0.795005  0.084631  0.817381  1
  Y  Y2  1  0.977624  0.415369  0.182619  1
  Y  Y3  1  0.204970  0.915431  0.182545  1
  Y  Y4  1  0.022425  0.584569  0.817455  1
  Y  Y5  1  0.205716  0.182663  0.564570  1
  Y  Y6  1  0.641146  0.317337  0.435430  1
  Y  Y7  1  0.794444  0.817137  0.435194  1
  Y  Y8  1  0.359250  0.682863  0.564806  1
  Y  Y9  1  0.422359  0.250000  0.000000  1
  Os  Os10  1  0.604206  0.423214  0.781108  1
  Os  Os11  1  0.823098  0.076786  0.218892  1
  Os  Os12  1  0.396112  0.577765  0.219198  1
  Os  Os13  1  0.176914  0.922235  0.780802  1
