# generated using pymatgen
data_Tb16In4Ir3Pd
_symmetry_space_group_name_H-M   'P 1'
_cell_length_a   9.73672560
_cell_length_b   9.73672483
_cell_length_c   9.73672541
_cell_angle_alpha   59.94956381
_cell_angle_beta   59.94956669
_cell_angle_gamma   59.94956183
_symmetry_Int_Tables_number   1
_chemical_formula_structural   Tb16In4Ir3Pd
_chemical_formula_sum   'Tb16 In4 Ir3 Pd1'
_cell_volume   651.96861754
_cell_formula_units_Z   1
loop_
 _symmetry_equiv_pos_site_id
 _symmetry_equiv_pos_as_xyz
  1  'x, y, z'
loop_
 _atom_site_type_symbol
 _atom_site_label
 _atom_site_symmetry_multiplicity
 _atom_site_fract_x
 _atom_site_fract_y
 _atom_site_fract_z
 _atom_site_occupancy
  Tb  Tb0  1  0.102866  0.698495  0.102866  1
  Tb  Tb1  1  0.939632  0.939632  0.554819  1
  Tb  Tb2  1  0.939632  0.554819  0.939632  1
  Tb  Tb3  1  0.310274  0.690648  0.310274  1
  Tb  Tb4  1  0.939297  0.560694  0.560694  1
  Tb  Tb5  1  0.310274  0.310274  0.690648  1
  Tb  Tb6  1  0.098971  0.098971  0.098971  1
  Tb  Tb7  1  0.560694  0.560694  0.939297  1
  Tb  Tb8  1  0.102866  0.102866  0.698495  1
  Tb  Tb9  1  0.688734  0.314617  0.688734  1
  Tb  Tb10  1  0.688734  0.688734  0.314617  1
  Tb  Tb11  1  0.690648  0.310274  0.310274  1
  Tb  Tb12  1  0.314617  0.688734  0.688734  1
  Tb  Tb13  1  0.560694  0.939297  0.560694  1
  Tb  Tb14  1  0.698495  0.102866  0.102866  1
  Tb  Tb15  1  0.554819  0.939632  0.939632  1
  In  In16  1  0.333044  0.333044  0.333044  1
  In  In17  1  0.000802  0.332917  0.332917  1
  In  In18  1  0.332917  0.000802  0.332917  1
  In  In19  1  0.332917  0.332917  0.000802  1
  Ir  Ir20  1  0.891871  0.891871  0.322877  1
  Ir  Ir21  1  0.322877  0.891871  0.891871  1
  Ir  Ir22  1  0.891871  0.322877  0.891871  1
  Pd  Pd23  1  0.892453  0.892453  0.892453  1
