# generated using pymatgen
data_Tb2Dy2Al18Ir3Pd2Pt
_symmetry_space_group_name_H-M   'P 1'
_cell_length_a   7.58936700
_cell_length_b   7.58841943
_cell_length_c   9.45332300
_cell_angle_alpha   89.99614173
_cell_angle_beta   90.00148725
_cell_angle_gamma   119.59396461
_symmetry_Int_Tables_number   1
_chemical_formula_structural   Tb2Dy2Al18Ir3Pd2Pt
_chemical_formula_sum   'Tb2 Dy2 Al18 Ir3 Pd2 Pt1'
_cell_volume   473.40671848
_cell_formula_units_Z   1
loop_
 _symmetry_equiv_pos_site_id
 _symmetry_equiv_pos_as_xyz
  1  'x, y, z'
loop_
 _atom_site_type_symbol
 _atom_site_label
 _atom_site_symmetry_multiplicity
 _atom_site_fract_x
 _atom_site_fract_y
 _atom_site_fract_z
 _atom_site_occupancy
  Tb  Tb0  1  0.671510  0.995779  0.250675  1
  Tb  Tb1  1  0.329002  0.005302  0.749428  1
  Dy  Dy2  1  0.994690  0.670889  0.250642  1
  Dy  Dy3  1  0.004365  0.328720  0.749348  1
  Al  Al4  1  0.132264  0.131204  0.250201  1
  Al  Al5  1  0.868727  0.867784  0.749787  1
  Al  Al6  1  0.003961  0.338562  0.077002  1
  Al  Al7  1  0.002099  0.664958  0.923083  1
  Al  Al8  1  0.999933  0.661108  0.574670  1
  Al  Al9  1  0.338563  0.999948  0.425117  1
  Al  Al10  1  0.000191  0.338441  0.424806  1
  Al  Al11  1  0.661888  0.999959  0.575379  1
  Al  Al12  1  0.661788  0.996137  0.922763  1
  Al  Al13  1  0.334568  0.997635  0.077154  1
  Al  Al14  1  0.335776  0.335750  0.553074  1
  Al  Al15  1  0.664380  0.664110  0.446926  1
  Al  Al16  1  0.663561  0.666358  0.056738  1
  Al  Al17  1  0.333433  0.336559  0.943240  1
  Al  Al18  1  0.339389  0.549551  0.250446  1
  Al  Al19  1  0.661391  0.452554  0.747470  1
  Al  Al20  1  0.547706  0.339165  0.252539  1
  Al  Al21  1  0.450178  0.660068  0.749544  1
  Ir  Ir22  1  0.328071  0.671799  0.999975  1
  Ir  Ir23  1  0.328346  0.671515  0.500018  1
  Ir  Ir24  1  0.671946  0.328236  0.499986  1
  Pd  Pd25  1  0.672324  0.327752  0.000007  1
  Pd  Pd26  1  0.999791  0.000251  0.999992  1
  Pt  Pt27  1  0.000157  0.999905  0.499989  1
