# generated using pymatgen
data_Pr16Mg3HgIr3Pt
_symmetry_space_group_name_H-M   'P 1'
_cell_length_a   10.07004400
_cell_length_b   10.07004449
_cell_length_c   10.07004579
_cell_angle_alpha   60.31232702
_cell_angle_beta   60.31232806
_cell_angle_gamma   60.31232458
_symmetry_Int_Tables_number   1
_chemical_formula_structural   Pr16Mg3HgIr3Pt
_chemical_formula_sum   'Pr16 Mg3 Hg1 Ir3 Pt1'
_cell_volume   727.17281256
_cell_formula_units_Z   1
loop_
 _symmetry_equiv_pos_site_id
 _symmetry_equiv_pos_as_xyz
  1  'x, y, z'
loop_
 _atom_site_type_symbol
 _atom_site_label
 _atom_site_symmetry_multiplicity
 _atom_site_fract_x
 _atom_site_fract_y
 _atom_site_fract_z
 _atom_site_occupancy
  Pr  Pr0  1  0.345918  0.345918  0.345918  1
  Pr  Pr1  1  0.350889  0.350889  0.954530  1
  Pr  Pr2  1  0.350889  0.954530  0.350889  1
  Pr  Pr3  1  0.954530  0.350889  0.350889  1
  Pr  Pr4  1  0.806771  0.188753  0.188753  1
  Pr  Pr5  1  0.188334  0.808891  0.808891  1
  Pr  Pr6  1  0.188753  0.806771  0.188753  1
  Pr  Pr7  1  0.808891  0.188334  0.808891  1
  Pr  Pr8  1  0.188753  0.188753  0.806771  1
  Pr  Pr9  1  0.808891  0.808891  0.188334  1
  Pr  Pr10  1  0.938297  0.561492  0.561492  1
  Pr  Pr11  1  0.561816  0.937673  0.937673  1
  Pr  Pr12  1  0.561492  0.938297  0.561492  1
  Pr  Pr13  1  0.937673  0.561816  0.937673  1
  Pr  Pr14  1  0.561492  0.561492  0.938297  1
  Pr  Pr15  1  0.937673  0.937673  0.561816  1
  Mg  Mg16  1  0.579062  0.579062  0.266702  1
  Mg  Mg17  1  0.579062  0.266702  0.579062  1
  Mg  Mg18  1  0.266702  0.579062  0.579062  1
  Hg  Hg19  1  0.582026  0.582026  0.582026  1
  Ir  Ir20  1  0.142421  0.142421  0.574520  1
  Ir  Ir21  1  0.142421  0.574520  0.142421  1
  Ir  Ir22  1  0.574520  0.142421  0.142421  1
  Pt  Pt23  1  0.142724  0.142724  0.142724  1
