# generated using pymatgen
data_Cs2VFeS4
_symmetry_space_group_name_H-M   'P 1'
_cell_length_a   14.37458271
_cell_length_b   12.79204597
_cell_length_c   7.61815142
_cell_angle_alpha   85.57309911
_cell_angle_beta   62.52998526
_cell_angle_gamma   31.89691949
_symmetry_Int_Tables_number   1
_chemical_formula_structural   Cs2VFeS4
_chemical_formula_sum   'Cs4 V2 Fe2 S8'
_cell_volume   487.10847055
_cell_formula_units_Z   2
loop_
 _symmetry_equiv_pos_site_id
 _symmetry_equiv_pos_as_xyz
  1  'x, y, z'
loop_
 _atom_site_type_symbol
 _atom_site_label
 _atom_site_symmetry_multiplicity
 _atom_site_fract_x
 _atom_site_fract_y
 _atom_site_fract_z
 _atom_site_occupancy
  Cs  Cs0  1  0.573016  0.573016  0.926984  1
  Cs  Cs1  1  0.926984  0.926984  0.573016  1
  Cs  Cs2  1  0.323016  0.323016  0.676984  1
  Cs  Cs3  1  0.676984  0.676984  0.323016  1
  V  V4  1  0.750000  0.750000  0.750000  1
  V  V5  1  0.500000  0.500000  0.500000  1
  Fe  Fe6  1  0.000000  0.000000  0.000000  1
  Fe  Fe7  1  0.250000  0.250000  0.250000  1
  S  S8  1  0.220474  0.878957  0.602957  1
  S  S9  1  0.297611  0.602957  0.878957  1
  S  S10  1  0.602957  0.297611  0.220474  1
  S  S11  1  0.878957  0.220474  0.297611  1
  S  S12  1  0.371043  0.029526  0.952389  1
  S  S13  1  0.952389  0.647043  0.371043  1
  S  S14  1  0.647043  0.952389  0.029526  1
  S  S15  1  0.029526  0.371043  0.647043  1
