# generated using pymatgen
data_Sc3Co5B2
_symmetry_space_group_name_H-M   'P 1'
_cell_length_a   8.98157600
_cell_length_b   8.98157600
_cell_length_c   3.00097600
_cell_angle_alpha   90.00000000
_cell_angle_beta   90.00000000
_cell_angle_gamma   90.00000000
_symmetry_Int_Tables_number   1
_chemical_formula_structural   Sc3Co5B2
_chemical_formula_sum   'Sc6 Co10 B4'
_cell_volume   242.08485499
_cell_formula_units_Z   2
loop_
 _symmetry_equiv_pos_site_id
 _symmetry_equiv_pos_as_xyz
  1  'x, y, z'
loop_
 _atom_site_type_symbol
 _atom_site_label
 _atom_site_symmetry_multiplicity
 _atom_site_fract_x
 _atom_site_fract_y
 _atom_site_fract_z
 _atom_site_occupancy
  Sc  Sc0  1  0.000000  0.000000  0.000000  1
  Sc  Sc1  1  0.500000  0.500000  0.000000  1
  Sc  Sc2  1  0.826214  0.326214  0.000000  1
  Sc  Sc3  1  0.326214  0.173786  0.000000  1
  Sc  Sc4  1  0.673786  0.826214  0.000000  1
  Sc  Sc5  1  0.173786  0.673786  0.000000  1
  Co  Co6  1  0.500000  0.000000  0.500000  1
  Co  Co7  1  0.000000  0.500000  0.500000  1
  Co  Co8  1  0.071675  0.230561  0.500000  1
  Co  Co9  1  0.230561  0.928325  0.500000  1
  Co  Co10  1  0.769439  0.071675  0.500000  1
  Co  Co11  1  0.928325  0.769439  0.500000  1
  Co  Co12  1  0.428325  0.730561  0.500000  1
  Co  Co13  1  0.571675  0.269439  0.500000  1
  Co  Co14  1  0.730561  0.571675  0.500000  1
  Co  Co15  1  0.269439  0.428325  0.500000  1
  B  B16  1  0.619273  0.119273  0.000000  1
  B  B17  1  0.119273  0.380727  0.000000  1
  B  B18  1  0.880727  0.619273  0.000000  1
  B  B19  1  0.380727  0.880727  0.000000  1
