# generated using pymatgen
data_Rb3ScTe3
_symmetry_space_group_name_H-M   'P 1'
_cell_length_a   14.76062000
_cell_length_b   9.17497569
_cell_length_c   11.88455760
_cell_angle_alpha   52.35697086
_cell_angle_beta   90.00000000
_cell_angle_gamma   90.00000000
_symmetry_Int_Tables_number   1
_chemical_formula_structural   Rb3ScTe3
_chemical_formula_sum   'Rb12 Sc4 Te12'
_cell_volume   1274.45689713
_cell_formula_units_Z   4
loop_
 _symmetry_equiv_pos_site_id
 _symmetry_equiv_pos_as_xyz
  1  'x, y, z'
loop_
 _atom_site_type_symbol
 _atom_site_label
 _atom_site_symmetry_multiplicity
 _atom_site_fract_x
 _atom_site_fract_y
 _atom_site_fract_z
 _atom_site_occupancy
  Rb  Rb0  1  0.904818  0.337748  0.393889  1
  Rb  Rb1  1  0.404818  0.662252  0.106111  1
  Rb  Rb2  1  0.095182  0.662252  0.606111  1
  Rb  Rb3  1  0.595182  0.337748  0.893889  1
  Rb  Rb4  1  0.186689  0.135449  0.581031  1
  Rb  Rb5  1  0.686689  0.864551  0.918969  1
  Rb  Rb6  1  0.813311  0.864551  0.418969  1
  Rb  Rb7  1  0.313311  0.135449  0.081031  1
  Rb  Rb8  1  0.619320  0.376568  0.472934  1
  Rb  Rb9  1  0.119320  0.623432  0.027066  1
  Rb  Rb10  1  0.380680  0.623432  0.527066  1
  Rb  Rb11  1  0.880680  0.376568  0.972934  1
  Sc  Sc12  1  0.937697  0.063620  0.837419  1
  Sc  Sc13  1  0.437697  0.936380  0.662581  1
  Sc  Sc14  1  0.062303  0.936380  0.162581  1
  Sc  Sc15  1  0.562303  0.063620  0.337419  1
  Te  Te16  1  0.388690  0.163128  0.371068  1
  Te  Te17  1  0.888690  0.836872  0.128932  1
  Te  Te18  1  0.611310  0.836872  0.628932  1
  Te  Te19  1  0.111310  0.163128  0.871068  1
  Te  Te20  1  0.686121  0.349283  0.185841  1
  Te  Te21  1  0.186121  0.650717  0.314159  1
  Te  Te22  1  0.313879  0.650717  0.814159  1
  Te  Te23  1  0.813879  0.349283  0.685841  1
  Te  Te24  1  0.550443  0.868296  0.231368  1
  Te  Te25  1  0.050443  0.131704  0.268632  1
  Te  Te26  1  0.449557  0.131704  0.768632  1
  Te  Te27  1  0.949557  0.868296  0.731368  1
