# generated using pymatgen
data_Pr8CoHg2Ru
_symmetry_space_group_name_H-M   'P 1'
_cell_length_a   9.93158177
_cell_length_b   9.93093776
_cell_length_c   9.97625414
_cell_angle_alpha   59.89989798
_cell_angle_beta   59.90388231
_cell_angle_gamma   59.81311902
_symmetry_Int_Tables_number   1
_chemical_formula_structural   Pr8CoHg2Ru
_chemical_formula_sum   'Pr16 Co2 Hg4 Ru2'
_cell_volume   693.74561587
_cell_formula_units_Z   2
loop_
 _symmetry_equiv_pos_site_id
 _symmetry_equiv_pos_as_xyz
  1  'x, y, z'
loop_
 _atom_site_type_symbol
 _atom_site_label
 _atom_site_symmetry_multiplicity
 _atom_site_fract_x
 _atom_site_fract_y
 _atom_site_fract_z
 _atom_site_occupancy
  Pr  Pr0  1  0.295009  0.899710  0.904071  1
  Pr  Pr1  1  0.686955  0.686968  0.311601  1
  Pr  Pr2  1  0.901246  0.901146  0.294031  1
  Pr  Pr3  1  0.309974  0.692602  0.308894  1
  Pr  Pr4  1  0.692603  0.309971  0.308887  1
  Pr  Pr5  1  0.059529  0.443650  0.436984  1
  Pr  Pr6  1  0.444603  0.059288  0.058429  1
  Pr  Pr7  1  0.058039  0.058036  0.443047  1
  Pr  Pr8  1  0.307801  0.307802  0.691560  1
  Pr  Pr9  1  0.443595  0.059519  0.437067  1
  Pr  Pr10  1  0.901189  0.901091  0.907436  1
  Pr  Pr11  1  0.440393  0.440528  0.058286  1
  Pr  Pr12  1  0.309207  0.691490  0.686767  1
  Pr  Pr13  1  0.691496  0.309201  0.686777  1
  Pr  Pr14  1  0.059304  0.444654  0.058434  1
  Pr  Pr15  1  0.899753  0.295043  0.904036  1
  Co  Co16  1  0.669020  0.109158  0.111383  1
  Co  Co17  1  0.109167  0.669040  0.111364  1
  Hg  Hg18  1  0.666842  0.666844  0.000114  1
  Hg  Hg19  1  0.999662  0.667044  0.666242  1
  Hg  Hg20  1  0.667041  0.999655  0.666245  1
  Hg  Hg21  1  0.666676  0.666680  0.667146  1
  Ru  Ru22  1  0.110561  0.110544  0.113044  1
  Ru  Ru23  1  0.110335  0.110336  0.668151  1
