# generated using pymatgen
data_ErTm11Co6Sn
_symmetry_space_group_name_H-M   'P 1'
_cell_length_a   8.24147082
_cell_length_b   8.24147128
_cell_length_c   8.24299521
_cell_angle_alpha   109.45356999
_cell_angle_beta   109.47315744
_cell_angle_gamma   109.47944745
_symmetry_Int_Tables_number   1
_chemical_formula_structural   ErTm11Co6Sn
_chemical_formula_sum   'Er1 Tm11 Co6 Sn1'
_cell_volume   431.03519786
_cell_formula_units_Z   1
loop_
 _symmetry_equiv_pos_site_id
 _symmetry_equiv_pos_as_xyz
  1  'x, y, z'
loop_
 _atom_site_type_symbol
 _atom_site_label
 _atom_site_symmetry_multiplicity
 _atom_site_fract_x
 _atom_site_fract_y
 _atom_site_fract_z
 _atom_site_occupancy
  Er  Er0  1  0.301645  0.805079  0.106725  1
  Tm  Tm1  1  0.698033  0.194893  0.892925  1
  Tm  Tm2  1  0.804973  0.503033  0.697869  1
  Tm  Tm3  1  0.496921  0.302149  0.194917  1
  Tm  Tm4  1  0.805363  0.107246  0.302077  1
  Tm  Tm5  1  0.503242  0.697954  0.804959  1
  Tm  Tm6  1  0.194832  0.496714  0.302077  1
  Tm  Tm7  1  0.107006  0.301717  0.804959  1
  Tm  Tm8  1  0.892767  0.697996  0.194917  1
  Tm  Tm9  1  0.194836  0.892894  0.697869  1
  Tm  Tm10  1  0.698123  0.805154  0.503277  1
  Tm  Tm11  1  0.301995  0.195016  0.497011  1
  Co  Co12  1  0.614595  0.114617  0.500316  1
  Co  Co13  1  0.885593  0.500010  0.385603  1
  Co  Co14  1  0.499986  0.385562  0.885548  1
  Co  Co15  1  0.114381  0.499909  0.614290  1
  Co  Co16  1  0.500085  0.614282  0.114367  1
  Co  Co17  1  0.385699  0.885721  0.500316  1
  Sn  Sn18  1  0.999925  0.000053  0.999978  1
