# generated using pymatgen
data_Ca9Lu(Pb3Cl)2
_symmetry_space_group_name_H-M   'P 1'
_cell_length_a   9.47417700
_cell_length_b   9.47417765
_cell_length_c   6.90907800
_cell_angle_alpha   90.00000000
_cell_angle_beta   90.00000000
_cell_angle_gamma   119.99999424
_symmetry_Int_Tables_number   1
_chemical_formula_structural   Ca9Lu(Pb3Cl)2
_chemical_formula_sum   'Ca9 Lu1 Pb6 Cl2'
_cell_volume   537.07355735
_cell_formula_units_Z   1
loop_
 _symmetry_equiv_pos_site_id
 _symmetry_equiv_pos_as_xyz
  1  'x, y, z'
loop_
 _atom_site_type_symbol
 _atom_site_label
 _atom_site_symmetry_multiplicity
 _atom_site_fract_x
 _atom_site_fract_y
 _atom_site_fract_z
 _atom_site_occupancy
  Ca  Ca0  1  0.252383  0.999263  0.246754  1
  Ca  Ca1  1  0.746879  0.999263  0.753246  1
  Ca  Ca2  1  0.000737  0.253121  0.246754  1
  Ca  Ca3  1  0.000737  0.747617  0.753246  1
  Ca  Ca4  1  0.746879  0.747617  0.246754  1
  Ca  Ca5  1  0.252383  0.253121  0.753246  1
  Ca  Ca6  1  0.666667  0.333333  0.000000  1
  Ca  Ca7  1  0.666667  0.333333  0.500000  1
  Ca  Ca8  1  0.333333  0.666667  0.500000  1
  Lu  Lu9  1  0.333333  0.666667  0.000000  1
  Pb  Pb10  1  0.589087  0.994985  0.240836  1
  Pb  Pb11  1  0.405898  0.994985  0.759164  1
  Pb  Pb12  1  0.005015  0.594102  0.240836  1
  Pb  Pb13  1  0.005015  0.410913  0.759164  1
  Pb  Pb14  1  0.405898  0.410913  0.240836  1
  Pb  Pb15  1  0.589087  0.594102  0.759164  1
  Cl  Cl16  1  0.000000  0.000000  0.000000  1
  Cl  Cl17  1  0.000000  0.000000  0.500000  1
