# generated using pymatgen
data_YbInIr2O7
_symmetry_space_group_name_H-M   'P 1'
_cell_length_a   7.09367326
_cell_length_b   7.19164309
_cell_length_c   7.19164238
_cell_angle_alpha   60.82066650
_cell_angle_beta   60.44961567
_cell_angle_gamma   60.44962378
_symmetry_Int_Tables_number   1
_chemical_formula_structural   YbInIr2O7
_chemical_formula_sum   'Yb2 In2 Ir4 O14'
_cell_volume   262.77774610
_cell_formula_units_Z   2
loop_
 _symmetry_equiv_pos_site_id
 _symmetry_equiv_pos_as_xyz
  1  'x, y, z'
loop_
 _atom_site_type_symbol
 _atom_site_label
 _atom_site_symmetry_multiplicity
 _atom_site_fract_x
 _atom_site_fract_y
 _atom_site_fract_z
 _atom_site_occupancy
  Yb  Yb0  1  0.125000  0.625000  0.125000  1
  Yb  Yb1  1  0.125000  0.125000  0.625000  1
  In  In2  1  0.125000  0.125000  0.125000  1
  In  In3  1  0.625000  0.125000  0.125000  1
  Ir  Ir4  1  0.625000  0.625000  0.125000  1
  Ir  Ir5  1  0.625000  0.125000  0.625000  1
  Ir  Ir6  1  0.125000  0.625000  0.625000  1
  Ir  Ir7  1  0.625000  0.625000  0.625000  1
  O  O8  1  0.262891  0.237109  0.237109  1
  O  O9  1  0.702395  0.297605  0.297605  1
  O  O10  1  0.697382  0.293583  0.715536  1
  O  O11  1  0.293500  0.715536  0.293583  1
  O  O12  1  0.697382  0.715536  0.293583  1
  O  O13  1  0.293500  0.293583  0.715536  1
  O  O14  1  0.958763  0.541237  0.541237  1
  O  O15  1  0.291237  0.708763  0.708763  1
  O  O16  1  0.956500  0.956417  0.534464  1
  O  O17  1  0.552618  0.956417  0.534464  1
  O  O18  1  0.552618  0.534464  0.956417  1
  O  O19  1  0.956500  0.534464  0.956417  1
  O  O20  1  0.547605  0.952395  0.952395  1
  O  O21  1  0.987109  0.012891  0.012891  1
