# generated using pymatgen
data_SmY3(Co5As3)4
_symmetry_space_group_name_H-M   'P 1'
_cell_length_a   3.79643200
_cell_length_b   12.19498470
_cell_length_c   10.68816160
_cell_angle_alpha   90.03867570
_cell_angle_beta   90.00000000
_cell_angle_gamma   90.00000000
_symmetry_Int_Tables_number   1
_chemical_formula_structural   SmY3(Co5As3)4
_chemical_formula_sum   'Sm1 Y3 Co20 As12'
_cell_volume   494.83430261
_cell_formula_units_Z   1
loop_
 _symmetry_equiv_pos_site_id
 _symmetry_equiv_pos_as_xyz
  1  'x, y, z'
loop_
 _atom_site_type_symbol
 _atom_site_label
 _atom_site_symmetry_multiplicity
 _atom_site_fract_x
 _atom_site_fract_y
 _atom_site_fract_z
 _atom_site_occupancy
  Sm  Sm0  1  0.750000  0.701797  0.082087  1
  Y  Y1  1  0.250000  0.298446  0.917976  1
  Y  Y2  1  0.250000  0.798383  0.581912  1
  Y  Y3  1  0.750000  0.201606  0.418147  1
  Co  Co4  1  0.750000  0.696812  0.384516  1
  Co  Co5  1  0.250000  0.303078  0.616209  1
  Co  Co6  1  0.250000  0.803642  0.882831  1
  Co  Co7  1  0.750000  0.197009  0.116337  1
  Co  Co8  1  0.750000  0.990848  0.211577  1
  Co  Co9  1  0.250000  0.009070  0.788196  1
  Co  Co10  1  0.250000  0.508599  0.711368  1
  Co  Co11  1  0.750000  0.490763  0.288535  1
  Co  Co12  1  0.750000  0.677411  0.783336  1
  Co  Co13  1  0.250000  0.322408  0.216283  1
  Co  Co14  1  0.250000  0.822839  0.284528  1
  Co  Co15  1  0.750000  0.177515  0.716074  1
  Co  Co16  1  0.750000  0.933036  0.968904  1
  Co  Co17  1  0.250000  0.068423  0.030442  1
  Co  Co18  1  0.250000  0.567474  0.470213  1
  Co  Co19  1  0.750000  0.432053  0.530690  1
  Co  Co20  1  0.750000  0.988250  0.593071  1
  Co  Co21  1  0.250000  0.011888  0.406904  1
  Co  Co22  1  0.250000  0.510552  0.092937  1
  Co  Co23  1  0.750000  0.487824  0.906516  1
  As  As24  1  0.750000  0.613891  0.584517  1
  As  As25  1  0.250000  0.385912  0.415621  1
  As  As26  1  0.250000  0.887462  0.084511  1
  As  As27  1  0.750000  0.114349  0.915386  1
  As  As28  1  0.750000  0.890700  0.399118  1
  As  As29  1  0.250000  0.109263  0.600951  1
  As  As30  1  0.250000  0.608650  0.897596  1
  As  As31  1  0.750000  0.390684  0.100943  1
  As  As32  1  0.750000  0.870271  0.769336  1
  As  As33  1  0.250000  0.129801  0.230805  1
  As  As34  1  0.250000  0.629166  0.271102  1
  As  As35  1  0.750000  0.370124  0.730525  1
