# generated using pymatgen
data_Sr5InPt2
_symmetry_space_group_name_H-M   'P 1'
_cell_length_a   8.36178638
_cell_length_b   8.36216338
_cell_length_c   9.70855717
_cell_angle_alpha   115.53719765
_cell_angle_beta   115.50818985
_cell_angle_gamma   90.00001457
_symmetry_Int_Tables_number   1
_chemical_formula_structural   Sr5InPt2
_chemical_formula_sum   'Sr10 In2 Pt4'
_cell_volume   538.26439978
_cell_formula_units_Z   2
loop_
 _symmetry_equiv_pos_site_id
 _symmetry_equiv_pos_as_xyz
  1  'x, y, z'
loop_
 _atom_site_type_symbol
 _atom_site_label
 _atom_site_symmetry_multiplicity
 _atom_site_fract_x
 _atom_site_fract_y
 _atom_site_fract_z
 _atom_site_occupancy
  Sr  Sr0  1  0.000000  0.000000  0.000000  1
  Sr  Sr1  1  0.500000  0.500000  0.000000  1
  Sr  Sr2  1  0.464513  0.300974  0.265471  1
  Sr  Sr3  1  0.964510  0.464516  0.265489  1
  Sr  Sr4  1  0.300959  0.800974  0.265471  1
  Sr  Sr5  1  0.800979  0.964515  0.265489  1
  Sr  Sr6  1  0.199021  0.035485  0.734511  1
  Sr  Sr7  1  0.699042  0.199026  0.734529  1
  Sr  Sr8  1  0.035490  0.535486  0.734511  1
  Sr  Sr9  1  0.535489  0.699027  0.734529  1
  In  In10  1  0.249877  0.250000  0.500000  1
  In  In11  1  0.750123  0.750000  0.500000  1
  Pt  Pt12  1  0.624252  0.124241  0.000001  1
  Pt  Pt13  1  0.124252  0.375759  0.999999  1
  Pt  Pt14  1  0.875749  0.624240  0.000001  1
  Pt  Pt15  1  0.375747  0.875760  0.999999  1
