# generated using pymatgen
data_SrBePtO
_symmetry_space_group_name_H-M   'P 1'
_cell_length_a   3.94898800
_cell_length_b   3.94898800
_cell_length_c   7.99800200
_cell_angle_alpha   89.99997833
_cell_angle_beta   89.99997833
_cell_angle_gamma   90.00000000
_symmetry_Int_Tables_number   1
_chemical_formula_structural   SrBePtO
_chemical_formula_sum   'Sr2 Be2 Pt2 O2'
_cell_volume   124.72489197
_cell_formula_units_Z   2
loop_
 _symmetry_equiv_pos_site_id
 _symmetry_equiv_pos_as_xyz
  1  'x, y, z'
loop_
 _atom_site_type_symbol
 _atom_site_label
 _atom_site_symmetry_multiplicity
 _atom_site_fract_x
 _atom_site_fract_y
 _atom_site_fract_z
 _atom_site_occupancy
  Sr  Sr0  1  0.249999  0.249999  0.166392  1
  Sr  Sr1  1  0.750001  0.750001  0.833607  1
  Be  Be2  1  0.750001  0.750001  0.342874  1
  Be  Be3  1  0.250000  0.250000  0.657128  1
  Pt  Pt4  1  0.750001  0.250000  0.499999  1
  Pt  Pt5  1  0.250000  0.750001  0.499999  1
  O  O6  1  0.750002  0.750002  0.146850  1
  O  O7  1  0.250000  0.250000  0.853150  1
