# generated using pymatgen
data_YbPr6FeCl12
_symmetry_space_group_name_H-M   'P 1'
_cell_length_a   9.41789276
_cell_length_b   9.20082768
_cell_length_c   9.19186332
_cell_angle_alpha   106.65797685
_cell_angle_beta   107.45402405
_cell_angle_gamma   107.40940274
_symmetry_Int_Tables_number   1
_chemical_formula_structural   YbPr6FeCl12
_chemical_formula_sum   'Yb1 Pr6 Fe1 Cl12'
_cell_volume   660.12924746
_cell_formula_units_Z   1
loop_
 _symmetry_equiv_pos_site_id
 _symmetry_equiv_pos_as_xyz
  1  'x, y, z'
loop_
 _atom_site_type_symbol
 _atom_site_label
 _atom_site_symmetry_multiplicity
 _atom_site_fract_x
 _atom_site_fract_y
 _atom_site_fract_z
 _atom_site_occupancy
  Yb  Yb0  1  0.500000  0.500000  0.500000  1
  Pr  Pr1  1  0.111358  0.312772  0.022324  1
  Pr  Pr2  1  0.323912  0.023153  0.118140  1
  Pr  Pr3  1  0.024674  0.110780  0.312455  1
  Pr  Pr4  1  0.975327  0.889220  0.687546  1
  Pr  Pr5  1  0.676088  0.976848  0.881860  1
  Pr  Pr6  1  0.888642  0.687228  0.977676  1
  Fe  Fe7  1  0.000000  0.000000  0.000000  1
  Cl  Cl8  1  0.207579  0.682372  0.071275  1
  Cl  Cl9  1  0.454482  0.373652  0.175582  1
  Cl  Cl10  1  0.687729  0.072207  0.208968  1
  Cl  Cl11  1  0.929526  0.788756  0.317194  1
  Cl  Cl12  1  0.180971  0.457919  0.376108  1
  Cl  Cl13  1  0.374873  0.176011  0.459824  1
  Cl  Cl14  1  0.625127  0.823989  0.540177  1
  Cl  Cl15  1  0.819030  0.542081  0.623892  1
  Cl  Cl16  1  0.070475  0.211244  0.682807  1
  Cl  Cl17  1  0.312272  0.927794  0.791032  1
  Cl  Cl18  1  0.545518  0.626348  0.824419  1
  Cl  Cl19  1  0.792421  0.317628  0.928725  1
