# generated using pymatgen
data_CeFeCuSi
_symmetry_space_group_name_H-M   'P 1'
_cell_length_a   8.71807442
_cell_length_b   8.71807377
_cell_length_c   4.02881800
_cell_angle_alpha   90.00000000
_cell_angle_beta   90.00000000
_cell_angle_gamma   153.58734933
_symmetry_Int_Tables_number   1
_chemical_formula_structural   CeFeCuSi
_chemical_formula_sum   'Ce2 Fe2 Cu2 Si2'
_cell_volume   136.21210278
_cell_formula_units_Z   2
loop_
 _symmetry_equiv_pos_site_id
 _symmetry_equiv_pos_as_xyz
  1  'x, y, z'
loop_
 _atom_site_type_symbol
 _atom_site_label
 _atom_site_symmetry_multiplicity
 _atom_site_fract_x
 _atom_site_fract_y
 _atom_site_fract_z
 _atom_site_occupancy
  Ce  Ce0  1  0.618513  0.381487  0.250000  1
  Ce  Ce1  1  0.381487  0.618513  0.750000  1
  Fe  Fe2  1  0.249516  0.750484  0.250000  1
  Fe  Fe3  1  0.750484  0.249516  0.750000  1
  Cu  Cu4  1  0.959747  0.040253  0.250000  1
  Cu  Cu5  1  0.040253  0.959747  0.750000  1
  Si  Si6  1  0.815638  0.184362  0.250000  1
  Si  Si7  1  0.184362  0.815638  0.750000  1
