# generated using pymatgen
data_Hf4TiV3P4
_symmetry_space_group_name_H-M   'P 1'
_cell_length_a   3.48084300
_cell_length_b   6.63386064
_cell_length_c   7.94373077
_cell_angle_alpha   90.05036342
_cell_angle_beta   90.00000000
_cell_angle_gamma   90.00000000
_symmetry_Int_Tables_number   1
_chemical_formula_structural   Hf4TiV3P4
_chemical_formula_sum   'Hf4 Ti1 V3 P4'
_cell_volume   183.43201123
_cell_formula_units_Z   1
loop_
 _symmetry_equiv_pos_site_id
 _symmetry_equiv_pos_as_xyz
  1  'x, y, z'
loop_
 _atom_site_type_symbol
 _atom_site_label
 _atom_site_symmetry_multiplicity
 _atom_site_fract_x
 _atom_site_fract_y
 _atom_site_fract_z
 _atom_site_occupancy
  Hf  Hf0  1  0.250000  0.038874  0.832877  1
  Hf  Hf1  1  0.250000  0.541360  0.669083  1
  Hf  Hf2  1  0.750000  0.958726  0.167134  1
  Hf  Hf3  1  0.750000  0.464516  0.327762  1
  Ti  Ti4  1  0.250000  0.131453  0.440794  1
  V  V5  1  0.250000  0.631993  0.057346  1
  V  V6  1  0.750000  0.863080  0.561039  1
  V  V7  1  0.750000  0.370269  0.941339  1
  P  P8  1  0.250000  0.760180  0.362517  1
  P  P9  1  0.250000  0.262796  0.133979  1
  P  P10  1  0.750000  0.238875  0.642801  1
  P  P11  1  0.750000  0.737877  0.863330  1
