# generated using pymatgen
data_CsK2AsSe4
_symmetry_space_group_name_H-M   'P 1'
_cell_length_a   9.97507900
_cell_length_b   10.43203400
_cell_length_c   11.13846800
_cell_angle_alpha   90.00000000
_cell_angle_beta   90.00000000
_cell_angle_gamma   90.00000000
_symmetry_Int_Tables_number   1
_chemical_formula_structural   CsK2AsSe4
_chemical_formula_sum   'Cs4 K8 As4 Se16'
_cell_volume   1159.07302647
_cell_formula_units_Z   4
loop_
 _symmetry_equiv_pos_site_id
 _symmetry_equiv_pos_as_xyz
  1  'x, y, z'
loop_
 _atom_site_type_symbol
 _atom_site_label
 _atom_site_symmetry_multiplicity
 _atom_site_fract_x
 _atom_site_fract_y
 _atom_site_fract_z
 _atom_site_occupancy
  Cs  Cs0  1  0.649400  0.414561  0.750000  1
  Cs  Cs1  1  0.149400  0.085439  0.750000  1
  Cs  Cs2  1  0.350600  0.585439  0.250000  1
  Cs  Cs3  1  0.850600  0.914561  0.250000  1
  K  K4  1  0.565575  0.196616  0.049106  1
  K  K5  1  0.065575  0.303384  0.450894  1
  K  K6  1  0.434425  0.803384  0.549106  1
  K  K7  1  0.934425  0.696616  0.950894  1
  K  K8  1  0.434425  0.803384  0.950894  1
  K  K9  1  0.934425  0.696616  0.549106  1
  K  K10  1  0.565575  0.196616  0.450894  1
  K  K11  1  0.065575  0.303384  0.049106  1
  As  As12  1  0.722186  0.976256  0.750000  1
  As  As13  1  0.222186  0.523744  0.750000  1
  As  As14  1  0.277814  0.023744  0.250000  1
  As  As15  1  0.777814  0.476256  0.250000  1
  Se  Se16  1  0.841694  0.029939  0.574960  1
  Se  Se17  1  0.341694  0.470061  0.925040  1
  Se  Se18  1  0.158306  0.970061  0.074960  1
  Se  Se19  1  0.658306  0.529939  0.425040  1
  Se  Se20  1  0.158306  0.970061  0.425040  1
  Se  Se21  1  0.658306  0.529939  0.074960  1
  Se  Se22  1  0.841694  0.029939  0.925040  1
  Se  Se23  1  0.341694  0.470061  0.574960  1
  Se  Se24  1  0.681005  0.753837  0.750000  1
  Se  Se25  1  0.181005  0.746163  0.750000  1
  Se  Se26  1  0.318995  0.246163  0.250000  1
  Se  Se27  1  0.818995  0.253837  0.250000  1
  Se  Se28  1  0.512559  0.082173  0.750000  1
  Se  Se29  1  0.012559  0.417827  0.750000  1
  Se  Se30  1  0.487441  0.917827  0.250000  1
  Se  Se31  1  0.987441  0.582173  0.250000  1
