# generated using pymatgen
data_Ho15TmMgAg3Pt4
_symmetry_space_group_name_H-M   'P 1'
_cell_length_a   9.58003344
_cell_length_b   9.58066617
_cell_length_c   9.56491000
_cell_angle_alpha   60.05438046
_cell_angle_beta   60.05220041
_cell_angle_gamma   60.24690994
_symmetry_Int_Tables_number   1
_chemical_formula_structural   Ho15TmMgAg3Pt4
_chemical_formula_sum   'Ho15 Tm1 Mg1 Ag3 Pt4'
_cell_volume   622.41942031
_cell_formula_units_Z   1
loop_
 _symmetry_equiv_pos_site_id
 _symmetry_equiv_pos_as_xyz
  1  'x, y, z'
loop_
 _atom_site_type_symbol
 _atom_site_label
 _atom_site_symmetry_multiplicity
 _atom_site_fract_x
 _atom_site_fract_y
 _atom_site_fract_z
 _atom_site_occupancy
  Ho  Ho0  1  0.601861  0.600897  0.599966  1
  Ho  Ho1  1  0.601861  0.600897  0.197274  1
  Ho  Ho2  1  0.606688  0.188843  0.602234  1
  Ho  Ho3  1  0.174479  0.611192  0.607164  1
  Ho  Ho4  1  0.059068  0.440874  0.441406  1
  Ho  Ho5  1  0.439119  0.061573  0.060667  1
  Ho  Ho6  1  0.439119  0.061573  0.438642  1
  Ho  Ho7  1  0.059068  0.440874  0.058654  1
  Ho  Ho8  1  0.437857  0.437415  0.062364  1
  Ho  Ho9  1  0.059454  0.060190  0.440178  1
  Ho  Ho10  1  0.183174  0.817512  0.815364  1
  Ho  Ho11  1  0.816168  0.185170  0.182865  1
  Ho  Ho12  1  0.816168  0.185170  0.815796  1
  Ho  Ho13  1  0.183174  0.817512  0.183950  1
  Ho  Ho14  1  0.815744  0.816467  0.183895  1
  Tm  Tm15  1  0.184417  0.189048  0.813267  1
  Mg  Mg16  1  0.535828  0.818553  0.822810  1
  Ag  Ag17  1  0.832304  0.836075  0.836732  1
  Ag  Ag18  1  0.832304  0.836075  0.494891  1
  Ag  Ag19  1  0.833477  0.494021  0.836251  1
  Pt  Pt20  1  0.389881  0.394525  0.399247  1
  Pt  Pt21  1  0.389881  0.394525  0.816345  1
  Pt  Pt22  1  0.388432  0.819600  0.395983  1
  Pt  Pt23  1  0.820471  0.391416  0.394056  1
