# generated using pymatgen
data_Pa2Ga4Pt3
_symmetry_space_group_name_H-M   'P 1'
_cell_length_a   6.85238744
_cell_length_b   6.85238787
_cell_length_c   4.07374000
_cell_angle_alpha   90.00000000
_cell_angle_beta   90.00000000
_cell_angle_gamma   116.40611715
_symmetry_Int_Tables_number   1
_chemical_formula_structural   Pa2Ga4Pt3
_chemical_formula_sum   'Pa2 Ga4 Pt3'
_cell_volume   171.32565930
_cell_formula_units_Z   1
loop_
 _symmetry_equiv_pos_site_id
 _symmetry_equiv_pos_as_xyz
  1  'x, y, z'
loop_
 _atom_site_type_symbol
 _atom_site_label
 _atom_site_symmetry_multiplicity
 _atom_site_fract_x
 _atom_site_fract_y
 _atom_site_fract_z
 _atom_site_occupancy
  Pa  Pa0  1  0.418940  0.996239  0.500000  1
  Pa  Pa1  1  0.996239  0.418940  0.500000  1
  Ga  Ga2  1  0.598953  0.598953  0.500000  1
  Ga  Ga3  1  0.752227  0.996812  0.000000  1
  Ga  Ga4  1  0.996812  0.752227  0.000000  1
  Ga  Ga5  1  0.239200  0.239200  0.000000  1
  Pt  Pt6  1  0.342545  0.663709  0.000000  1
  Pt  Pt7  1  0.663709  0.342545  0.000000  1
  Pt  Pt8  1  0.991377  0.991377  0.500000  1
