# generated using pymatgen
data_Hf6Ga6Os2Pt3Au
_symmetry_space_group_name_H-M   'P 1'
_cell_length_a   7.36995900
_cell_length_b   7.36995813
_cell_length_c   6.63814500
_cell_angle_alpha   90.00000000
_cell_angle_beta   90.00000000
_cell_angle_gamma   119.99999943
_symmetry_Int_Tables_number   1
_chemical_formula_structural   Hf6Ga6Os2Pt3Au
_chemical_formula_sum   'Hf6 Ga6 Os2 Pt3 Au1'
_cell_volume   312.25360505
_cell_formula_units_Z   1
loop_
 _symmetry_equiv_pos_site_id
 _symmetry_equiv_pos_as_xyz
  1  'x, y, z'
loop_
 _atom_site_type_symbol
 _atom_site_label
 _atom_site_symmetry_multiplicity
 _atom_site_fract_x
 _atom_site_fract_y
 _atom_site_fract_z
 _atom_site_occupancy
  Hf  Hf0  1  0.599700  0.609493  0.250000  1
  Hf  Hf1  1  0.011013  0.392280  0.750000  1
  Hf  Hf2  1  0.390507  0.990207  0.250000  1
  Hf  Hf3  1  0.009793  0.400300  0.250000  1
  Hf  Hf4  1  0.381267  0.988987  0.750000  1
  Hf  Hf5  1  0.607720  0.618733  0.750000  1
  Ga  Ga6  1  0.279883  0.278491  0.504211  1
  Ga  Ga7  1  0.721509  0.001392  0.504211  1
  Ga  Ga8  1  0.998608  0.720117  0.504211  1
  Ga  Ga9  1  0.721509  0.001392  0.995789  1
  Ga  Ga10  1  0.279883  0.278491  0.995789  1
  Ga  Ga11  1  0.998608  0.720117  0.995789  1
  Os  Os12  1  0.333333  0.666667  0.499312  1
  Os  Os13  1  0.333333  0.666667  0.000688  1
  Pt  Pt14  1  0.000000  0.000000  0.750000  1
  Pt  Pt15  1  0.666667  0.333333  0.502349  1
  Pt  Pt16  1  0.666667  0.333333  0.997651  1
  Au  Au17  1  0.000000  0.000000  0.250000  1
