# generated using pymatgen
data_Ac8Cd2OsRu
_symmetry_space_group_name_H-M   'P 1'
_cell_length_a   10.53016266
_cell_length_b   10.53016259
_cell_length_c   10.56387900
_cell_angle_alpha   59.89402258
_cell_angle_beta   59.89402280
_cell_angle_gamma   59.82460217
_symmetry_Int_Tables_number   1
_chemical_formula_structural   Ac8Cd2OsRu
_chemical_formula_sum   'Ac16 Cd4 Os2 Ru2'
_cell_volume   825.85517274
_cell_formula_units_Z   2
loop_
 _symmetry_equiv_pos_site_id
 _symmetry_equiv_pos_as_xyz
  1  'x, y, z'
loop_
 _atom_site_type_symbol
 _atom_site_label
 _atom_site_symmetry_multiplicity
 _atom_site_fract_x
 _atom_site_fract_y
 _atom_site_fract_z
 _atom_site_occupancy
  Ac  Ac0  1  0.905953  0.905953  0.903840  1
  Ac  Ac1  1  0.438407  0.438407  0.061593  1
  Ac  Ac2  1  0.060932  0.060932  0.439068  1
  Ac  Ac3  1  0.438839  0.060441  0.061919  1
  Ac  Ac4  1  0.310465  0.690567  0.309759  1
  Ac  Ac5  1  0.687834  0.687834  0.312166  1
  Ac  Ac6  1  0.690567  0.310465  0.309759  1
  Ac  Ac7  1  0.285615  0.905766  0.904310  1
  Ac  Ac8  1  0.905766  0.285615  0.904310  1
  Ac  Ac9  1  0.310465  0.690567  0.689208  1
  Ac  Ac10  1  0.905953  0.905953  0.284256  1
  Ac  Ac11  1  0.060441  0.438839  0.061919  1
  Ac  Ac12  1  0.307966  0.307966  0.692034  1
  Ac  Ac13  1  0.060441  0.438839  0.438801  1
  Ac  Ac14  1  0.438839  0.060441  0.438801  1
  Ac  Ac15  1  0.690567  0.310465  0.689208  1
  Cd  Cd16  1  0.672027  0.672027  0.984716  1
  Cd  Cd17  1  0.985080  0.672019  0.671449  1
  Cd  Cd18  1  0.672019  0.985080  0.671449  1
  Cd  Cd19  1  0.672027  0.672027  0.671228  1
  Os  Os20  1  0.111993  0.111993  0.666243  1
  Os  Os21  1  0.111993  0.111993  0.109770  1
  Ru  Ru22  1  0.114090  0.661719  0.112094  1
  Ru  Ru23  1  0.661719  0.114090  0.112094  1
