# generated using pymatgen
data_YHo3(CI)2
_symmetry_space_group_name_H-M   'P 1'
_cell_length_a   3.75221700
_cell_length_b   3.75221741
_cell_length_c   14.72972300
_cell_angle_alpha   90.00000000
_cell_angle_beta   90.00000000
_cell_angle_gamma   119.99998760
_symmetry_Int_Tables_number   1
_chemical_formula_structural   YHo3(CI)2
_chemical_formula_sum   'Y1 Ho3 C2 I2'
_cell_volume   179.59788015
_cell_formula_units_Z   1
loop_
 _symmetry_equiv_pos_site_id
 _symmetry_equiv_pos_as_xyz
  1  'x, y, z'
loop_
 _atom_site_type_symbol
 _atom_site_label
 _atom_site_symmetry_multiplicity
 _atom_site_fract_x
 _atom_site_fract_y
 _atom_site_fract_z
 _atom_site_occupancy
  Y  Y0  1  0.333333  0.666667  0.914699  1
  Ho  Ho1  1  0.333333  0.666667  0.584469  1
  Ho  Ho2  1  0.666667  0.333333  0.414739  1
  Ho  Ho3  1  0.666667  0.333333  0.085816  1
  C  C4  1  0.000000  0.000000  0.002400  1
  C  C5  1  0.000000  0.000000  0.499448  1
  I  I6  1  0.333333  0.666667  0.250584  1
  I  I7  1  0.666667  0.333333  0.747844  1
