# generated using pymatgen
data_YPa3(VB4)4
_symmetry_space_group_name_H-M   'P 1'
_cell_length_a   3.57267300
_cell_length_b   5.96599274
_cell_length_c   11.54373824
_cell_angle_alpha   89.87167508
_cell_angle_beta   90.00000000
_cell_angle_gamma   90.00000000
_symmetry_Int_Tables_number   1
_chemical_formula_structural   YPa3(VB4)4
_chemical_formula_sum   'Y1 Pa3 V4 B16'
_cell_volume   246.04886697
_cell_formula_units_Z   1
loop_
 _symmetry_equiv_pos_site_id
 _symmetry_equiv_pos_as_xyz
  1  'x, y, z'
loop_
 _atom_site_type_symbol
 _atom_site_label
 _atom_site_symmetry_multiplicity
 _atom_site_fract_x
 _atom_site_fract_y
 _atom_site_fract_z
 _atom_site_occupancy
  Y  Y0  1  0.000000  0.875203  0.849126  1
  Pa  Pa1  1  0.000000  0.624844  0.349050  1
  Pa  Pa2  1  0.000000  0.374265  0.651541  1
  Pa  Pa3  1  0.000000  0.124977  0.150446  1
  V  V4  1  0.000000  0.626331  0.083847  1
  V  V5  1  0.000000  0.374110  0.917770  1
  V  V6  1  0.000000  0.127038  0.416561  1
  V  V7  1  0.000000  0.872792  0.581938  1
  B  B8  1  0.500000  0.785074  0.184851  1
  B  B9  1  0.500000  0.217135  0.814617  1
  B  B10  1  0.500000  0.283786  0.314559  1
  B  B11  1  0.500000  0.715682  0.684589  1
  B  B12  1  0.500000  0.864687  0.033326  1
  B  B13  1  0.500000  0.136675  0.967736  1
  B  B14  1  0.500000  0.363865  0.467342  1
  B  B15  1  0.500000  0.635985  0.533049  1
  B  B16  1  0.500000  0.887120  0.453835  1
  B  B17  1  0.500000  0.112837  0.546620  1
  B  B18  1  0.500000  0.387162  0.045970  1
  B  B19  1  0.500000  0.614438  0.953551  1
  B  B20  1  0.500000  0.974273  0.308267  1
  B  B21  1  0.500000  0.025806  0.691403  1
  B  B22  1  0.500000  0.473817  0.191601  1
  B  B23  1  0.500000  0.522099  0.808404  1
