# generated using pymatgen
data_SmZr3F15
_symmetry_space_group_name_H-M   'P 1'
_cell_length_a   7.47441577
_cell_length_b   7.47441562
_cell_length_c   7.47441565
_cell_angle_alpha   112.72062243
_cell_angle_beta   112.72062023
_cell_angle_gamma   112.72062697
_symmetry_Int_Tables_number   1
_chemical_formula_structural   SmZr3F15
_chemical_formula_sum   'Sm1 Zr3 F15'
_cell_volume   276.11056355
_cell_formula_units_Z   1
loop_
 _symmetry_equiv_pos_site_id
 _symmetry_equiv_pos_as_xyz
  1  'x, y, z'
loop_
 _atom_site_type_symbol
 _atom_site_label
 _atom_site_symmetry_multiplicity
 _atom_site_fract_x
 _atom_site_fract_y
 _atom_site_fract_z
 _atom_site_occupancy
  Sm  Sm0  1  0.491685  0.491685  0.491685  1
  Zr  Zr1  1  0.853672  0.282980  0.853672  1
  Zr  Zr2  1  0.282980  0.853672  0.853672  1
  Zr  Zr3  1  0.853672  0.853672  0.282980  1
  F  F4  1  0.600497  0.930518  0.144169  1
  F  F5  1  0.930518  0.144169  0.600497  1
  F  F6  1  0.144169  0.600497  0.930518  1
  F  F7  1  0.930518  0.600497  0.144169  1
  F  F8  1  0.596489  0.596489  0.258844  1
  F  F9  1  0.258844  0.596489  0.596489  1
  F  F10  1  0.596489  0.258844  0.596489  1
  F  F11  1  0.141013  0.141013  0.361892  1
  F  F12  1  0.361892  0.141013  0.141013  1
  F  F13  1  0.141013  0.361892  0.141013  1
  F  F14  1  0.675249  0.675249  0.908550  1
  F  F15  1  0.908550  0.675249  0.675249  1
  F  F16  1  0.675249  0.908550  0.675249  1
  F  F17  1  0.144169  0.930518  0.600497  1
  F  F18  1  0.600497  0.144169  0.930518  1
