# generated using pymatgen
data_Tb3Dy2Pb3Cl
_symmetry_space_group_name_H-M   'P 1'
_cell_length_a   9.23162700
_cell_length_b   9.23162805
_cell_length_c   6.62880900
_cell_angle_alpha   90.00000000
_cell_angle_beta   90.00000000
_cell_angle_gamma   119.99999266
_symmetry_Int_Tables_number   1
_chemical_formula_structural   Tb3Dy2Pb3Cl
_chemical_formula_sum   'Tb6 Dy4 Pb6 Cl2'
_cell_volume   489.24085461
_cell_formula_units_Z   2
loop_
 _symmetry_equiv_pos_site_id
 _symmetry_equiv_pos_as_xyz
  1  'x, y, z'
loop_
 _atom_site_type_symbol
 _atom_site_label
 _atom_site_symmetry_multiplicity
 _atom_site_fract_x
 _atom_site_fract_y
 _atom_site_fract_z
 _atom_site_occupancy
  Tb  Tb0  1  0.260554  0.000000  0.250000  1
  Tb  Tb1  1  0.739446  0.000000  0.750000  1
  Tb  Tb2  1  0.000000  0.260554  0.250000  1
  Tb  Tb3  1  0.000000  0.739446  0.750000  1
  Tb  Tb4  1  0.739446  0.739446  0.250000  1
  Tb  Tb5  1  0.260554  0.260554  0.750000  1
  Dy  Dy6  1  0.333333  0.666667  0.000000  1
  Dy  Dy7  1  0.666667  0.333333  0.000000  1
  Dy  Dy8  1  0.666667  0.333333  0.500000  1
  Dy  Dy9  1  0.333333  0.666667  0.500000  1
  Pb  Pb10  1  0.610554  0.000000  0.250000  1
  Pb  Pb11  1  0.389446  0.000000  0.750000  1
  Pb  Pb12  1  0.000000  0.610554  0.250000  1
  Pb  Pb13  1  0.000000  0.389446  0.750000  1
  Pb  Pb14  1  0.389446  0.389446  0.250000  1
  Pb  Pb15  1  0.610554  0.610554  0.750000  1
  Cl  Cl16  1  0.000000  0.000000  0.000000  1
  Cl  Cl17  1  0.000000  0.000000  0.500000  1
