# generated using pymatgen
data_BaLaPrS4
_symmetry_space_group_name_H-M   'P 1'
_cell_length_a   4.19133100
_cell_length_b   12.54099100
_cell_length_c   15.01679900
_cell_angle_alpha   90.00000000
_cell_angle_beta   90.00000000
_cell_angle_gamma   90.00000000
_symmetry_Int_Tables_number   1
_chemical_formula_structural   BaLaPrS4
_chemical_formula_sum   'Ba4 La4 Pr4 S16'
_cell_volume   789.33467854
_cell_formula_units_Z   4
loop_
 _symmetry_equiv_pos_site_id
 _symmetry_equiv_pos_as_xyz
  1  'x, y, z'
loop_
 _atom_site_type_symbol
 _atom_site_label
 _atom_site_symmetry_multiplicity
 _atom_site_fract_x
 _atom_site_fract_y
 _atom_site_fract_z
 _atom_site_occupancy
  Ba  Ba0  1  0.250000  0.756196  0.338938  1
  Ba  Ba1  1  0.250000  0.256196  0.161062  1
  Ba  Ba2  1  0.750000  0.243804  0.661062  1
  Ba  Ba3  1  0.750000  0.743804  0.838938  1
  La  La4  1  0.250000  0.419749  0.896782  1
  La  La5  1  0.250000  0.919749  0.603218  1
  La  La6  1  0.750000  0.580251  0.103218  1
  La  La7  1  0.750000  0.080251  0.396782  1
  Pr  Pr8  1  0.250000  0.427988  0.392131  1
  Pr  Pr9  1  0.250000  0.927988  0.107869  1
  Pr  Pr10  1  0.750000  0.572012  0.607869  1
  Pr  Pr11  1  0.750000  0.072012  0.892131  1
  S  S12  1  0.250000  0.206632  0.825415  1
  S  S13  1  0.250000  0.706632  0.674585  1
  S  S14  1  0.750000  0.793368  0.174585  1
  S  S15  1  0.750000  0.293368  0.325415  1
  S  S16  1  0.250000  0.130741  0.525812  1
  S  S17  1  0.250000  0.630741  0.974188  1
  S  S18  1  0.750000  0.869259  0.474188  1
  S  S19  1  0.750000  0.369259  0.025812  1
  S  S20  1  0.250000  0.520710  0.218062  1
  S  S21  1  0.250000  0.020710  0.281938  1
  S  S22  1  0.750000  0.479290  0.781938  1
  S  S23  1  0.750000  0.979290  0.718062  1
  S  S24  1  0.250000  0.418068  0.579844  1
  S  S25  1  0.250000  0.918068  0.920156  1
  S  S26  1  0.750000  0.581932  0.420156  1
  S  S27  1  0.750000  0.081932  0.079844  1
