# generated using pymatgen
data_Ti6AlSi3(RhC)2
_symmetry_space_group_name_H-M   'P 1'
_cell_length_a   8.08486074
_cell_length_b   8.07756736
_cell_length_c   8.07756730
_cell_angle_alpha   59.95597677
_cell_angle_beta   59.97012730
_cell_angle_gamma   59.97012631
_symmetry_Int_Tables_number   1
_chemical_formula_structural   Ti6AlSi3(RhC)2
_chemical_formula_sum   'Ti12 Al2 Si6 Rh4 C4'
_cell_volume   372.71588537
_cell_formula_units_Z   2
loop_
 _symmetry_equiv_pos_site_id
 _symmetry_equiv_pos_as_xyz
  1  'x, y, z'
loop_
 _atom_site_type_symbol
 _atom_site_label
 _atom_site_symmetry_multiplicity
 _atom_site_fract_x
 _atom_site_fract_y
 _atom_site_fract_z
 _atom_site_occupancy
  Ti  Ti0  1  0.938725  0.938574  0.565756  1
  Ti  Ti1  1  0.688809  0.311365  0.311018  1
  Ti  Ti2  1  0.311321  0.684970  0.692388  1
  Ti  Ti3  1  0.693055  0.684244  0.311426  1
  Ti  Ti4  1  0.689340  0.311691  0.687887  1
  Ti  Ti5  1  0.311275  0.684244  0.311426  1
  Ti  Ti6  1  0.556945  0.938574  0.565756  1
  Ti  Ti7  1  0.561191  0.938982  0.938635  1
  Ti  Ti8  1  0.938679  0.557612  0.565030  1
  Ti  Ti9  1  0.938917  0.562113  0.938309  1
  Ti  Ti10  1  0.311083  0.311691  0.687887  1
  Ti  Ti11  1  0.560660  0.562113  0.938309  1
  Al  Al12  1  0.916023  0.915769  0.252185  1
  Al  Al13  1  0.333977  0.997815  0.334231  1
  Si  Si14  1  0.911396  0.261571  0.915637  1
  Si  Si15  1  0.338604  0.334363  0.988429  1
  Si  Si16  1  0.991960  0.333255  0.337392  1
  Si  Si17  1  0.337392  0.333255  0.337392  1
  Si  Si18  1  0.258040  0.912608  0.916745  1
  Si  Si19  1  0.912608  0.912608  0.916745  1
  Rh  Rh20  1  0.129097  0.618893  0.122913  1
  Rh  Rh21  1  0.120903  0.127087  0.631107  1
  Rh  Rh22  1  0.625000  0.132143  0.117857  1
  Rh  Rh23  1  0.125000  0.132143  0.117857  1
  C  C24  1  0.625288  0.125012  0.624412  1
  C  C25  1  0.624712  0.625588  0.124988  1
  C  C26  1  0.125000  0.625859  0.624141  1
  C  C27  1  0.625000  0.625859  0.624141  1
