# generated using pymatgen
data_Pr8Hf11Si16Ag
_symmetry_space_group_name_H-M   'P 1'
_cell_length_a   7.18933975
_cell_length_b   7.44078531
_cell_length_c   14.03854900
_cell_angle_alpha   90.00000000
_cell_angle_beta   90.00000000
_cell_angle_gamma   90.31802737
_symmetry_Int_Tables_number   1
_chemical_formula_structural   Pr8Hf11Si16Ag
_chemical_formula_sum   'Pr8 Hf11 Si16 Ag1'
_cell_volume   750.97125514
_cell_formula_units_Z   1
loop_
 _symmetry_equiv_pos_site_id
 _symmetry_equiv_pos_as_xyz
  1  'x, y, z'
loop_
 _atom_site_type_symbol
 _atom_site_label
 _atom_site_symmetry_multiplicity
 _atom_site_fract_x
 _atom_site_fract_y
 _atom_site_fract_z
 _atom_site_occupancy
  Pr  Pr0  1  0.011584  0.172104  0.403879  1
  Pr  Pr1  1  0.509631  0.329845  0.402023  1
  Pr  Pr2  1  0.490882  0.676078  0.901088  1
  Pr  Pr3  1  0.490882  0.676078  0.598912  1
  Pr  Pr4  1  0.980358  0.828219  0.600349  1
  Pr  Pr5  1  0.980358  0.828219  0.899651  1
  Pr  Pr6  1  0.509631  0.329845  0.097977  1
  Pr  Pr7  1  0.011584  0.172104  0.096121  1
  Hf  Hf8  1  0.339238  0.175781  0.625189  1
  Hf  Hf9  1  0.670166  0.822101  0.374375  1
  Hf  Hf10  1  0.169245  0.677350  0.375722  1
  Hf  Hf11  1  0.826949  0.316391  0.875285  1
  Hf  Hf12  1  0.826949  0.316391  0.624715  1
  Hf  Hf13  1  0.841289  0.507236  0.250000  1
  Hf  Hf14  1  0.340929  0.990668  0.250000  1
  Hf  Hf15  1  0.339238  0.175781  0.874811  1
  Hf  Hf16  1  0.169245  0.677350  0.124278  1
  Hf  Hf17  1  0.670166  0.822101  0.125625  1
  Hf  Hf18  1  0.160726  0.493876  0.750000  1
  Si  Si19  1  0.277496  0.884842  0.750000  1
  Si  Si20  1  0.463986  0.627431  0.250000  1
  Si  Si21  1  0.044728  0.132478  0.750000  1
  Si  Si22  1  0.533741  0.384197  0.750000  1
  Si  Si23  1  0.155091  0.463652  0.544343  1
  Si  Si24  1  0.967084  0.873030  0.250000  1
  Si  Si25  1  0.712488  0.117051  0.250000  1
  Si  Si26  1  0.845722  0.535466  0.041500  1
  Si  Si27  1  0.344731  0.963914  0.041931  1
  Si  Si28  1  0.155091  0.463652  0.955657  1
  Si  Si29  1  0.656503  0.041161  0.532144  1
  Si  Si30  1  0.344731  0.963914  0.458069  1
  Si  Si31  1  0.845722  0.535466  0.458500  1
  Si  Si32  1  0.793955  0.598508  0.750000  1
  Si  Si33  1  0.211098  0.384274  0.250000  1
  Si  Si34  1  0.656503  0.041161  0.967856  1
  Ag  Ag35  1  0.652276  0.002288  0.750000  1
