# generated using pymatgen
data_Ho6CuRh17
_symmetry_space_group_name_H-M   'P 1'
_cell_length_a   5.25292209
_cell_length_b   5.25342837
_cell_length_c   17.42212400
_cell_angle_alpha   90.00000000
_cell_angle_beta   90.00000000
_cell_angle_gamma   119.99121417
_symmetry_Int_Tables_number   1
_chemical_formula_structural   Ho6CuRh17
_chemical_formula_sum   'Ho6 Cu1 Rh17'
_cell_volume   416.40309515
_cell_formula_units_Z   1
loop_
 _symmetry_equiv_pos_site_id
 _symmetry_equiv_pos_as_xyz
  1  'x, y, z'
loop_
 _atom_site_type_symbol
 _atom_site_label
 _atom_site_symmetry_multiplicity
 _atom_site_fract_x
 _atom_site_fract_y
 _atom_site_fract_z
 _atom_site_occupancy
  Ho  Ho0  1  0.333329  0.666696  0.957760  1
  Ho  Ho1  1  0.666668  0.333320  0.041680  1
  Ho  Ho2  1  0.666668  0.333320  0.458320  1
  Ho  Ho3  1  0.333329  0.666696  0.542240  1
  Ho  Ho4  1  0.333330  0.666654  0.750000  1
  Ho  Ho5  1  0.666674  0.333320  0.250000  1
  Cu  Cu6  1  0.333362  0.666676  0.250000  1
  Rh  Rh7  1  0.168970  0.831022  0.373580  1
  Rh  Rh8  1  0.168960  0.337909  0.373565  1
  Rh  Rh9  1  0.662068  0.831021  0.373579  1
  Rh  Rh10  1  0.832646  0.167341  0.624678  1
  Rh  Rh11  1  0.832654  0.665325  0.624690  1
  Rh  Rh12  1  0.334680  0.167342  0.624683  1
  Rh  Rh13  1  0.832646  0.167341  0.875322  1
  Rh  Rh14  1  0.832654  0.665325  0.875310  1
  Rh  Rh15  1  0.334680  0.167342  0.875317  1
  Rh  Rh16  1  0.168970  0.831022  0.126420  1
  Rh  Rh17  1  0.168960  0.337909  0.126435  1
  Rh  Rh18  1  0.662068  0.831021  0.126421  1
  Rh  Rh19  1  0.666678  0.333356  0.750000  1
  Rh  Rh20  1  0.999988  0.999982  0.250000  1
  Rh  Rh21  1  0.000004  0.000006  0.750000  1
  Rh  Rh22  1  0.000005  0.000027  0.497600  1
  Rh  Rh23  1  0.000005  0.000027  0.002400  1
