# generated using pymatgen
data_Lu3Ni19P6Ru
_symmetry_space_group_name_H-M   'P 1'
_cell_length_a   7.94831004
_cell_length_b   7.94831052
_cell_length_c   7.98935658
_cell_angle_alpha   60.16981076
_cell_angle_beta   60.16980940
_cell_angle_gamma   60.00000527
_symmetry_Int_Tables_number   1
_chemical_formula_structural   Lu3Ni19P6Ru
_chemical_formula_sum   'Lu3 Ni19 P6 Ru1'
_cell_volume   357.81322505
_cell_formula_units_Z   1
loop_
 _symmetry_equiv_pos_site_id
 _symmetry_equiv_pos_as_xyz
  1  'x, y, z'
loop_
 _atom_site_type_symbol
 _atom_site_label
 _atom_site_symmetry_multiplicity
 _atom_site_fract_x
 _atom_site_fract_y
 _atom_site_fract_z
 _atom_site_occupancy
  Lu  Lu0  1  0.000078  0.000078  0.999766  1
  Lu  Lu1  1  0.248068  0.248068  0.255795  1
  Lu  Lu2  1  0.748697  0.748697  0.753910  1
  Ni  Ni3  1  0.619287  0.619287  0.606688  1
  Ni  Ni4  1  0.996711  0.351174  0.000250  1
  Ni  Ni5  1  0.351174  0.996711  0.000250  1
  Ni  Ni6  1  0.999083  0.354273  0.647561  1
  Ni  Ni7  1  0.840538  0.385937  0.387587  1
  Ni  Ni8  1  0.354273  0.999083  0.647561  1
  Ni  Ni9  1  0.996272  0.996272  0.354246  1
  Ni  Ni10  1  0.651865  0.351174  0.000250  1
  Ni  Ni11  1  0.996272  0.653210  0.354246  1
  Ni  Ni12  1  0.999083  0.999083  0.647561  1
  Ni  Ni13  1  0.351174  0.651865  0.000250  1
  Ni  Ni14  1  0.651865  0.996711  0.000250  1
  Ni  Ni15  1  0.996711  0.651865  0.000250  1
  Ni  Ni16  1  0.385937  0.840539  0.387588  1
  Ni  Ni17  1  0.612427  0.612428  0.162719  1
  Ni  Ni18  1  0.619286  0.154740  0.606688  1
  Ni  Ni19  1  0.154740  0.619287  0.606689  1
  Ni  Ni20  1  0.385936  0.385937  0.387587  1
  Ni  Ni21  1  0.653210  0.996272  0.354246  1
  P  P22  1  0.262013  0.262013  0.735109  1
  P  P23  1  0.736828  0.736828  0.261804  1
  P  P24  1  0.736828  0.264540  0.261804  1
  P  P25  1  0.262013  0.740866  0.735109  1
  P  P26  1  0.264540  0.736828  0.261804  1
  P  P27  1  0.740866  0.262013  0.735109  1
  Ru  Ru28  1  0.384225  0.384225  0.847324  1
