# generated using pymatgen
data_Sm2Re9Tc8C3
_symmetry_space_group_name_H-M   'P 1'
_cell_length_a   7.04237347
_cell_length_b   7.04237226
_cell_length_c   7.04237408
_cell_angle_alpha   82.75980872
_cell_angle_beta   82.75980012
_cell_angle_gamma   82.75980504
_symmetry_Int_Tables_number   1
_chemical_formula_structural   Sm2Re9Tc8C3
_chemical_formula_sum   'Sm2 Re9 Tc8 C3'
_cell_volume   341.55947348
_cell_formula_units_Z   1
loop_
 _symmetry_equiv_pos_site_id
 _symmetry_equiv_pos_as_xyz
  1  'x, y, z'
loop_
 _atom_site_type_symbol
 _atom_site_label
 _atom_site_symmetry_multiplicity
 _atom_site_fract_x
 _atom_site_fract_y
 _atom_site_fract_z
 _atom_site_occupancy
  Sm  Sm0  1  0.651645  0.651645  0.651645  1
  Sm  Sm1  1  0.348355  0.348355  0.348355  1
  Re  Re2  1  0.000000  0.000000  0.500000  1
  Re  Re3  1  0.500000  0.000000  0.000000  1
  Re  Re4  1  0.000000  0.500000  0.000000  1
  Re  Re5  1  0.720687  0.279313  0.000000  1
  Re  Re6  1  0.000000  0.720687  0.279313  1
  Re  Re7  1  0.279313  0.000000  0.720687  1
  Re  Re8  1  0.000000  0.279313  0.720687  1
  Re  Re9  1  0.720687  0.000000  0.279313  1
  Re  Re10  1  0.279313  0.720687  0.000000  1
  Tc  Tc11  1  0.348371  0.348371  0.864769  1
  Tc  Tc12  1  0.864769  0.348371  0.348371  1
  Tc  Tc13  1  0.348371  0.864769  0.348371  1
  Tc  Tc14  1  0.651629  0.651629  0.135231  1
  Tc  Tc15  1  0.135231  0.651629  0.651629  1
  Tc  Tc16  1  0.651629  0.135231  0.651629  1
  Tc  Tc17  1  0.902918  0.902918  0.902918  1
  Tc  Tc18  1  0.097082  0.097082  0.097082  1
  C  C19  1  0.500000  0.500000  0.000000  1
  C  C20  1  0.000000  0.500000  0.500000  1
  C  C21  1  0.500000  0.000000  0.500000  1
