# generated using pymatgen
data_Cs2LiTiBr6
_symmetry_space_group_name_H-M   'P 1'
_cell_length_a   7.79098300
_cell_length_b   7.79098258
_cell_length_c   6.43917800
_cell_angle_alpha   90.00000000
_cell_angle_beta   90.00000000
_cell_angle_gamma   119.99999755
_symmetry_Int_Tables_number   1
_chemical_formula_structural   Cs2LiTiBr6
_chemical_formula_sum   'Cs2 Li1 Ti1 Br6'
_cell_volume   338.48978182
_cell_formula_units_Z   1
loop_
 _symmetry_equiv_pos_site_id
 _symmetry_equiv_pos_as_xyz
  1  'x, y, z'
loop_
 _atom_site_type_symbol
 _atom_site_label
 _atom_site_symmetry_multiplicity
 _atom_site_fract_x
 _atom_site_fract_y
 _atom_site_fract_z
 _atom_site_occupancy
  Cs  Cs0  1  0.333333  0.666667  0.747648  1
  Cs  Cs1  1  0.666667  0.333333  0.252352  1
  Li  Li2  1  0.000000  0.000000  0.000000  1
  Ti  Ti3  1  0.000000  0.000000  0.500000  1
  Br  Br4  1  0.843010  0.686020  0.736511  1
  Br  Br5  1  0.843010  0.156990  0.736511  1
  Br  Br6  1  0.156990  0.313980  0.263489  1
  Br  Br7  1  0.313980  0.156990  0.736511  1
  Br  Br8  1  0.686020  0.843010  0.263489  1
  Br  Br9  1  0.156990  0.843010  0.263489  1
