# generated using pymatgen
data_LiSmCo(PRh)3
_symmetry_space_group_name_H-M   'P 1'
_cell_length_a   3.86690100
_cell_length_b   10.74112000
_cell_length_c   12.57843800
_cell_angle_alpha   90.00000000
_cell_angle_beta   90.00000000
_cell_angle_gamma   90.00000000
_symmetry_Int_Tables_number   1
_chemical_formula_structural   LiSmCo(PRh)3
_chemical_formula_sum   'Li4 Sm4 Co4 P12 Rh12'
_cell_volume   522.44350625
_cell_formula_units_Z   4
loop_
 _symmetry_equiv_pos_site_id
 _symmetry_equiv_pos_as_xyz
  1  'x, y, z'
loop_
 _atom_site_type_symbol
 _atom_site_label
 _atom_site_symmetry_multiplicity
 _atom_site_fract_x
 _atom_site_fract_y
 _atom_site_fract_z
 _atom_site_occupancy
  Li  Li0  1  0.250000  0.704500  0.988308  1
  Li  Li1  1  0.250000  0.795500  0.488308  1
  Li  Li2  1  0.750000  0.295500  0.011692  1
  Li  Li3  1  0.750000  0.204500  0.511692  1
  Sm  Sm4  1  0.250000  0.578790  0.706752  1
  Sm  Sm5  1  0.250000  0.921210  0.206752  1
  Sm  Sm6  1  0.750000  0.421210  0.293248  1
  Sm  Sm7  1  0.750000  0.078790  0.793248  1
  Co  Co8  1  0.250000  0.465815  0.936375  1
  Co  Co9  1  0.250000  0.034185  0.436375  1
  Co  Co10  1  0.750000  0.534185  0.063625  1
  Co  Co11  1  0.750000  0.965815  0.563625  1
  P  P12  1  0.250000  0.426961  0.107855  1
  P  P13  1  0.250000  0.073039  0.607855  1
  P  P14  1  0.750000  0.573039  0.892145  1
  P  P15  1  0.750000  0.926961  0.392145  1
  P  P16  1  0.250000  0.271476  0.864940  1
  P  P17  1  0.250000  0.228524  0.364940  1
  P  P18  1  0.750000  0.728524  0.135060  1
  P  P19  1  0.750000  0.771476  0.635060  1
  P  P20  1  0.250000  0.602553  0.389382  1
  P  P21  1  0.250000  0.897447  0.889382  1
  P  P22  1  0.750000  0.397447  0.610618  1
  P  P23  1  0.750000  0.102553  0.110618  1
  Rh  Rh24  1  0.250000  0.404136  0.479652  1
  Rh  Rh25  1  0.250000  0.095864  0.979652  1
  Rh  Rh26  1  0.750000  0.595864  0.520348  1
  Rh  Rh27  1  0.750000  0.904136  0.020348  1
  Rh  Rh28  1  0.250000  0.224607  0.173912  1
  Rh  Rh29  1  0.250000  0.275393  0.673912  1
  Rh  Rh30  1  0.750000  0.775393  0.826088  1
  Rh  Rh31  1  0.750000  0.724607  0.326088  1
  Rh  Rh32  1  0.250000  0.879230  0.693003  1
  Rh  Rh33  1  0.250000  0.620770  0.193003  1
  Rh  Rh34  1  0.750000  0.120770  0.306997  1
  Rh  Rh35  1  0.750000  0.379230  0.806997  1
