# generated using pymatgen
data_KMn(PO3)4
_symmetry_space_group_name_H-M   'P 1'
_cell_length_a   10.49891314
_cell_length_b   10.49891276
_cell_length_c   5.35358158
_cell_angle_alpha   80.34545341
_cell_angle_beta   80.34545571
_cell_angle_gamma   72.91086907
_symmetry_Int_Tables_number   1
_chemical_formula_structural   KMn(PO3)4
_chemical_formula_sum   'K2 Mn2 P8 O24'
_cell_volume   551.65844900
_cell_formula_units_Z   2
loop_
 _symmetry_equiv_pos_site_id
 _symmetry_equiv_pos_as_xyz
  1  'x, y, z'
loop_
 _atom_site_type_symbol
 _atom_site_label
 _atom_site_symmetry_multiplicity
 _atom_site_fract_x
 _atom_site_fract_y
 _atom_site_fract_z
 _atom_site_occupancy
  K  K0  1  0.404578  0.404578  0.730269  1
  K  K1  1  0.595422  0.595422  0.269731  1
  Mn  Mn2  1  0.500000  0.000000  0.000000  1
  Mn  Mn3  1  0.000000  0.500000  0.000000  1
  P  P4  1  0.800346  0.354451  0.831370  1
  P  P5  1  0.070060  0.307407  0.523662  1
  P  P6  1  0.307407  0.070060  0.523662  1
  P  P7  1  0.645549  0.199654  0.168630  1
  P  P8  1  0.354451  0.800346  0.831370  1
  P  P9  1  0.692593  0.929940  0.476338  1
  P  P10  1  0.929940  0.692593  0.476338  1
  P  P11  1  0.199654  0.645549  0.168630  1
  O  O12  1  0.427483  0.850174  0.003404  1
  O  O13  1  0.394422  0.108099  0.677401  1
  O  O14  1  0.429134  0.677686  0.713552  1
  O  O15  1  0.149826  0.572517  0.996596  1
  O  O16  1  0.572517  0.149826  0.996596  1
  O  O17  1  0.916346  0.658426  0.763858  1
  O  O18  1  0.215119  0.784881  0.000000  1
  O  O19  1  0.570866  0.322314  0.286448  1
  O  O20  1  0.605578  0.891901  0.322599  1
  O  O21  1  0.708060  0.077984  0.378787  1
  O  O22  1  0.322314  0.570866  0.286448  1
  O  O23  1  0.891901  0.605578  0.322599  1
  O  O24  1  0.850174  0.427483  0.003404  1
  O  O25  1  0.077984  0.708060  0.378787  1
  O  O26  1  0.152994  0.152994  0.584170  1
  O  O27  1  0.108099  0.394422  0.677401  1
  O  O28  1  0.677686  0.429134  0.713552  1
  O  O29  1  0.291940  0.922016  0.621213  1
  O  O30  1  0.784881  0.215119  0.000000  1
  O  O31  1  0.341574  0.083654  0.236142  1
  O  O32  1  0.658426  0.916346  0.763858  1
  O  O33  1  0.847006  0.847006  0.415830  1
  O  O34  1  0.922016  0.291940  0.621213  1
  O  O35  1  0.083654  0.341574  0.236142  1
