# generated using pymatgen
data_CaYbLuUN4
_symmetry_space_group_name_H-M   'P 1'
_cell_length_a   6.85270595
_cell_length_b   9.10270709
_cell_length_c   5.99163558
_cell_angle_alpha   29.13461060
_cell_angle_beta   55.12025053
_cell_angle_gamma   41.16470014
_symmetry_Int_Tables_number   1
_chemical_formula_structural   CaYbLuUN4
_chemical_formula_sum   'Ca1 Yb1 Lu1 U1 N4'
_cell_volume   115.40929496
_cell_formula_units_Z   1
loop_
 _symmetry_equiv_pos_site_id
 _symmetry_equiv_pos_as_xyz
  1  'x, y, z'
loop_
 _atom_site_type_symbol
 _atom_site_label
 _atom_site_symmetry_multiplicity
 _atom_site_fract_x
 _atom_site_fract_y
 _atom_site_fract_z
 _atom_site_occupancy
  Ca  Ca0  1  0.500000  0.000000  0.000000  1
  Yb  Yb1  1  0.750000  0.500000  0.000000  1
  Lu  Lu2  1  0.250000  0.500000  0.000000  1
  U  U3  1  0.000000  0.000000  0.000000  1
  N  N4  1  0.488782  0.500000  0.522435  1
  N  N5  1  0.217004  0.000000  0.565990  1
  N  N6  1  0.011218  0.500000  0.477565  1
  N  N7  1  0.782996  0.000000  0.434010  1
