# generated using pymatgen
data_Rb2Pu2O7
_symmetry_space_group_name_H-M   'P 1'
_cell_length_a   6.77858142
_cell_length_b   7.48451193
_cell_length_c   8.21903509
_cell_angle_alpha   105.94296116
_cell_angle_beta   89.77807055
_cell_angle_gamma   99.65030755
_symmetry_Int_Tables_number   1
_chemical_formula_structural   Rb2Pu2O7
_chemical_formula_sum   'Rb4 Pu4 O14'
_cell_volume   394.88332475
_cell_formula_units_Z   2
loop_
 _symmetry_equiv_pos_site_id
 _symmetry_equiv_pos_as_xyz
  1  'x, y, z'
loop_
 _atom_site_type_symbol
 _atom_site_label
 _atom_site_symmetry_multiplicity
 _atom_site_fract_x
 _atom_site_fract_y
 _atom_site_fract_z
 _atom_site_occupancy
  Rb  Rb0  1  0.239856  0.484146  0.624618  1
  Rb  Rb1  1  0.262591  0.488504  0.118578  1
  Rb  Rb2  1  0.760144  0.515854  0.375382  1
  Rb  Rb3  1  0.737409  0.511496  0.881422  1
  Pu  Pu4  1  0.038099  0.995594  0.245885  1
  Pu  Pu5  1  0.961901  0.004406  0.754115  1
  Pu  Pu6  1  0.500000  0.000000  0.000000  1
  Pu  Pu7  1  0.500000  0.000000  0.500000  1
  O  O8  1  0.072676  0.256254  0.311003  1
  O  O9  1  0.201406  0.016632  0.545864  1
  O  O10  1  0.008930  0.265487  0.819765  1
  O  O11  1  0.200224  0.018674  0.966178  1
  O  O12  1  0.562748  0.263795  0.078841  1
  O  O13  1  0.437252  0.736205  0.921159  1
  O  O14  1  0.393514  0.984236  0.245659  1
  O  O15  1  0.559043  0.263910  0.553608  1
  O  O16  1  0.440957  0.736090  0.446392  1
  O  O17  1  0.798594  0.983368  0.454136  1
  O  O18  1  0.606486  0.015764  0.754341  1
  O  O19  1  0.927324  0.743746  0.688997  1
  O  O20  1  0.799776  0.981326  0.033822  1
  O  O21  1  0.991070  0.734513  0.180235  1
