# generated using pymatgen
data_PaCr4MoP3
_symmetry_space_group_name_H-M   'P 1'
_cell_length_a   3.81886200
_cell_length_b   6.85689201
_cell_length_c   9.60275762
_cell_angle_alpha   81.39984663
_cell_angle_beta   90.00000000
_cell_angle_gamma   90.00000000
_symmetry_Int_Tables_number   1
_chemical_formula_structural   PaCr4MoP3
_chemical_formula_sum   'Pa2 Cr8 Mo2 P6'
_cell_volume   248.62589823
_cell_formula_units_Z   2
loop_
 _symmetry_equiv_pos_site_id
 _symmetry_equiv_pos_as_xyz
  1  'x, y, z'
loop_
 _atom_site_type_symbol
 _atom_site_label
 _atom_site_symmetry_multiplicity
 _atom_site_fract_x
 _atom_site_fract_y
 _atom_site_fract_z
 _atom_site_occupancy
  Pa  Pa0  1  0.250000  0.185283  0.218669  1
  Pa  Pa1  1  0.750000  0.814717  0.781331  1
  Cr  Cr2  1  0.250000  0.835979  0.509615  1
  Cr  Cr3  1  0.750000  0.164021  0.490385  1
  Cr  Cr4  1  0.250000  0.458723  0.928600  1
  Cr  Cr5  1  0.750000  0.541277  0.071400  1
  Cr  Cr6  1  0.250000  0.086255  0.903725  1
  Cr  Cr7  1  0.750000  0.913745  0.096275  1
  Cr  Cr8  1  0.250000  0.394328  0.488571  1
  Cr  Cr9  1  0.750000  0.605672  0.511429  1
  Mo  Mo10  1  0.250000  0.679986  0.276450  1
  Mo  Mo11  1  0.750000  0.320014  0.723550  1
  P  P12  1  0.250000  0.559107  0.684985  1
  P  P13  1  0.750000  0.440893  0.315015  1
  P  P14  1  0.250000  0.760998  0.013982  1
  P  P15  1  0.750000  0.239002  0.986018  1
  P  P16  1  0.250000  0.096765  0.651990  1
  P  P17  1  0.750000  0.903235  0.348010  1
