# generated using pymatgen
data_Nb6Co4Si7Ni12
_symmetry_space_group_name_H-M   'P 1'
_cell_length_a   7.95348801
_cell_length_b   7.96072399
_cell_length_c   7.96185900
_cell_angle_alpha   59.99528767
_cell_angle_beta   59.96518187
_cell_angle_gamma   59.96281110
_symmetry_Int_Tables_number   1
_chemical_formula_structural   Nb6Co4Si7Ni12
_chemical_formula_sum   'Nb6 Co4 Si7 Ni12'
_cell_volume   356.25229832
_cell_formula_units_Z   1
loop_
 _symmetry_equiv_pos_site_id
 _symmetry_equiv_pos_as_xyz
  1  'x, y, z'
loop_
 _atom_site_type_symbol
 _atom_site_label
 _atom_site_symmetry_multiplicity
 _atom_site_fract_x
 _atom_site_fract_y
 _atom_site_fract_z
 _atom_site_occupancy
  Nb  Nb0  1  0.796015  0.801962  0.201012  1
  Nb  Nb1  1  0.799849  0.202307  0.797503  1
  Nb  Nb2  1  0.205069  0.802080  0.198391  1
  Nb  Nb3  1  0.799849  0.202307  0.200341  1
  Nb  Nb4  1  0.205069  0.802080  0.794460  1
  Nb  Nb5  1  0.204463  0.199975  0.797781  1
  Co  Co6  1  0.163500  0.164828  0.504818  1
  Co  Co7  1  0.508521  0.162777  0.164352  1
  Co  Co8  1  0.163500  0.164828  0.166856  1
  Co  Co9  1  0.491708  0.833977  0.837157  1
  Si  Si10  1  0.499388  0.499489  0.500562  1
  Si  Si11  1  0.499131  0.001491  0.500297  1
  Si  Si12  1  0.001282  0.499665  0.999422  1
  Si  Si13  1  0.999400  0.000043  0.500278  1
  Si  Si14  1  0.499131  0.001491  0.999080  1
  Si  Si15  1  0.001282  0.499665  0.499632  1
  Si  Si16  1  0.499544  0.498969  0.000743  1
  Ni  Ni17  1  0.832243  0.830951  0.833111  1
  Ni  Ni18  1  0.832243  0.830951  0.503694  1
  Ni  Ni19  1  0.167314  0.494226  0.169231  1
  Ni  Ni20  1  0.618067  0.147128  0.617402  1
  Ni  Ni21  1  0.382565  0.382709  0.852371  1
  Ni  Ni22  1  0.850546  0.383580  0.382937  1
  Ni  Ni23  1  0.382565  0.382709  0.382355  1
  Ni  Ni24  1  0.149386  0.617279  0.616667  1
  Ni  Ni25  1  0.617617  0.616798  0.616763  1
  Ni  Ni26  1  0.617617  0.616798  0.148822  1
  Ni  Ni27  1  0.382289  0.853037  0.382337  1
  Ni  Ni28  1  0.830849  0.505900  0.831625  1
