# generated using pymatgen
data_Tb3CS2
_symmetry_space_group_name_H-M   'P 1'
_cell_length_a   6.76128082
_cell_length_b   6.76128095
_cell_length_c   6.76128016
_cell_angle_alpha   147.72693231
_cell_angle_beta   132.51168908
_cell_angle_gamma   58.58362761
_symmetry_Int_Tables_number   1
_chemical_formula_structural   Tb3CS2
_chemical_formula_sum   'Tb3 C1 S2'
_cell_volume   120.66881634
_cell_formula_units_Z   1
loop_
 _symmetry_equiv_pos_site_id
 _symmetry_equiv_pos_as_xyz
  1  'x, y, z'
loop_
 _atom_site_type_symbol
 _atom_site_label
 _atom_site_symmetry_multiplicity
 _atom_site_fract_x
 _atom_site_fract_y
 _atom_site_fract_z
 _atom_site_occupancy
  Tb  Tb0  1  0.857840  0.357840  0.500000  1
  Tb  Tb1  1  0.500000  0.000000  0.500000  1
  Tb  Tb2  1  0.142160  0.642160  0.500000  1
  C  C3  1  0.000000  0.000000  0.000000  1
  S  S4  1  0.672359  0.672359  0.000000  1
  S  S5  1  0.327641  0.327641  0.000000  1
