# generated using pymatgen
data_Ca2PtO4
_symmetry_space_group_name_H-M   'P 1'
_cell_length_a   3.26556900
_cell_length_b   5.77440100
_cell_length_c   9.65295500
_cell_angle_alpha   90.00000000
_cell_angle_beta   90.00000000
_cell_angle_gamma   90.00000000
_symmetry_Int_Tables_number   1
_chemical_formula_structural   Ca2PtO4
_chemical_formula_sum   'Ca4 Pt2 O8'
_cell_volume   182.02292384
_cell_formula_units_Z   2
loop_
 _symmetry_equiv_pos_site_id
 _symmetry_equiv_pos_as_xyz
  1  'x, y, z'
loop_
 _atom_site_type_symbol
 _atom_site_label
 _atom_site_symmetry_multiplicity
 _atom_site_fract_x
 _atom_site_fract_y
 _atom_site_fract_z
 _atom_site_occupancy
  Ca  Ca0  1  0.500000  0.075448  0.315385  1
  Ca  Ca1  1  0.500000  0.424552  0.815385  1
  Ca  Ca2  1  0.500000  0.575448  0.184615  1
  Ca  Ca3  1  0.500000  0.924552  0.684615  1
  Pt  Pt4  1  0.000000  0.000000  0.000000  1
  Pt  Pt5  1  0.000000  0.500000  0.500000  1
  O  O6  1  0.000000  0.139304  0.803471  1
  O  O7  1  0.500000  0.214490  0.046708  1
  O  O8  1  0.500000  0.285510  0.546708  1
  O  O9  1  0.000000  0.360696  0.303471  1
  O  O10  1  0.000000  0.639304  0.696529  1
  O  O11  1  0.500000  0.714490  0.453292  1
  O  O12  1  0.500000  0.785510  0.953292  1
  O  O13  1  0.000000  0.860696  0.196529  1
