# generated using pymatgen
data_GdTh5H8Br15
_symmetry_space_group_name_H-M   'P 1'
_cell_length_a   9.96726459
_cell_length_b   9.96684057
_cell_length_c   9.96844111
_cell_angle_alpha   109.24718040
_cell_angle_beta   109.28709970
_cell_angle_gamma   109.87304306
_symmetry_Int_Tables_number   1
_chemical_formula_structural   GdTh5H8Br15
_chemical_formula_sum   'Gd1 Th5 H8 Br15'
_cell_volume   762.36091496
_cell_formula_units_Z   1
loop_
 _symmetry_equiv_pos_site_id
 _symmetry_equiv_pos_as_xyz
  1  'x, y, z'
loop_
 _atom_site_type_symbol
 _atom_site_label
 _atom_site_symmetry_multiplicity
 _atom_site_fract_x
 _atom_site_fract_y
 _atom_site_fract_z
 _atom_site_occupancy
  Gd  Gd0  1  0.235847  0.235813  0.000050  1
  Th  Th1  1  0.757293  0.757264  0.999944  1
  Th  Th2  1  0.241639  0.002936  0.238591  1
  Th  Th3  1  0.003020  0.241717  0.238660  1
  Th  Th4  1  0.764361  0.002974  0.761319  1
  Th  Th5  1  0.002968  0.764340  0.761388  1
  H  H6  1  0.178678  0.999292  0.000089  1
  H  H7  1  0.820471  0.999360  0.999985  1
  H  H8  1  0.999383  0.178638  0.000011  1
  H  H9  1  0.999362  0.820411  0.999998  1
  H  H10  1  0.999343  0.999352  0.178886  1
  H  H11  1  0.178596  0.178681  0.179262  1
  H  H12  1  0.999272  0.999298  0.820705  1
  H  H13  1  0.820402  0.820384  0.821059  1
  Br  Br14  1  0.745127  0.254422  0.999990  1
  Br  Br15  1  0.501224  0.501190  0.999988  1
  Br  Br16  1  0.254385  0.744981  0.999939  1
  Br  Br17  1  0.744662  0.999174  0.254568  1
  Br  Br18  1  0.999177  0.744648  0.254533  1
  Br  Br19  1  0.508853  0.255309  0.253702  1
  Br  Br20  1  0.255279  0.509075  0.253790  1
  Br  Br21  1  0.745081  0.745069  0.490661  1
  Br  Br22  1  0.499948  0.999923  0.499999  1
  Br  Br23  1  0.999918  0.499882  0.499992  1
  Br  Br24  1  0.254308  0.254363  0.509213  1
  Br  Br25  1  0.255170  0.001700  0.746527  1
  Br  Br26  1  0.001510  0.255205  0.746343  1
  Br  Br27  1  0.744651  0.490030  0.745413  1
  Br  Br28  1  0.490078  0.744576  0.745399  1
