# generated using pymatgen
data_Nd4HoRh2
_symmetry_space_group_name_H-M   'P 1'
_cell_length_a   6.59473266
_cell_length_b   7.22657969
_cell_length_c   8.96093438
_cell_angle_alpha   96.65936193
_cell_angle_beta   111.59055754
_cell_angle_gamma   89.99999439
_symmetry_Int_Tables_number   1
_chemical_formula_structural   Nd4HoRh2
_chemical_formula_sum   'Nd8 Ho2 Rh4'
_cell_volume   393.99078864
_cell_formula_units_Z   2
loop_
 _symmetry_equiv_pos_site_id
 _symmetry_equiv_pos_as_xyz
  1  'x, y, z'
loop_
 _atom_site_type_symbol
 _atom_site_label
 _atom_site_symmetry_multiplicity
 _atom_site_fract_x
 _atom_site_fract_y
 _atom_site_fract_z
 _atom_site_occupancy
  Nd  Nd0  1  0.978805  0.922926  0.184318  1
  Nd  Nd1  1  0.794488  0.577074  0.815682  1
  Nd  Nd2  1  0.021195  0.077074  0.815682  1
  Nd  Nd3  1  0.205512  0.422926  0.184318  1
  Nd  Nd4  1  0.644700  0.811719  0.430253  1
  Nd  Nd5  1  0.214447  0.688281  0.569747  1
  Nd  Nd6  1  0.355300  0.188281  0.569747  1
  Nd  Nd7  1  0.785553  0.311719  0.430253  1
  Ho  Ho8  1  0.434555  0.750000  0.000000  1
  Ho  Ho9  1  0.565445  0.250000  0.000000  1
  Rh  Rh10  1  0.806544  0.570264  0.212495  1
  Rh  Rh11  1  0.594051  0.929736  0.787505  1
  Rh  Rh12  1  0.193456  0.429736  0.787505  1
  Rh  Rh13  1  0.405949  0.070264  0.212495  1
