# generated using pymatgen
data_K8Ga11I
_symmetry_space_group_name_H-M   'P 1'
_cell_length_a   9.65308325
_cell_length_b   9.65308452
_cell_length_c   17.00045895
_cell_angle_alpha   89.99999962
_cell_angle_beta   106.49349611
_cell_angle_gamma   59.99999851
_symmetry_Int_Tables_number   1
_chemical_formula_structural   K8Ga11I
_chemical_formula_sum   'K16 Ga22 I2'
_cell_volume   1296.08866046
_cell_formula_units_Z   2
loop_
 _symmetry_equiv_pos_site_id
 _symmetry_equiv_pos_as_xyz
  1  'x, y, z'
loop_
 _atom_site_type_symbol
 _atom_site_label
 _atom_site_symmetry_multiplicity
 _atom_site_fract_x
 _atom_site_fract_y
 _atom_site_fract_z
 _atom_site_occupancy
  K  K0  1  0.969250  0.678427  0.068980  1
  K  K1  1  0.747408  0.352322  0.068980  1
  K  K2  1  0.421302  0.900270  0.068980  1
  K  K3  1  0.150759  0.924621  0.226137  1
  K  K4  1  0.849242  0.575379  0.273863  1
  K  K5  1  0.578698  0.821572  0.431020  1
  K  K6  1  0.252593  0.599729  0.431020  1
  K  K7  1  0.030750  0.147678  0.431020  1
  K  K8  1  0.969250  0.852322  0.568980  1
  K  K9  1  0.747408  0.400270  0.568980  1
  K  K10  1  0.421302  0.178427  0.568980  1
  K  K11  1  0.150758  0.424621  0.726137  1
  K  K12  1  0.849242  0.075378  0.773863  1
  K  K13  1  0.578698  0.099730  0.931020  1
  K  K14  1  0.252593  0.647678  0.931020  1
  K  K15  1  0.030750  0.321572  0.931020  1
  Ga  Ga16  1  0.405665  0.297168  0.108496  1
  Ga  Ga17  1  0.707888  0.015481  0.163927  1
  Ga  Ga18  1  0.440558  0.543961  0.163927  1
  Ga  Ga19  1  0.179407  0.276631  0.163927  1
  Ga  Ga20  1  0.699515  0.250001  0.250000  1
  Ga  Ga21  1  0.500000  0.050484  0.250000  1
  Ga  Ga22  1  0.300485  0.449516  0.250000  1
  Ga  Ga23  1  0.820592  0.956038  0.336073  1
  Ga  Ga24  1  0.559442  0.484520  0.336073  1
  Ga  Ga25  1  0.292112  0.223369  0.336073  1
  Ga  Ga26  1  0.594335  0.202831  0.391503  1
  Ga  Ga27  1  0.405665  0.797168  0.608497  1
  Ga  Ga28  1  0.707888  0.776631  0.663927  1
  Ga  Ga29  1  0.440558  0.515480  0.663927  1
  Ga  Ga30  1  0.179408  0.043961  0.663927  1
  Ga  Ga31  1  0.699515  0.550485  0.750000  1
  Ga  Ga32  1  0.500000  0.949515  0.750000  1
  Ga  Ga33  1  0.300485  0.750000  0.750000  1
  Ga  Ga34  1  0.820593  0.723369  0.836073  1
  Ga  Ga35  1  0.559442  0.456038  0.836073  1
  Ga  Ga36  1  0.292112  0.984519  0.836073  1
  Ga  Ga37  1  0.594335  0.702832  0.891503  1
  I  I38  1  0.000000  0.000000  0.000000  1
  I  I39  1  0.000000  0.500000  0.500000  1
