# generated using pymatgen
data_Tb5Ho3Ti9Si16Tc3
_symmetry_space_group_name_H-M   'P 1'
_cell_length_a   6.99026559
_cell_length_b   6.98980150
_cell_length_c   12.84428208
_cell_angle_alpha   90.08241912
_cell_angle_beta   89.91347538
_cell_angle_gamma   90.03477014
_symmetry_Int_Tables_number   1
_chemical_formula_structural   Tb5Ho3Ti9Si16Tc3
_chemical_formula_sum   'Tb5 Ho3 Ti9 Si16 Tc3'
_cell_volume   627.57744959
_cell_formula_units_Z   1
loop_
 _symmetry_equiv_pos_site_id
 _symmetry_equiv_pos_as_xyz
  1  'x, y, z'
loop_
 _atom_site_type_symbol
 _atom_site_label
 _atom_site_symmetry_multiplicity
 _atom_site_fract_x
 _atom_site_fract_y
 _atom_site_fract_z
 _atom_site_occupancy
  Tb  Tb0  1  0.340335  0.001995  0.467249  1
  Tb  Tb1  1  0.498300  0.841663  0.719391  1
  Tb  Tb2  1  0.500604  0.158800  0.217615  1
  Tb  Tb3  1  0.841804  0.498213  0.280623  1
  Tb  Tb4  1  0.158731  0.500621  0.782387  1
  Ho  Ho5  1  0.658716  0.999799  0.968353  1
  Ho  Ho6  1  0.001285  0.340763  0.532912  1
  Ho  Ho7  1  0.999737  0.658721  0.031576  1
  Ti  Ti8  1  0.674134  0.673770  0.500025  1
  Ti  Ti9  1  0.151977  0.006143  0.877442  1
  Ti  Ti10  1  0.494454  0.653990  0.124633  1
  Ti  Ti11  1  0.505299  0.347375  0.628008  1
  Ti  Ti12  1  0.654011  0.494509  0.875335  1
  Ti  Ti13  1  0.347273  0.505050  0.372102  1
  Ti  Ti14  1  0.847063  0.991937  0.375958  1
  Ti  Ti15  1  0.005994  0.151971  0.122569  1
  Ti  Ti16  1  0.991950  0.846918  0.624113  1
  Si  Si17  1  0.198980  0.129157  0.684318  1
  Si  Si18  1  0.371049  0.700528  0.934020  1
  Si  Si19  1  0.631530  0.297518  0.435403  1
  Si  Si20  1  0.700506  0.371053  0.065934  1
  Si  Si21  1  0.296804  0.630163  0.564798  1
  Si  Si22  1  0.799835  0.870334  0.183474  1
  Si  Si23  1  0.128549  0.199767  0.315606  1
  Si  Si24  1  0.870410  0.799767  0.816516  1
  Si  Si25  1  0.290089  0.951547  0.066403  1
  Si  Si26  1  0.547320  0.789498  0.315734  1
  Si  Si27  1  0.452339  0.211104  0.817191  1
  Si  Si28  1  0.789934  0.546870  0.684055  1
  Si  Si29  1  0.211009  0.452498  0.182778  1
  Si  Si30  1  0.709259  0.049830  0.567502  1
  Si  Si31  1  0.951564  0.290099  0.933558  1
  Si  Si32  1  0.049116  0.707933  0.432688  1
  Tc  Tc33  1  0.328126  0.328101  0.999958  1
  Tc  Tc34  1  0.173741  0.828016  0.248146  1
  Tc  Tc35  1  0.828169  0.173980  0.751626  1
