# generated using pymatgen
data_Sm4Tc5B12Os
_symmetry_space_group_name_H-M   'P 1'
_cell_length_a   6.26007680
_cell_length_b   6.26989612
_cell_length_c   7.55675152
_cell_angle_alpha   89.41571409
_cell_angle_beta   89.29018827
_cell_angle_gamma   114.58521646
_symmetry_Int_Tables_number   1
_chemical_formula_structural   Sm4Tc5B12Os
_chemical_formula_sum   'Sm4 Tc5 B12 Os1'
_cell_volume   269.65462688
_cell_formula_units_Z   1
loop_
 _symmetry_equiv_pos_site_id
 _symmetry_equiv_pos_as_xyz
  1  'x, y, z'
loop_
 _atom_site_type_symbol
 _atom_site_label
 _atom_site_symmetry_multiplicity
 _atom_site_fract_x
 _atom_site_fract_y
 _atom_site_fract_z
 _atom_site_occupancy
  Sm  Sm0  1  0.441844  0.096102  0.174812  1
  Sm  Sm1  1  0.904826  0.561507  0.324767  1
  Sm  Sm2  1  0.560177  0.904394  0.824825  1
  Sm  Sm3  1  0.094955  0.438274  0.675238  1
  Tc  Tc4  1  0.010910  0.197800  0.089088  1
  Tc  Tc5  1  0.199567  0.011097  0.586733  1
  Tc  Tc6  1  0.988834  0.802718  0.912058  1
  Tc  Tc7  1  0.413535  0.585354  0.250413  1
  Tc  Tc8  1  0.586648  0.416093  0.748309  1
  B  B9  1  0.149536  0.240507  0.369559  1
  B  B10  1  0.757986  0.848789  0.131023  1
  B  B11  1  0.850591  0.758582  0.631404  1
  B  B12  1  0.241526  0.151587  0.869665  1
  B  B13  1  0.158651  0.583948  0.017434  1
  B  B14  1  0.413404  0.839123  0.481026  1
  B  B15  1  0.841631  0.415988  0.981817  1
  B  B16  1  0.585164  0.159197  0.519112  1
  B  B17  1  0.349800  0.441942  0.966043  1
  B  B18  1  0.556184  0.649615  0.534117  1
  B  B19  1  0.650385  0.558237  0.033822  1
  B  B20  1  0.442255  0.350006  0.465688  1
  Os  Os21  1  0.801594  0.989142  0.413047  1
