# generated using pymatgen
data_LiTm7(Ge4Mo3)4
_symmetry_space_group_name_H-M   'P 1'
_cell_length_a   6.84929785
_cell_length_b   7.01322719
_cell_length_c   13.07492855
_cell_angle_alpha   89.90485646
_cell_angle_beta   89.88296325
_cell_angle_gamma   89.87445453
_symmetry_Int_Tables_number   1
_chemical_formula_structural   LiTm7(Ge4Mo3)4
_chemical_formula_sum   'Li1 Tm7 Ge16 Mo12'
_cell_volume   628.05942994
_cell_formula_units_Z   1
loop_
 _symmetry_equiv_pos_site_id
 _symmetry_equiv_pos_as_xyz
  1  'x, y, z'
loop_
 _atom_site_type_symbol
 _atom_site_label
 _atom_site_symmetry_multiplicity
 _atom_site_fract_x
 _atom_site_fract_y
 _atom_site_fract_z
 _atom_site_occupancy
  Li  Li0  1  0.971024  0.825483  0.588039  1
  Tm  Tm1  1  0.490311  0.672972  0.592012  1
  Tm  Tm2  1  0.991589  0.827148  0.908403  1
  Tm  Tm3  1  0.512312  0.327858  0.091765  1
  Tm  Tm4  1  0.009941  0.168653  0.413585  1
  Tm  Tm5  1  0.510615  0.328088  0.411634  1
  Tm  Tm6  1  0.012330  0.171538  0.092026  1
  Tm  Tm7  1  0.489099  0.674195  0.904533  1
  Ge  Ge8  1  0.673167  0.952943  0.455777  1
  Ge  Ge9  1  0.173715  0.547229  0.046354  1
  Ge  Ge10  1  0.328168  0.047436  0.952811  1
  Ge  Ge11  1  0.833118  0.464001  0.549107  1
  Ge  Ge12  1  0.318053  0.036593  0.548974  1
  Ge  Ge13  1  0.827181  0.453239  0.953329  1
  Ge  Ge14  1  0.673920  0.952816  0.046720  1
  Ge  Ge15  1  0.168657  0.550148  0.454426  1
  Ge  Ge16  1  0.470281  0.372890  0.750683  1
  Ge  Ge17  1  0.973100  0.123850  0.746844  1
  Ge  Ge18  1  0.529411  0.627631  0.250295  1
  Ge  Ge19  1  0.030073  0.869454  0.251799  1
  Ge  Ge20  1  0.700644  0.852870  0.744829  1
  Ge  Ge21  1  0.179199  0.657367  0.741059  1
  Ge  Ge22  1  0.310640  0.148222  0.251558  1
  Ge  Ge23  1  0.812401  0.350494  0.252214  1
  Mo  Mo24  1  0.667792  0.159154  0.625840  1
  Mo  Mo25  1  0.169228  0.346941  0.872565  1
  Mo  Mo26  1  0.331781  0.846459  0.127174  1
  Mo  Mo27  1  0.827395  0.654110  0.373205  1
  Mo  Mo28  1  0.333597  0.845175  0.373281  1
  Mo  Mo29  1  0.830200  0.652769  0.127183  1
  Mo  Mo30  1  0.672086  0.152902  0.872017  1
  Mo  Mo31  1  0.171758  0.341986  0.627567  1
  Mo  Mo32  1  0.836013  0.491146  0.751191  1
  Mo  Mo33  1  0.338532  0.006832  0.750769  1
  Mo  Mo34  1  0.166384  0.505610  0.250135  1
  Mo  Mo35  1  0.666290  0.993799  0.250297  1
