# generated using pymatgen
data_Yb8HfTc11Ge16
_symmetry_space_group_name_H-M   'P 1'
_cell_length_a   6.97724428
_cell_length_b   6.99920630
_cell_length_c   13.00313000
_cell_angle_alpha   90.00508353
_cell_angle_beta   90.35811100
_cell_angle_gamma   90.34412105
_symmetry_Int_Tables_number   1
_chemical_formula_structural   Yb8HfTc11Ge16
_chemical_formula_sum   'Yb8 Hf1 Tc11 Ge16'
_cell_volume   634.98623013
_cell_formula_units_Z   1
loop_
 _symmetry_equiv_pos_site_id
 _symmetry_equiv_pos_as_xyz
  1  'x, y, z'
loop_
 _atom_site_type_symbol
 _atom_site_label
 _atom_site_symmetry_multiplicity
 _atom_site_fract_x
 _atom_site_fract_y
 _atom_site_fract_z
 _atom_site_occupancy
  Yb  Yb0  1  0.334276  0.002104  0.468042  1
  Yb  Yb1  1  0.501202  0.833637  0.724588  1
  Yb  Yb2  1  0.497947  0.163777  0.222848  1
  Yb  Yb3  1  0.833643  0.499103  0.274227  1
  Yb  Yb4  1  0.166286  0.493405  0.780800  1
  Yb  Yb5  1  0.661876  0.001184  0.974737  1
  Yb  Yb6  1  0.003103  0.337526  0.526635  1
  Yb  Yb7  1  0.999877  0.663011  0.028094  1
  Hf  Hf8  1  0.988880  0.831502  0.622706  1
  Tc  Tc9  1  0.335703  0.335539  0.000574  1
  Tc  Tc10  1  0.167930  0.834895  0.245725  1
  Tc  Tc11  1  0.832389  0.160092  0.748891  1
  Tc  Tc12  1  0.669724  0.664406  0.501928  1
  Tc  Tc13  1  0.175922  0.992140  0.873521  1
  Tc  Tc14  1  0.507892  0.672635  0.123713  1
  Tc  Tc15  1  0.494963  0.328601  0.621783  1
  Tc  Tc16  1  0.671677  0.501346  0.883864  1
  Tc  Tc17  1  0.329825  0.491868  0.373412  1
  Tc  Tc18  1  0.828507  0.012370  0.374594  1
  Tc  Tc19  1  0.988698  0.171013  0.129203  1
  Ge  Ge20  1  0.203056  0.124357  0.682827  1
  Ge  Ge21  1  0.378211  0.692807  0.935948  1
  Ge  Ge22  1  0.623950  0.312932  0.432244  1
  Ge  Ge23  1  0.691926  0.376068  0.068426  1
  Ge  Ge24  1  0.316522  0.625926  0.563149  1
  Ge  Ge25  1  0.806614  0.877037  0.185137  1
  Ge  Ge26  1  0.121066  0.194995  0.315781  1
  Ge  Ge27  1  0.878200  0.801159  0.823274  1
  Ge  Ge28  1  0.282537  0.980724  0.066814  1
  Ge  Ge29  1  0.525847  0.786574  0.318429  1
  Ge  Ge30  1  0.477879  0.212900  0.817943  1
  Ge  Ge31  1  0.783943  0.513349  0.687058  1
  Ge  Ge32  1  0.214850  0.475510  0.180766  1
  Ge  Ge33  1  0.696259  0.038759  0.565663  1
  Ge  Ge34  1  0.978992  0.282310  0.934652  1
  Ge  Ge35  1  0.029829  0.714435  0.422004  1
