# generated using pymatgen
data_Ce6Al24Tc7Pd
_symmetry_space_group_name_H-M   'P 1'
_cell_length_a   8.93154444
_cell_length_b   8.93154689
_cell_length_c   9.65911132
_cell_angle_alpha   89.54851581
_cell_angle_beta   90.45148060
_cell_angle_gamma   119.71876015
_symmetry_Int_Tables_number   1
_chemical_formula_structural   Ce6Al24Tc7Pd
_chemical_formula_sum   'Ce6 Al24 Tc7 Pd1'
_cell_volume   669.15515856
_cell_formula_units_Z   1
loop_
 _symmetry_equiv_pos_site_id
 _symmetry_equiv_pos_as_xyz
  1  'x, y, z'
loop_
 _atom_site_type_symbol
 _atom_site_label
 _atom_site_symmetry_multiplicity
 _atom_site_fract_x
 _atom_site_fract_y
 _atom_site_fract_z
 _atom_site_occupancy
  Ce  Ce0  1  0.188574  0.388597  0.255494  1
  Ce  Ce1  1  0.811426  0.611403  0.744506  1
  Ce  Ce2  1  0.611403  0.811426  0.255494  1
  Ce  Ce3  1  0.388597  0.188574  0.744506  1
  Ce  Ce4  1  0.197026  0.802974  0.251628  1
  Ce  Ce5  1  0.802974  0.197026  0.748372  1
  Al  Al6  1  0.331948  0.668052  0.003682  1
  Al  Al7  1  0.668052  0.331948  0.996318  1
  Al  Al8  1  0.666600  0.333400  0.501411  1
  Al  Al9  1  0.333400  0.666600  0.498589  1
  Al  Al10  1  0.161652  0.322105  0.580981  1
  Al  Al11  1  0.838348  0.677895  0.419019  1
  Al  Al12  1  0.677895  0.838348  0.580981  1
  Al  Al13  1  0.841928  0.679364  0.078410  1
  Al  Al14  1  0.322105  0.161652  0.419019  1
  Al  Al15  1  0.158072  0.320636  0.921590  1
  Al  Al16  1  0.162581  0.837419  0.577491  1
  Al  Al17  1  0.320636  0.158072  0.078410  1
  Al  Al18  1  0.837419  0.162581  0.422509  1
  Al  Al19  1  0.679364  0.841928  0.921590  1
  Al  Al20  1  0.838776  0.161224  0.078271  1
  Al  Al21  1  0.161224  0.838776  0.921729  1
  Al  Al22  1  0.560730  0.126683  0.248870  1
  Al  Al23  1  0.439270  0.873317  0.751130  1
  Al  Al24  1  0.873317  0.439270  0.248870  1
  Al  Al25  1  0.126683  0.560730  0.751130  1
  Al  Al26  1  0.560830  0.439170  0.251597  1
  Al  Al27  1  0.439170  0.560830  0.748403  1
  Al  Al28  1  0.000894  0.999106  0.250037  1
  Al  Al29  1  0.999106  0.000894  0.749963  1
  Tc  Tc30  1  0.500000  0.000000  0.000000  1
  Tc  Tc31  1  0.000000  0.500000  0.000000  1
  Tc  Tc32  1  0.500000  0.000000  0.500000  1
  Tc  Tc33  1  0.000000  0.500000  0.500000  1
  Tc  Tc34  1  0.500000  0.500000  0.500000  1
  Tc  Tc35  1  0.000000  0.000000  0.000000  1
  Tc  Tc36  1  0.000000  0.000000  0.500000  1
  Pd  Pd37  1  0.500000  0.500000  0.000000  1
