# generated using pymatgen
data_Dy9Y8Lu3Pt16
_symmetry_space_group_name_H-M   'P 1'
_cell_length_a   7.47217100
_cell_length_b   7.57108900
_cell_length_c   14.73355300
_cell_angle_alpha   90.00000000
_cell_angle_beta   90.00000000
_cell_angle_gamma   89.99866714
_symmetry_Int_Tables_number   1
_chemical_formula_structural   Dy9Y8Lu3Pt16
_chemical_formula_sum   'Dy9 Y8 Lu3 Pt16'
_cell_volume   833.51350949
_cell_formula_units_Z   1
loop_
 _symmetry_equiv_pos_site_id
 _symmetry_equiv_pos_as_xyz
  1  'x, y, z'
loop_
 _atom_site_type_symbol
 _atom_site_label
 _atom_site_symmetry_multiplicity
 _atom_site_fract_x
 _atom_site_fract_y
 _atom_site_fract_z
 _atom_site_occupancy
  Dy  Dy0  1  0.681401  0.988037  0.250000  1
  Dy  Dy1  1  0.656487  0.832709  0.622594  1
  Dy  Dy2  1  0.156405  0.667453  0.877448  1
  Dy  Dy3  1  0.843954  0.333394  0.377943  1
  Dy  Dy4  1  0.342917  0.167839  0.122042  1
  Dy  Dy5  1  0.342917  0.167839  0.377958  1
  Dy  Dy6  1  0.843954  0.333394  0.122057  1
  Dy  Dy7  1  0.156405  0.667453  0.622552  1
  Dy  Dy8  1  0.656487  0.832709  0.877406  1
  Y  Y9  1  0.998652  0.820045  0.406758  1
  Y  Y10  1  0.497408  0.678828  0.093327  1
  Y  Y11  1  0.502107  0.320414  0.594012  1
  Y  Y12  1  0.001734  0.179324  0.905975  1
  Y  Y13  1  0.001734  0.179324  0.594025  1
  Y  Y14  1  0.502107  0.320414  0.905988  1
  Y  Y15  1  0.497408  0.678828  0.406673  1
  Y  Y16  1  0.998652  0.820045  0.093242  1
  Lu  Lu17  1  0.181718  0.511971  0.250000  1
  Lu  Lu18  1  0.818378  0.488053  0.750000  1
  Lu  Lu19  1  0.318192  0.012023  0.750000  1
  Pt  Pt20  1  0.818501  0.641204  0.250000  1
  Pt  Pt21  1  0.314759  0.855298  0.250000  1
  Pt  Pt22  1  0.682607  0.143741  0.750000  1
  Pt  Pt23  1  0.182923  0.356475  0.750000  1
  Pt  Pt24  1  0.544768  0.386912  0.250000  1
  Pt  Pt25  1  0.047647  0.115713  0.250000  1
  Pt  Pt26  1  0.954675  0.885775  0.750000  1
  Pt  Pt27  1  0.454708  0.614570  0.750000  1
  Pt  Pt28  1  0.817415  0.532835  0.542784  1
  Pt  Pt29  1  0.317406  0.967175  0.957314  1
  Pt  Pt30  1  0.682695  0.032984  0.458073  1
  Pt  Pt31  1  0.182683  0.467117  0.042375  1
  Pt  Pt32  1  0.182683  0.467117  0.457625  1
  Pt  Pt33  1  0.682695  0.032984  0.041927  1
  Pt  Pt34  1  0.317406  0.967175  0.542686  1
  Pt  Pt35  1  0.817415  0.532835  0.957216  1
