# generated using pymatgen
data_YbCd7(SiO4)4
_symmetry_space_group_name_H-M   'P 1'
_cell_length_a   5.11344708
_cell_length_b   6.65678300
_cell_length_c   11.25509823
_cell_angle_alpha   90.00000000
_cell_angle_beta   90.07333686
_cell_angle_gamma   90.00000000
_symmetry_Int_Tables_number   1
_chemical_formula_structural   YbCd7(SiO4)4
_chemical_formula_sum   'Yb1 Cd7 Si4 O16'
_cell_volume   383.11318592
_cell_formula_units_Z   1
loop_
 _symmetry_equiv_pos_site_id
 _symmetry_equiv_pos_as_xyz
  1  'x, y, z'
loop_
 _atom_site_type_symbol
 _atom_site_label
 _atom_site_symmetry_multiplicity
 _atom_site_fract_x
 _atom_site_fract_y
 _atom_site_fract_z
 _atom_site_occupancy
  Yb  Yb0  1  0.490235  0.750000  0.220573  1
  Cd  Cd1  1  0.999448  0.000077  0.000118  1
  Cd  Cd2  1  0.999448  0.499924  0.000118  1
  Cd  Cd3  1  0.984418  0.250000  0.281223  1
  Cd  Cd4  1  0.499629  0.999791  0.500307  1
  Cd  Cd5  1  0.499629  0.500210  0.500307  1
  Cd  Cd6  1  0.015708  0.750000  0.718866  1
  Cd  Cd7  1  0.515019  0.250000  0.782076  1
  Si  Si8  1  0.424581  0.250000  0.098377  1
  Si  Si9  1  0.928195  0.750000  0.402847  1
  Si  Si10  1  0.072439  0.250000  0.597808  1
  Si  Si11  1  0.573867  0.750000  0.901914  1
  O  O12  1  0.698173  0.750000  0.040089  1
  O  O13  1  0.747082  0.250000  0.097455  1
  O  O14  1  0.295671  0.049085  0.162916  1
  O  O15  1  0.295671  0.450913  0.162916  1
  O  O16  1  0.792007  0.553408  0.335781  1
  O  O17  1  0.792007  0.946591  0.335781  1
  O  O18  1  0.248676  0.750000  0.402334  1
  O  O19  1  0.199072  0.250000  0.459603  1
  O  O20  1  0.799851  0.750000  0.540397  1
  O  O21  1  0.750819  0.250000  0.596467  1
  O  O22  1  0.206582  0.050654  0.663025  1
  O  O23  1  0.206582  0.449344  0.663025  1
  O  O24  1  0.706977  0.550515  0.836308  1
  O  O25  1  0.706977  0.949484  0.836308  1
  O  O26  1  0.252001  0.750000  0.903324  1
  O  O27  1  0.299236  0.250000  0.959735  1
