# generated using pymatgen
data_Dy2Cd3Ga5Ni2
_symmetry_space_group_name_H-M   'P 1'
_cell_length_a   4.16249877
_cell_length_b   6.64543000
_cell_length_c   8.26358118
_cell_angle_alpha   90.00000000
_cell_angle_beta   104.58748501
_cell_angle_gamma   90.00000000
_symmetry_Int_Tables_number   1
_chemical_formula_structural   Dy2Cd3Ga5Ni2
_chemical_formula_sum   'Dy2 Cd3 Ga5 Ni2'
_cell_volume   221.21524822
_cell_formula_units_Z   1
loop_
 _symmetry_equiv_pos_site_id
 _symmetry_equiv_pos_as_xyz
  1  'x, y, z'
loop_
 _atom_site_type_symbol
 _atom_site_label
 _atom_site_symmetry_multiplicity
 _atom_site_fract_x
 _atom_site_fract_y
 _atom_site_fract_z
 _atom_site_occupancy
  Dy  Dy0  1  0.368023  0.750000  0.736046  1
  Dy  Dy1  1  0.628196  0.250000  0.256393  1
  Cd  Cd2  1  0.997979  0.493574  0.995957  1
  Cd  Cd3  1  0.997979  0.006426  0.995957  1
  Cd  Cd4  1  0.570200  0.750000  0.140401  1
  Ga  Ga5  1  0.426626  0.250000  0.853252  1
  Ga  Ga6  1  0.189040  0.550487  0.378079  1
  Ga  Ga7  1  0.812085  0.445995  0.624169  1
  Ga  Ga8  1  0.189040  0.949513  0.378079  1
  Ga  Ga9  1  0.812085  0.054005  0.624169  1
  Ni  Ni10  1  0.730835  0.750000  0.461671  1
  Ni  Ni11  1  0.277913  0.250000  0.555825  1
