# generated using pymatgen
data_YHo2(AgGe)3
_symmetry_space_group_name_H-M   'P 1'
_cell_length_a   7.19183319
_cell_length_b   7.19183259
_cell_length_c   4.18340400
_cell_angle_alpha   90.00000000
_cell_angle_beta   90.00000000
_cell_angle_gamma   120.02609225
_symmetry_Int_Tables_number   1
_chemical_formula_structural   YHo2(AgGe)3
_chemical_formula_sum   'Y1 Ho2 Ag3 Ge3'
_cell_volume   187.33777945
_cell_formula_units_Z   1
loop_
 _symmetry_equiv_pos_site_id
 _symmetry_equiv_pos_as_xyz
  1  'x, y, z'
loop_
 _atom_site_type_symbol
 _atom_site_label
 _atom_site_symmetry_multiplicity
 _atom_site_fract_x
 _atom_site_fract_y
 _atom_site_fract_z
 _atom_site_occupancy
  Y  Y0  1  0.414368  0.414368  0.000000  1
  Ho  Ho1  1  0.585748  0.000057  0.000000  1
  Ho  Ho2  1  0.000057  0.585748  0.000000  1
  Ag  Ag3  1  0.252671  0.999718  0.500000  1
  Ag  Ag4  1  0.999718  0.252671  0.500000  1
  Ag  Ag5  1  0.747621  0.747621  0.500000  1
  Ge  Ge6  1  0.333172  0.667167  0.500000  1
  Ge  Ge7  1  0.667167  0.333172  0.500000  1
  Ge  Ge8  1  0.999478  0.999478  0.000000  1
