# generated using pymatgen
data_Sm5Hg4PdRh
_symmetry_space_group_name_H-M   'P 1'
_cell_length_a   3.77205500
_cell_length_b   8.10933097
_cell_length_c   18.31567700
_cell_angle_alpha   90.16088675
_cell_angle_beta   90.00000000
_cell_angle_gamma   90.00000000
_symmetry_Int_Tables_number   1
_chemical_formula_structural   Sm5Hg4PdRh
_chemical_formula_sum   'Sm10 Hg8 Pd2 Rh2'
_cell_volume   560.25314905
_cell_formula_units_Z   2
loop_
 _symmetry_equiv_pos_site_id
 _symmetry_equiv_pos_as_xyz
  1  'x, y, z'
loop_
 _atom_site_type_symbol
 _atom_site_label
 _atom_site_symmetry_multiplicity
 _atom_site_fract_x
 _atom_site_fract_y
 _atom_site_fract_z
 _atom_site_occupancy
  Sm  Sm0  1  0.000000  0.500000  0.500000  1
  Sm  Sm1  1  0.000000  0.000000  0.000000  1
  Sm  Sm2  1  0.000000  0.725788  0.282764  1
  Sm  Sm3  1  0.000000  0.274212  0.717236  1
  Sm  Sm4  1  0.000000  0.753190  0.783366  1
  Sm  Sm5  1  0.000000  0.246810  0.216634  1
  Sm  Sm6  1  0.000000  0.612481  0.087163  1
  Sm  Sm7  1  0.000000  0.387519  0.912837  1
  Sm  Sm8  1  0.000000  0.885919  0.585468  1
  Sm  Sm9  1  0.000000  0.114081  0.414532  1
  Hg  Hg10  1  0.500000  0.711369  0.935167  1
  Hg  Hg11  1  0.500000  0.288631  0.064833  1
  Hg  Hg12  1  0.500000  0.788915  0.435758  1
  Hg  Hg13  1  0.500000  0.211085  0.564242  1
  Hg  Hg14  1  0.500000  0.584248  0.647796  1
  Hg  Hg15  1  0.500000  0.415752  0.352204  1
  Hg  Hg16  1  0.500000  0.916930  0.147825  1
  Hg  Hg17  1  0.500000  0.083070  0.852175  1
  Pd  Pd18  1  0.500000  0.977491  0.697721  1
  Pd  Pd19  1  0.500000  0.022509  0.302279  1
  Rh  Rh20  1  0.500000  0.526668  0.195437  1
  Rh  Rh21  1  0.500000  0.473332  0.804563  1
