# generated using pymatgen
data_Hf3Ta2Si2GeN
_symmetry_space_group_name_H-M   'P 1'
_cell_length_a   7.76469700
_cell_length_b   7.75504060
_cell_length_c   5.43600600
_cell_angle_alpha   90.00000000
_cell_angle_beta   90.00000000
_cell_angle_gamma   120.04120296
_symmetry_Int_Tables_number   1
_chemical_formula_structural   Hf3Ta2Si2GeN
_chemical_formula_sum   'Hf6 Ta4 Si4 Ge2 N2'
_cell_volume   283.36009156
_cell_formula_units_Z   2
loop_
 _symmetry_equiv_pos_site_id
 _symmetry_equiv_pos_as_xyz
  1  'x, y, z'
loop_
 _atom_site_type_symbol
 _atom_site_label
 _atom_site_symmetry_multiplicity
 _atom_site_fract_x
 _atom_site_fract_y
 _atom_site_fract_z
 _atom_site_occupancy
  Hf  Hf0  1  0.234185  0.000000  0.250000  1
  Hf  Hf1  1  0.765815  0.000000  0.750000  1
  Hf  Hf2  1  0.003219  0.238597  0.250000  1
  Hf  Hf3  1  0.996781  0.761403  0.750000  1
  Hf  Hf4  1  0.764621  0.761403  0.250000  1
  Hf  Hf5  1  0.235379  0.238597  0.750000  1
  Ta  Ta6  1  0.331027  0.662054  0.000000  1
  Ta  Ta7  1  0.668973  0.337946  0.000000  1
  Ta  Ta8  1  0.668973  0.337946  0.500000  1
  Ta  Ta9  1  0.331027  0.662054  0.500000  1
  Si  Si10  1  0.001302  0.592581  0.250000  1
  Si  Si11  1  0.998698  0.407419  0.750000  1
  Si  Si12  1  0.408721  0.407419  0.250000  1
  Si  Si13  1  0.591279  0.592581  0.750000  1
  Ge  Ge14  1  0.594222  0.000000  0.250000  1
  Ge  Ge15  1  0.405778  0.000000  0.750000  1
  N  N16  1  0.000000  0.000000  0.000000  1
  N  N17  1  0.000000  0.000000  0.500000  1
