# generated using pymatgen
data_Mn4Ni2As3
_symmetry_space_group_name_H-M   'P 1'
_cell_length_a   3.50373500
_cell_length_b   6.24488370
_cell_length_c   6.25556917
_cell_angle_alpha   120.03535469
_cell_angle_beta   90.00000000
_cell_angle_gamma   90.00000000
_symmetry_Int_Tables_number   1
_chemical_formula_structural   Mn4Ni2As3
_chemical_formula_sum   'Mn4 Ni2 As3'
_cell_volume   118.49451232
_cell_formula_units_Z   1
loop_
 _symmetry_equiv_pos_site_id
 _symmetry_equiv_pos_as_xyz
  1  'x, y, z'
loop_
 _atom_site_type_symbol
 _atom_site_label
 _atom_site_symmetry_multiplicity
 _atom_site_fract_x
 _atom_site_fract_y
 _atom_site_fract_z
 _atom_site_occupancy
  Mn  Mn0  1  0.000000  0.999993  0.255789  1
  Mn  Mn1  1  0.500000  0.597115  0.001775  1
  Mn  Mn2  1  0.500000  0.402894  0.404685  1
  Mn  Mn3  1  0.500000  0.000005  0.593739  1
  Ni  Ni4  1  0.000000  0.258526  0.001061  1
  Ni  Ni5  1  0.000000  0.741410  0.742522  1
  As  As6  1  0.500000  0.999960  0.997298  1
  As  As7  1  0.000000  0.333519  0.668339  1
  As  As8  1  0.000000  0.666479  0.334789  1
