# generated using pymatgen
data_YbPr(CuSn)2
_symmetry_space_group_name_H-M   'P 1'
_cell_length_a   4.61890700
_cell_length_b   7.53064175
_cell_length_c   7.91287760
_cell_angle_alpha   90.06139126
_cell_angle_beta   90.00000000
_cell_angle_gamma   90.00000000
_symmetry_Int_Tables_number   1
_chemical_formula_structural   YbPr(CuSn)2
_chemical_formula_sum   'Yb2 Pr2 Cu4 Sn4'
_cell_volume   275.23610564
_cell_formula_units_Z   2
loop_
 _symmetry_equiv_pos_site_id
 _symmetry_equiv_pos_as_xyz
  1  'x, y, z'
loop_
 _atom_site_type_symbol
 _atom_site_label
 _atom_site_symmetry_multiplicity
 _atom_site_fract_x
 _atom_site_fract_y
 _atom_site_fract_z
 _atom_site_occupancy
  Yb  Yb0  1  0.750000  0.990663  0.708296  1
  Yb  Yb1  1  0.250000  0.009337  0.291704  1
  Pr  Pr2  1  0.250000  0.507591  0.211662  1
  Pr  Pr3  1  0.750000  0.492409  0.788338  1
  Cu  Cu4  1  0.250000  0.815920  0.913906  1
  Cu  Cu5  1  0.750000  0.184080  0.086094  1
  Cu  Cu6  1  0.750000  0.698510  0.416479  1
  Cu  Cu7  1  0.250000  0.301490  0.583521  1
  Sn  Sn8  1  0.250000  0.701527  0.588896  1
  Sn  Sn9  1  0.750000  0.298473  0.411104  1
  Sn  Sn10  1  0.750000  0.803063  0.088556  1
  Sn  Sn11  1  0.250000  0.196937  0.911444  1
