# generated using pymatgen
data_Y3Ag2Hg3Ir
_symmetry_space_group_name_H-M   'P 1'
_cell_length_a   8.08711300
_cell_length_b   8.08711212
_cell_length_c   3.63234800
_cell_angle_alpha   90.00000000
_cell_angle_beta   90.00000000
_cell_angle_gamma   120.00000768
_symmetry_Int_Tables_number   1
_chemical_formula_structural   Y3Ag2Hg3Ir
_chemical_formula_sum   'Y3 Ag2 Hg3 Ir1'
_cell_volume   205.73350438
_cell_formula_units_Z   1
loop_
 _symmetry_equiv_pos_site_id
 _symmetry_equiv_pos_as_xyz
  1  'x, y, z'
loop_
 _atom_site_type_symbol
 _atom_site_label
 _atom_site_symmetry_multiplicity
 _atom_site_fract_x
 _atom_site_fract_y
 _atom_site_fract_z
 _atom_site_occupancy
  Y  Y0  1  0.412977  0.376953  0.500000  1
  Y  Y1  1  0.963976  0.587023  0.500000  1
  Y  Y2  1  0.623047  0.036024  0.500000  1
  Ag  Ag3  1  0.333333  0.666667  0.000000  1
  Ag  Ag4  1  0.000000  0.000000  0.500000  1
  Hg  Hg5  1  0.713183  0.725698  0.000000  1
  Hg  Hg6  1  0.274302  0.987486  0.000000  1
  Hg  Hg7  1  0.012514  0.286817  0.000000  1
  Ir  Ir8  1  0.666667  0.333333  0.000000  1
