# generated using pymatgen
data_MnIClO3
_symmetry_space_group_name_H-M   'P 1'
_cell_length_a   8.80230506
_cell_length_b   8.80230448
_cell_length_c   7.09905500
_cell_angle_alpha   90.00000000
_cell_angle_beta   90.00000000
_cell_angle_gamma   131.92394541
_symmetry_Int_Tables_number   1
_chemical_formula_structural   MnIClO3
_chemical_formula_sum   'Mn4 I4 Cl4 O12'
_cell_volume   409.24669189
_cell_formula_units_Z   4
loop_
 _symmetry_equiv_pos_site_id
 _symmetry_equiv_pos_as_xyz
  1  'x, y, z'
loop_
 _atom_site_type_symbol
 _atom_site_label
 _atom_site_symmetry_multiplicity
 _atom_site_fract_x
 _atom_site_fract_y
 _atom_site_fract_z
 _atom_site_occupancy
  Mn  Mn0  1  0.350636  0.149364  0.750000  1
  Mn  Mn1  1  0.149364  0.350636  0.250000  1
  Mn  Mn2  1  0.649364  0.850636  0.250000  1
  Mn  Mn3  1  0.850636  0.649364  0.750000  1
  I  I4  1  0.597565  0.402435  0.275427  1
  I  I5  1  0.402435  0.597565  0.724573  1
  I  I6  1  0.902435  0.097565  0.775427  1
  I  I7  1  0.097565  0.902435  0.224573  1
  Cl  Cl8  1  0.206348  0.793652  0.672938  1
  Cl  Cl9  1  0.793652  0.206348  0.327062  1
  Cl  Cl10  1  0.293652  0.706348  0.172938  1
  Cl  Cl11  1  0.706348  0.293652  0.827062  1
  O  O12  1  0.400973  0.204521  0.442949  1
  O  O13  1  0.204521  0.400973  0.557051  1
  O  O14  1  0.704522  0.900973  0.942949  1
  O  O15  1  0.900973  0.704521  0.057051  1
  O  O16  1  0.599027  0.795479  0.557051  1
  O  O17  1  0.795479  0.599027  0.442949  1
  O  O18  1  0.295479  0.099027  0.057051  1
  O  O19  1  0.099027  0.295479  0.942949  1
  O  O20  1  0.483455  0.516545  0.225015  1
  O  O21  1  0.516545  0.483455  0.774985  1
  O  O22  1  0.016545  0.983455  0.725015  1
  O  O23  1  0.983455  0.016545  0.274985  1
