# generated using pymatgen
data_LiNb3(CoP)4
_symmetry_space_group_name_H-M   'P 1'
_cell_length_a   3.56717800
_cell_length_b   6.09961958
_cell_length_c   6.90955349
_cell_angle_alpha   90.29824871
_cell_angle_beta   90.00000000
_cell_angle_gamma   90.00000000
_symmetry_Int_Tables_number   1
_chemical_formula_structural   LiNb3(CoP)4
_chemical_formula_sum   'Li1 Nb3 Co4 P4'
_cell_volume   150.33899070
_cell_formula_units_Z   1
loop_
 _symmetry_equiv_pos_site_id
 _symmetry_equiv_pos_as_xyz
  1  'x, y, z'
loop_
 _atom_site_type_symbol
 _atom_site_label
 _atom_site_symmetry_multiplicity
 _atom_site_fract_x
 _atom_site_fract_y
 _atom_site_fract_z
 _atom_site_occupancy
  Li  Li0  1  0.250000  0.024612  0.823007  1
  Nb  Nb1  1  0.250000  0.522136  0.675451  1
  Nb  Nb2  1  0.750000  0.975237  0.174670  1
  Nb  Nb3  1  0.750000  0.471553  0.323800  1
  Co  Co4  1  0.250000  0.144035  0.442227  1
  Co  Co5  1  0.250000  0.637542  0.059552  1
  Co  Co6  1  0.750000  0.857590  0.565230  1
  Co  Co7  1  0.750000  0.363185  0.937654  1
  P  P8  1  0.250000  0.776689  0.379121  1
  P  P9  1  0.250000  0.268432  0.110629  1
  P  P10  1  0.750000  0.218786  0.630055  1
  P  P11  1  0.750000  0.740204  0.878605  1
