# generated using pymatgen
data_NaP6W2O21
_symmetry_space_group_name_H-M   'P 1'
_cell_length_a   8.63247056
_cell_length_b   8.63247046
_cell_length_c   12.61150200
_cell_angle_alpha   85.22598591
_cell_angle_beta   85.22598596
_cell_angle_gamma   77.24131478
_symmetry_Int_Tables_number   1
_chemical_formula_structural   NaP6W2O21
_chemical_formula_sum   'Na2 P12 W4 O42'
_cell_volume   911.38337389
_cell_formula_units_Z   2
loop_
 _symmetry_equiv_pos_site_id
 _symmetry_equiv_pos_as_xyz
  1  'x, y, z'
loop_
 _atom_site_type_symbol
 _atom_site_label
 _atom_site_symmetry_multiplicity
 _atom_site_fract_x
 _atom_site_fract_y
 _atom_site_fract_z
 _atom_site_occupancy
  Na  Na0  1  0.219100  0.219100  0.855627  1
  Na  Na1  1  0.780900  0.780900  0.144373  1
  P  P2  1  0.673428  0.201573  0.100152  1
  P  P3  1  0.139140  0.139140  0.586452  1
  P  P4  1  0.344771  0.344771  0.454065  1
  P  P5  1  0.201573  0.673428  0.100152  1
  P  P6  1  0.351426  0.866910  0.234615  1
  P  P7  1  0.648574  0.133090  0.765385  1
  P  P8  1  0.326572  0.798427  0.899848  1
  P  P9  1  0.655229  0.655229  0.545935  1
  P  P10  1  0.133090  0.648574  0.765385  1
  P  P11  1  0.866910  0.351426  0.234615  1
  P  P12  1  0.860860  0.860860  0.413548  1
  P  P13  1  0.798427  0.326572  0.899848  1
  W  W14  1  0.281842  0.281842  0.183245  1
  W  W15  1  0.244068  0.755932  0.500000  1
  W  W16  1  0.755932  0.244068  0.500000  1
  W  W17  1  0.718158  0.718158  0.816755  1
  O  O18  1  0.293801  0.818048  0.352003  1
  O  O19  1  0.181952  0.706199  0.647997  1
  O  O20  1  0.817349  0.223341  0.165753  1
  O  O21  1  0.182651  0.776659  0.834247  1
  O  O22  1  0.015785  0.781068  0.469016  1
  O  O23  1  0.730612  0.730612  0.951664  1
  O  O24  1  0.263758  0.518316  0.170602  1
  O  O25  1  0.299586  0.961416  0.933314  1
  O  O26  1  0.984215  0.218932  0.530984  1
  O  O27  1  0.218932  0.984215  0.530984  1
  O  O28  1  0.818048  0.293801  0.352003  1
  O  O29  1  0.518316  0.263758  0.170602  1
  O  O30  1  0.476862  0.714723  0.531584  1
  O  O31  1  0.706199  0.181952  0.647997  1
  O  O32  1  0.223341  0.817349  0.165753  1
  O  O33  1  0.961416  0.299586  0.933314  1
  O  O34  1  0.793802  0.517642  0.204959  1
  O  O35  1  0.303357  0.303357  0.346808  1
  O  O36  1  0.736242  0.481684  0.829398  1
  O  O37  1  0.482358  0.206198  0.795041  1
  O  O38  1  0.123862  0.123862  0.703930  1
  O  O39  1  0.947180  0.693238  0.776005  1
  O  O40  1  0.700414  0.038584  0.066686  1
  O  O41  1  0.481684  0.736242  0.829398  1
  O  O42  1  0.206198  0.482358  0.795041  1
  O  O43  1  0.523138  0.285277  0.468416  1
  O  O44  1  0.714723  0.476862  0.531584  1
  O  O45  1  0.693238  0.947180  0.776005  1
  O  O46  1  0.781068  0.015785  0.469016  1
  O  O47  1  0.666261  0.333739  0.000000  1
  O  O48  1  0.776659  0.182651  0.834247  1
  O  O49  1  0.258386  0.258386  0.549110  1
  O  O50  1  0.517642  0.793802  0.204959  1
  O  O51  1  0.306762  0.052820  0.223995  1
  O  O52  1  0.269388  0.269388  0.048336  1
  O  O53  1  0.285277  0.523138  0.468416  1
  O  O54  1  0.038584  0.700414  0.066686  1
  O  O55  1  0.876138  0.876138  0.296070  1
  O  O56  1  0.741614  0.741614  0.450890  1
  O  O57  1  0.696643  0.696643  0.653192  1
  O  O58  1  0.052820  0.306762  0.223995  1
  O  O59  1  0.333739  0.666261  0.000000  1
