# generated using pymatgen
data_Er4Al24IrPd8
_symmetry_space_group_name_H-M   'P 1'
_cell_length_a   7.52391397
_cell_length_b   7.54927745
_cell_length_c   13.15664565
_cell_angle_alpha   84.61550966
_cell_angle_beta   79.10160097
_cell_angle_gamma   59.91700810
_symmetry_Int_Tables_number   1
_chemical_formula_structural   Er4Al24IrPd8
_chemical_formula_sum   'Er4 Al24 Ir1 Pd8'
_cell_volume   634.97484422
_cell_formula_units_Z   1
loop_
 _symmetry_equiv_pos_site_id
 _symmetry_equiv_pos_as_xyz
  1  'x, y, z'
loop_
 _atom_site_type_symbol
 _atom_site_label
 _atom_site_symmetry_multiplicity
 _atom_site_fract_x
 _atom_site_fract_y
 _atom_site_fract_z
 _atom_site_occupancy
  Er  Er0  1  0.393088  0.168978  0.809222  1
  Er  Er1  1  0.606912  0.831022  0.190778  1
  Er  Er2  1  0.733934  0.497826  0.809145  1
  Er  Er3  1  0.266066  0.502174  0.190855  1
  Al  Al4  1  0.686393  0.830960  0.945237  1
  Al  Al5  1  0.313607  0.169040  0.054763  1
  Al  Al6  1  0.146246  0.832326  0.562060  1
  Al  Al7  1  0.853754  0.167674  0.437940  1
  Al  Al8  1  0.479726  0.166573  0.559795  1
  Al  Al9  1  0.520274  0.833427  0.440205  1
  Al  Al10  1  0.217952  0.165103  0.327615  1
  Al  Al11  1  0.782048  0.834897  0.672385  1
  Al  Al12  1  0.435904  0.507291  0.672345  1
  Al  Al13  1  0.564096  0.492709  0.327655  1
  Al  Al14  1  0.108756  0.159638  0.670507  1
  Al  Al15  1  0.891244  0.840362  0.329493  1
  Al  Al16  1  0.350186  0.499325  0.945465  1
  Al  Al17  1  0.649814  0.500675  0.054535  1
  Al  Al18  1  0.015403  0.171028  0.954731  1
  Al  Al19  1  0.984597  0.828972  0.045269  1
  Al  Al20  1  0.186695  0.499721  0.440736  1
  Al  Al21  1  0.813305  0.500279  0.559264  1
  Al  Al22  1  0.733034  0.163046  0.183246  1
  Al  Al23  1  0.266966  0.836954  0.816754  1
  Al  Al24  1  0.061178  0.629820  0.817181  1
  Al  Al25  1  0.938822  0.370180  0.182819  1
  Al  Al26  1  0.854883  0.043332  0.816495  1
  Al  Al27  1  0.145117  0.956668  0.183505  1
  Ir  Ir28  1  0.000000  0.500000  0.000000  1
  Pd  Pd29  1  0.119774  0.492281  0.638921  1
  Pd  Pd30  1  0.880226  0.507719  0.361079  1
  Pd  Pd31  1  0.656964  0.171381  0.999624  1
  Pd  Pd32  1  0.343036  0.828619  0.000376  1
  Pd  Pd33  1  0.537684  0.166997  0.361736  1
  Pd  Pd34  1  0.462316  0.833003  0.638264  1
  Pd  Pd35  1  0.778219  0.174798  0.637399  1
  Pd  Pd36  1  0.221781  0.825202  0.362601  1
