# generated using pymatgen
data_YbHo3AlOs7
_symmetry_space_group_name_H-M   'P 1'
_cell_length_a   5.35122000
_cell_length_b   5.35121960
_cell_length_c   8.66420300
_cell_angle_alpha   90.00000000
_cell_angle_beta   90.00000000
_cell_angle_gamma   120.00000247
_symmetry_Int_Tables_number   1
_chemical_formula_structural   YbHo3AlOs7
_chemical_formula_sum   'Yb1 Ho3 Al1 Os7'
_cell_volume   214.86457556
_cell_formula_units_Z   1
loop_
 _symmetry_equiv_pos_site_id
 _symmetry_equiv_pos_as_xyz
  1  'x, y, z'
loop_
 _atom_site_type_symbol
 _atom_site_label
 _atom_site_symmetry_multiplicity
 _atom_site_fract_x
 _atom_site_fract_y
 _atom_site_fract_z
 _atom_site_occupancy
  Yb  Yb0  1  0.333333  0.666667  0.063828  1
  Ho  Ho1  1  0.333333  0.666667  0.425320  1
  Ho  Ho2  1  0.666667  0.333333  0.570232  1
  Ho  Ho3  1  0.666667  0.333333  0.938795  1
  Al  Al4  1  0.000000  0.000000  0.501571  1
  Os  Os5  1  0.000000  0.000000  0.999144  1
  Os  Os6  1  0.829057  0.170943  0.251622  1
  Os  Os7  1  0.829057  0.658113  0.251622  1
  Os  Os8  1  0.341887  0.170943  0.251622  1
  Os  Os9  1  0.172065  0.827935  0.748748  1
  Os  Os10  1  0.172065  0.344128  0.748748  1
  Os  Os11  1  0.655872  0.827935  0.748748  1
