# generated using pymatgen
data_Y4GaMoRu6
_symmetry_space_group_name_H-M   'P 1'
_cell_length_a   5.46552183
_cell_length_b   5.29387669
_cell_length_c   8.99333400
_cell_angle_alpha   90.00000000
_cell_angle_beta   90.00000000
_cell_angle_gamma   122.04909502
_symmetry_Int_Tables_number   1
_chemical_formula_structural   Y4GaMoRu6
_chemical_formula_sum   'Y4 Ga1 Mo1 Ru6'
_cell_volume   220.55347462
_cell_formula_units_Z   1
loop_
 _symmetry_equiv_pos_site_id
 _symmetry_equiv_pos_as_xyz
  1  'x, y, z'
loop_
 _atom_site_type_symbol
 _atom_site_label
 _atom_site_symmetry_multiplicity
 _atom_site_fract_x
 _atom_site_fract_y
 _atom_site_fract_z
 _atom_site_occupancy
  Y  Y0  1  0.333907  0.666420  0.435480  1
  Y  Y1  1  0.670233  0.344435  0.563584  1
  Y  Y2  1  0.670233  0.344435  0.936416  1
  Y  Y3  1  0.333907  0.666420  0.064520  1
  Ga  Ga4  1  0.335674  0.165484  0.250000  1
  Mo  Mo5  1  0.163264  0.324904  0.750000  1
  Ru  Ru6  1  0.173186  0.818226  0.750000  1
  Ru  Ru7  1  0.835049  0.652832  0.250000  1
  Ru  Ru8  1  0.658339  0.827359  0.750000  1
  Ru  Ru9  1  0.995363  0.009769  0.000430  1
  Ru  Ru10  1  0.835482  0.169948  0.250000  1
  Ru  Ru11  1  0.995363  0.009769  0.499570  1
