# generated using pymatgen
data_SmCu2Ni2Pt
_symmetry_space_group_name_H-M   'P 1'
_cell_length_a   5.21663880
_cell_length_b   5.21663938
_cell_length_c   4.03816500
_cell_angle_alpha   90.00000000
_cell_angle_beta   90.00000000
_cell_angle_gamma   123.70614361
_symmetry_Int_Tables_number   1
_chemical_formula_structural   SmCu2Ni2Pt
_chemical_formula_sum   'Sm1 Cu2 Ni2 Pt1'
_cell_volume   91.41847252
_cell_formula_units_Z   1
loop_
 _symmetry_equiv_pos_site_id
 _symmetry_equiv_pos_as_xyz
  1  'x, y, z'
loop_
 _atom_site_type_symbol
 _atom_site_label
 _atom_site_symmetry_multiplicity
 _atom_site_fract_x
 _atom_site_fract_y
 _atom_site_fract_z
 _atom_site_occupancy
  Sm  Sm0  1  0.000000  0.000000  0.000000  1
  Cu  Cu1  1  0.319382  0.680618  0.000000  1
  Cu  Cu2  1  0.680618  0.319382  0.000000  1
  Ni  Ni3  1  0.500000  0.000000  0.500000  1
  Ni  Ni4  1  0.000000  0.500000  0.500000  1
  Pt  Pt5  1  0.500000  0.500000  0.500000  1
