# generated using pymatgen
data_Tb4Y12Cd3InPd4
_symmetry_space_group_name_H-M   'P 1'
_cell_length_a   9.73934189
_cell_length_b   9.73934140
_cell_length_c   9.73934064
_cell_angle_alpha   60.19668632
_cell_angle_beta   60.19668467
_cell_angle_gamma   60.19668692
_symmetry_Int_Tables_number   1
_chemical_formula_structural   Tb4Y12Cd3InPd4
_chemical_formula_sum   'Tb4 Y12 Cd3 In1 Pd4'
_cell_volume   656.15089524
_cell_formula_units_Z   1
loop_
 _symmetry_equiv_pos_site_id
 _symmetry_equiv_pos_as_xyz
  1  'x, y, z'
loop_
 _atom_site_type_symbol
 _atom_site_label
 _atom_site_symmetry_multiplicity
 _atom_site_fract_x
 _atom_site_fract_y
 _atom_site_fract_z
 _atom_site_occupancy
  Tb  Tb0  1  0.350935  0.350935  0.350935  1
  Tb  Tb1  1  0.355846  0.355846  0.936713  1
  Tb  Tb2  1  0.355846  0.936713  0.355846  1
  Tb  Tb3  1  0.936713  0.355846  0.355846  1
  Y  Y4  1  0.810670  0.189914  0.189914  1
  Y  Y5  1  0.190674  0.809653  0.809653  1
  Y  Y6  1  0.189914  0.810670  0.189914  1
  Y  Y7  1  0.809653  0.190674  0.809653  1
  Y  Y8  1  0.189914  0.189914  0.810670  1
  Y  Y9  1  0.809653  0.809653  0.190674  1
  Y  Y10  1  0.936393  0.566588  0.566588  1
  Y  Y11  1  0.563952  0.936095  0.936095  1
  Y  Y12  1  0.566588  0.936393  0.566588  1
  Y  Y13  1  0.936095  0.563952  0.936095  1
  Y  Y14  1  0.566588  0.566588  0.936393  1
  Y  Y15  1  0.936095  0.936095  0.563952  1
  Cd  Cd16  1  0.580414  0.580414  0.252647  1
  Cd  Cd17  1  0.580414  0.252647  0.580414  1
  Cd  Cd18  1  0.252647  0.580414  0.580414  1
  In  In19  1  0.582589  0.582589  0.582589  1
  Pd  Pd20  1  0.146162  0.146162  0.146162  1
  Pd  Pd21  1  0.142628  0.142628  0.566987  1
  Pd  Pd22  1  0.142628  0.566987  0.142628  1
  Pd  Pd23  1  0.566987  0.142628  0.142628  1
