# generated using pymatgen
data_Y12Er4Cd3HgIr4
_symmetry_space_group_name_H-M   'P 1'
_cell_length_a   9.64893103
_cell_length_b   9.64893027
_cell_length_c   9.64893115
_cell_angle_alpha   59.91320286
_cell_angle_beta   59.91320248
_cell_angle_gamma   59.91320997
_symmetry_Int_Tables_number   1
_chemical_formula_structural   Y12Er4Cd3HgIr4
_chemical_formula_sum   'Y12 Er4 Cd3 Hg1 Ir4'
_cell_volume   633.96698470
_cell_formula_units_Z   1
loop_
 _symmetry_equiv_pos_site_id
 _symmetry_equiv_pos_as_xyz
  1  'x, y, z'
loop_
 _atom_site_type_symbol
 _atom_site_label
 _atom_site_symmetry_multiplicity
 _atom_site_fract_x
 _atom_site_fract_y
 _atom_site_fract_z
 _atom_site_occupancy
  Y  Y0  1  0.808964  0.190304  0.190304  1
  Y  Y1  1  0.189502  0.809215  0.809215  1
  Y  Y2  1  0.190304  0.808964  0.190304  1
  Y  Y3  1  0.809215  0.189502  0.809215  1
  Y  Y4  1  0.190304  0.190304  0.808964  1
  Y  Y5  1  0.809215  0.809215  0.189502  1
  Y  Y6  1  0.938526  0.561268  0.561268  1
  Y  Y7  1  0.561225  0.938581  0.938581  1
  Y  Y8  1  0.561268  0.938526  0.561268  1
  Y  Y9  1  0.938581  0.561225  0.938581  1
  Y  Y10  1  0.561268  0.561268  0.938526  1
  Y  Y11  1  0.938581  0.938581  0.561225  1
  Er  Er12  1  0.347921  0.347921  0.347921  1
  Er  Er13  1  0.349153  0.349153  0.954204  1
  Er  Er14  1  0.349153  0.954204  0.349153  1
  Er  Er15  1  0.954204  0.349153  0.349153  1
  Cd  Cd16  1  0.580456  0.580456  0.257928  1
  Cd  Cd17  1  0.580456  0.257928  0.580456  1
  Cd  Cd18  1  0.257928  0.580456  0.580456  1
  Hg  Hg19  1  0.582306  0.582306  0.582306  1
  Ir  Ir20  1  0.142807  0.142807  0.142807  1
  Ir  Ir21  1  0.143168  0.143168  0.572334  1
  Ir  Ir22  1  0.143168  0.572334  0.143168  1
  Ir  Ir23  1  0.572334  0.143168  0.143168  1
