# generated using pymatgen
data_SmU4N5
_symmetry_space_group_name_H-M   'P 1'
_cell_length_a   14.23484175
_cell_length_b   14.23484174
_cell_length_c   14.23484153
_cell_angle_alpha   13.99535083
_cell_angle_beta   13.99534935
_cell_angle_gamma   13.99534885
_symmetry_Int_Tables_number   1
_chemical_formula_structural   SmU4N5
_chemical_formula_sum   'Sm1 U4 N5'
_cell_volume   146.82837062
_cell_formula_units_Z   1
loop_
 _symmetry_equiv_pos_site_id
 _symmetry_equiv_pos_as_xyz
  1  'x, y, z'
loop_
 _atom_site_type_symbol
 _atom_site_label
 _atom_site_symmetry_multiplicity
 _atom_site_fract_x
 _atom_site_fract_y
 _atom_site_fract_z
 _atom_site_occupancy
  Sm  Sm0  1  0.000000  0.000000  0.000000  1
  U  U1  1  0.598295  0.598295  0.598295  1
  U  U2  1  0.199627  0.199627  0.199627  1
  U  U3  1  0.800373  0.800373  0.800373  1
  U  U4  1  0.401705  0.401705  0.401705  1
  N  N5  1  0.704368  0.704368  0.704368  1
  N  N6  1  0.500000  0.500000  0.500000  1
  N  N7  1  0.100746  0.100746  0.100746  1
  N  N8  1  0.295632  0.295632  0.295632  1
  N  N9  1  0.899254  0.899254  0.899254  1
