# generated using pymatgen
data_TmTaTiB2Ru5
_symmetry_space_group_name_H-M   'P 1'
_cell_length_a   9.44319703
_cell_length_b   9.44319807
_cell_length_c   3.08004700
_cell_angle_alpha   90.00000000
_cell_angle_beta   90.00000000
_cell_angle_gamma   90.55112178
_symmetry_Int_Tables_number   1
_chemical_formula_structural   TmTaTiB2Ru5
_chemical_formula_sum   'Tm2 Ta2 Ti2 B4 Ru10'
_cell_volume   274.64734361
_cell_formula_units_Z   2
loop_
 _symmetry_equiv_pos_site_id
 _symmetry_equiv_pos_as_xyz
  1  'x, y, z'
loop_
 _atom_site_type_symbol
 _atom_site_label
 _atom_site_symmetry_multiplicity
 _atom_site_fract_x
 _atom_site_fract_y
 _atom_site_fract_z
 _atom_site_occupancy
  Tm  Tm0  1  0.824101  0.675899  0.000000  1
  Tm  Tm1  1  0.175899  0.324101  0.000000  1
  Ta  Ta2  1  0.324603  0.824603  0.000000  1
  Ta  Ta3  1  0.675397  0.175397  0.000000  1
  Ti  Ti4  1  0.500000  0.500000  0.000000  1
  Ti  Ti5  1  0.000000  0.000000  0.000000  1
  B  B6  1  0.622638  0.877362  0.000000  1
  B  B7  1  0.377362  0.122638  0.000000  1
  B  B8  1  0.124200  0.624200  0.000000  1
  B  B9  1  0.875800  0.375800  0.000000  1
  Ru  Ru10  1  0.560176  0.720325  0.500000  1
  Ru  Ru11  1  0.439824  0.279675  0.500000  1
  Ru  Ru12  1  0.081670  0.787191  0.500000  1
  Ru  Ru13  1  0.918330  0.212809  0.500000  1
  Ru  Ru14  1  0.287191  0.581670  0.500000  1
  Ru  Ru15  1  0.712809  0.418330  0.500000  1
  Ru  Ru16  1  0.220325  0.060176  0.500000  1
  Ru  Ru17  1  0.779675  0.939824  0.500000  1
  Ru  Ru18  1  0.500000  0.000000  0.500000  1
  Ru  Ru19  1  0.000000  0.500000  0.500000  1
