# generated using pymatgen
data_Tb4Al2(ReOs)3
_symmetry_space_group_name_H-M   'P 1'
_cell_length_a   5.33954079
_cell_length_b   5.33953980
_cell_length_c   9.01460550
_cell_angle_alpha   91.08548677
_cell_angle_beta   88.91451224
_cell_angle_gamma   119.23995376
_symmetry_Int_Tables_number   1
_chemical_formula_structural   Tb4Al2(ReOs)3
_chemical_formula_sum   'Tb4 Al2 Re3 Os3'
_cell_volume   224.21042877
_cell_formula_units_Z   1
loop_
 _symmetry_equiv_pos_site_id
 _symmetry_equiv_pos_as_xyz
  1  'x, y, z'
loop_
 _atom_site_type_symbol
 _atom_site_label
 _atom_site_symmetry_multiplicity
 _atom_site_fract_x
 _atom_site_fract_y
 _atom_site_fract_z
 _atom_site_occupancy
  Tb  Tb0  1  0.335081  0.664919  0.430853  1
  Tb  Tb1  1  0.665249  0.334751  0.567791  1
  Tb  Tb2  1  0.665692  0.334308  0.939261  1
  Tb  Tb3  1  0.329454  0.670546  0.064780  1
  Al  Al4  1  0.010688  0.989312  0.498824  1
  Al  Al5  1  0.831893  0.168107  0.243072  1
  Re  Re6  1  0.169390  0.830610  0.752985  1
  Re  Re7  1  0.169786  0.342046  0.749146  1
  Re  Re8  1  0.657954  0.830214  0.749146  1
  Os  Os9  1  0.003349  0.996651  0.002411  1
  Os  Os10  1  0.817170  0.655705  0.250865  1
  Os  Os11  1  0.344295  0.182830  0.250865  1
