# generated using pymatgen
data_Ce2PrNd(AlRh)4
_symmetry_space_group_name_H-M   'P 1'
_cell_length_a   4.25390000
_cell_length_b   7.11358447
_cell_length_c   16.16686433
_cell_angle_alpha   89.92642849
_cell_angle_beta   90.00000000
_cell_angle_gamma   90.00000000
_symmetry_Int_Tables_number   1
_chemical_formula_structural   Ce2PrNd(AlRh)4
_chemical_formula_sum   'Ce4 Pr2 Nd2 Al8 Rh8'
_cell_volume   489.21662233
_cell_formula_units_Z   2
loop_
 _symmetry_equiv_pos_site_id
 _symmetry_equiv_pos_as_xyz
  1  'x, y, z'
loop_
 _atom_site_type_symbol
 _atom_site_label
 _atom_site_symmetry_multiplicity
 _atom_site_fract_x
 _atom_site_fract_y
 _atom_site_fract_z
 _atom_site_occupancy
  Ce  Ce0  1  0.250000  0.028411  0.779558  1
  Ce  Ce1  1  0.750000  0.971589  0.220442  1
  Ce  Ce2  1  0.250000  0.528319  0.720208  1
  Ce  Ce3  1  0.750000  0.471681  0.279792  1
  Pr  Pr4  1  0.250000  0.655765  0.939670  1
  Pr  Pr5  1  0.750000  0.344235  0.060330  1
  Nd  Nd6  1  0.250000  0.156060  0.560263  1
  Nd  Nd7  1  0.750000  0.843940  0.439737  1
  Al  Al8  1  0.250000  0.146216  0.350320  1
  Al  Al9  1  0.750000  0.853784  0.649680  1
  Al  Al10  1  0.250000  0.646753  0.150028  1
  Al  Al11  1  0.750000  0.353247  0.849972  1
  Al  Al12  1  0.250000  0.006790  0.062003  1
  Al  Al13  1  0.750000  0.993210  0.937997  1
  Al  Al14  1  0.250000  0.507169  0.438163  1
  Al  Al15  1  0.750000  0.492831  0.561837  1
  Rh  Rh16  1  0.750000  0.286844  0.423540  1
  Rh  Rh17  1  0.250000  0.713156  0.576460  1
  Rh  Rh18  1  0.750000  0.787809  0.076846  1
  Rh  Rh19  1  0.250000  0.212191  0.923154  1
  Rh  Rh20  1  0.750000  0.744504  0.811104  1
  Rh  Rh21  1  0.250000  0.255496  0.188896  1
  Rh  Rh22  1  0.750000  0.244236  0.688549  1
  Rh  Rh23  1  0.250000  0.755764  0.311451  1
