# generated using pymatgen
data_TbCdCu3Pd
_symmetry_space_group_name_H-M   'P 1'
_cell_length_a   5.15303146
_cell_length_b   5.20355661
_cell_length_c   5.15303100
_cell_angle_alpha   60.32067552
_cell_angle_beta   59.99999656
_cell_angle_gamma   60.32066568
_symmetry_Int_Tables_number   1
_chemical_formula_structural   TbCdCu3Pd
_chemical_formula_sum   'Tb1 Cd1 Cu3 Pd1'
_cell_volume   98.17454629
_cell_formula_units_Z   1
loop_
 _symmetry_equiv_pos_site_id
 _symmetry_equiv_pos_as_xyz
  1  'x, y, z'
loop_
 _atom_site_type_symbol
 _atom_site_label
 _atom_site_symmetry_multiplicity
 _atom_site_fract_x
 _atom_site_fract_y
 _atom_site_fract_z
 _atom_site_occupancy
  Tb  Tb0  1  0.749551  0.751348  0.749551  1
  Cd  Cd1  1  0.999629  0.001114  0.999629  1
  Cu  Cu2  1  0.375016  0.373884  0.375016  1
  Cu  Cu3  1  0.876085  0.373884  0.375016  1
  Cu  Cu4  1  0.375016  0.373884  0.876085  1
  Pd  Pd5  1  0.374705  0.875887  0.374705  1
