# generated using pymatgen
data_Zr4P4OsRuPt2
_symmetry_space_group_name_H-M   'P 1'
_cell_length_a   3.86809000
_cell_length_b   6.58888000
_cell_length_c   7.48575888
_cell_angle_alpha   91.54845729
_cell_angle_beta   90.00000000
_cell_angle_gamma   90.00000000
_symmetry_Int_Tables_number   1
_chemical_formula_structural   Zr4P4OsRuPt2
_chemical_formula_sum   'Zr4 P4 Os1 Ru1 Pt2'
_cell_volume   190.71523250
_cell_formula_units_Z   1
loop_
 _symmetry_equiv_pos_site_id
 _symmetry_equiv_pos_as_xyz
  1  'x, y, z'
loop_
 _atom_site_type_symbol
 _atom_site_label
 _atom_site_symmetry_multiplicity
 _atom_site_fract_x
 _atom_site_fract_y
 _atom_site_fract_z
 _atom_site_occupancy
  Zr  Zr0  1  0.750000  0.523892  0.319795  1
  Zr  Zr1  1  0.250000  0.975232  0.826183  1
  Zr  Zr2  1  0.750000  0.023806  0.173953  1
  Zr  Zr3  1  0.250000  0.477366  0.680476  1
  P  P4  1  0.250000  0.727904  0.109365  1
  P  P5  1  0.250000  0.246276  0.362970  1
  P  P6  1  0.750000  0.270367  0.890945  1
  P  P7  1  0.750000  0.754013  0.637085  1
  Os  Os8  1  0.250000  0.358092  0.057125  1
  Ru  Ru9  1  0.750000  0.640883  0.942161  1
  Pt  Pt10  1  0.250000  0.850525  0.432508  1
  Pt  Pt11  1  0.750000  0.151645  0.567436  1
