# generated using pymatgen
data_Ac2ZnSiI
_symmetry_space_group_name_H-M   'P 1'
_cell_length_a   4.26062600
_cell_length_b   4.26062656
_cell_length_c   19.17095600
_cell_angle_alpha   90.00000000
_cell_angle_beta   90.00000000
_cell_angle_gamma   119.99999564
_symmetry_Int_Tables_number   1
_chemical_formula_structural   Ac2ZnSiI
_chemical_formula_sum   'Ac4 Zn2 Si2 I2'
_cell_volume   301.38477193
_cell_formula_units_Z   2
loop_
 _symmetry_equiv_pos_site_id
 _symmetry_equiv_pos_as_xyz
  1  'x, y, z'
loop_
 _atom_site_type_symbol
 _atom_site_label
 _atom_site_symmetry_multiplicity
 _atom_site_fract_x
 _atom_site_fract_y
 _atom_site_fract_z
 _atom_site_occupancy
  Ac  Ac0  1  0.000000  0.000000  0.615142  1
  Ac  Ac1  1  0.000000  0.000000  0.384535  1
  Ac  Ac2  1  0.000000  0.000000  0.115142  1
  Ac  Ac3  1  0.000000  0.000000  0.884535  1
  Zn  Zn4  1  0.666667  0.333333  0.501779  1
  Zn  Zn5  1  0.333333  0.666667  0.001779  1
  Si  Si6  1  0.666667  0.333333  0.998236  1
  Si  Si7  1  0.333333  0.666667  0.498236  1
  I  I8  1  0.666667  0.333333  0.250308  1
  I  I9  1  0.333333  0.666667  0.750308  1
