# generated using pymatgen
data_LuHf3(SnRh5)2
_symmetry_space_group_name_H-M   'P 1'
_cell_length_a   4.17495300
_cell_length_b   5.62883698
_cell_length_c   11.15162479
_cell_angle_alpha   89.98935559
_cell_angle_beta   90.00000000
_cell_angle_gamma   90.00000000
_symmetry_Int_Tables_number   1
_chemical_formula_structural   LuHf3(SnRh5)2
_chemical_formula_sum   'Lu1 Hf3 Sn2 Rh10'
_cell_volume   262.06462606
_cell_formula_units_Z   1
loop_
 _symmetry_equiv_pos_site_id
 _symmetry_equiv_pos_as_xyz
  1  'x, y, z'
loop_
 _atom_site_type_symbol
 _atom_site_label
 _atom_site_symmetry_multiplicity
 _atom_site_fract_x
 _atom_site_fract_y
 _atom_site_fract_z
 _atom_site_occupancy
  Lu  Lu0  1  0.500000  0.183572  0.640623  1
  Hf  Hf1  1  0.500000  0.819099  0.358584  1
  Hf  Hf2  1  0.500000  0.682601  0.856981  1
  Hf  Hf3  1  0.500000  0.320012  0.140781  1
  Sn  Sn4  1  0.000000  0.497401  0.499291  1
  Sn  Sn5  1  0.000000  0.999240  0.000668  1
  Rh  Rh6  1  0.500000  0.203355  0.891464  1
  Rh  Rh7  1  0.500000  0.798186  0.114661  1
  Rh  Rh8  1  0.500000  0.697382  0.613944  1
  Rh  Rh9  1  0.500000  0.299282  0.381152  1
  Rh  Rh10  1  0.000000  0.444392  0.752863  1
  Rh  Rh11  1  0.000000  0.562054  0.250906  1
  Rh  Rh12  1  0.000000  0.993417  0.495304  1
  Rh  Rh13  1  0.000000  0.500387  0.001091  1
  Rh  Rh14  1  0.000000  0.061899  0.246953  1
  Rh  Rh15  1  0.000000  0.937721  0.754734  1
