# generated using pymatgen
data_CaFe2(Sb6Pt)2
_symmetry_space_group_name_H-M   'P 1'
_cell_length_a   8.11694104
_cell_length_b   8.11694103
_cell_length_c   8.15024708
_cell_angle_alpha   109.38261735
_cell_angle_beta   109.39375162
_cell_angle_gamma   109.47177842
_symmetry_Int_Tables_number   1
_chemical_formula_structural   CaFe2(Sb6Pt)2
_chemical_formula_sum   'Ca1 Fe2 Sb12 Pt2'
_cell_volume   414.20695979
_cell_formula_units_Z   1
loop_
 _symmetry_equiv_pos_site_id
 _symmetry_equiv_pos_as_xyz
  1  'x, y, z'
loop_
 _atom_site_type_symbol
 _atom_site_label
 _atom_site_symmetry_multiplicity
 _atom_site_fract_x
 _atom_site_fract_y
 _atom_site_fract_z
 _atom_site_occupancy
  Ca  Ca0  1  0.000000  0.000000  0.000000  1
  Fe  Fe1  1  0.000000  0.000000  0.500000  1
  Fe  Fe2  1  0.500000  0.500000  0.500000  1
  Sb  Sb3  1  0.325905  0.179184  0.832904  1
  Sb  Sb4  1  0.163339  0.327112  0.490451  1
  Sb  Sb5  1  0.674095  0.820816  0.167096  1
  Sb  Sb6  1  0.346279  0.493000  0.167096  1
  Sb  Sb7  1  0.653721  0.507000  0.832904  1
  Sb  Sb8  1  0.505399  0.832147  0.652697  1
  Sb  Sb9  1  0.836661  0.672888  0.509549  1
  Sb  Sb10  1  0.849974  0.345614  0.195588  1
  Sb  Sb11  1  0.179450  0.852701  0.347303  1
  Sb  Sb12  1  0.494601  0.167853  0.347303  1
  Sb  Sb13  1  0.820550  0.147299  0.652697  1
  Sb  Sb14  1  0.150026  0.654386  0.804412  1
  Pt  Pt15  1  0.000000  0.500000  0.000000  1
  Pt  Pt16  1  0.500000  0.000000  0.000000  1
