# generated using pymatgen
data_NdSm7(OsBr4)2
_symmetry_space_group_name_H-M   'P 1'
_cell_length_a   9.27470919
_cell_length_b   9.25365671
_cell_length_c   6.62994554
_cell_angle_alpha   89.79628929
_cell_angle_beta   89.49490122
_cell_angle_gamma   89.39265922
_symmetry_Int_Tables_number   1
_chemical_formula_structural   NdSm7(OsBr4)2
_chemical_formula_sum   'Nd1 Sm7 Os2 Br8'
_cell_volume   568.95742315
_cell_formula_units_Z   1
loop_
 _symmetry_equiv_pos_site_id
 _symmetry_equiv_pos_as_xyz
  1  'x, y, z'
loop_
 _atom_site_type_symbol
 _atom_site_label
 _atom_site_symmetry_multiplicity
 _atom_site_fract_x
 _atom_site_fract_y
 _atom_site_fract_z
 _atom_site_occupancy
  Nd  Nd0  1  0.746915  0.099745  0.994012  1
  Sm  Sm1  1  0.098503  0.751517  0.490456  1
  Sm  Sm2  1  0.096025  0.247162  0.995717  1
  Sm  Sm3  1  0.247411  0.095651  0.495957  1
  Sm  Sm4  1  0.904436  0.752394  0.004432  1
  Sm  Sm5  1  0.903211  0.248109  0.510334  1
  Sm  Sm6  1  0.248333  0.901616  0.008852  1
  Sm  Sm7  1  0.753926  0.903371  0.505400  1
  Os  Os8  1  0.997907  0.002540  0.250686  1
  Os  Os9  1  0.003010  0.997080  0.750566  1
  Br  Br10  1  0.587902  0.182455  0.567699  1
  Br  Br11  1  0.816524  0.591557  0.423872  1
  Br  Br12  1  0.406378  0.184724  0.075577  1
  Br  Br13  1  0.183854  0.408314  0.575906  1
  Br  Br14  1  0.591080  0.812492  0.923678  1
  Br  Br15  1  0.412396  0.818279  0.427712  1
  Br  Br16  1  0.181985  0.587599  0.071908  1
  Br  Br17  1  0.820204  0.415395  0.927237  1
