# generated using pymatgen
data_Y2Er5Sn23Ir6
_symmetry_space_group_name_H-M   'P 1'
_cell_length_a   9.84251600
_cell_length_b   9.84259025
_cell_length_c   10.10409700
_cell_angle_alpha   89.99949938
_cell_angle_beta   90.00068109
_cell_angle_gamma   119.98870725
_symmetry_Int_Tables_number   1
_chemical_formula_structural   Y2Er5Sn23Ir6
_chemical_formula_sum   'Y2 Er5 Sn23 Ir6'
_cell_volume   847.79935608
_cell_formula_units_Z   1
loop_
 _symmetry_equiv_pos_site_id
 _symmetry_equiv_pos_as_xyz
  1  'x, y, z'
loop_
 _atom_site_type_symbol
 _atom_site_label
 _atom_site_symmetry_multiplicity
 _atom_site_fract_x
 _atom_site_fract_y
 _atom_site_fract_z
 _atom_site_occupancy
  Y  Y0  1  0.480565  0.519433  0.307115  1
  Y  Y1  1  0.999993  0.000003  0.999966  1
  Er  Er2  1  0.518950  0.481046  0.693416  1
  Er  Er3  1  0.481105  0.962098  0.306719  1
  Er  Er4  1  0.518926  0.037922  0.693287  1
  Er  Er5  1  0.037906  0.518904  0.306708  1
  Er  Er6  1  0.962081  0.481067  0.693303  1
  Sn  Sn7  1  0.119740  0.880263  0.284265  1
  Sn  Sn8  1  0.880317  0.119678  0.715798  1
  Sn  Sn9  1  0.119022  0.238454  0.284156  1
  Sn  Sn10  1  0.880567  0.761029  0.715751  1
  Sn  Sn11  1  0.761542  0.880977  0.284156  1
  Sn  Sn12  1  0.238974  0.119431  0.715750  1
  Sn  Sn13  1  0.777120  0.222882  0.456919  1
  Sn  Sn14  1  0.222889  0.777107  0.543146  1
  Sn  Sn15  1  0.777625  0.554248  0.457093  1
  Sn  Sn16  1  0.222513  0.445761  0.543490  1
  Sn  Sn17  1  0.445750  0.222376  0.457086  1
  Sn  Sn18  1  0.554239  0.777482  0.543490  1
  Sn  Sn19  1  0.352366  0.999888  0.999830  1
  Sn  Sn20  1  0.647621  0.000041  0.999983  1
  Sn  Sn21  1  0.999961  0.352367  0.999985  1
  Sn  Sn22  1  0.000115  0.647639  0.999831  1
  Sn  Sn23  1  0.647776  0.647618  0.999959  1
  Sn  Sn24  1  0.352386  0.352224  0.999963  1
  Sn  Sn25  1  0.332823  0.667178  0.124774  1
  Sn  Sn26  1  0.666661  0.333340  0.874599  1
  Sn  Sn27  1  0.333328  0.666670  0.827445  1
  Sn  Sn28  1  0.666680  0.333325  0.172450  1
  Sn  Sn29  1  0.000005  0.999990  0.500088  1
  Ir  Ir30  1  0.830713  0.169291  0.198898  1
  Ir  Ir31  1  0.169192  0.830803  0.800949  1
  Ir  Ir32  1  0.831631  0.661985  0.198676  1
  Ir  Ir33  1  0.169229  0.338334  0.801137  1
  Ir  Ir34  1  0.338016  0.168371  0.198677  1
  Ir  Ir35  1  0.661668  0.830774  0.801140  1
