# generated using pymatgen
data_CsZnCuF6
_symmetry_space_group_name_H-M   'P 1'
_cell_length_a   7.39871713
_cell_length_b   7.39871652
_cell_length_c   7.39871727
_cell_angle_alpha   120.61989850
_cell_angle_beta   120.08884454
_cell_angle_gamma   89.38792501
_symmetry_Int_Tables_number   1
_chemical_formula_structural   CsZnCuF6
_chemical_formula_sum   'Cs2 Zn2 Cu2 F12'
_cell_volume   284.82826074
_cell_formula_units_Z   2
loop_
 _symmetry_equiv_pos_site_id
 _symmetry_equiv_pos_as_xyz
  1  'x, y, z'
loop_
 _atom_site_type_symbol
 _atom_site_label
 _atom_site_symmetry_multiplicity
 _atom_site_fract_x
 _atom_site_fract_y
 _atom_site_fract_z
 _atom_site_occupancy
  Cs  Cs0  1  0.371573  0.621573  0.750000  1
  Cs  Cs1  1  0.628427  0.378427  0.250000  1
  Zn  Zn2  1  0.000000  0.000000  0.500000  1
  Zn  Zn3  1  0.000000  0.500000  0.000000  1
  Cu  Cu4  1  0.000000  0.000000  0.000000  1
  Cu  Cu5  1  0.500000  0.000000  0.500000  1
  F  F6  1  0.315815  0.065815  0.250000  1
  F  F7  1  0.927289  0.677289  0.250000  1
  F  F8  1  0.329578  0.689355  0.261567  1
  F  F9  1  0.927788  0.068011  0.238433  1
  F  F10  1  0.329578  0.068011  0.640224  1
  F  F11  1  0.927788  0.689355  0.859776  1
  F  F12  1  0.684185  0.934185  0.750000  1
  F  F13  1  0.072711  0.322711  0.750000  1
  F  F14  1  0.670422  0.310645  0.738433  1
  F  F15  1  0.072212  0.931989  0.761567  1
  F  F16  1  0.670422  0.931989  0.359776  1
  F  F17  1  0.072212  0.310645  0.140224  1
