# generated using pymatgen
data_DyErSb5
_symmetry_space_group_name_H-M   'P 1'
_cell_length_a   4.24325600
_cell_length_b   13.13647125
_cell_length_c   14.63084415
_cell_angle_alpha   77.65075967
_cell_angle_beta   90.00000000
_cell_angle_gamma   90.00000000
_symmetry_Int_Tables_number   1
_chemical_formula_structural   DyErSb5
_chemical_formula_sum   'Dy4 Er4 Sb20'
_cell_volume   796.67394384
_cell_formula_units_Z   4
loop_
 _symmetry_equiv_pos_site_id
 _symmetry_equiv_pos_as_xyz
  1  'x, y, z'
loop_
 _atom_site_type_symbol
 _atom_site_label
 _atom_site_symmetry_multiplicity
 _atom_site_fract_x
 _atom_site_fract_y
 _atom_site_fract_z
 _atom_site_occupancy
  Dy  Dy0  1  0.250000  0.669278  0.577372  1
  Dy  Dy1  1  0.750000  0.330722  0.422628  1
  Dy  Dy2  1  0.250000  0.952720  0.360411  1
  Dy  Dy3  1  0.750000  0.047280  0.639589  1
  Er  Er4  1  0.250000  0.393761  0.771305  1
  Er  Er5  1  0.750000  0.606239  0.228695  1
  Er  Er6  1  0.250000  0.662345  0.855485  1
  Er  Er7  1  0.750000  0.337655  0.144515  1
  Sb  Sb8  1  0.250000  0.143393  0.779583  1
  Sb  Sb9  1  0.750000  0.856607  0.220417  1
  Sb  Sb10  1  0.250000  0.142910  0.482920  1
  Sb  Sb11  1  0.750000  0.857090  0.517080  1
  Sb  Sb12  1  0.250000  0.153733  0.171891  1
  Sb  Sb13  1  0.750000  0.846267  0.828109  1
  Sb  Sb14  1  0.250000  0.420589  0.975668  1
  Sb  Sb15  1  0.750000  0.579411  0.024332  1
  Sb  Sb16  1  0.750000  0.030002  0.906638  1
  Sb  Sb17  1  0.250000  0.969998  0.093362  1
  Sb  Sb18  1  0.750000  0.139331  0.321718  1
  Sb  Sb19  1  0.250000  0.860669  0.678282  1
  Sb  Sb20  1  0.750000  0.279496  0.938445  1
  Sb  Sb21  1  0.250000  0.720504  0.061555  1
  Sb  Sb22  1  0.750000  0.287256  0.653820  1
  Sb  Sb23  1  0.250000  0.712744  0.346180  1
  Sb  Sb24  1  0.750000  0.575364  0.736083  1
  Sb  Sb25  1  0.250000  0.424636  0.263917  1
  Sb  Sb26  1  0.750000  0.574625  0.446366  1
  Sb  Sb27  1  0.250000  0.425375  0.553634  1
