# generated using pymatgen
data_TmTh(AlRh)2
_symmetry_space_group_name_H-M   'P 1'
_cell_length_a   4.28026900
_cell_length_b   6.91080100
_cell_length_c   8.03439600
_cell_angle_alpha   90.00000000
_cell_angle_beta   90.00000000
_cell_angle_gamma   90.00000000
_symmetry_Int_Tables_number   1
_chemical_formula_structural   TmTh(AlRh)2
_chemical_formula_sum   'Tm2 Th2 Al4 Rh4'
_cell_volume   237.65813497
_cell_formula_units_Z   2
loop_
 _symmetry_equiv_pos_site_id
 _symmetry_equiv_pos_as_xyz
  1  'x, y, z'
loop_
 _atom_site_type_symbol
 _atom_site_label
 _atom_site_symmetry_multiplicity
 _atom_site_fract_x
 _atom_site_fract_y
 _atom_site_fract_z
 _atom_site_occupancy
  Tm  Tm0  1  0.250000  0.457568  0.182679  1
  Tm  Tm1  1  0.750000  0.042432  0.682679  1
  Th  Th2  1  0.250000  0.962667  0.324588  1
  Th  Th3  1  0.750000  0.537333  0.824588  1
  Al  Al4  1  0.750000  0.625972  0.438462  1
  Al  Al5  1  0.750000  0.134038  0.057863  1
  Al  Al6  1  0.250000  0.365962  0.557863  1
  Al  Al7  1  0.250000  0.874028  0.938462  1
  Rh  Rh8  1  0.750000  0.757585  0.121173  1
  Rh  Rh9  1  0.750000  0.257688  0.375235  1
  Rh  Rh10  1  0.250000  0.242312  0.875235  1
  Rh  Rh11  1  0.250000  0.742415  0.621173  1
