# generated using pymatgen
data_RbTc12Cl25
_symmetry_space_group_name_H-M   'P 1'
_cell_length_a   9.77124890
_cell_length_b   10.66290980
_cell_length_c   11.34142689
_cell_angle_alpha   82.37637244
_cell_angle_beta   73.13251371
_cell_angle_gamma   86.72364971
_symmetry_Int_Tables_number   1
_chemical_formula_structural   RbTc12Cl25
_chemical_formula_sum   'Rb1 Tc12 Cl25'
_cell_volume   1120.61330157
_cell_formula_units_Z   1
loop_
 _symmetry_equiv_pos_site_id
 _symmetry_equiv_pos_as_xyz
  1  'x, y, z'
loop_
 _atom_site_type_symbol
 _atom_site_label
 _atom_site_symmetry_multiplicity
 _atom_site_fract_x
 _atom_site_fract_y
 _atom_site_fract_z
 _atom_site_occupancy
  Rb  Rb0  1  0.500000  0.000000  0.000000  1
  Tc  Tc1  1  0.833223  0.258519  0.121039  1
  Tc  Tc2  1  0.166777  0.741481  0.878961  1
  Tc  Tc3  1  0.755597  0.119947  0.285662  1
  Tc  Tc4  1  0.244403  0.880053  0.714338  1
  Tc  Tc5  1  0.069266  0.276089  0.191749  1
  Tc  Tc6  1  0.930734  0.723911  0.808251  1
  Tc  Tc7  1  0.846315  0.433288  0.264711  1
  Tc  Tc8  1  0.153685  0.566712  0.735289  1
  Tc  Tc9  1  0.767175  0.296373  0.430886  1
  Tc  Tc10  1  0.232825  0.703627  0.569114  1
  Tc  Tc11  1  0.989783  0.138765  0.357788  1
  Tc  Tc12  1  0.010217  0.861235  0.642212  1
  Cl  Cl13  1  0.943239  0.966863  0.263270  1
  Cl  Cl14  1  0.056761  0.033137  0.736730  1
  Cl  Cl15  1  0.963368  0.272500  0.514384  1
  Cl  Cl16  1  0.036632  0.727500  0.485616  1
  Cl  Cl17  1  0.660299  0.423274  0.169727  1
  Cl  Cl18  1  0.339701  0.576726  0.830273  1
  Cl  Cl19  1  0.079832  0.463091  0.279133  1
  Cl  Cl20  1  0.920168  0.536909  0.720867  1
  Cl  Cl21  1  0.000000  0.500000  0.000000  1
  Cl  Cl22  1  0.605723  0.968483  0.259167  1
  Cl  Cl23  1  0.394277  0.031517  0.740833  1
  Cl  Cl24  1  0.185852  0.027389  0.412842  1
  Cl  Cl25  1  0.814148  0.972611  0.587158  1
  Cl  Cl26  1  0.554608  0.224773  0.405369  1
  Cl  Cl27  1  0.445392  0.775227  0.594631  1
  Cl  Cl28  1  0.058299  0.164589  0.027870  1
  Cl  Cl29  1  0.941701  0.835411  0.972130  1
  Cl  Cl30  1  0.778034  0.637563  0.308480  1
  Cl  Cl31  1  0.221966  0.362437  0.691520  1
  Cl  Cl32  1  0.750516  0.223726  0.952707  1
  Cl  Cl33  1  0.249484  0.776274  0.047293  1
  Cl  Cl34  1  0.319662  0.269690  0.118586  1
  Cl  Cl35  1  0.680338  0.730310  0.881414  1
  Cl  Cl36  1  0.637810  0.397242  0.597534  1
  Cl  Cl37  1  0.362190  0.602758  0.402466  1
