# generated using pymatgen
data_Sr4Sn2Pt3Rh
_symmetry_space_group_name_H-M   'P 1'
_cell_length_a   5.95486968
_cell_length_b   5.96948698
_cell_length_c   8.43097900
_cell_angle_alpha   77.55237954
_cell_angle_beta   78.01850229
_cell_angle_gamma   59.44191526
_symmetry_Int_Tables_number   1
_chemical_formula_structural   Sr4Sn2Pt3Rh
_chemical_formula_sum   'Sr4 Sn2 Pt3 Rh1'
_cell_volume   250.29207833
_cell_formula_units_Z   1
loop_
 _symmetry_equiv_pos_site_id
 _symmetry_equiv_pos_as_xyz
  1  'x, y, z'
loop_
 _atom_site_type_symbol
 _atom_site_label
 _atom_site_symmetry_multiplicity
 _atom_site_fract_x
 _atom_site_fract_y
 _atom_site_fract_z
 _atom_site_occupancy
  Sr  Sr0  1  0.789680  0.508990  0.350158  1
  Sr  Sr1  1  0.495375  0.206970  0.145788  1
  Sr  Sr2  1  0.210288  0.492227  0.650554  1
  Sr  Sr3  1  0.506155  0.789571  0.853178  1
  Sn  Sn4  1  0.135079  0.859329  0.247257  1
  Sn  Sn5  1  0.865227  0.131327  0.753509  1
  Pt  Pt6  1  0.268678  0.997674  0.498499  1
  Pt  Pt7  1  0.999002  0.277881  0.000564  1
  Pt  Pt8  1  0.727479  0.002794  0.499244  1
  Rh  Rh9  1  0.003034  0.733239  0.001249  1
