# generated using pymatgen
data_Zr5Zn6GaRh12
_symmetry_space_group_name_H-M   'P 1'
_cell_length_a   4.46947800
_cell_length_b   6.26199700
_cell_length_c   13.31356001
_cell_angle_alpha   90.00000000
_cell_angle_beta   89.99672377
_cell_angle_gamma   90.00000000
_symmetry_Int_Tables_number   1
_chemical_formula_structural   Zr5Zn6GaRh12
_chemical_formula_sum   'Zr5 Zn6 Ga1 Rh12'
_cell_volume   372.61802415
_cell_formula_units_Z   1
loop_
 _symmetry_equiv_pos_site_id
 _symmetry_equiv_pos_as_xyz
  1  'x, y, z'
loop_
 _atom_site_type_symbol
 _atom_site_label
 _atom_site_symmetry_multiplicity
 _atom_site_fract_x
 _atom_site_fract_y
 _atom_site_fract_z
 _atom_site_occupancy
  Zr  Zr0  1  0.000019  0.500000  0.994385  1
  Zr  Zr1  1  0.499776  0.000000  0.164268  1
  Zr  Zr2  1  0.999760  0.500000  0.333340  1
  Zr  Zr3  1  0.500005  0.000000  0.502374  1
  Zr  Zr4  1  0.000225  0.500000  0.672288  1
  Zn  Zn5  1  0.999985  0.000000  0.002390  1
  Zn  Zn6  1  0.499790  0.500000  0.160165  1
  Zn  Zn7  1  0.999771  0.000000  0.333355  1
  Zn  Zn8  1  0.500009  0.500000  0.506491  1
  Zn  Zn9  1  0.000221  0.000000  0.664272  1
  Zn  Zn10  1  0.500201  0.500000  0.833342  1
  Ga  Ga11  1  0.500248  0.000000  0.833323  1
  Rh  Rh12  1  0.500017  0.240998  0.991723  1
  Rh  Rh13  1  0.500017  0.759002  0.991723  1
  Rh  Rh14  1  0.999770  0.251381  0.165344  1
  Rh  Rh15  1  0.999770  0.748619  0.165344  1
  Rh  Rh16  1  0.499752  0.250772  0.333325  1
  Rh  Rh17  1  0.499752  0.749228  0.333325  1
  Rh  Rh18  1  0.999999  0.251396  0.501356  1
  Rh  Rh19  1  0.999999  0.748604  0.501356  1
  Rh  Rh20  1  0.500238  0.241017  0.674919  1
  Rh  Rh21  1  0.500238  0.758983  0.674919  1
  Rh  Rh22  1  0.000212  0.234293  0.833337  1
  Rh  Rh23  1  0.000212  0.765707  0.833337  1
