# generated using pymatgen
data_Ti3Mn3SiBAs
_symmetry_space_group_name_H-M   'P 1'
_cell_length_a   6.38708100
_cell_length_b   6.38708040
_cell_length_c   3.16417200
_cell_angle_alpha   90.00000000
_cell_angle_beta   90.00000000
_cell_angle_gamma   119.99999792
_symmetry_Int_Tables_number   1
_chemical_formula_structural   Ti3Mn3SiBAs
_chemical_formula_sum   'Ti3 Mn3 Si1 B1 As1'
_cell_volume   111.78808872
_cell_formula_units_Z   1
loop_
 _symmetry_equiv_pos_site_id
 _symmetry_equiv_pos_as_xyz
  1  'x, y, z'
loop_
 _atom_site_type_symbol
 _atom_site_label
 _atom_site_symmetry_multiplicity
 _atom_site_fract_x
 _atom_site_fract_y
 _atom_site_fract_z
 _atom_site_occupancy
  Ti  Ti0  1  0.623946  0.005104  0.000000  1
  Ti  Ti1  1  0.381158  0.376054  0.000000  1
  Ti  Ti2  1  0.994896  0.618842  0.000000  1
  Mn  Mn3  1  0.236332  0.003102  0.500000  1
  Mn  Mn4  1  0.766771  0.763668  0.500000  1
  Mn  Mn5  1  0.996898  0.233229  0.500000  1
  Si  Si6  1  0.666667  0.333333  0.500000  1
  B  B7  1  0.000000  0.000000  0.000000  1
  As  As8  1  0.333333  0.666667  0.500000  1
