# generated using pymatgen
data_Ho11ThCo4
_symmetry_space_group_name_H-M   'P 1'
_cell_length_a   6.19078971
_cell_length_b   6.87436996
_cell_length_c   9.41884700
_cell_angle_alpha   90.00000000
_cell_angle_beta   90.00000000
_cell_angle_gamma   91.20599599
_symmetry_Int_Tables_number   1
_chemical_formula_structural   Ho11ThCo4
_chemical_formula_sum   'Ho11 Th1 Co4'
_cell_volume   400.75641491
_cell_formula_units_Z   1
loop_
 _symmetry_equiv_pos_site_id
 _symmetry_equiv_pos_as_xyz
  1  'x, y, z'
loop_
 _atom_site_type_symbol
 _atom_site_label
 _atom_site_symmetry_multiplicity
 _atom_site_fract_x
 _atom_site_fract_y
 _atom_site_fract_z
 _atom_site_occupancy
  Ho  Ho0  1  0.673812  0.175746  0.067990  1
  Ho  Ho1  1  0.139702  0.043032  0.250000  1
  Ho  Ho2  1  0.827402  0.675501  0.433867  1
  Ho  Ho3  1  0.323738  0.827308  0.931025  1
  Ho  Ho4  1  0.177052  0.324260  0.568599  1
  Ho  Ho5  1  0.673812  0.175746  0.432010  1
  Ho  Ho6  1  0.177052  0.324260  0.931401  1
  Ho  Ho7  1  0.323738  0.827308  0.568975  1
  Ho  Ho8  1  0.858700  0.957238  0.750000  1
  Ho  Ho9  1  0.643620  0.456622  0.750000  1
  Ho  Ho10  1  0.827402  0.675501  0.066133  1
  Th  Th11  1  0.348304  0.551484  0.250000  1
  Co  Co12  1  0.962510  0.389216  0.250000  1
  Co  Co13  1  0.452172  0.113420  0.750000  1
  Co  Co14  1  0.544169  0.871003  0.250000  1
  Co  Co15  1  0.046812  0.612357  0.750000  1
