# generated using pymatgen
data_Lu6Al19Si5Os8
_symmetry_space_group_name_H-M   'P 1'
_cell_length_a   8.66487400
_cell_length_b   8.65028471
_cell_length_c   9.54095100
_cell_angle_alpha   90.00000000
_cell_angle_beta   90.00000000
_cell_angle_gamma   120.05580693
_symmetry_Int_Tables_number   1
_chemical_formula_structural   Lu6Al19Si5Os8
_chemical_formula_sum   'Lu6 Al19 Si5 Os8'
_cell_volume   618.97121279
_cell_formula_units_Z   1
loop_
 _symmetry_equiv_pos_site_id
 _symmetry_equiv_pos_as_xyz
  1  'x, y, z'
loop_
 _atom_site_type_symbol
 _atom_site_label
 _atom_site_symmetry_multiplicity
 _atom_site_fract_x
 _atom_site_fract_y
 _atom_site_fract_z
 _atom_site_occupancy
  Lu  Lu0  1  0.196006  0.392012  0.250000  1
  Lu  Lu1  1  0.804365  0.608731  0.750000  1
  Lu  Lu2  1  0.605534  0.805201  0.250000  1
  Lu  Lu3  1  0.392270  0.196724  0.750000  1
  Lu  Lu4  1  0.199667  0.805201  0.250000  1
  Lu  Lu5  1  0.804454  0.196724  0.750000  1
  Al  Al6  1  0.164528  0.329055  0.579136  1
  Al  Al7  1  0.834834  0.669667  0.421061  1
  Al  Al8  1  0.670123  0.835517  0.577745  1
  Al  Al9  1  0.834834  0.669667  0.078939  1
  Al  Al10  1  0.328779  0.165289  0.421212  1
  Al  Al11  1  0.164528  0.329055  0.920864  1
  Al  Al12  1  0.165394  0.835517  0.577745  1
  Al  Al13  1  0.328779  0.165289  0.078788  1
  Al  Al14  1  0.836510  0.165289  0.421212  1
  Al  Al15  1  0.670123  0.835517  0.922255  1
  Al  Al16  1  0.836510  0.165289  0.078788  1
  Al  Al17  1  0.165394  0.835517  0.922255  1
  Al  Al18  1  0.437653  0.875307  0.750000  1
  Al  Al19  1  0.873729  0.434100  0.250000  1
  Al  Al20  1  0.126934  0.564168  0.750000  1
  Al  Al21  1  0.560373  0.434100  0.250000  1
  Al  Al22  1  0.437235  0.564168  0.750000  1
  Al  Al23  1  0.999806  0.999612  0.250000  1
  Al  Al24  1  0.000373  0.000746  0.750000  1
  Si  Si25  1  0.332551  0.665103  0.039709  1
  Si  Si26  1  0.667241  0.334480  0.959009  1
  Si  Si27  1  0.667241  0.334480  0.540991  1
  Si  Si28  1  0.332551  0.665103  0.460291  1
  Si  Si29  1  0.563422  0.126845  0.250000  1
  Os  Os30  1  0.500620  0.001240  0.006492  1
  Os  Os31  1  0.999060  0.498977  0.000419  1
  Os  Os32  1  0.500620  0.001240  0.493508  1
  Os  Os33  1  0.499917  0.498977  0.000419  1
  Os  Os34  1  0.999060  0.498977  0.499581  1
  Os  Os35  1  0.499917  0.498977  0.499581  1
  Os  Os36  1  0.999534  0.999067  0.999984  1
  Os  Os37  1  0.999534  0.999067  0.500016  1
