# generated using pymatgen
data_Er6TmSc(Si4Mo3)4
_symmetry_space_group_name_H-M   'P 1'
_cell_length_a   6.71890662
_cell_length_b   6.91379912
_cell_length_c   12.87264722
_cell_angle_alpha   89.91480769
_cell_angle_beta   89.96669073
_cell_angle_gamma   89.99670400
_symmetry_Int_Tables_number   1
_chemical_formula_structural   Er6TmSc(Si4Mo3)4
_chemical_formula_sum   'Er6 Tm1 Sc1 Si16 Mo12'
_cell_volume   597.97451552
_cell_formula_units_Z   1
loop_
 _symmetry_equiv_pos_site_id
 _symmetry_equiv_pos_as_xyz
  1  'x, y, z'
loop_
 _atom_site_type_symbol
 _atom_site_label
 _atom_site_symmetry_multiplicity
 _atom_site_fract_x
 _atom_site_fract_y
 _atom_site_fract_z
 _atom_site_occupancy
  Er  Er0  1  0.496564  0.331960  0.093259  1
  Er  Er1  1  0.996761  0.167742  0.406780  1
  Er  Er2  1  0.503245  0.667394  0.593429  1
  Er  Er3  1  0.003055  0.832838  0.908173  1
  Er  Er4  1  0.502794  0.668128  0.907532  1
  Er  Er5  1  0.003376  0.832325  0.593503  1
  Tm  Tm6  1  0.496694  0.331665  0.405215  1
  Sc  Sc7  1  0.995253  0.169552  0.095012  1
  Si  Si8  1  0.659965  0.041160  0.547042  1
  Si  Si9  1  0.159420  0.456273  0.954334  1
  Si  Si10  1  0.334239  0.962235  0.047642  1
  Si  Si11  1  0.839570  0.541378  0.452641  1
  Si  Si12  1  0.340610  0.959079  0.452439  1
  Si  Si13  1  0.841670  0.537086  0.047818  1
  Si  Si14  1  0.661285  0.041282  0.954368  1
  Si  Si15  1  0.160178  0.458922  0.546973  1
  Si  Si16  1  0.534296  0.368449  0.750289  1
  Si  Si17  1  0.033915  0.131418  0.750064  1
  Si  Si18  1  0.466293  0.631532  0.249681  1
  Si  Si19  1  0.966958  0.871235  0.247934  1
  Si  Si20  1  0.802175  0.632189  0.750735  1
  Si  Si21  1  0.301673  0.867619  0.750452  1
  Si  Si22  1  0.195719  0.365031  0.248123  1
  Si  Si23  1  0.701601  0.132811  0.248332  1
  Mo  Mo24  1  0.829696  0.335380  0.625105  1
  Mo  Mo25  1  0.329920  0.165367  0.875238  1
  Mo  Mo26  1  0.170821  0.664357  0.124755  1
  Mo  Mo27  1  0.671064  0.835398  0.374459  1
  Mo  Mo28  1  0.170091  0.665465  0.374127  1
  Mo  Mo29  1  0.670056  0.836003  0.124581  1
  Mo  Mo30  1  0.830336  0.333740  0.876091  1
  Mo  Mo31  1  0.330452  0.164639  0.624891  1
  Mo  Mo32  1  0.666036  0.997776  0.750621  1
  Mo  Mo33  1  0.166153  0.501787  0.750228  1
  Mo  Mo34  1  0.333892  0.003436  0.248811  1
  Mo  Mo35  1  0.834172  0.497347  0.249324  1
