# generated using pymatgen
data_Ba16Na3Li(Mo2N7)4
_symmetry_space_group_name_H-M   'P 1'
_cell_length_a   6.63925355
_cell_length_b   10.42498166
_cell_length_c   17.73893459
_cell_angle_alpha   63.19560471
_cell_angle_beta   90.29112903
_cell_angle_gamma   90.43239462
_symmetry_Int_Tables_number   1
_chemical_formula_structural   Ba16Na3Li(Mo2N7)4
_chemical_formula_sum   'Ba16 Na3 Li1 Mo8 N28'
_cell_volume   1095.82726785
_cell_formula_units_Z   1
loop_
 _symmetry_equiv_pos_site_id
 _symmetry_equiv_pos_as_xyz
  1  'x, y, z'
loop_
 _atom_site_type_symbol
 _atom_site_label
 _atom_site_symmetry_multiplicity
 _atom_site_fract_x
 _atom_site_fract_y
 _atom_site_fract_z
 _atom_site_occupancy
  Ba  Ba0  1  0.869969  0.298529  0.621221  1
  Ba  Ba1  1  0.861927  0.695928  0.877540  1
  Ba  Ba2  1  0.131091  0.698640  0.380635  1
  Ba  Ba3  1  0.132975  0.304442  0.117591  1
  Ba  Ba4  1  0.286891  0.260080  0.488358  1
  Ba  Ba5  1  0.286023  0.740680  0.013322  1
  Ba  Ba6  1  0.717138  0.738699  0.516768  1
  Ba  Ba7  1  0.714172  0.261086  0.985525  1
  Ba  Ba8  1  0.783683  0.149565  0.434087  1
  Ba  Ba9  1  0.783194  0.850604  0.068330  1
  Ba  Ba10  1  0.227976  0.851595  0.569269  1
  Ba  Ba11  1  0.215970  0.152214  0.930537  1
  Ba  Ba12  1  0.956666  0.500342  0.250486  1
  Ba  Ba13  1  0.036458  0.504843  0.749225  1
  Ba  Ba14  1  0.668399  0.000553  0.250935  1
  Ba  Ba15  1  0.328680  0.999061  0.749646  1
  Na  Na16  1  0.529884  0.330890  0.762621  1
  Na  Na17  1  0.469597  0.336589  0.261405  1
  Na  Na18  1  0.469174  0.663565  0.239186  1
  Li  Li19  1  0.547416  0.628193  0.738237  1
  Mo  Mo20  1  0.778066  0.946813  0.657233  1
  Mo  Mo21  1  0.789536  0.048745  0.844357  1
  Mo  Mo22  1  0.209608  0.049926  0.344552  1
  Mo  Mo23  1  0.210948  0.952103  0.155457  1
  Mo  Mo24  1  0.677487  0.513464  0.410218  1
  Mo  Mo25  1  0.678620  0.487802  0.090114  1
  Mo  Mo26  1  0.322683  0.488167  0.593249  1
  Mo  Mo27  1  0.329298  0.520634  0.903295  1
  N  N28  1  0.138115  0.760594  0.191239  1
  N  N29  1  0.136637  0.240832  0.308000  1
  N  N30  1  0.865734  0.239935  0.806770  1
  N  N31  1  0.818207  0.749627  0.696585  1
  N  N32  1  0.544414  0.420353  0.357709  1
  N  N33  1  0.552499  0.579334  0.144616  1
  N  N34  1  0.448694  0.579425  0.649059  1
  N  N35  1  0.474640  0.437309  0.848637  1
  N  N36  1  0.459504  0.995080  0.100914  1
  N  N37  1  0.457945  0.007612  0.400240  1
  N  N38  1  0.541587  0.010122  0.899367  1
  N  N39  1  0.540428  0.009949  0.595910  1
  N  N40  1  0.720981  0.294153  0.160383  1
  N  N41  1  0.276720  0.295038  0.663378  1
  N  N42  1  0.268262  0.709967  0.832648  1
  N  N43  1  0.725630  0.705073  0.336718  1
  N  N44  1  0.932326  0.574517  0.060059  1
  N  N45  1  0.927665  0.422396  0.441076  1
  N  N46  1  0.083305  0.421172  0.935085  1
  N  N47  1  0.071181  0.576455  0.562247  1
  N  N48  1  0.989274  0.051509  0.586860  1
  N  N49  1  0.986561  0.935595  0.919259  1
  N  N50  1  0.013140  0.935247  0.419493  1
  N  N51  1  0.014223  0.065952  0.080219  1
  N  N52  1  0.501112  0.508399  0.996770  1
  N  N53  1  0.502665  0.503146  0.502010  1
  N  N54  1  0.762923  0.997064  0.751101  1
  N  N55  1  0.232095  0.000394  0.250247  1
