# generated using pymatgen
data_Be7SiMo4
_symmetry_space_group_name_H-M   'P 1'
_cell_length_a   4.48178200
_cell_length_b   4.48178194
_cell_length_c   7.41247800
_cell_angle_alpha   90.00000000
_cell_angle_beta   90.00000000
_cell_angle_gamma   120.00000042
_symmetry_Int_Tables_number   1
_chemical_formula_structural   Be7SiMo4
_chemical_formula_sum   'Be7 Si1 Mo4'
_cell_volume   128.94232527
_cell_formula_units_Z   1
loop_
 _symmetry_equiv_pos_site_id
 _symmetry_equiv_pos_as_xyz
  1  'x, y, z'
loop_
 _atom_site_type_symbol
 _atom_site_label
 _atom_site_symmetry_multiplicity
 _atom_site_fract_x
 _atom_site_fract_y
 _atom_site_fract_z
 _atom_site_occupancy
  Be  Be0  1  0.000000  0.000000  0.000000  1
  Be  Be1  1  0.828717  0.171283  0.243347  1
  Be  Be2  1  0.828717  0.657433  0.243347  1
  Be  Be3  1  0.342567  0.171283  0.243347  1
  Be  Be4  1  0.171283  0.828717  0.756653  1
  Be  Be5  1  0.171283  0.342567  0.756653  1
  Be  Be6  1  0.657433  0.828717  0.756653  1
  Si  Si7  1  0.000000  0.000000  0.500000  1
  Mo  Mo8  1  0.333333  0.666667  0.436315  1
  Mo  Mo9  1  0.666667  0.333333  0.563685  1
  Mo  Mo10  1  0.666667  0.333333  0.938897  1
  Mo  Mo11  1  0.333333  0.666667  0.061103  1
