# generated using pymatgen
data_Er4TcB16Ir3
_symmetry_space_group_name_H-M   'P 1'
_cell_length_a   3.55816600
_cell_length_b   5.95830384
_cell_length_c   11.54797295
_cell_angle_alpha   89.88308163
_cell_angle_beta   90.00000000
_cell_angle_gamma   90.00000000
_symmetry_Int_Tables_number   1
_chemical_formula_structural   Er4TcB16Ir3
_chemical_formula_sum   'Er4 Tc1 B16 Ir3'
_cell_volume   244.82383999
_cell_formula_units_Z   1
loop_
 _symmetry_equiv_pos_site_id
 _symmetry_equiv_pos_as_xyz
  1  'x, y, z'
loop_
 _atom_site_type_symbol
 _atom_site_label
 _atom_site_symmetry_multiplicity
 _atom_site_fract_x
 _atom_site_fract_y
 _atom_site_fract_z
 _atom_site_occupancy
  Er  Er0  1  0.500000  0.369521  0.149641  1
  Er  Er1  1  0.500000  0.630680  0.853295  1
  Er  Er2  1  0.500000  0.130993  0.648062  1
  Er  Er3  1  0.500000  0.869486  0.348367  1
  Tc  Tc4  1  0.500000  0.859908  0.091824  1
  B  B5  1  0.000000  0.112776  0.047903  1
  B  B6  1  0.000000  0.885572  0.953977  1
  B  B7  1  0.000000  0.387429  0.547173  1
  B  B8  1  0.000000  0.612841  0.452183  1
  B  B9  1  0.000000  0.136026  0.470202  1
  B  B10  1  0.000000  0.863818  0.529654  1
  B  B11  1  0.000000  0.364123  0.970577  1
  B  B12  1  0.000000  0.634116  0.030403  1
  B  B13  1  0.000000  0.024846  0.192694  1
  B  B14  1  0.000000  0.972016  0.808210  1
  B  B15  1  0.000000  0.474099  0.693091  1
  B  B16  1  0.000000  0.523963  0.306935  1
  B  B17  1  0.000000  0.209040  0.312395  1
  B  B18  1  0.000000  0.792484  0.687529  1
  B  B19  1  0.000000  0.292435  0.812795  1
  B  B20  1  0.000000  0.710076  0.186547  1
  Ir  Ir21  1  0.500000  0.356184  0.404715  1
  Ir  Ir22  1  0.500000  0.645434  0.597771  1
  Ir  Ir23  1  0.500000  0.142135  0.904056  1
