# generated using pymatgen
data_Y12Fe2Ni3Pb
_symmetry_space_group_name_H-M   'P 1'
_cell_length_a   8.40137936
_cell_length_b   8.40181253
_cell_length_c   8.40137800
_cell_angle_alpha   109.47476363
_cell_angle_beta   110.52192385
_cell_angle_gamma   108.42175544
_symmetry_Int_Tables_number   1
_chemical_formula_structural   Y12Fe2Ni3Pb
_chemical_formula_sum   'Y12 Fe2 Ni3 Pb1'
_cell_volume   456.37008653
_cell_formula_units_Z   1
loop_
 _symmetry_equiv_pos_site_id
 _symmetry_equiv_pos_as_xyz
  1  'x, y, z'
loop_
 _atom_site_type_symbol
 _atom_site_label
 _atom_site_symmetry_multiplicity
 _atom_site_fract_x
 _atom_site_fract_y
 _atom_site_fract_z
 _atom_site_occupancy
  Y  Y0  1  0.289545  0.181629  0.471183  1
  Y  Y1  1  0.710455  0.818371  0.528817  1
  Y  Y2  1  0.289554  0.818371  0.107916  1
  Y  Y3  1  0.710446  0.181629  0.892084  1
  Y  Y4  1  0.623191  0.317160  0.306051  1
  Y  Y5  1  0.376809  0.682840  0.693949  1
  Y  Y6  1  0.011109  0.317160  0.693970  1
  Y  Y7  1  0.988891  0.682840  0.306030  1
  Y  Y8  1  0.213124  0.407243  0.194121  1
  Y  Y9  1  0.786876  0.592757  0.805879  1
  Y  Y10  1  0.213094  0.018957  0.805861  1
  Y  Y11  1  0.786906  0.981043  0.194139  1
  Fe  Fe12  1  0.391507  0.891528  0.500021  1
  Fe  Fe13  1  0.608493  0.108472  0.499979  1
  Ni  Ni14  1  0.000006  0.368824  0.368819  1
  Ni  Ni15  1  0.999994  0.631176  0.631181  1
  Ni  Ni16  1  0.000000  0.000000  0.000000  1
  Pb  Pb17  1  0.500000  0.500000  0.000000  1
