# generated using pymatgen
data_Tb3Y3Al24(RuRh)4
_symmetry_space_group_name_H-M   'P 1'
_cell_length_a   8.83477685
_cell_length_b   8.77986987
_cell_length_c   9.55664900
_cell_angle_alpha   90.00000000
_cell_angle_beta   90.00000000
_cell_angle_gamma   119.79462610
_symmetry_Int_Tables_number   1
_chemical_formula_structural   Tb3Y3Al24(RuRh)4
_chemical_formula_sum   'Tb3 Y3 Al24 Ru4 Rh4'
_cell_volume   643.30211822
_cell_formula_units_Z   1
loop_
 _symmetry_equiv_pos_site_id
 _symmetry_equiv_pos_as_xyz
  1  'x, y, z'
loop_
 _atom_site_type_symbol
 _atom_site_label
 _atom_site_symmetry_multiplicity
 _atom_site_fract_x
 _atom_site_fract_y
 _atom_site_fract_z
 _atom_site_occupancy
  Tb  Tb0  1  0.616656  0.808328  0.750000  1
  Tb  Tb1  1  0.189377  0.804413  0.750000  1
  Tb  Tb2  1  0.189377  0.384964  0.750000  1
  Y  Y3  1  0.383511  0.191755  0.250000  1
  Y  Y4  1  0.810433  0.195685  0.250000  1
  Y  Y5  1  0.810433  0.614748  0.250000  1
  Al  Al6  1  0.439266  0.876872  0.250000  1
  Al  Al7  1  0.123957  0.561979  0.250000  1
  Al  Al8  1  0.439266  0.562394  0.250000  1
  Al  Al9  1  0.560853  0.123413  0.750000  1
  Al  Al10  1  0.875727  0.437863  0.750000  1
  Al  Al11  1  0.560853  0.437440  0.750000  1
  Al  Al12  1  0.162099  0.835516  0.422575  1
  Al  Al13  1  0.162099  0.326583  0.422575  1
  Al  Al14  1  0.675068  0.837534  0.422826  1
  Al  Al15  1  0.837923  0.164515  0.577310  1
  Al  Al16  1  0.837923  0.673407  0.577310  1
  Al  Al17  1  0.324941  0.162471  0.577045  1
  Al  Al18  1  0.837923  0.164515  0.922690  1
  Al  Al19  1  0.837923  0.673407  0.922690  1
  Al  Al20  1  0.324941  0.162471  0.922955  1
  Al  Al21  1  0.162099  0.835516  0.077425  1
  Al  Al22  1  0.162099  0.326583  0.077425  1
  Al  Al23  1  0.675068  0.837534  0.077174  1
  Al  Al24  1  0.330964  0.665482  0.523303  1
  Al  Al25  1  0.669019  0.334510  0.476596  1
  Al  Al26  1  0.669019  0.334510  0.023404  1
  Al  Al27  1  0.330964  0.665482  0.976697  1
  Al  Al28  1  0.002152  0.001075  0.250000  1
  Al  Al29  1  0.997782  0.998892  0.750000  1
  Ru  Ru30  1  0.000070  0.000035  0.499828  1
  Ru  Ru31  1  0.000070  0.000035  0.000172  1
  Ru  Ru32  1  0.999816  0.499908  0.499945  1
  Ru  Ru33  1  0.999816  0.499908  0.000055  1
  Rh  Rh34  1  0.500127  0.000181  0.499899  1
  Rh  Rh35  1  0.500127  0.499946  0.499899  1
  Rh  Rh36  1  0.500127  0.000181  0.000101  1
  Rh  Rh37  1  0.500127  0.499946  0.000101  1
