# generated using pymatgen
data_Na4InFe3Br16
_symmetry_space_group_name_H-M   'P 1'
_cell_length_a   7.39481437
_cell_length_b   7.99090667
_cell_length_c   14.57673897
_cell_angle_alpha   86.84515750
_cell_angle_beta   90.35441252
_cell_angle_gamma   89.83284732
_symmetry_Int_Tables_number   1
_chemical_formula_structural   Na4InFe3Br16
_chemical_formula_sum   'Na4 In1 Fe3 Br16'
_cell_volume   860.03157661
_cell_formula_units_Z   1
loop_
 _symmetry_equiv_pos_site_id
 _symmetry_equiv_pos_as_xyz
  1  'x, y, z'
loop_
 _atom_site_type_symbol
 _atom_site_label
 _atom_site_symmetry_multiplicity
 _atom_site_fract_x
 _atom_site_fract_y
 _atom_site_fract_z
 _atom_site_occupancy
  Na  Na0  1  0.991943  0.847699  0.373572  1
  Na  Na1  1  0.497204  0.151983  0.127248  1
  Na  Na2  1  0.006786  0.152025  0.627859  1
  Na  Na3  1  0.508535  0.848699  0.871036  1
  In  In4  1  0.307906  0.700955  0.102270  1
  Fe  Fe5  1  0.188571  0.707800  0.601586  1
  Fe  Fe6  1  0.688175  0.291640  0.897839  1
  Fe  Fe7  1  0.811098  0.291816  0.398541  1
  Br  Br8  1  0.320430  0.684667  0.457070  1
  Br  Br9  1  0.820829  0.316752  0.043045  1
  Br  Br10  1  0.678829  0.315318  0.543179  1
  Br  Br11  1  0.173276  0.687137  0.942716  1
  Br  Br12  1  0.115273  0.200484  0.425088  1
  Br  Br13  1  0.631968  0.809391  0.073899  1
  Br  Br14  1  0.884057  0.799096  0.576474  1
  Br  Br15  1  0.384398  0.201436  0.923466  1
  Br  Br16  1  0.333918  0.927011  0.679228  1
  Br  Br17  1  0.833731  0.073542  0.819998  1
  Br  Br18  1  0.666541  0.072954  0.320969  1
  Br  Br19  1  0.160701  0.942898  0.184701  1
  Br  Br20  1  0.203919  0.455365  0.690386  1
  Br  Br21  1  0.702450  0.543656  0.808935  1
  Br  Br22  1  0.796191  0.544675  0.309754  1
  Br  Br23  1  0.293268  0.433000  0.201143  1
