# generated using pymatgen
data_Hf8Fe2RePd
_symmetry_space_group_name_H-M   'P 1'
_cell_length_a   8.61801706
_cell_length_b   8.61801813
_cell_length_c   8.60542700
_cell_angle_alpha   60.04832235
_cell_angle_beta   60.04831828
_cell_angle_gamma   59.85814804
_symmetry_Int_Tables_number   1
_chemical_formula_structural   Hf8Fe2RePd
_chemical_formula_sum   'Hf16 Fe4 Re2 Pd2'
_cell_volume   451.77330150
_cell_formula_units_Z   2
loop_
 _symmetry_equiv_pos_site_id
 _symmetry_equiv_pos_as_xyz
  1  'x, y, z'
loop_
 _atom_site_type_symbol
 _atom_site_label
 _atom_site_symmetry_multiplicity
 _atom_site_fract_x
 _atom_site_fract_y
 _atom_site_fract_z
 _atom_site_occupancy
  Hf  Hf0  1  0.193585  0.600128  0.603143  1
  Hf  Hf1  1  0.600128  0.193585  0.603143  1
  Hf  Hf2  1  0.600479  0.600479  0.196507  1
  Hf  Hf3  1  0.600479  0.600479  0.602534  1
  Hf  Hf4  1  0.811800  0.811800  0.188200  1
  Hf  Hf5  1  0.186607  0.186607  0.813393  1
  Hf  Hf6  1  0.812766  0.193857  0.813106  1
  Hf  Hf7  1  0.193857  0.812766  0.180271  1
  Hf  Hf8  1  0.193857  0.812766  0.813106  1
  Hf  Hf9  1  0.812766  0.193857  0.180271  1
  Hf  Hf10  1  0.452175  0.452175  0.047825  1
  Hf  Hf11  1  0.051971  0.051971  0.448029  1
  Hf  Hf12  1  0.444442  0.052840  0.450312  1
  Hf  Hf13  1  0.052840  0.444442  0.052406  1
  Hf  Hf14  1  0.052840  0.444442  0.450312  1
  Hf  Hf15  1  0.444442  0.052840  0.052406  1
  Fe  Fe16  1  0.831169  0.388627  0.390102  1
  Fe  Fe17  1  0.388627  0.831169  0.390102  1
  Fe  Fe18  1  0.389886  0.389886  0.829545  1
  Fe  Fe19  1  0.389886  0.389886  0.390682  1
  Re  Re20  1  0.500218  0.830573  0.834605  1
  Re  Re21  1  0.830573  0.500218  0.834605  1
  Pd  Pd22  1  0.832303  0.832303  0.500437  1
  Pd  Pd23  1  0.832303  0.832303  0.834957  1
