# generated using pymatgen
data_Nd2Si5Ni6(PRu3)2
_symmetry_space_group_name_H-M   'P 1'
_cell_length_a   9.43441225
_cell_length_b   3.77876600
_cell_length_c   9.44221783
_cell_angle_alpha   90.00000000
_cell_angle_beta   120.12186833
_cell_angle_gamma   90.00000000
_symmetry_Int_Tables_number   1
_chemical_formula_structural   Nd2Si5Ni6(PRu3)2
_chemical_formula_sum   'Nd2 Si5 Ni6 P2 Ru6'
_cell_volume   291.16211133
_cell_formula_units_Z   1
loop_
 _symmetry_equiv_pos_site_id
 _symmetry_equiv_pos_as_xyz
  1  'x, y, z'
loop_
 _atom_site_type_symbol
 _atom_site_label
 _atom_site_symmetry_multiplicity
 _atom_site_fract_x
 _atom_site_fract_y
 _atom_site_fract_z
 _atom_site_occupancy
  Nd  Nd0  1  0.666528  0.000000  0.333845  1
  Nd  Nd1  1  0.333266  0.500000  0.667666  1
  Si  Si2  1  0.110908  0.000000  0.396549  1
  Si  Si3  1  0.286626  0.000000  0.891087  1
  Si  Si4  1  0.603793  0.000000  0.714282  1
  Si  Si5  1  0.711693  0.500000  0.108871  1
  Si  Si6  1  0.999365  0.000000  0.999595  1
  Ni  Ni7  1  0.374012  0.000000  0.433125  1
  Ni  Ni8  1  0.057951  0.000000  0.628559  1
  Ni  Ni9  1  0.568258  0.000000  0.941454  1
  Ni  Ni10  1  0.874592  0.000000  0.152322  1
  Ni  Ni11  1  0.279311  0.000000  0.129390  1
  Ni  Ni12  1  0.847435  0.000000  0.717969  1
  P  P13  1  0.398423  0.500000  0.287732  1
  P  P14  1  0.888812  0.500000  0.600601  1
  Ru  Ru15  1  0.952101  0.500000  0.390099  1
  Ru  Ru16  1  0.434307  0.500000  0.052855  1
  Ru  Ru17  1  0.614137  0.500000  0.560672  1
  Ru  Ru18  1  0.121874  0.500000  0.215694  1
  Ru  Ru19  1  0.090417  0.500000  0.875950  1
  Ru  Ru20  1  0.786191  0.500000  0.901683  1
