# generated using pymatgen
data_La15ThCd4Ir3Pt
_symmetry_space_group_name_H-M   'P 1'
_cell_length_a   10.14705653
_cell_length_b   10.14705648
_cell_length_c   10.14705610
_cell_angle_alpha   60.11764345
_cell_angle_beta   60.11765102
_cell_angle_gamma   60.11764398
_symmetry_Int_Tables_number   1
_chemical_formula_structural   La15ThCd4Ir3Pt
_chemical_formula_sum   'La15 Th1 Cd4 Ir3 Pt1'
_cell_volume   740.73220417
_cell_formula_units_Z   1
loop_
 _symmetry_equiv_pos_site_id
 _symmetry_equiv_pos_as_xyz
  1  'x, y, z'
loop_
 _atom_site_type_symbol
 _atom_site_label
 _atom_site_symmetry_multiplicity
 _atom_site_fract_x
 _atom_site_fract_y
 _atom_site_fract_z
 _atom_site_occupancy
  La  La0  1  0.599705  0.599705  0.205345  1
  La  La1  1  0.599705  0.205345  0.599705  1
  La  La2  1  0.205345  0.599705  0.599705  1
  La  La3  1  0.055795  0.440754  0.440754  1
  La  La4  1  0.440457  0.058728  0.058728  1
  La  La5  1  0.440754  0.055795  0.440754  1
  La  La6  1  0.058728  0.440457  0.058728  1
  La  La7  1  0.440754  0.440754  0.055795  1
  La  La8  1  0.058728  0.058728  0.440457  1
  La  La9  1  0.193816  0.810187  0.810187  1
  La  La10  1  0.810096  0.189184  0.189184  1
  La  La11  1  0.810187  0.193816  0.810187  1
  La  La12  1  0.189184  0.810096  0.189184  1
  La  La13  1  0.810187  0.810187  0.193816  1
  La  La14  1  0.189184  0.189184  0.810096  1
  Th  Th15  1  0.594474  0.594474  0.594474  1
  Cd  Cd16  1  0.829176  0.829176  0.829176  1
  Cd  Cd17  1  0.828556  0.828556  0.510978  1
  Cd  Cd18  1  0.828556  0.510978  0.828556  1
  Cd  Cd19  1  0.510978  0.828556  0.828556  1
  Ir  Ir20  1  0.396459  0.396459  0.820821  1
  Ir  Ir21  1  0.396459  0.820821  0.396459  1
  Ir  Ir22  1  0.820821  0.396459  0.396459  1
  Pt  Pt23  1  0.391893  0.391893  0.391893  1
