# generated using pymatgen
data_Nd4Cd2Cu3Ir
_symmetry_space_group_name_H-M   'P 1'
_cell_length_a   7.75804106
_cell_length_b   7.75804106
_cell_length_c   3.84578100
_cell_angle_alpha   90.00000000
_cell_angle_beta   90.00000000
_cell_angle_gamma   89.38135651
_symmetry_Int_Tables_number   1
_chemical_formula_structural   Nd4Cd2Cu3Ir
_chemical_formula_sum   'Nd4 Cd2 Cu3 Ir1'
_cell_volume   231.45330177
_cell_formula_units_Z   1
loop_
 _symmetry_equiv_pos_site_id
 _symmetry_equiv_pos_as_xyz
  1  'x, y, z'
loop_
 _atom_site_type_symbol
 _atom_site_label
 _atom_site_symmetry_multiplicity
 _atom_site_fract_x
 _atom_site_fract_y
 _atom_site_fract_z
 _atom_site_occupancy
  Nd  Nd0  1  0.686166  0.186166  0.000000  1
  Nd  Nd1  1  0.324775  0.824775  0.000000  1
  Nd  Nd2  1  0.164674  0.319085  0.000000  1
  Nd  Nd3  1  0.819085  0.664674  0.000000  1
  Cd  Cd4  1  0.494333  0.500784  0.500000  1
  Cd  Cd5  1  0.000784  0.994333  0.500000  1
  Cu  Cu6  1  0.123067  0.623067  0.500000  1
  Cu  Cu7  1  0.385162  0.117686  0.500000  1
  Cu  Cu8  1  0.617686  0.885162  0.500000  1
  Ir  Ir9  1  0.884268  0.384268  0.500000  1
