# generated using pymatgen
data_Sr2Eu(AlP2)2
_symmetry_space_group_name_H-M   'P 1'
_cell_length_a   8.33346806
_cell_length_b   8.33346913
_cell_length_c   6.70961134
_cell_angle_alpha   89.16832691
_cell_angle_beta   89.16833197
_cell_angle_gamma   76.14504926
_symmetry_Int_Tables_number   1
_chemical_formula_structural   Sr2Eu(AlP2)2
_chemical_formula_sum   'Sr4 Eu2 Al4 P8'
_cell_volume   452.32636573
_cell_formula_units_Z   2
loop_
 _symmetry_equiv_pos_site_id
 _symmetry_equiv_pos_as_xyz
  1  'x, y, z'
loop_
 _atom_site_type_symbol
 _atom_site_label
 _atom_site_symmetry_multiplicity
 _atom_site_fract_x
 _atom_site_fract_y
 _atom_site_fract_z
 _atom_site_occupancy
  Sr  Sr0  1  0.008018  0.746350  0.539857  1
  Sr  Sr1  1  0.253650  0.991982  0.960143  1
  Sr  Sr2  1  0.991982  0.253650  0.460143  1
  Sr  Sr3  1  0.746350  0.008018  0.039857  1
  Eu  Eu4  1  0.403285  0.596715  0.250000  1
  Eu  Eu5  1  0.596715  0.403285  0.750000  1
  Al  Al6  1  0.826548  0.579505  0.082017  1
  Al  Al7  1  0.420495  0.173452  0.417983  1
  Al  Al8  1  0.173452  0.420495  0.917983  1
  Al  Al9  1  0.579505  0.826548  0.582017  1
  P  P10  1  0.060274  0.704240  0.028041  1
  P  P11  1  0.295760  0.939726  0.471959  1
  P  P12  1  0.939726  0.295760  0.971959  1
  P  P13  1  0.704240  0.060274  0.528041  1
  P  P14  1  0.734671  0.577515  0.423835  1
  P  P15  1  0.422485  0.265329  0.076165  1
  P  P16  1  0.265329  0.422485  0.576165  1
  P  P17  1  0.577515  0.734671  0.923835  1
