# generated using pymatgen
data_Sm9YB2Cl15
_symmetry_space_group_name_H-M   'P 1'
_cell_length_a   8.86932778
_cell_length_b   9.71017982
_cell_length_c   10.48890404
_cell_angle_alpha   90.73491279
_cell_angle_beta   114.66011631
_cell_angle_gamma   111.16652785
_symmetry_Int_Tables_number   1
_chemical_formula_structural   Sm9YB2Cl15
_chemical_formula_sum   'Sm9 Y1 B2 Cl15'
_cell_volume   751.18434063
_cell_formula_units_Z   1
loop_
 _symmetry_equiv_pos_site_id
 _symmetry_equiv_pos_as_xyz
  1  'x, y, z'
loop_
 _atom_site_type_symbol
 _atom_site_label
 _atom_site_symmetry_multiplicity
 _atom_site_fract_x
 _atom_site_fract_y
 _atom_site_fract_z
 _atom_site_occupancy
  Sm  Sm0  1  0.810476  0.417932  0.280282  1
  Sm  Sm1  1  0.187907  0.581306  0.719174  1
  Sm  Sm2  1  0.681680  0.743832  0.818910  1
  Sm  Sm3  1  0.316877  0.255828  0.180873  1
  Sm  Sm4  1  0.526141  0.700197  0.100800  1
  Sm  Sm5  1  0.472489  0.299153  0.898842  1
  Sm  Sm6  1  0.589712  0.037406  0.332644  1
  Sm  Sm7  1  0.409034  0.961964  0.666819  1
  Sm  Sm8  1  0.733829  0.077530  0.049591  1
  Y  Y9  1  0.272713  0.924254  0.951446  1
  B  B10  1  0.465138  0.817230  0.874662  1
  B  B11  1  0.531914  0.181175  0.124303  1
  Cl  Cl12  1  0.003736  0.997894  0.998767  1
  Cl  Cl13  1  0.635235  0.883112  0.585698  1
  Cl  Cl14  1  0.363514  0.116312  0.413868  1
  Cl  Cl15  1  0.881626  0.298423  0.524813  1
  Cl  Cl16  1  0.117189  0.700840  0.474730  1
  Cl  Cl17  1  0.290713  0.766118  0.175628  1
  Cl  Cl18  1  0.705333  0.236054  0.818840  1
  Cl  Cl19  1  0.056683  0.345319  0.228141  1
  Cl  Cl20  1  0.166596  0.055103  0.708708  1
  Cl  Cl21  1  0.832064  0.940951  0.295496  1
  Cl  Cl22  1  0.234562  0.410897  0.944751  1
  Cl  Cl23  1  0.764011  0.588486  0.054820  1
  Cl  Cl24  1  0.407218  0.466413  0.660170  1
  Cl  Cl25  1  0.592022  0.533252  0.339746  1
  Cl  Cl26  1  0.951587  0.663019  0.777478  1
