# generated using pymatgen
data_YbThB6Ru
_symmetry_space_group_name_H-M   'P 1'
_cell_length_a   3.77272300
_cell_length_b   9.18984500
_cell_length_c   11.55126500
_cell_angle_alpha   90.00000000
_cell_angle_beta   90.00000000
_cell_angle_gamma   90.00000000
_symmetry_Int_Tables_number   1
_chemical_formula_structural   YbThB6Ru
_chemical_formula_sum   'Yb4 Th4 B24 Ru4'
_cell_volume   400.49090084
_cell_formula_units_Z   4
loop_
 _symmetry_equiv_pos_site_id
 _symmetry_equiv_pos_as_xyz
  1  'x, y, z'
loop_
 _atom_site_type_symbol
 _atom_site_label
 _atom_site_symmetry_multiplicity
 _atom_site_fract_x
 _atom_site_fract_y
 _atom_site_fract_z
 _atom_site_occupancy
  Yb  Yb0  1  0.000000  0.945711  0.374286  1
  Yb  Yb1  1  0.000000  0.054289  0.625714  1
  Yb  Yb2  1  0.000000  0.445711  0.125714  1
  Yb  Yb3  1  0.000000  0.554289  0.874286  1
  Th  Th4  1  0.000000  0.321968  0.413288  1
  Th  Th5  1  0.000000  0.678032  0.586712  1
  Th  Th6  1  0.000000  0.821968  0.086712  1
  Th  Th7  1  0.000000  0.178032  0.913288  1
  B  B8  1  0.500000  0.557423  0.429407  1
  B  B9  1  0.500000  0.442577  0.570593  1
  B  B10  1  0.500000  0.057423  0.070593  1
  B  B11  1  0.500000  0.942577  0.929407  1
  B  B12  1  0.500000  0.751856  0.418543  1
  B  B13  1  0.500000  0.248144  0.581457  1
  B  B14  1  0.500000  0.251856  0.081457  1
  B  B15  1  0.500000  0.748144  0.918543  1
  B  B16  1  0.500000  0.790757  0.267484  1
  B  B17  1  0.500000  0.209243  0.732516  1
  B  B18  1  0.500000  0.290757  0.232516  1
  B  B19  1  0.500000  0.709243  0.767484  1
  B  B20  1  0.500000  0.630759  0.184191  1
  B  B21  1  0.500000  0.369241  0.815809  1
  B  B22  1  0.500000  0.130759  0.315809  1
  B  B23  1  0.500000  0.869241  0.684191  1
  B  B24  1  0.500000  0.986997  0.214738  1
  B  B25  1  0.500000  0.013003  0.785262  1
  B  B26  1  0.500000  0.486997  0.285262  1
  B  B27  1  0.500000  0.513003  0.714738  1
  B  B28  1  0.500000  0.605438  0.028929  1
  B  B29  1  0.500000  0.394562  0.971071  1
  B  B30  1  0.500000  0.105438  0.471071  1
  B  B31  1  0.500000  0.894562  0.528929  1
  Ru  Ru32  1  0.000000  0.640149  0.320188  1
  Ru  Ru33  1  0.000000  0.359851  0.679812  1
  Ru  Ru34  1  0.000000  0.140149  0.179812  1
  Ru  Ru35  1  0.000000  0.859851  0.820188  1
