# generated using pymatgen
data_LaPr9Sn20Pd3Rh5
_symmetry_space_group_name_H-M   'P 1'
_cell_length_a   14.30491433
_cell_length_b   14.28470452
_cell_length_c   4.68011600
_cell_angle_alpha   90.00000000
_cell_angle_beta   90.00000000
_cell_angle_gamma   90.13666433
_symmetry_Int_Tables_number   1
_chemical_formula_structural   LaPr9Sn20Pd3Rh5
_chemical_formula_sum   'La1 Pr9 Sn20 Pd3 Rh5'
_cell_volume   956.33908315
_cell_formula_units_Z   1
loop_
 _symmetry_equiv_pos_site_id
 _symmetry_equiv_pos_as_xyz
  1  'x, y, z'
loop_
 _atom_site_type_symbol
 _atom_site_label
 _atom_site_symmetry_multiplicity
 _atom_site_fract_x
 _atom_site_fract_y
 _atom_site_fract_z
 _atom_site_occupancy
  La  La0  1  0.500405  0.501011  0.000000  1
  Pr  Pr1  1  0.997501  0.001277  0.000000  1
  Pr  Pr2  1  0.679155  0.179007  0.500000  1
  Pr  Pr3  1  0.322754  0.820197  0.500000  1
  Pr  Pr4  1  0.176525  0.319422  0.500000  1
  Pr  Pr5  1  0.822816  0.680084  0.500000  1
  Pr  Pr6  1  0.891300  0.388687  0.500000  1
  Pr  Pr7  1  0.108553  0.610351  0.500000  1
  Pr  Pr8  1  0.389417  0.110307  0.500000  1
  Pr  Pr9  1  0.610106  0.889876  0.500000  1
  Sn  Sn10  1  0.569813  0.070703  0.000000  1
  Sn  Sn11  1  0.433979  0.929701  0.000000  1
  Sn  Sn12  1  0.066996  0.429265  0.000000  1
  Sn  Sn13  1  0.933559  0.571212  0.000000  1
  Sn  Sn14  1  0.653006  0.701990  0.000000  1
  Sn  Sn15  1  0.347542  0.297870  0.000000  1
  Sn  Sn16  1  0.152303  0.798423  0.000000  1
  Sn  Sn17  1  0.847415  0.199079  0.000000  1
  Sn  Sn18  1  0.301874  0.653981  0.000000  1
  Sn  Sn19  1  0.698778  0.345389  0.000000  1
  Sn  Sn20  1  0.197698  0.153122  0.000000  1
  Sn  Sn21  1  0.800954  0.848004  0.000000  1
  Sn  Sn22  1  0.663285  0.502920  0.500000  1
  Sn  Sn23  1  0.336445  0.497048  0.500000  1
  Sn  Sn24  1  0.162131  0.996223  0.500000  1
  Sn  Sn25  1  0.835682  0.005541  0.500000  1
  Sn  Sn26  1  0.496777  0.663456  0.500000  1
  Sn  Sn27  1  0.503914  0.335692  0.500000  1
  Sn  Sn28  1  0.001875  0.163933  0.500000  1
  Sn  Sn29  1  0.995992  0.836588  0.500000  1
  Pd  Pd30  1  0.746649  0.529636  0.000000  1
  Pd  Pd31  1  0.253675  0.470189  0.000000  1
  Pd  Pd32  1  0.246929  0.969973  0.000000  1
  Rh  Rh33  1  0.754391  0.029559  0.000000  1
  Rh  Rh34  1  0.470268  0.744043  0.000000  1
  Rh  Rh35  1  0.529862  0.255738  0.000000  1
  Rh  Rh36  1  0.030337  0.243543  0.000000  1
  Rh  Rh37  1  0.969337  0.756956  0.000000  1
