# generated using pymatgen
data_SmDy3(ErRh9)2
_symmetry_space_group_name_H-M   'P 1'
_cell_length_a   5.26171200
_cell_length_b   5.26171314
_cell_length_c   17.55222800
_cell_angle_alpha   90.00000000
_cell_angle_beta   90.00000000
_cell_angle_gamma   120.00000540
_symmetry_Int_Tables_number   1
_chemical_formula_structural   SmDy3(ErRh9)2
_chemical_formula_sum   'Sm1 Dy3 Er2 Rh18'
_cell_volume   420.84008583
_cell_formula_units_Z   1
loop_
 _symmetry_equiv_pos_site_id
 _symmetry_equiv_pos_as_xyz
  1  'x, y, z'
loop_
 _atom_site_type_symbol
 _atom_site_label
 _atom_site_symmetry_multiplicity
 _atom_site_fract_x
 _atom_site_fract_y
 _atom_site_fract_z
 _atom_site_occupancy
  Sm  Sm0  1  0.666667  0.333333  0.249933  1
  Dy  Dy1  1  0.666667  0.333333  0.458351  1
  Dy  Dy2  1  0.333333  0.666667  0.542194  1
  Dy  Dy3  1  0.333333  0.666667  0.750063  1
  Er  Er4  1  0.333333  0.666667  0.957840  1
  Er  Er5  1  0.666667  0.333333  0.041644  1
  Rh  Rh6  1  0.167207  0.832793  0.374644  1
  Rh  Rh7  1  0.167207  0.334414  0.374644  1
  Rh  Rh8  1  0.665586  0.832793  0.374644  1
  Rh  Rh9  1  0.832760  0.167240  0.625840  1
  Rh  Rh10  1  0.832760  0.665520  0.625840  1
  Rh  Rh11  1  0.334480  0.167240  0.625840  1
  Rh  Rh12  1  0.832674  0.167326  0.874393  1
  Rh  Rh13  1  0.832674  0.665349  0.874393  1
  Rh  Rh14  1  0.334651  0.167326  0.874393  1
  Rh  Rh15  1  0.167285  0.832715  0.125112  1
  Rh  Rh16  1  0.167285  0.334570  0.125112  1
  Rh  Rh17  1  0.665430  0.832715  0.125112  1
  Rh  Rh18  1  0.333333  0.666667  0.249999  1
  Rh  Rh19  1  0.666667  0.333333  0.750007  1
  Rh  Rh20  1  0.000000  0.000000  0.249965  1
  Rh  Rh21  1  0.000000  0.000000  0.750047  1
  Rh  Rh22  1  0.000000  0.000000  0.500173  1
  Rh  Rh23  1  0.000000  0.000000  0.999817  1
