# generated using pymatgen
data_Ce6Sc4TcRu5
_symmetry_space_group_name_H-M   'P 1'
_cell_length_a   6.38332500
_cell_length_b   7.87256493
_cell_length_c   7.87256385
_cell_angle_alpha   120.05333958
_cell_angle_beta   90.00000000
_cell_angle_gamma   90.00000000
_symmetry_Int_Tables_number   1
_chemical_formula_structural   Ce6Sc4TcRu5
_chemical_formula_sum   'Ce6 Sc4 Tc1 Ru5'
_cell_volume   342.43358594
_cell_formula_units_Z   1
loop_
 _symmetry_equiv_pos_site_id
 _symmetry_equiv_pos_as_xyz
  1  'x, y, z'
loop_
 _atom_site_type_symbol
 _atom_site_label
 _atom_site_symmetry_multiplicity
 _atom_site_fract_x
 _atom_site_fract_y
 _atom_site_fract_z
 _atom_site_occupancy
  Ce  Ce0  1  0.750000  0.752951  0.752951  1
  Ce  Ce1  1  0.250000  0.247487  0.247487  1
  Ce  Ce2  1  0.750000  0.005199  0.250343  1
  Ce  Ce3  1  0.250000  0.000432  0.752370  1
  Ce  Ce4  1  0.750000  0.250343  0.005199  1
  Ce  Ce5  1  0.250000  0.752370  0.000432  1
  Sc  Sc6  1  0.999481  0.667991  0.333627  1
  Sc  Sc7  1  0.999481  0.333627  0.667991  1
  Sc  Sc8  1  0.500519  0.333627  0.667991  1
  Sc  Sc9  1  0.500519  0.667991  0.333627  1
  Tc  Tc10  1  0.750000  0.372659  0.372659  1
  Ru  Ru11  1  0.250000  0.619134  0.619134  1
  Ru  Ru12  1  0.750000  0.998432  0.623307  1
  Ru  Ru13  1  0.250000  0.997663  0.376787  1
  Ru  Ru14  1  0.750000  0.623307  0.998432  1
  Ru  Ru15  1  0.250000  0.376787  0.997663  1
