# generated using pymatgen
data_GdY8
_symmetry_space_group_name_H-M   'P 1'
_cell_length_a   6.24611827
_cell_length_b   6.24753005
_cell_length_c   8.84311300
_cell_angle_alpha   76.50380961
_cell_angle_beta   96.81014168
_cell_angle_gamma   120.23898708
_symmetry_Int_Tables_number   1
_chemical_formula_structural   GdY8
_chemical_formula_sum   'Gd1 Y8'
_cell_volume   289.89555970
_cell_formula_units_Z   1
loop_
 _symmetry_equiv_pos_site_id
 _symmetry_equiv_pos_as_xyz
  1  'x, y, z'
loop_
 _atom_site_type_symbol
 _atom_site_label
 _atom_site_symmetry_multiplicity
 _atom_site_fract_x
 _atom_site_fract_y
 _atom_site_fract_z
 _atom_site_occupancy
  Gd  Gd0  1  0.535209  0.787971  0.918262  1
  Y  Y1  1  0.540581  0.352557  0.250568  1
  Y  Y2  1  0.873005  0.016540  0.251264  1
  Y  Y3  1  0.207352  0.904365  0.584564  1
  Y  Y4  1  0.201024  0.120291  0.919283  1
  Y  Y5  1  0.873526  0.237940  0.583799  1
  Y  Y6  1  0.868571  0.453471  0.919029  1
  Y  Y7  1  0.540054  0.570664  0.585435  1
  Y  Y8  1  0.208433  0.684660  0.250574  1
