# generated using pymatgen
data_PrHo4Bi3
_symmetry_space_group_name_H-M   'P 1'
_cell_length_a   8.35777900
_cell_length_b   9.55500900
_cell_length_c   12.15913200
_cell_angle_alpha   90.00000000
_cell_angle_beta   90.00000000
_cell_angle_gamma   90.00000000
_symmetry_Int_Tables_number   1
_chemical_formula_structural   PrHo4Bi3
_chemical_formula_sum   'Pr4 Ho16 Bi12'
_cell_volume   971.01191004
_cell_formula_units_Z   4
loop_
 _symmetry_equiv_pos_site_id
 _symmetry_equiv_pos_as_xyz
  1  'x, y, z'
loop_
 _atom_site_type_symbol
 _atom_site_label
 _atom_site_symmetry_multiplicity
 _atom_site_fract_x
 _atom_site_fract_y
 _atom_site_fract_z
 _atom_site_occupancy
  Pr  Pr0  1  0.170320  0.750000  0.224752  1
  Pr  Pr1  1  0.329680  0.750000  0.724752  1
  Pr  Pr2  1  0.829680  0.250000  0.775248  1
  Pr  Pr3  1  0.670320  0.250000  0.275248  1
  Ho  Ho4  1  0.810793  0.561027  0.063438  1
  Ho  Ho5  1  0.689207  0.938973  0.563438  1
  Ho  Ho6  1  0.189207  0.061027  0.936562  1
  Ho  Ho7  1  0.310793  0.438973  0.436562  1
  Ho  Ho8  1  0.189207  0.438973  0.936562  1
  Ho  Ho9  1  0.310793  0.061027  0.436562  1
  Ho  Ho10  1  0.810793  0.938973  0.063438  1
  Ho  Ho11  1  0.689207  0.561027  0.563438  1
  Ho  Ho12  1  0.481606  0.750000  0.001716  1
  Ho  Ho13  1  0.018394  0.750000  0.501716  1
  Ho  Ho14  1  0.518394  0.250000  0.998284  1
  Ho  Ho15  1  0.981606  0.250000  0.498284  1
  Ho  Ho16  1  0.662484  0.750000  0.288961  1
  Ho  Ho17  1  0.837516  0.750000  0.788961  1
  Ho  Ho18  1  0.337516  0.250000  0.711039  1
  Ho  Ho19  1  0.162484  0.250000  0.211039  1
  Bi  Bi20  1  0.403194  0.750000  0.467439  1
  Bi  Bi21  1  0.096806  0.750000  0.967439  1
  Bi  Bi22  1  0.596806  0.250000  0.532561  1
  Bi  Bi23  1  0.903194  0.250000  0.032561  1
  Bi  Bi24  1  0.934788  0.506027  0.329256  1
  Bi  Bi25  1  0.565212  0.993973  0.829256  1
  Bi  Bi26  1  0.065212  0.006027  0.670744  1
  Bi  Bi27  1  0.434788  0.493973  0.170744  1
  Bi  Bi28  1  0.065212  0.493973  0.670744  1
  Bi  Bi29  1  0.434788  0.006027  0.170744  1
  Bi  Bi30  1  0.934788  0.993973  0.329256  1
  Bi  Bi31  1  0.565212  0.506027  0.829256  1
