# generated using pymatgen
data_Y5Bi3P
_symmetry_space_group_name_H-M   'P 1'
_cell_length_a   9.24715400
_cell_length_b   9.24715426
_cell_length_c   6.71118800
_cell_angle_alpha   90.00000000
_cell_angle_beta   90.00000000
_cell_angle_gamma   120.00000622
_symmetry_Int_Tables_number   1
_chemical_formula_structural   Y5Bi3P
_chemical_formula_sum   'Y10 Bi6 P2'
_cell_volume   496.98834282
_cell_formula_units_Z   2
loop_
 _symmetry_equiv_pos_site_id
 _symmetry_equiv_pos_as_xyz
  1  'x, y, z'
loop_
 _atom_site_type_symbol
 _atom_site_label
 _atom_site_symmetry_multiplicity
 _atom_site_fract_x
 _atom_site_fract_y
 _atom_site_fract_z
 _atom_site_occupancy
  Y  Y0  1  0.762569  0.762569  0.750000  1
  Y  Y1  1  0.237431  0.000000  0.750000  1
  Y  Y2  1  0.000000  0.237431  0.750000  1
  Y  Y3  1  0.237431  0.237431  0.250000  1
  Y  Y4  1  0.762569  0.000000  0.250000  1
  Y  Y5  1  0.000000  0.762569  0.250000  1
  Y  Y6  1  0.666667  0.333333  0.000000  1
  Y  Y7  1  0.333333  0.666667  0.000000  1
  Y  Y8  1  0.333333  0.666667  0.500000  1
  Y  Y9  1  0.666667  0.333333  0.500000  1
  Bi  Bi10  1  0.400693  0.400693  0.750000  1
  Bi  Bi11  1  0.599307  0.000000  0.750000  1
  Bi  Bi12  1  0.000000  0.599307  0.750000  1
  Bi  Bi13  1  0.599307  0.599307  0.250000  1
  Bi  Bi14  1  0.400693  0.000000  0.250000  1
  Bi  Bi15  1  0.000000  0.400693  0.250000  1
  P  P16  1  0.000000  0.000000  0.000000  1
  P  P17  1  0.000000  0.000000  0.500000  1
