# generated using pymatgen
data_V12SiAs3
_symmetry_space_group_name_H-M   'P 1'
_cell_length_a   4.72692000
_cell_length_b   4.73217700
_cell_length_c   9.45676600
_cell_angle_alpha   90.00000000
_cell_angle_beta   90.00000000
_cell_angle_gamma   90.00000000
_symmetry_Int_Tables_number   1
_chemical_formula_structural   V12SiAs3
_chemical_formula_sum   'V12 Si1 As3'
_cell_volume   211.53482499
_cell_formula_units_Z   1
loop_
 _symmetry_equiv_pos_site_id
 _symmetry_equiv_pos_as_xyz
  1  'x, y, z'
loop_
 _atom_site_type_symbol
 _atom_site_label
 _atom_site_symmetry_multiplicity
 _atom_site_fract_x
 _atom_site_fract_y
 _atom_site_fract_z
 _atom_site_occupancy
  V  V0  1  0.500000  0.000000  0.376998  1
  V  V1  1  0.500000  0.000000  0.874952  1
  V  V2  1  0.750359  0.500000  0.000000  1
  V  V3  1  0.755317  0.500000  0.500000  1
  V  V4  1  0.000000  0.753435  0.251970  1
  V  V5  1  0.000000  0.753435  0.748030  1
  V  V6  1  0.500000  0.000000  0.125048  1
  V  V7  1  0.500000  0.000000  0.623002  1
  V  V8  1  0.249641  0.500000  0.000000  1
  V  V9  1  0.244683  0.500000  0.500000  1
  V  V10  1  0.000000  0.246565  0.251970  1
  V  V11  1  0.000000  0.246565  0.748030  1
  Si  Si12  1  0.000000  0.000000  0.500000  1
  As  As13  1  0.500000  0.500000  0.250300  1
  As  As14  1  0.500000  0.500000  0.749700  1
  As  As15  1  0.000000  0.000000  0.000000  1
