# generated using pymatgen
data_Yb3Th(Ga8Pt3)3
_symmetry_space_group_name_H-M   'P 1'
_cell_length_a   7.52613553
_cell_length_b   7.62341233
_cell_length_c   13.40837154
_cell_angle_alpha   84.62371950
_cell_angle_beta   79.27163541
_cell_angle_gamma   60.32137586
_symmetry_Int_Tables_number   1
_chemical_formula_structural   Yb3Th(Ga8Pt3)3
_chemical_formula_sum   'Yb3 Th1 Ga24 Pt9'
_cell_volume   656.69919343
_cell_formula_units_Z   1
loop_
 _symmetry_equiv_pos_site_id
 _symmetry_equiv_pos_as_xyz
  1  'x, y, z'
loop_
 _atom_site_type_symbol
 _atom_site_label
 _atom_site_symmetry_multiplicity
 _atom_site_fract_x
 _atom_site_fract_y
 _atom_site_fract_z
 _atom_site_occupancy
  Yb  Yb0  1  0.602596  0.832173  0.191617  1
  Yb  Yb1  1  0.732257  0.499975  0.809440  1
  Yb  Yb2  1  0.267229  0.500773  0.191386  1
  Th  Th3  1  0.395807  0.167626  0.810779  1
  Ga  Ga4  1  0.690123  0.828152  0.941227  1
  Ga  Ga5  1  0.313317  0.165690  0.063446  1
  Ga  Ga6  1  0.147132  0.832144  0.559030  1
  Ga  Ga7  1  0.853919  0.167392  0.440692  1
  Ga  Ga8  1  0.478086  0.166140  0.555862  1
  Ga  Ga9  1  0.521161  0.834418  0.443724  1
  Ga  Ga10  1  0.220123  0.165128  0.323486  1
  Ga  Ga11  1  0.783473  0.829537  0.675877  1
  Ga  Ga12  1  0.438462  0.508220  0.675524  1
  Ga  Ga13  1  0.562821  0.495875  0.324621  1
  Ga  Ga14  1  0.101574  0.164525  0.674187  1
  Ga  Ga15  1  0.893310  0.836955  0.325034  1
  Ga  Ga16  1  0.359586  0.501444  0.941947  1
  Ga  Ga17  1  0.641968  0.502817  0.058855  1
  Ga  Ga18  1  0.015290  0.170985  0.945532  1
  Ga  Ga19  1  0.980313  0.829764  0.056169  1
  Ga  Ga20  1  0.186969  0.498370  0.443537  1
  Ga  Ga21  1  0.813117  0.502157  0.556604  1
  Ga  Ga22  1  0.731801  0.166771  0.181287  1
  Ga  Ga23  1  0.265742  0.831628  0.817838  1
  Ga  Ga24  1  0.059062  0.632249  0.816653  1
  Ga  Ga25  1  0.936142  0.373183  0.181737  1
  Ga  Ga26  1  0.860662  0.037721  0.816352  1
  Ga  Ga27  1  0.143810  0.959058  0.182474  1
  Pt  Pt28  1  0.119650  0.494112  0.639134  1
  Pt  Pt29  1  0.882537  0.505232  0.361009  1
  Pt  Pt30  1  0.661359  0.168068  0.997396  1
  Pt  Pt31  1  0.339570  0.832528  0.998635  1
  Pt  Pt32  1  0.540628  0.166516  0.360902  1
  Pt  Pt33  1  0.458359  0.835180  0.639736  1
  Pt  Pt34  1  0.777154  0.172380  0.637504  1
  Pt  Pt35  1  0.221128  0.826584  0.363142  1
  Pt  Pt36  1  0.003767  0.498529  0.997626  1
