# generated using pymatgen
data_HoErMn2Fe10P7
_symmetry_space_group_name_H-M   'P 1'
_cell_length_a   8.99111508
_cell_length_b   8.98483856
_cell_length_c   3.62190800
_cell_angle_alpha   90.00000000
_cell_angle_beta   90.00000000
_cell_angle_gamma   119.92916138
_symmetry_Int_Tables_number   1
_chemical_formula_structural   HoErMn2Fe10P7
_chemical_formula_sum   'Ho1 Er1 Mn2 Fe10 P7'
_cell_volume   253.57208693
_cell_formula_units_Z   1
loop_
 _symmetry_equiv_pos_site_id
 _symmetry_equiv_pos_as_xyz
  1  'x, y, z'
loop_
 _atom_site_type_symbol
 _atom_site_label
 _atom_site_symmetry_multiplicity
 _atom_site_fract_x
 _atom_site_fract_y
 _atom_site_fract_z
 _atom_site_occupancy
  Ho  Ho0  1  0.331642  0.664005  0.000000  1
  Er  Er1  1  0.000163  0.001944  0.500000  1
  Mn  Mn2  1  0.770885  0.551488  0.500000  1
  Mn  Mn3  1  0.449417  0.215222  0.500000  1
  Fe  Fe4  1  0.033770  0.276259  0.000000  1
  Fe  Fe5  1  0.723079  0.759886  0.000000  1
  Fe  Fe6  1  0.241279  0.964180  0.000000  1
  Fe  Fe7  1  0.546942  0.058838  0.000000  1
  Fe  Fe8  1  0.941811  0.489489  0.000000  1
  Fe  Fe9  1  0.513684  0.452494  0.000000  1
  Fe  Fe10  1  0.617803  0.899841  0.500000  1
  Fe  Fe11  1  0.100793  0.717568  0.500000  1
  Fe  Fe12  1  0.281255  0.382730  0.500000  1
  Fe  Fe13  1  0.783765  0.237439  0.500000  1
  P  P14  1  0.778952  0.034950  0.000000  1
  P  P15  1  0.968367  0.748696  0.000000  1
  P  P16  1  0.252667  0.222427  0.000000  1
  P  P17  1  0.377240  0.924259  0.500000  1
  P  P18  1  0.066393  0.443091  0.500000  1
  P  P19  1  0.550239  0.623266  0.500000  1
  P  P20  1  0.669853  0.331932  0.000000  1
