# generated using pymatgen
data_Tb4ErAgPd14
_symmetry_space_group_name_H-M   'P 1'
_cell_length_a   4.15229400
_cell_length_b   4.08212800
_cell_length_c   20.65809600
_cell_angle_alpha   90.00000000
_cell_angle_beta   90.00000000
_cell_angle_gamma   90.00000000
_symmetry_Int_Tables_number   1
_chemical_formula_structural   Tb4ErAgPd14
_chemical_formula_sum   'Tb4 Er1 Ag1 Pd14'
_cell_volume   350.15876796
_cell_formula_units_Z   1
loop_
 _symmetry_equiv_pos_site_id
 _symmetry_equiv_pos_as_xyz
  1  'x, y, z'
loop_
 _atom_site_type_symbol
 _atom_site_label
 _atom_site_symmetry_multiplicity
 _atom_site_fract_x
 _atom_site_fract_y
 _atom_site_fract_z
 _atom_site_occupancy
  Tb  Tb0  1  0.000000  0.000000  0.203408  1
  Tb  Tb1  1  0.000000  0.000000  0.399655  1
  Tb  Tb2  1  0.000000  0.000000  0.600137  1
  Tb  Tb3  1  0.000000  0.000000  0.801000  1
  Er  Er4  1  0.000000  0.000000  0.995701  1
  Ag  Ag5  1  0.500000  0.000000  0.098872  1
  Pd  Pd6  1  0.500000  0.500000  0.000395  1
  Pd  Pd7  1  0.500000  0.500000  0.198750  1
  Pd  Pd8  1  0.500000  0.500000  0.399131  1
  Pd  Pd9  1  0.500000  0.500000  0.600268  1
  Pd  Pd10  1  0.500000  0.500000  0.801335  1
  Pd  Pd11  1  0.500000  0.000000  0.298965  1
  Pd  Pd12  1  0.500000  0.000000  0.499644  1
  Pd  Pd13  1  0.500000  0.000000  0.700841  1
  Pd  Pd14  1  0.500000  0.000000  0.901811  1
  Pd  Pd15  1  0.000000  0.500000  0.098770  1
  Pd  Pd16  1  0.000000  0.500000  0.299147  1
  Pd  Pd17  1  0.000000  0.500000  0.499562  1
  Pd  Pd18  1  0.000000  0.500000  0.700933  1
  Pd  Pd19  1  0.000000  0.500000  0.901677  1
