# generated using pymatgen
data_Ca10GdReN10
_symmetry_space_group_name_H-M   'P 1'
_cell_length_a   7.08299090
_cell_length_b   7.08299032
_cell_length_c   8.95469100
_cell_angle_alpha   80.40782185
_cell_angle_beta   80.40781444
_cell_angle_gamma   59.85308229
_symmetry_Int_Tables_number   1
_chemical_formula_structural   Ca10GdReN10
_chemical_formula_sum   'Ca10 Gd1 Re1 N10'
_cell_volume   381.23265373
_cell_formula_units_Z   1
loop_
 _symmetry_equiv_pos_site_id
 _symmetry_equiv_pos_as_xyz
  1  'x, y, z'
loop_
 _atom_site_type_symbol
 _atom_site_label
 _atom_site_symmetry_multiplicity
 _atom_site_fract_x
 _atom_site_fract_y
 _atom_site_fract_z
 _atom_site_occupancy
  Ca  Ca0  1  0.873641  0.363273  0.823912  1
  Ca  Ca1  1  0.873326  0.873326  0.811717  1
  Ca  Ca2  1  0.737384  0.737384  0.530140  1
  Ca  Ca3  1  0.745639  0.258850  0.514757  1
  Ca  Ca4  1  0.623205  0.139754  0.151672  1
  Ca  Ca5  1  0.363273  0.873641  0.823912  1
  Ca  Ca6  1  0.258850  0.745639  0.514757  1
  Ca  Ca7  1  0.240510  0.240510  0.503082  1
  Ca  Ca8  1  0.140457  0.140457  0.161730  1
  Ca  Ca9  1  0.139754  0.623205  0.151672  1
  Gd  Gd10  1  0.369526  0.369526  0.785877  1
  Re  Re11  1  0.631701  0.631701  0.226820  1
  N  N12  1  0.898156  0.475158  0.313428  1
  N  N13  1  0.991571  0.991571  0.026781  1
  N  N14  1  0.673403  0.673403  0.020491  1
  N  N15  1  0.555025  0.555025  0.680815  1
  N  N16  1  0.475158  0.898156  0.313428  1
  N  N17  1  0.555440  0.062998  0.658183  1
  N  N18  1  0.478393  0.478393  0.296413  1
  N  N19  1  0.314160  0.314160  0.034317  1
  N  N20  1  0.060713  0.060713  0.643718  1
  N  N21  1  0.062998  0.555440  0.658183  1
