# generated using pymatgen
data_YB16Pb7F64
_symmetry_space_group_name_H-M   'P 1'
_cell_length_a   9.78519300
_cell_length_b   10.25289500
_cell_length_c   14.69782300
_cell_angle_alpha   90.00000000
_cell_angle_beta   90.00000000
_cell_angle_gamma   90.00000000
_symmetry_Int_Tables_number   1
_chemical_formula_structural   YB16Pb7F64
_chemical_formula_sum   'Y1 B16 Pb7 F64'
_cell_volume   1474.58196793
_cell_formula_units_Z   1
loop_
 _symmetry_equiv_pos_site_id
 _symmetry_equiv_pos_as_xyz
  1  'x, y, z'
loop_
 _atom_site_type_symbol
 _atom_site_label
 _atom_site_symmetry_multiplicity
 _atom_site_fract_x
 _atom_site_fract_y
 _atom_site_fract_z
 _atom_site_occupancy
  Y  Y0  1  0.712256  0.534045  0.593239  1
  B  B1  1  0.997850  0.776911  0.951640  1
  B  B2  1  0.509740  0.767759  0.449714  1
  B  B3  1  0.499543  0.721023  0.952385  1
  B  B4  1  0.804558  0.863442  0.666521  1
  B  B5  1  0.512510  0.234886  0.551916  1
  B  B6  1  0.354878  0.584563  0.660995  1
  B  B7  1  0.992644  0.701927  0.454279  1
  B  B8  1  0.324413  0.103112  0.844962  1
  B  B9  1  0.991440  0.308110  0.553489  1
  B  B10  1  0.169317  0.602706  0.159463  1
  B  B11  1  0.180310  0.106825  0.337682  1
  B  B12  1  0.672264  0.900542  0.156589  1
  B  B13  1  0.502290  0.282007  0.050217  1
  B  B14  1  0.995014  0.227876  0.041136  1
  B  B15  1  0.820899  0.405189  0.821356  1
  B  B16  1  0.677219  0.410299  0.347121  1
  Pb  Pb17  1  0.288707  0.466540  0.397386  1
  Pb  Pb18  1  0.777045  0.543634  0.105573  1
  Pb  Pb19  1  0.142294  0.983024  0.579488  1
  Pb  Pb20  1  0.713630  0.031049  0.902970  1
  Pb  Pb21  1  0.277461  0.968890  0.095581  1
  Pb  Pb22  1  0.816818  0.025532  0.422449  1
  Pb  Pb23  1  0.228720  0.463757  0.896154  1
  F  F24  1  0.065225  0.235952  0.617841  1
  F  F25  1  0.897082  0.227246  0.507045  1
  F  F26  1  0.528233  0.914667  0.163949  1
  F  F27  1  0.594168  0.205567  0.996667  1
  F  F28  1  0.894425  0.640335  0.514171  1
  F  F29  1  0.234621  0.527188  0.228983  1
  F  F30  1  0.586998  0.802933  0.901099  1
  F  F31  1  0.079630  0.368832  0.491271  1
  F  F32  1  0.712422  0.939784  0.066033  1
  F  F33  1  0.082931  0.696486  0.898383  1
  F  F34  1  0.085363  0.307187  0.988258  1
  F  F35  1  0.909916  0.310600  0.093435  1
  F  F36  1  0.914373  0.150901  0.981096  1
  F  F37  1  0.404841  0.800296  0.001319  1
  F  F38  1  0.210937  0.557279  0.072812  1
  F  F39  1  0.420894  0.360640  0.991521  1
  F  F40  1  0.963252  0.423997  0.814850  1
  F  F41  1  0.206169  0.735544  0.170701  1
  F  F42  1  0.708119  0.764869  0.167697  1
  F  F43  1  0.723018  0.283245  0.338409  1
  F  F44  1  0.317815  0.710457  0.679655  1
  F  F45  1  0.756855  0.474153  0.742347  1
  F  F46  1  0.739256  0.930921  0.737114  1
  F  F47  1  0.024792  0.587906  0.168598  1
  F  F48  1  0.764011  0.726419  0.669981  1
  F  F49  1  0.419768  0.301193  0.492659  1
  F  F50  1  0.056059  0.608760  0.398988  1
  F  F51  1  0.214045  0.240950  0.329434  1
  F  F52  1  0.768827  0.459813  0.901173  1
  F  F53  1  0.297259  0.240331  0.835912  1
  F  F54  1  0.077447  0.853126  0.012808  1
  F  F55  1  0.909837  0.407101  0.598831  1
  F  F56  1  0.598207  0.152377  0.501753  1
  F  F57  1  0.429107  0.841910  0.506113  1
  F  F58  1  0.579731  0.364458  0.108041  1
  F  F59  1  0.923376  0.795004  0.400830  1
  F  F60  1  0.785772  0.272297  0.813337  1
  F  F61  1  0.093457  0.763011  0.509529  1
  F  F62  1  0.764003  0.913556  0.581325  1
  F  F63  1  0.443792  0.172892  0.620412  1
  F  F64  1  0.284271  0.064144  0.935765  1
  F  F65  1  0.577049  0.645360  0.014756  1
  F  F66  1  0.240439  0.035385  0.265766  1
  F  F67  1  0.506131  0.572068  0.663322  1
  F  F68  1  0.425552  0.636270  0.894212  1
  F  F69  1  0.429303  0.682416  0.394483  1
  F  F70  1  0.948091  0.869922  0.676323  1
  F  F71  1  0.918547  0.861348  0.896392  1
  F  F72  1  0.230297  0.058455  0.422449  1
  F  F73  1  0.740553  0.974501  0.221515  1
  F  F74  1  0.467890  0.081118  0.836717  1
  F  F75  1  0.418011  0.197653  0.101619  1
  F  F76  1  0.711307  0.458216  0.438849  1
  F  F77  1  0.596601  0.679207  0.506990  1
  F  F78  1  0.532872  0.419396  0.336753  1
  F  F79  1  0.073480  0.145014  0.097804  1
  F  F80  1  0.035726  0.091393  0.334524  1
  F  F81  1  0.599784  0.841335  0.396854  1
  F  F82  1  0.312857  0.543882  0.572817  1
  F  F83  1  0.740486  0.493857  0.282508  1
  F  F84  1  0.250916  0.033986  0.780507  1
  F  F85  1  0.601828  0.339483  0.591829  1
  F  F86  1  0.906605  0.695955  0.003180  1
  F  F87  1  0.303548  0.495802  0.727381  1
