# generated using pymatgen
data_NaCa5Pb18
_symmetry_space_group_name_H-M   'P 1'
_cell_length_a   6.97044700
_cell_length_b   6.97044660
_cell_length_c   17.39763400
_cell_angle_alpha   90.00000000
_cell_angle_beta   90.00000000
_cell_angle_gamma   119.99999717
_symmetry_Int_Tables_number   1
_chemical_formula_structural   NaCa5Pb18
_chemical_formula_sum   'Na1 Ca5 Pb18'
_cell_volume   732.05222988
_cell_formula_units_Z   1
loop_
 _symmetry_equiv_pos_site_id
 _symmetry_equiv_pos_as_xyz
  1  'x, y, z'
loop_
 _atom_site_type_symbol
 _atom_site_label
 _atom_site_symmetry_multiplicity
 _atom_site_fract_x
 _atom_site_fract_y
 _atom_site_fract_z
 _atom_site_occupancy
  Na  Na0  1  0.000000  0.000000  0.416750  1
  Ca  Ca1  1  0.666667  0.333333  0.582623  1
  Ca  Ca2  1  0.666667  0.333333  0.918941  1
  Ca  Ca3  1  0.000000  0.000000  0.079655  1
  Ca  Ca4  1  0.333333  0.666667  0.249103  1
  Ca  Ca5  1  0.333333  0.666667  0.754463  1
  Pb  Pb6  1  0.001052  0.500525  0.417360  1
  Pb  Pb7  1  0.499475  0.500525  0.417360  1
  Pb  Pb8  1  0.499475  0.998948  0.417360  1
  Pb  Pb9  1  0.665291  0.832645  0.581965  1
  Pb  Pb10  1  0.167355  0.832645  0.581965  1
  Pb  Pb11  1  0.167355  0.334709  0.581965  1
  Pb  Pb12  1  0.664434  0.832217  0.919290  1
  Pb  Pb13  1  0.167783  0.832217  0.919290  1
  Pb  Pb14  1  0.167783  0.335566  0.919290  1
  Pb  Pb15  1  0.003645  0.501823  0.081607  1
  Pb  Pb16  1  0.498177  0.501823  0.081607  1
  Pb  Pb17  1  0.498177  0.996355  0.081607  1
  Pb  Pb18  1  0.333702  0.166852  0.249096  1
  Pb  Pb19  1  0.833148  0.166852  0.249096  1
  Pb  Pb20  1  0.833148  0.666298  0.249096  1
  Pb  Pb21  1  0.333410  0.166705  0.749990  1
  Pb  Pb22  1  0.833295  0.166705  0.749990  1
  Pb  Pb23  1  0.833295  0.666590  0.749990  1
