# generated using pymatgen
data_TmLu9(PPb3)2
_symmetry_space_group_name_H-M   'P 1'
_cell_length_a   8.96999000
_cell_length_b   8.96611030
_cell_length_c   6.67260600
_cell_angle_alpha   90.00000000
_cell_angle_beta   90.00000000
_cell_angle_gamma   120.01431486
_symmetry_Int_Tables_number   1
_chemical_formula_structural   TmLu9(PPb3)2
_chemical_formula_sum   'Tm1 Lu9 P2 Pb6'
_cell_volume   464.68589078
_cell_formula_units_Z   1
loop_
 _symmetry_equiv_pos_site_id
 _symmetry_equiv_pos_as_xyz
  1  'x, y, z'
loop_
 _atom_site_type_symbol
 _atom_site_label
 _atom_site_symmetry_multiplicity
 _atom_site_fract_x
 _atom_site_fract_y
 _atom_site_fract_z
 _atom_site_occupancy
  Tm  Tm0  1  0.238623  0.000000  0.250000  1
  Lu  Lu1  1  0.762160  0.000000  0.750000  1
  Lu  Lu2  1  0.999956  0.237793  0.250000  1
  Lu  Lu3  1  0.333386  0.666621  0.500016  1
  Lu  Lu4  1  0.666767  0.333379  0.500016  1
  Lu  Lu5  1  0.666767  0.333379  0.999984  1
  Lu  Lu6  1  0.999938  0.762190  0.750000  1
  Lu  Lu7  1  0.237747  0.237810  0.750000  1
  Lu  Lu8  1  0.333386  0.666621  0.999984  1
  Lu  Lu9  1  0.762162  0.762207  0.250000  1
  P  P10  1  0.999519  0.000000  0.999564  1
  P  P11  1  0.999519  0.000000  0.500436  1
  Pb  Pb12  1  0.399908  0.000000  0.750000  1
  Pb  Pb13  1  0.999981  0.399931  0.750000  1
  Pb  Pb14  1  0.400087  0.400326  0.250000  1
  Pb  Pb15  1  0.600281  0.000000  0.250000  1
  Pb  Pb16  1  0.999761  0.599674  0.250000  1
  Pb  Pb17  1  0.600051  0.600069  0.750000  1
