# generated using pymatgen
data_Lu12Mn2FeBi2
_symmetry_space_group_name_H-M   'P 1'
_cell_length_a   8.28345726
_cell_length_b   8.28345791
_cell_length_c   8.28345730
_cell_angle_alpha   108.07081807
_cell_angle_beta   108.07081274
_cell_angle_gamma   112.30986300
_symmetry_Int_Tables_number   1
_chemical_formula_structural   Lu12Mn2FeBi2
_chemical_formula_sum   'Lu12 Mn2 Fe1 Bi2'
_cell_volume   436.72547114
_cell_formula_units_Z   1
loop_
 _symmetry_equiv_pos_site_id
 _symmetry_equiv_pos_as_xyz
  1  'x, y, z'
loop_
 _atom_site_type_symbol
 _atom_site_label
 _atom_site_symmetry_multiplicity
 _atom_site_fract_x
 _atom_site_fract_y
 _atom_site_fract_z
 _atom_site_occupancy
  Lu  Lu0  1  0.309411  0.309411  0.618822  1
  Lu  Lu1  1  0.690589  0.690589  0.381178  1
  Lu  Lu2  1  0.690589  0.309411  0.000000  1
  Lu  Lu3  1  0.309411  0.690589  0.000000  1
  Lu  Lu4  1  0.192927  0.421854  0.228927  1
  Lu  Lu5  1  0.807073  0.578146  0.771073  1
  Lu  Lu6  1  0.192927  0.963999  0.771073  1
  Lu  Lu7  1  0.963999  0.192927  0.771073  1
  Lu  Lu8  1  0.807073  0.036001  0.228927  1
  Lu  Lu9  1  0.036001  0.807073  0.228927  1
  Lu  Lu10  1  0.421854  0.192927  0.228927  1
  Lu  Lu11  1  0.578146  0.807073  0.771073  1
  Mn  Mn12  1  0.385975  0.385975  0.000000  1
  Mn  Mn13  1  0.614025  0.614025  0.000000  1
  Fe  Fe14  1  0.000000  0.000000  0.000000  1
  Bi  Bi15  1  0.000000  0.500000  0.500000  1
  Bi  Bi16  1  0.500000  0.000000  0.500000  1
