# generated using pymatgen
data_Rb3Y(BO3)2
_symmetry_space_group_name_H-M   'P 1'
_cell_length_a   5.68459900
_cell_length_b   7.10317800
_cell_length_c   9.57014700
_cell_angle_alpha   90.00000000
_cell_angle_beta   90.00000000
_cell_angle_gamma   90.00000000
_symmetry_Int_Tables_number   1
_chemical_formula_structural   Rb3Y(BO3)2
_chemical_formula_sum   'Rb6 Y2 B4 O12'
_cell_volume   386.43027225
_cell_formula_units_Z   2
loop_
 _symmetry_equiv_pos_site_id
 _symmetry_equiv_pos_as_xyz
  1  'x, y, z'
loop_
 _atom_site_type_symbol
 _atom_site_label
 _atom_site_symmetry_multiplicity
 _atom_site_fract_x
 _atom_site_fract_y
 _atom_site_fract_z
 _atom_site_occupancy
  Rb  Rb0  1  0.000000  0.233896  0.333094  1
  Rb  Rb1  1  0.000000  0.766104  0.666906  1
  Rb  Rb2  1  0.500000  0.733896  0.166906  1
  Rb  Rb3  1  0.500000  0.500000  0.500000  1
  Rb  Rb4  1  0.500000  0.266104  0.833094  1
  Rb  Rb5  1  0.000000  0.000000  0.000000  1
  Y  Y6  1  0.000000  0.500000  0.000000  1
  Y  Y7  1  0.500000  0.000000  0.500000  1
  B  B8  1  0.000000  0.767737  0.333406  1
  B  B9  1  0.000000  0.232263  0.666594  1
  B  B10  1  0.500000  0.732263  0.833406  1
  B  B11  1  0.500000  0.267737  0.166594  1
  O  O12  1  0.712732  0.310751  0.099767  1
  O  O13  1  0.212732  0.189249  0.599767  1
  O  O14  1  0.500000  0.183862  0.299569  1
  O  O15  1  0.712732  0.689249  0.900233  1
  O  O16  1  0.287268  0.310751  0.099767  1
  O  O17  1  0.212732  0.810751  0.400233  1
  O  O18  1  0.787268  0.189249  0.599767  1
  O  O19  1  0.287268  0.689249  0.900233  1
  O  O20  1  0.787268  0.810751  0.400233  1
  O  O21  1  0.000000  0.316138  0.799569  1
  O  O22  1  0.000000  0.683862  0.200431  1
  O  O23  1  0.500000  0.816138  0.700431  1
