# generated using pymatgen
data_Er3Al2Si2AgPd
_symmetry_space_group_name_H-M   'P 1'
_cell_length_a   6.98770500
_cell_length_b   6.83448375
_cell_length_c   4.26789100
_cell_angle_alpha   90.00000000
_cell_angle_beta   90.00000000
_cell_angle_gamma   120.74442735
_symmetry_Int_Tables_number   1
_chemical_formula_structural   Er3Al2Si2AgPd
_chemical_formula_sum   'Er3 Al2 Si2 Ag1 Pd1'
_cell_volume   175.17709232
_cell_formula_units_Z   1
loop_
 _symmetry_equiv_pos_site_id
 _symmetry_equiv_pos_as_xyz
  1  'x, y, z'
loop_
 _atom_site_type_symbol
 _atom_site_label
 _atom_site_symmetry_multiplicity
 _atom_site_fract_x
 _atom_site_fract_y
 _atom_site_fract_z
 _atom_site_occupancy
  Er  Er0  1  0.424077  0.000000  0.000000  1
  Er  Er1  1  0.995001  0.414242  0.000000  1
  Er  Er2  1  0.580759  0.585758  0.000000  1
  Al  Al3  1  0.234005  0.236507  0.500001  1
  Al  Al4  1  0.997499  0.763493  0.500001  1
  Si  Si5  1  0.666645  0.341717  0.500001  1
  Si  Si6  1  0.324927  0.658283  0.500001  1
  Ag  Ag7  1  0.746851  0.000000  0.500001  1
  Pd  Pd8  1  0.030233  0.000000  0.000000  1
