# generated using pymatgen
data_Dy3TmLu12(Ga3Co)2
_symmetry_space_group_name_H-M   'P 1'
_cell_length_a   9.81124203
_cell_length_b   9.81353944
_cell_length_c   6.86123202
_cell_angle_alpha   89.99955166
_cell_angle_beta   90.00595893
_cell_angle_gamma   119.96250916
_symmetry_Int_Tables_number   1
_chemical_formula_structural   Dy3TmLu12(Ga3Co)2
_chemical_formula_sum   'Dy3 Tm1 Lu12 Ga6 Co2'
_cell_volume   572.32977575
_cell_formula_units_Z   1
loop_
 _symmetry_equiv_pos_site_id
 _symmetry_equiv_pos_as_xyz
  1  'x, y, z'
loop_
 _atom_site_type_symbol
 _atom_site_label
 _atom_site_symmetry_multiplicity
 _atom_site_fract_x
 _atom_site_fract_y
 _atom_site_fract_z
 _atom_site_occupancy
  Dy  Dy0  1  0.535334  0.071047  0.708169  1
  Dy  Dy1  1  0.999974  0.000135  0.231366  1
  Dy  Dy2  1  0.999973  0.000014  0.731337  1
  Tm  Tm3  1  0.928663  0.464618  0.707995  1
  Lu  Lu4  1  0.174051  0.825509  0.509890  1
  Lu  Lu5  1  0.650952  0.824604  0.510606  1
  Lu  Lu6  1  0.175245  0.349177  0.510808  1
  Lu  Lu7  1  0.825943  0.174355  0.013354  1
  Lu  Lu8  1  0.348626  0.174987  0.012666  1
  Lu  Lu9  1  0.825029  0.651095  0.012408  1
  Lu  Lu10  1  0.333554  0.666067  0.827653  1
  Lu  Lu11  1  0.666445  0.333932  0.326585  1
  Lu  Lu12  1  0.463362  0.536706  0.207282  1
  Lu  Lu13  1  0.073920  0.536942  0.207481  1
  Lu  Lu14  1  0.462960  0.925905  0.207507  1
  Lu  Lu15  1  0.536399  0.463943  0.707319  1
  Ga  Ga16  1  0.163972  0.835942  0.959979  1
  Ga  Ga17  1  0.671827  0.835957  0.959294  1
  Ga  Ga18  1  0.163982  0.328132  0.959198  1
  Ga  Ga19  1  0.836834  0.163442  0.457683  1
  Ga  Ga20  1  0.327499  0.164180  0.458369  1
  Ga  Ga21  1  0.835868  0.672309  0.458602  1
  Co  Co22  1  0.333364  0.666594  0.444123  1
  Co  Co23  1  0.666222  0.334407  0.945159  1
