# generated using pymatgen
data_Tm8Sc11Si16Rh
_symmetry_space_group_name_H-M   'P 1'
_cell_length_a   6.93660008
_cell_length_b   7.35672823
_cell_length_c   13.81535500
_cell_angle_alpha   90.00000000
_cell_angle_beta   90.00000000
_cell_angle_gamma   89.91096912
_symmetry_Int_Tables_number   1
_chemical_formula_structural   Tm8Sc11Si16Rh
_chemical_formula_sum   'Tm8 Sc11 Si16 Rh1'
_cell_volume   705.00613192
_cell_formula_units_Z   1
loop_
 _symmetry_equiv_pos_site_id
 _symmetry_equiv_pos_as_xyz
  1  'x, y, z'
loop_
 _atom_site_type_symbol
 _atom_site_label
 _atom_site_symmetry_multiplicity
 _atom_site_fract_x
 _atom_site_fract_y
 _atom_site_fract_z
 _atom_site_occupancy
  Tm  Tm0  1  0.012203  0.179311  0.093332  1
  Tm  Tm1  1  0.990709  0.814218  0.902225  1
  Tm  Tm2  1  0.489281  0.674734  0.903055  1
  Tm  Tm3  1  0.990709  0.814218  0.597775  1
  Tm  Tm4  1  0.509949  0.321988  0.093962  1
  Tm  Tm5  1  0.012203  0.179311  0.406668  1
  Tm  Tm6  1  0.509949  0.321988  0.406038  1
  Tm  Tm7  1  0.489281  0.674734  0.596945  1
  Sc  Sc8  1  0.840678  0.496196  0.250000  1
  Sc  Sc9  1  0.342142  0.005271  0.250000  1
  Sc  Sc10  1  0.653771  0.996713  0.750000  1
  Sc  Sc11  1  0.321812  0.176579  0.628167  1
  Sc  Sc12  1  0.672261  0.825231  0.374254  1
  Sc  Sc13  1  0.173109  0.673665  0.376030  1
  Sc  Sc14  1  0.672261  0.825231  0.125746  1
  Sc  Sc15  1  0.831004  0.328691  0.629505  1
  Sc  Sc16  1  0.321812  0.176579  0.871833  1
  Sc  Sc17  1  0.831004  0.328691  0.870495  1
  Sc  Sc18  1  0.173109  0.673665  0.123970  1
  Si  Si19  1  0.023978  0.094274  0.750000  1
  Si  Si20  1  0.973349  0.889558  0.250000  1
  Si  Si21  1  0.469777  0.612482  0.250000  1
  Si  Si22  1  0.517146  0.396456  0.750000  1
  Si  Si23  1  0.282808  0.861359  0.750000  1
  Si  Si24  1  0.716267  0.132468  0.250000  1
  Si  Si25  1  0.215059  0.369424  0.250000  1
  Si  Si26  1  0.791909  0.630169  0.750000  1
  Si  Si27  1  0.161304  0.464223  0.542432  1
  Si  Si28  1  0.841791  0.534770  0.463650  1
  Si  Si29  1  0.343538  0.964914  0.463162  1
  Si  Si30  1  0.841791  0.534770  0.036350  1
  Si  Si31  1  0.659693  0.034548  0.540068  1
  Si  Si32  1  0.161304  0.464223  0.957568  1
  Si  Si33  1  0.659693  0.034548  0.959932  1
  Si  Si34  1  0.343538  0.964914  0.036838  1
  Rh  Rh35  1  0.159809  0.529886  0.750000  1
