# generated using pymatgen
data_TbLu9(InSb2)2
_symmetry_space_group_name_H-M   'P 1'
_cell_length_a   6.34589301
_cell_length_b   8.78589426
_cell_length_c   8.81204115
_cell_angle_alpha   119.90190432
_cell_angle_beta   89.99987004
_cell_angle_gamma   90.00025839
_symmetry_Int_Tables_number   1
_chemical_formula_structural   TbLu9(InSb2)2
_chemical_formula_sum   'Tb1 Lu9 In2 Sb4'
_cell_volume   425.90653891
_cell_formula_units_Z   1
loop_
 _symmetry_equiv_pos_site_id
 _symmetry_equiv_pos_as_xyz
  1  'x, y, z'
loop_
 _atom_site_type_symbol
 _atom_site_label
 _atom_site_symmetry_multiplicity
 _atom_site_fract_x
 _atom_site_fract_y
 _atom_site_fract_z
 _atom_site_occupancy
  Tb  Tb0  1  0.750016  0.240584  0.000000  1
  Lu  Lu1  1  0.499868  0.332877  0.664132  1
  Lu  Lu2  1  0.499868  0.668745  0.335868  1
  Lu  Lu3  1  0.000159  0.668746  0.335853  1
  Lu  Lu4  1  0.000159  0.332893  0.664147  1
  Lu  Lu5  1  0.750000  0.760818  0.758801  1
  Lu  Lu6  1  0.750000  0.002016  0.241199  1
  Lu  Lu7  1  0.250000  0.763068  0.000000  1
  Lu  Lu8  1  0.249999  0.237105  0.242686  1
  Lu  Lu9  1  0.249999  0.994419  0.757314  1
  In  In10  1  0.249978  0.605027  0.605723  1
  In  In11  1  0.249978  0.999304  0.394277  1
  Sb  Sb12  1  0.749979  0.609588  0.000000  1
  Sb  Sb13  1  0.750000  0.394530  0.394455  1
  Sb  Sb14  1  0.750000  0.000074  0.605545  1
  Sb  Sb15  1  0.250001  0.390210  0.000000  1
