# generated using pymatgen
data_Er3Tm13(AgRh)4
_symmetry_space_group_name_H-M   'P 1'
_cell_length_a   9.40974012
_cell_length_b   9.40820796
_cell_length_c   9.37633111
_cell_angle_alpha   60.12235764
_cell_angle_beta   60.10721912
_cell_angle_gamma   60.22769263
_symmetry_Int_Tables_number   1
_chemical_formula_structural   Er3Tm13(AgRh)4
_chemical_formula_sum   'Er3 Tm13 Ag4 Rh4'
_cell_volume   588.97674825
_cell_formula_units_Z   1
loop_
 _symmetry_equiv_pos_site_id
 _symmetry_equiv_pos_as_xyz
  1  'x, y, z'
loop_
 _atom_site_type_symbol
 _atom_site_label
 _atom_site_symmetry_multiplicity
 _atom_site_fract_x
 _atom_site_fract_y
 _atom_site_fract_z
 _atom_site_occupancy
  Er  Er0  1  0.064811  0.064788  0.435186  1
  Er  Er1  1  0.435082  0.065567  0.434924  1
  Er  Er2  1  0.065529  0.435105  0.064411  1
  Tm  Tm3  1  0.059186  0.646726  0.646894  1
  Tm  Tm4  1  0.435138  0.435142  0.064867  1
  Tm  Tm5  1  0.646717  0.059171  0.647208  1
  Tm  Tm6  1  0.187648  0.812776  0.187022  1
  Tm  Tm7  1  0.187814  0.187820  0.812195  1
  Tm  Tm8  1  0.813294  0.813294  0.186703  1
  Tm  Tm9  1  0.435361  0.065233  0.064246  1
  Tm  Tm10  1  0.813001  0.187456  0.186792  1
  Tm  Tm11  1  0.065229  0.435345  0.435165  1
  Tm  Tm12  1  0.812788  0.187656  0.812543  1
  Tm  Tm13  1  0.187448  0.812991  0.812759  1
  Tm  Tm14  1  0.646231  0.646409  0.060879  1
  Tm  Tm15  1  0.646412  0.646234  0.646484  1
  Ag  Ag16  1  0.417336  0.417642  0.417693  1
  Ag  Ag17  1  0.746414  0.417764  0.418119  1
  Ag  Ag18  1  0.417766  0.746414  0.417701  1
  Ag  Ag19  1  0.417643  0.417332  0.747333  1
  Rh  Rh20  1  0.856194  0.855905  0.431080  1
  Rh  Rh21  1  0.855894  0.856158  0.856852  1
  Rh  Rh22  1  0.431628  0.855486  0.856553  1
  Rh  Rh23  1  0.855437  0.431587  0.856389  1
