# generated using pymatgen
data_Sc6Co5Sn6Hg
_symmetry_space_group_name_H-M   'P 1'
_cell_length_a   7.41837900
_cell_length_b   7.41837867
_cell_length_c   6.92200100
_cell_angle_alpha   90.00000000
_cell_angle_beta   90.00000000
_cell_angle_gamma   120.00000593
_symmetry_Int_Tables_number   1
_chemical_formula_structural   Sc6Co5Sn6Hg
_chemical_formula_sum   'Sc6 Co5 Sn6 Hg1'
_cell_volume   329.89845294
_cell_formula_units_Z   1
loop_
 _symmetry_equiv_pos_site_id
 _symmetry_equiv_pos_as_xyz
  1  'x, y, z'
loop_
 _atom_site_type_symbol
 _atom_site_label
 _atom_site_symmetry_multiplicity
 _atom_site_fract_x
 _atom_site_fract_y
 _atom_site_fract_z
 _atom_site_occupancy
  Sc  Sc0  1  0.383648  0.978565  0.238384  1
  Sc  Sc1  1  0.594916  0.616352  0.238384  1
  Sc  Sc2  1  0.021435  0.405084  0.238384  1
  Sc  Sc3  1  0.383262  0.977876  0.761762  1
  Sc  Sc4  1  0.594613  0.616738  0.761762  1
  Sc  Sc5  1  0.022124  0.405387  0.761762  1
  Co  Co6  1  0.000000  0.000000  0.772232  1
  Co  Co7  1  0.000000  0.000000  0.227620  1
  Co  Co8  1  0.666667  0.333333  0.998794  1
  Co  Co9  1  0.333333  0.666667  0.499200  1
  Co  Co10  1  0.333333  0.666667  0.000662  1
  Sn  Sn11  1  0.285065  0.272251  0.999924  1
  Sn  Sn12  1  0.987186  0.714935  0.999924  1
  Sn  Sn13  1  0.014761  0.752320  0.499918  1
  Sn  Sn14  1  0.737559  0.985239  0.499918  1
  Sn  Sn15  1  0.247680  0.262441  0.499918  1
  Sn  Sn16  1  0.727749  0.012814  0.999924  1
  Hg  Hg17  1  0.666667  0.333333  0.501527  1
