# generated using pymatgen
data_Tb10IrPdRh4
_symmetry_space_group_name_H-M   'P 1'
_cell_length_a   11.03782701
_cell_length_b   11.01767731
_cell_length_c   6.37279217
_cell_angle_alpha   90.02761078
_cell_angle_beta   89.99823881
_cell_angle_gamma   90.03459235
_symmetry_Int_Tables_number   1
_chemical_formula_structural   Tb10IrPdRh4
_chemical_formula_sum   'Tb20 Ir2 Pd2 Rh8'
_cell_volume   775.00277400
_cell_formula_units_Z   2
loop_
 _symmetry_equiv_pos_site_id
 _symmetry_equiv_pos_as_xyz
  1  'x, y, z'
loop_
 _atom_site_type_symbol
 _atom_site_label
 _atom_site_symmetry_multiplicity
 _atom_site_fract_x
 _atom_site_fract_y
 _atom_site_fract_z
 _atom_site_occupancy
  Tb  Tb0  1  0.291056  0.089291  0.377924  1
  Tb  Tb1  1  0.291599  0.907982  0.877896  1
  Tb  Tb2  1  0.704778  0.091502  0.873750  1
  Tb  Tb3  1  0.704094  0.908761  0.374023  1
  Tb  Tb4  1  0.583417  0.789566  0.879474  1
  Tb  Tb5  1  0.584618  0.209738  0.380250  1
  Tb  Tb6  1  0.409023  0.790071  0.381060  1
  Tb  Tb7  1  0.408767  0.208884  0.878893  1
  Tb  Tb8  1  0.208844  0.412613  0.619206  1
  Tb  Tb9  1  0.209693  0.590723  0.120961  1
  Tb  Tb10  1  0.790743  0.413598  0.122019  1
  Tb  Tb11  1  0.791633  0.585857  0.619658  1
  Tb  Tb12  1  0.912185  0.706709  0.129198  1
  Tb  Tb13  1  0.912471  0.293818  0.625852  1
  Tb  Tb14  1  0.095004  0.705505  0.618932  1
  Tb  Tb15  1  0.093398  0.294285  0.122902  1
  Tb  Tb16  1  0.003813  0.999061  0.500410  1
  Tb  Tb17  1  0.004312  0.001001  0.999396  1
  Tb  Tb18  1  0.499381  0.499211  0.000678  1
  Tb  Tb19  1  0.499885  0.500886  0.499776  1
  Ir  Ir20  1  0.346974  0.653996  0.750287  1
  Ir  Ir21  1  0.999005  0.499371  0.375925  1
  Pd  Pd22  1  0.844911  0.153448  0.249549  1
  Pd  Pd23  1  0.845019  0.845997  0.749824  1
  Rh  Rh24  1  0.153397  0.154298  0.749658  1
  Rh  Rh25  1  0.153320  0.847646  0.249907  1
  Rh  Rh26  1  0.654723  0.344926  0.749146  1
  Rh  Rh27  1  0.655253  0.655817  0.249214  1
  Rh  Rh28  1  0.347114  0.343978  0.250226  1
  Rh  Rh29  1  0.501453  0.000159  0.123551  1
  Rh  Rh30  1  0.501416  0.001211  0.622992  1
  Rh  Rh31  1  0.998702  0.500094  0.877458  1
