# generated using pymatgen
data_Ca20Cd3(Ag2Ir)3
_symmetry_space_group_name_H-M   'P 1'
_cell_length_a   7.95274847
_cell_length_b   7.95858099
_cell_length_c   14.86982618
_cell_angle_alpha   90.02314388
_cell_angle_beta   90.03838533
_cell_angle_gamma   91.01149972
_symmetry_Int_Tables_number   1
_chemical_formula_structural   Ca20Cd3(Ag2Ir)3
_chemical_formula_sum   'Ca20 Cd3 Ag6 Ir3'
_cell_volume   941.00290456
_cell_formula_units_Z   1
loop_
 _symmetry_equiv_pos_site_id
 _symmetry_equiv_pos_as_xyz
  1  'x, y, z'
loop_
 _atom_site_type_symbol
 _atom_site_label
 _atom_site_symmetry_multiplicity
 _atom_site_fract_x
 _atom_site_fract_y
 _atom_site_fract_z
 _atom_site_occupancy
  Ca  Ca0  1  0.686899  0.180170  0.114975  1
  Ca  Ca1  1  0.167865  0.666653  0.608080  1
  Ca  Ca2  1  0.313863  0.821128  0.114962  1
  Ca  Ca3  1  0.817641  0.319324  0.614603  1
  Ca  Ca4  1  0.847225  0.659350  0.115071  1
  Ca  Ca5  1  0.346755  0.167590  0.611310  1
  Ca  Ca6  1  0.152489  0.340709  0.114923  1
  Ca  Ca7  1  0.665754  0.845113  0.611018  1
  Ca  Ca8  1  0.822478  0.315206  0.887637  1
  Ca  Ca9  1  0.317987  0.816228  0.383003  1
  Ca  Ca10  1  0.163590  0.671622  0.893846  1
  Ca  Ca11  1  0.683131  0.184856  0.383066  1
  Ca  Ca12  1  0.671042  0.849610  0.891444  1
  Ca  Ca13  1  0.156898  0.344947  0.382642  1
  Ca  Ca14  1  0.342119  0.163555  0.891452  1
  Ca  Ca15  1  0.843260  0.655148  0.382605  1
  Ca  Ca16  1  0.505281  0.487758  0.753666  1
  Ca  Ca17  1  0.999751  0.999982  0.250802  1
  Ca  Ca18  1  0.987983  0.005074  0.749175  1
  Ca  Ca19  1  0.499976  0.499781  0.246271  1
  Cd  Cd20  1  0.500332  0.503282  0.500516  1
  Cd  Cd21  1  0.500327  0.503129  0.999368  1
  Cd  Cd22  1  0.003374  0.000358  0.500964  1
  Ag  Ag23  1  0.373586  0.872440  0.751101  1
  Ag  Ag24  1  0.874237  0.626594  0.750909  1
  Ag  Ag25  1  0.375806  0.124717  0.249082  1
  Ag  Ag26  1  0.127069  0.375107  0.751079  1
  Ag  Ag27  1  0.623689  0.874843  0.248991  1
  Ag  Ag28  1  0.002765  0.999593  0.998748  1
  Ir  Ir29  1  0.627035  0.126399  0.751350  1
  Ir  Ir30  1  0.122774  0.623926  0.248625  1
  Ir  Ir31  1  0.877018  0.375808  0.248714  1
