# generated using pymatgen
data_Nd8PIrI10
_symmetry_space_group_name_H-M   'P 1'
_cell_length_a   4.24234400
_cell_length_b   9.05947300
_cell_length_c   19.09019400
_cell_angle_alpha   90.00000000
_cell_angle_beta   90.00000000
_cell_angle_gamma   90.00000000
_symmetry_Int_Tables_number   1
_chemical_formula_structural   Nd8PIrI10
_chemical_formula_sum   'Nd8 P1 Ir1 I10'
_cell_volume   733.70107973
_cell_formula_units_Z   1
loop_
 _symmetry_equiv_pos_site_id
 _symmetry_equiv_pos_as_xyz
  1  'x, y, z'
loop_
 _atom_site_type_symbol
 _atom_site_label
 _atom_site_symmetry_multiplicity
 _atom_site_fract_x
 _atom_site_fract_y
 _atom_site_fract_z
 _atom_site_occupancy
  Nd  Nd0  1  0.000000  0.370525  0.851851  1
  Nd  Nd1  1  0.500000  0.579723  0.000000  1
  Nd  Nd2  1  0.000000  0.370525  0.148149  1
  Nd  Nd3  1  0.000000  0.833231  0.500000  1
  Nd  Nd4  1  0.500000  0.629286  0.355514  1
  Nd  Nd5  1  0.000000  0.420458  0.500000  1
  Nd  Nd6  1  0.500000  0.629286  0.644486  1
  Nd  Nd7  1  0.500000  0.163798  0.000000  1
  P  P8  1  0.500000  0.626779  0.500000  1
  Ir  Ir9  1  0.000000  0.372849  0.000000  1
  I  I10  1  0.500000  0.109593  0.170484  1
  I  I11  1  0.000000  0.367260  0.669276  1
  I  I12  1  0.000000  0.871799  0.000000  1
  I  I13  1  0.000000  0.886080  0.334085  1
  I  I14  1  0.500000  0.109593  0.829516  1
  I  I15  1  0.500000  0.638538  0.824499  1
  I  I16  1  0.000000  0.886080  0.665915  1
  I  I17  1  0.000000  0.367260  0.330724  1
  I  I18  1  0.500000  0.638538  0.175501  1
  I  I19  1  0.500000  0.128799  0.500000  1
