# generated using pymatgen
data_Ca3Ho3(Si3Ru)8
_symmetry_space_group_name_H-M   'P 1'
_cell_length_a   10.16276680
_cell_length_b   10.16276619
_cell_length_c   8.14436208
_cell_angle_alpha   89.99343886
_cell_angle_beta   89.99343737
_cell_angle_gamma   132.74429625
_symmetry_Int_Tables_number   1
_chemical_formula_structural   Ca3Ho3(Si3Ru)8
_chemical_formula_sum   'Ca3 Ho3 Si24 Ru8'
_cell_volume   617.74288439
_cell_formula_units_Z   1
loop_
 _symmetry_equiv_pos_site_id
 _symmetry_equiv_pos_as_xyz
  1  'x, y, z'
loop_
 _atom_site_type_symbol
 _atom_site_label
 _atom_site_symmetry_multiplicity
 _atom_site_fract_x
 _atom_site_fract_y
 _atom_site_fract_z
 _atom_site_occupancy
  Ca  Ca0  1  0.500042  0.499958  0.500000  1
  Ca  Ca1  1  0.500979  0.000890  0.749813  1
  Ca  Ca2  1  0.999110  0.499021  0.250187  1
  Ho  Ho3  1  0.999989  0.000011  0.000000  1
  Ho  Ho4  1  0.498427  0.998383  0.250199  1
  Ho  Ho5  1  0.001617  0.501573  0.749801  1
  Si  Si6  1  0.795073  0.204927  0.500000  1
  Si  Si7  1  0.294211  0.705789  0.000000  1
  Si  Si8  1  0.205461  0.794539  0.500000  1
  Si  Si9  1  0.705308  0.294692  0.000000  1
  Si  Si10  1  0.332053  0.336389  0.831773  1
  Si  Si11  1  0.663611  0.667947  0.168227  1
  Si  Si12  1  0.169803  0.165689  0.333891  1
  Si  Si13  1  0.834311  0.830197  0.666109  1
  Si  Si14  1  0.122413  0.889090  0.728159  1
  Si  Si15  1  0.110910  0.877587  0.271841  1
  Si  Si16  1  0.608563  0.375406  0.229437  1
  Si  Si17  1  0.624594  0.391437  0.770563  1
  Si  Si18  1  0.874830  0.108214  0.271525  1
  Si  Si19  1  0.891786  0.125170  0.728475  1
  Si  Si20  1  0.388922  0.622150  0.770707  1
  Si  Si21  1  0.377850  0.611078  0.229293  1
  Si  Si22  1  0.346121  0.112728  0.504834  1
  Si  Si23  1  0.887272  0.653879  0.495166  1
  Si  Si24  1  0.388512  0.155211  0.007225  1
  Si  Si25  1  0.844789  0.611488  0.992775  1
  Si  Si26  1  0.653606  0.886514  0.492087  1
  Si  Si27  1  0.113486  0.346394  0.507913  1
  Si  Si28  1  0.610786  0.844444  0.996430  1
  Si  Si29  1  0.155556  0.389214  0.003570  1
  Ru  Ru30  1  0.670970  0.329030  0.500000  1
  Ru  Ru31  1  0.168822  0.831178  0.000000  1
  Ru  Ru32  1  0.329843  0.670157  0.500000  1
  Ru  Ru33  1  0.830292  0.169708  0.000000  1
  Ru  Ru34  1  0.124538  0.125118  0.627475  1
  Ru  Ru35  1  0.874882  0.875462  0.372525  1
  Ru  Ru36  1  0.372292  0.371633  0.124396  1
  Ru  Ru37  1  0.628367  0.627708  0.875604  1
