# generated using pymatgen
data_ErTm9(NiSb2)2
_symmetry_space_group_name_H-M   'P 1'
_cell_length_a   7.79051700
_cell_length_b   8.71777800
_cell_length_c   11.96506800
_cell_angle_alpha   90.00000000
_cell_angle_beta   90.00000000
_cell_angle_gamma   90.00000000
_symmetry_Int_Tables_number   1
_chemical_formula_structural   ErTm9(NiSb2)2
_chemical_formula_sum   'Er2 Tm18 Ni4 Sb8'
_cell_volume   812.61953090
_cell_formula_units_Z   2
loop_
 _symmetry_equiv_pos_site_id
 _symmetry_equiv_pos_as_xyz
  1  'x, y, z'
loop_
 _atom_site_type_symbol
 _atom_site_label
 _atom_site_symmetry_multiplicity
 _atom_site_fract_x
 _atom_site_fract_y
 _atom_site_fract_z
 _atom_site_occupancy
  Er  Er0  1  0.374632  0.250000  0.695242  1
  Er  Er1  1  0.874632  0.750000  0.804758  1
  Tm  Tm2  1  0.158670  0.750000  0.207060  1
  Tm  Tm3  1  0.658670  0.250000  0.292940  1
  Tm  Tm4  1  0.841367  0.250000  0.792949  1
  Tm  Tm5  1  0.341367  0.750000  0.707051  1
  Tm  Tm6  1  0.453518  0.750000  0.999724  1
  Tm  Tm7  1  0.953518  0.250000  0.500276  1
  Tm  Tm8  1  0.546451  0.250000  0.000348  1
  Tm  Tm9  1  0.046451  0.750000  0.499652  1
  Tm  Tm10  1  0.625272  0.750000  0.304876  1
  Tm  Tm11  1  0.125272  0.250000  0.195124  1
  Tm  Tm12  1  0.820882  0.959261  0.066439  1
  Tm  Tm13  1  0.320882  0.040739  0.433561  1
  Tm  Tm14  1  0.179149  0.459149  0.933748  1
  Tm  Tm15  1  0.679149  0.540851  0.566252  1
  Tm  Tm16  1  0.179149  0.040851  0.933748  1
  Tm  Tm17  1  0.679149  0.959149  0.566252  1
  Tm  Tm18  1  0.820882  0.540739  0.066439  1
  Tm  Tm19  1  0.320882  0.459261  0.433561  1
  Ni  Ni20  1  0.427542  0.750000  0.489033  1
  Ni  Ni21  1  0.927542  0.250000  0.010967  1
  Ni  Ni22  1  0.572671  0.250000  0.510778  1
  Ni  Ni23  1  0.072671  0.750000  0.989222  1
  Sb  Sb24  1  0.929958  0.991186  0.327615  1
  Sb  Sb25  1  0.429958  0.008814  0.172385  1
  Sb  Sb26  1  0.069950  0.491170  0.672321  1
  Sb  Sb27  1  0.569950  0.508830  0.827679  1
  Sb  Sb28  1  0.069950  0.008830  0.672321  1
  Sb  Sb29  1  0.569950  0.991170  0.827679  1
  Sb  Sb30  1  0.929958  0.508814  0.327615  1
  Sb  Sb31  1  0.429958  0.491186  0.172385  1
