# generated using pymatgen
data_Pu(S8F)3
_symmetry_space_group_name_H-M   'P 1'
_cell_length_a   14.79979827
_cell_length_b   14.79979665
_cell_length_c   14.79979778
_cell_angle_alpha   118.63297393
_cell_angle_beta   118.63296670
_cell_angle_gamma   118.63296418
_symmetry_Int_Tables_number   1
_chemical_formula_structural   Pu(S8F)3
_chemical_formula_sum   'Pu1 S24 F3'
_cell_volume   978.07370907
_cell_formula_units_Z   1
loop_
 _symmetry_equiv_pos_site_id
 _symmetry_equiv_pos_as_xyz
  1  'x, y, z'
loop_
 _atom_site_type_symbol
 _atom_site_label
 _atom_site_symmetry_multiplicity
 _atom_site_fract_x
 _atom_site_fract_y
 _atom_site_fract_z
 _atom_site_occupancy
  Pu  Pu0  1  0.768472  0.768472  0.768472  1
  S  S1  1  0.803497  0.526950  0.526950  1
  S  S2  1  0.526950  0.526950  0.803497  1
  S  S3  1  0.526950  0.803497  0.526950  1
  S  S4  1  0.250166  0.382361  0.635520  1
  S  S5  1  0.345582  0.946462  0.345582  1
  S  S6  1  0.345582  0.345582  0.946462  1
  S  S7  1  0.946462  0.345582  0.345582  1
  S  S8  1  0.124067  0.736907  0.255429  1
  S  S9  1  0.255429  0.124067  0.736907  1
  S  S10  1  0.736907  0.255429  0.124067  1
  S  S11  1  0.736907  0.124067  0.255429  1
  S  S12  1  0.255429  0.736907  0.124067  1
  S  S13  1  0.124067  0.255429  0.736907  1
  S  S14  1  0.346742  0.877878  0.532017  1
  S  S15  1  0.532017  0.346742  0.877878  1
  S  S16  1  0.877878  0.532017  0.346742  1
  S  S17  1  0.877878  0.346742  0.532017  1
  S  S18  1  0.532017  0.877878  0.346742  1
  S  S19  1  0.346742  0.532017  0.877878  1
  S  S20  1  0.250166  0.635520  0.382361  1
  S  S21  1  0.382361  0.250166  0.635520  1
  S  S22  1  0.635520  0.382361  0.250166  1
  S  S23  1  0.635520  0.250166  0.382361  1
  S  S24  1  0.382361  0.635520  0.250166  1
  F  F25  1  0.915504  0.032061  0.032061  1
  F  F26  1  0.032061  0.032061  0.915504  1
  F  F27  1  0.032061  0.915504  0.032061  1
