# generated using pymatgen
data_Ca20Cd6NiPd
_symmetry_space_group_name_H-M   'P 1'
_cell_length_a   10.23974600
_cell_length_b   10.23974536
_cell_length_c   10.17498500
_cell_angle_alpha   90.00000000
_cell_angle_beta   90.00000000
_cell_angle_gamma   119.99999561
_symmetry_Int_Tables_number   1
_chemical_formula_structural   Ca20Cd6NiPd
_chemical_formula_sum   'Ca20 Cd6 Ni1 Pd1'
_cell_volume   923.93787229
_cell_formula_units_Z   1
loop_
 _symmetry_equiv_pos_site_id
 _symmetry_equiv_pos_as_xyz
  1  'x, y, z'
loop_
 _atom_site_type_symbol
 _atom_site_label
 _atom_site_symmetry_multiplicity
 _atom_site_fract_x
 _atom_site_fract_y
 _atom_site_fract_z
 _atom_site_occupancy
  Ca  Ca0  1  0.207092  0.792908  0.934617  1
  Ca  Ca1  1  0.207092  0.414185  0.934617  1
  Ca  Ca2  1  0.585815  0.792908  0.934617  1
  Ca  Ca3  1  0.794541  0.205459  0.063303  1
  Ca  Ca4  1  0.794541  0.589081  0.063303  1
  Ca  Ca5  1  0.410919  0.205459  0.063303  1
  Ca  Ca6  1  0.794541  0.205459  0.436697  1
  Ca  Ca7  1  0.794541  0.589081  0.436697  1
  Ca  Ca8  1  0.410919  0.205459  0.436697  1
  Ca  Ca9  1  0.207092  0.792908  0.565383  1
  Ca  Ca10  1  0.207092  0.414185  0.565383  1
  Ca  Ca11  1  0.585815  0.792908  0.565383  1
  Ca  Ca12  1  0.539016  0.460984  0.750000  1
  Ca  Ca13  1  0.539016  0.078030  0.750000  1
  Ca  Ca14  1  0.921970  0.460984  0.750000  1
  Ca  Ca15  1  0.460526  0.539474  0.250000  1
  Ca  Ca16  1  0.460526  0.921054  0.250000  1
  Ca  Ca17  1  0.078946  0.539474  0.250000  1
  Ca  Ca18  1  0.000000  0.000000  0.000040  1
  Ca  Ca19  1  0.000000  0.000000  0.499960  1
  Cd  Cd20  1  0.881618  0.118382  0.750000  1
  Cd  Cd21  1  0.881618  0.763236  0.750000  1
  Cd  Cd22  1  0.236764  0.118382  0.750000  1
  Cd  Cd23  1  0.118409  0.881591  0.250000  1
  Cd  Cd24  1  0.118409  0.236819  0.250000  1
  Cd  Cd25  1  0.763181  0.881591  0.250000  1
  Ni  Ni26  1  0.333333  0.666667  0.750000  1
  Pd  Pd27  1  0.666667  0.333333  0.250000  1
