# generated using pymatgen
data_Dy5YAl24(Os3Rh)2
_symmetry_space_group_name_H-M   'P 1'
_cell_length_a   8.78534110
_cell_length_b   8.81688587
_cell_length_c   9.57432500
_cell_angle_alpha   90.00000000
_cell_angle_beta   90.00000000
_cell_angle_gamma   119.77217668
_symmetry_Int_Tables_number   1
_chemical_formula_structural   Dy5YAl24(Os3Rh)2
_chemical_formula_sum   'Dy5 Y1 Al24 Os6 Rh2'
_cell_volume   643.73197654
_cell_formula_units_Z   1
loop_
 _symmetry_equiv_pos_site_id
 _symmetry_equiv_pos_as_xyz
  1  'x, y, z'
loop_
 _atom_site_type_symbol
 _atom_site_label
 _atom_site_symmetry_multiplicity
 _atom_site_fract_x
 _atom_site_fract_y
 _atom_site_fract_z
 _atom_site_occupancy
  Dy  Dy0  1  0.196057  0.384368  0.250000  1
  Dy  Dy1  1  0.803964  0.615780  0.750000  1
  Dy  Dy2  1  0.611457  0.806302  0.250000  1
  Dy  Dy3  1  0.388363  0.193710  0.750000  1
  Dy  Dy4  1  0.197529  0.812536  0.250000  1
  Y  Y5  1  0.802824  0.187526  0.750000  1
  Al  Al6  1  0.333386  0.667444  0.020592  1
  Al  Al7  1  0.666525  0.332501  0.979582  1
  Al  Al8  1  0.666525  0.332501  0.520418  1
  Al  Al9  1  0.333386  0.667444  0.479408  1
  Al  Al10  1  0.164868  0.326372  0.576945  1
  Al  Al11  1  0.835291  0.673729  0.422954  1
  Al  Al12  1  0.671704  0.835170  0.575663  1
  Al  Al13  1  0.835291  0.673729  0.077046  1
  Al  Al14  1  0.328166  0.164725  0.424225  1
  Al  Al15  1  0.164868  0.326372  0.923055  1
  Al  Al16  1  0.164543  0.837618  0.576282  1
  Al  Al17  1  0.328166  0.164725  0.075775  1
  Al  Al18  1  0.835399  0.162353  0.423589  1
  Al  Al19  1  0.671704  0.835170  0.924337  1
  Al  Al20  1  0.835399  0.162353  0.076411  1
  Al  Al21  1  0.164543  0.837618  0.923718  1
  Al  Al22  1  0.562677  0.124633  0.250000  1
  Al  Al23  1  0.437308  0.875420  0.750000  1
  Al  Al24  1  0.879987  0.439993  0.250000  1
  Al  Al25  1  0.120107  0.560168  0.750000  1
  Al  Al26  1  0.562868  0.438195  0.250000  1
  Al  Al27  1  0.437142  0.561839  0.750000  1
  Al  Al28  1  0.001042  0.001041  0.250000  1
  Al  Al29  1  0.999295  0.998665  0.750000  1
  Os  Os30  1  0.499813  0.999896  0.000184  1
  Os  Os31  1  0.499813  0.999896  0.499816  1
  Os  Os32  1  0.500031  0.500007  0.999992  1
  Os  Os33  1  0.500031  0.500007  0.500008  1
  Os  Os34  1  0.999942  0.000066  0.999952  1
  Os  Os35  1  0.999942  0.000066  0.500048  1
  Rh  Rh36  1  0.000022  0.500030  0.000083  1
  Rh  Rh37  1  0.000022  0.500030  0.499917  1
