# generated using pymatgen
data_Sm3Co6Cu7C2
_symmetry_space_group_name_H-M   'P 1'
_cell_length_a   5.05743200
_cell_length_b   5.05743149
_cell_length_c   10.88056400
_cell_angle_alpha   90.00000000
_cell_angle_beta   90.00000000
_cell_angle_gamma   120.00000334
_symmetry_Int_Tables_number   1
_chemical_formula_structural   Sm3Co6Cu7C2
_chemical_formula_sum   'Sm3 Co6 Cu7 C2'
_cell_volume   241.01389721
_cell_formula_units_Z   1
loop_
 _symmetry_equiv_pos_site_id
 _symmetry_equiv_pos_as_xyz
  1  'x, y, z'
loop_
 _atom_site_type_symbol
 _atom_site_label
 _atom_site_symmetry_multiplicity
 _atom_site_fract_x
 _atom_site_fract_y
 _atom_site_fract_z
 _atom_site_occupancy
  Sm  Sm0  1  0.000000  0.000000  0.000000  1
  Sm  Sm1  1  0.000000  0.000000  0.695304  1
  Sm  Sm2  1  0.000000  0.000000  0.304696  1
  Co  Co3  1  0.500000  0.500000  0.879402  1
  Co  Co4  1  0.500000  0.000000  0.879402  1
  Co  Co5  1  0.000000  0.500000  0.879402  1
  Co  Co6  1  0.500000  0.500000  0.120598  1
  Co  Co7  1  0.500000  0.000000  0.120598  1
  Co  Co8  1  0.000000  0.500000  0.120598  1
  Cu  Cu9  1  0.500000  0.500000  0.500000  1
  Cu  Cu10  1  0.500000  0.000000  0.500000  1
  Cu  Cu11  1  0.000000  0.500000  0.500000  1
  Cu  Cu12  1  0.666667  0.333333  0.689636  1
  Cu  Cu13  1  0.333333  0.666667  0.689636  1
  Cu  Cu14  1  0.333333  0.666667  0.310364  1
  Cu  Cu15  1  0.666667  0.333333  0.310364  1
  C  C16  1  0.666667  0.333333  0.000000  1
  C  C17  1  0.333333  0.666667  0.000000  1
