# generated using pymatgen
data_Cs4MnZn(CrSe4)2
_symmetry_space_group_name_H-M   'P 1'
_cell_length_a   15.16766051
_cell_length_b   13.46650568
_cell_length_c   8.09538200
_cell_angle_alpha   85.57449083
_cell_angle_beta   62.27567992
_cell_angle_gamma   32.14982616
_symmetry_Int_Tables_number   1
_chemical_formula_structural   Cs4MnZn(CrSe4)2
_chemical_formula_sum   'Cs4 Mn1 Zn1 Cr2 Se8'
_cell_volume   576.53765559
_cell_formula_units_Z   1
loop_
 _symmetry_equiv_pos_site_id
 _symmetry_equiv_pos_as_xyz
  1  'x, y, z'
loop_
 _atom_site_type_symbol
 _atom_site_label
 _atom_site_symmetry_multiplicity
 _atom_site_fract_x
 _atom_site_fract_y
 _atom_site_fract_z
 _atom_site_occupancy
  Cs  Cs0  1  0.573273  0.573273  0.926727  1
  Cs  Cs1  1  0.926727  0.926727  0.573273  1
  Cs  Cs2  1  0.320677  0.320677  0.679323  1
  Cs  Cs3  1  0.679323  0.679323  0.320677  1
  Mn  Mn4  1  0.000000  0.000000  0.000000  1
  Zn  Zn5  1  0.250000  0.250000  0.250000  1
  Cr  Cr6  1  0.750000  0.750000  0.750000  1
  Cr  Cr7  1  0.500000  0.500000  0.500000  1
  Se  Se8  1  0.228864  0.873200  0.591905  1
  Se  Se9  1  0.306031  0.591905  0.873200  1
  Se  Se10  1  0.591905  0.306031  0.228864  1
  Se  Se11  1  0.873200  0.228864  0.306031  1
  Se  Se12  1  0.377973  0.019476  0.942270  1
  Se  Se13  1  0.942270  0.660281  0.377973  1
  Se  Se14  1  0.660281  0.942270  0.019476  1
  Se  Se15  1  0.019476  0.377973  0.660281  1
