# generated using pymatgen
data_MgPa2(GaPt)3
_symmetry_space_group_name_H-M   'P 1'
_cell_length_a   7.04280903
_cell_length_b   7.04280911
_cell_length_c   3.98401900
_cell_angle_alpha   90.00000000
_cell_angle_beta   90.00000000
_cell_angle_gamma   118.47659240
_symmetry_Int_Tables_number   1
_chemical_formula_structural   MgPa2(GaPt)3
_chemical_formula_sum   'Mg1 Pa2 Ga3 Pt3'
_cell_volume   173.70328168
_cell_formula_units_Z   1
loop_
 _symmetry_equiv_pos_site_id
 _symmetry_equiv_pos_as_xyz
  1  'x, y, z'
loop_
 _atom_site_type_symbol
 _atom_site_label
 _atom_site_symmetry_multiplicity
 _atom_site_fract_x
 _atom_site_fract_y
 _atom_site_fract_z
 _atom_site_occupancy
  Mg  Mg0  1  0.599790  0.599790  0.500000  1
  Pa  Pa1  1  0.415569  0.998946  0.500000  1
  Pa  Pa2  1  0.998946  0.415569  0.500000  1
  Ga  Ga3  1  0.747309  0.984809  0.000000  1
  Ga  Ga4  1  0.984809  0.747309  0.000000  1
  Ga  Ga5  1  0.254584  0.254584  0.000000  1
  Pt  Pt6  1  0.329414  0.666509  0.000000  1
  Pt  Pt7  1  0.666509  0.329414  0.000000  1
  Pt  Pt8  1  0.003070  0.003070  0.500000  1
