# generated using pymatgen
data_La8MgIr6
_symmetry_space_group_name_H-M   'P 1'
_cell_length_a   7.76798428
_cell_length_b   7.76798336
_cell_length_c   7.76798462
_cell_angle_alpha   69.63343703
_cell_angle_beta   69.63343978
_cell_angle_gamma   69.63342813
_symmetry_Int_Tables_number   1
_chemical_formula_structural   La8MgIr6
_chemical_formula_sum   'La8 Mg1 Ir6'
_cell_volume   397.99281832
_cell_formula_units_Z   1
loop_
 _symmetry_equiv_pos_site_id
 _symmetry_equiv_pos_as_xyz
  1  'x, y, z'
loop_
 _atom_site_type_symbol
 _atom_site_label
 _atom_site_symmetry_multiplicity
 _atom_site_fract_x
 _atom_site_fract_y
 _atom_site_fract_z
 _atom_site_occupancy
  La  La0  1  0.808140  0.808140  0.808140  1
  La  La1  1  0.191860  0.191860  0.191860  1
  La  La2  1  0.143858  0.383751  0.683464  1
  La  La3  1  0.683464  0.143858  0.383751  1
  La  La4  1  0.383751  0.683464  0.143858  1
  La  La5  1  0.856142  0.616249  0.316536  1
  La  La6  1  0.316536  0.856142  0.616249  1
  La  La7  1  0.616249  0.316536  0.856142  1
  Mg  Mg8  1  0.000000  0.000000  0.000000  1
  Ir  Ir9  1  0.952062  0.177921  0.583343  1
  Ir  Ir10  1  0.583343  0.952062  0.177921  1
  Ir  Ir11  1  0.177921  0.583343  0.952062  1
  Ir  Ir12  1  0.047938  0.822079  0.416657  1
  Ir  Ir13  1  0.416657  0.047938  0.822079  1
  Ir  Ir14  1  0.822079  0.416657  0.047938  1
