# generated using pymatgen
data_Er20(Ir3Os)3
_symmetry_space_group_name_H-M   'P 1'
_cell_length_a   10.76081700
_cell_length_b   10.76081700
_cell_length_c   6.35629500
_cell_angle_alpha   90.00000000
_cell_angle_beta   90.00000000
_cell_angle_gamma   90.00000000
_symmetry_Int_Tables_number   1
_chemical_formula_structural   Er20(Ir3Os)3
_chemical_formula_sum   'Er20 Ir9 Os3'
_cell_volume   736.02833960
_cell_formula_units_Z   1
loop_
 _symmetry_equiv_pos_site_id
 _symmetry_equiv_pos_as_xyz
  1  'x, y, z'
loop_
 _atom_site_type_symbol
 _atom_site_label
 _atom_site_symmetry_multiplicity
 _atom_site_fract_x
 _atom_site_fract_y
 _atom_site_fract_z
 _atom_site_occupancy
  Er  Er0  1  0.293733  0.086282  0.376929  1
  Er  Er1  1  0.293751  0.913912  0.876993  1
  Er  Er2  1  0.706249  0.086088  0.876993  1
  Er  Er3  1  0.706267  0.913718  0.376929  1
  Er  Er4  1  0.586088  0.793751  0.876993  1
  Er  Er5  1  0.586282  0.206267  0.376929  1
  Er  Er6  1  0.413718  0.793733  0.376929  1
  Er  Er7  1  0.413912  0.206249  0.876993  1
  Er  Er8  1  0.207911  0.413172  0.624581  1
  Er  Er9  1  0.207628  0.586936  0.120833  1
  Er  Er10  1  0.792372  0.413064  0.120833  1
  Er  Er11  1  0.792089  0.586828  0.624581  1
  Er  Er12  1  0.913064  0.707628  0.120833  1
  Er  Er13  1  0.913172  0.292089  0.624581  1
  Er  Er14  1  0.086828  0.707911  0.624581  1
  Er  Er15  1  0.086936  0.292372  0.120833  1
  Er  Er16  1  0.000000  0.000000  0.499728  1
  Er  Er17  1  0.000000  0.000000  0.999880  1
  Er  Er18  1  0.500000  0.500000  0.999880  1
  Er  Er19  1  0.500000  0.500000  0.499728  1
  Ir  Ir20  1  0.847745  0.153335  0.250320  1
  Ir  Ir21  1  0.847602  0.846800  0.749852  1
  Ir  Ir22  1  0.152398  0.153200  0.749852  1
  Ir  Ir23  1  0.152255  0.846665  0.250320  1
  Ir  Ir24  1  0.653200  0.347602  0.749852  1
  Ir  Ir25  1  0.653335  0.652255  0.250320  1
  Ir  Ir26  1  0.346665  0.347745  0.250320  1
  Ir  Ir27  1  0.346800  0.652398  0.749852  1
  Ir  Ir28  1  0.000000  0.500000  0.379410  1
  Os  Os29  1  0.500000  0.000000  0.122575  1
  Os  Os30  1  0.500000  0.000000  0.622439  1
  Os  Os31  1  0.000000  0.500000  0.878328  1
