# generated using pymatgen
data_Tm2Lu5(PaGa4)5
_symmetry_space_group_name_H-M   'P 1'
_cell_length_a   6.04425204
_cell_length_b   9.49186019
_cell_length_c   11.57952339
_cell_angle_alpha   90.00015656
_cell_angle_beta   89.80910302
_cell_angle_gamma   89.96042853
_symmetry_Int_Tables_number   1
_chemical_formula_structural   Tm2Lu5(PaGa4)5
_chemical_formula_sum   'Tm2 Lu5 Pa5 Ga20'
_cell_volume   664.32725239
_cell_formula_units_Z   1
loop_
 _symmetry_equiv_pos_site_id
 _symmetry_equiv_pos_as_xyz
  1  'x, y, z'
loop_
 _atom_site_type_symbol
 _atom_site_label
 _atom_site_symmetry_multiplicity
 _atom_site_fract_x
 _atom_site_fract_y
 _atom_site_fract_z
 _atom_site_occupancy
  Tm  Tm0  1  0.882952  0.998160  0.350424  1
  Tm  Tm1  1  0.616819  0.502186  0.850983  1
  Lu  Lu2  1  0.856698  0.745534  0.072933  1
  Lu  Lu3  1  0.638684  0.752600  0.573549  1
  Lu  Lu4  1  0.143521  0.245727  0.927232  1
  Lu  Lu5  1  0.356387  0.255695  0.427823  1
  Lu  Lu6  1  0.385381  0.002949  0.148853  1
  Pa  Pa7  1  0.881307  0.504197  0.351501  1
  Pa  Pa8  1  0.619719  0.994908  0.851663  1
  Pa  Pa9  1  0.118190  0.002977  0.649016  1
  Pa  Pa10  1  0.383471  0.495931  0.149384  1
  Pa  Pa11  1  0.117068  0.499103  0.646582  1
  Ga  Ga12  1  0.867245  0.049162  0.091534  1
  Ga  Ga13  1  0.628977  0.449899  0.591958  1
  Ga  Ga14  1  0.134437  0.549384  0.909908  1
  Ga  Ga15  1  0.365703  0.952528  0.406923  1
  Ga  Ga16  1  0.128780  0.944509  0.909740  1
  Ga  Ga17  1  0.370754  0.556680  0.409649  1
  Ga  Ga18  1  0.873934  0.444306  0.090702  1
  Ga  Ga19  1  0.627377  0.053717  0.590656  1
  Ga  Ga20  1  0.159363  0.752283  0.259917  1
  Ga  Ga21  1  0.340952  0.748895  0.764385  1
  Ga  Ga22  1  0.843488  0.250901  0.737833  1
  Ga  Ga23  1  0.658625  0.249146  0.238814  1
  Ga  Ga24  1  0.393320  0.748718  0.998405  1
  Ga  Ga25  1  0.104714  0.753610  0.495143  1
  Ga  Ga26  1  0.608336  0.247860  0.002699  1
  Ga  Ga27  1  0.889904  0.251242  0.503480  1
  Ga  Ga28  1  0.601240  0.751089  0.295764  1
  Ga  Ga29  1  0.902243  0.747201  0.792489  1
  Ga  Ga30  1  0.398342  0.249928  0.704929  1
  Ga  Ga31  1  0.102068  0.248975  0.205128  1
