# generated using pymatgen
data_La6CdIn8Se
_symmetry_space_group_name_H-M   'P 1'
_cell_length_a   8.70291641
_cell_length_b   8.70291671
_cell_length_c   8.70291660
_cell_angle_alpha   119.72383804
_cell_angle_beta   119.72383811
_cell_angle_gamma   90.47899746
_symmetry_Int_Tables_number   1
_chemical_formula_structural   La6CdIn8Se
_chemical_formula_sum   'La6 Cd1 In8 Se1'
_cell_volume   468.02825852
_cell_formula_units_Z   1
loop_
 _symmetry_equiv_pos_site_id
 _symmetry_equiv_pos_as_xyz
  1  'x, y, z'
loop_
 _atom_site_type_symbol
 _atom_site_label
 _atom_site_symmetry_multiplicity
 _atom_site_fract_x
 _atom_site_fract_y
 _atom_site_fract_z
 _atom_site_occupancy
  La  La0  1  0.764486  0.764486  0.000000  1
  La  La1  1  0.235514  0.235514  0.000000  1
  La  La2  1  0.325971  0.851692  0.177661  1
  La  La3  1  0.674029  0.148308  0.822339  1
  La  La4  1  0.851692  0.674029  0.525721  1
  La  La5  1  0.148308  0.325971  0.474279  1
  Cd  Cd6  1  0.500000  0.500000  0.000000  1
  In  In7  1  0.968584  0.450875  0.788366  1
  In  In8  1  0.662509  0.180218  0.211634  1
  In  In9  1  0.450875  0.662509  0.482291  1
  In  In10  1  0.180218  0.968584  0.517709  1
  In  In11  1  0.031416  0.549125  0.211634  1
  In  In12  1  0.337491  0.819782  0.788366  1
  In  In13  1  0.549125  0.337491  0.517709  1
  In  In14  1  0.819782  0.031416  0.482291  1
  Se  Se15  1  0.000000  0.000000  0.000000  1
