# generated using pymatgen
data_SrCaNi2F10
_symmetry_space_group_name_H-M   'P 1'
_cell_length_a   5.63199704
_cell_length_b   5.63199726
_cell_length_c   7.79011695
_cell_angle_alpha   70.14472529
_cell_angle_beta   70.14472409
_cell_angle_gamma   71.28522293
_symmetry_Int_Tables_number   1
_chemical_formula_structural   SrCaNi2F10
_chemical_formula_sum   'Sr1 Ca1 Ni2 F10'
_cell_volume   212.61325369
_cell_formula_units_Z   1
loop_
 _symmetry_equiv_pos_site_id
 _symmetry_equiv_pos_as_xyz
  1  'x, y, z'
loop_
 _atom_site_type_symbol
 _atom_site_label
 _atom_site_symmetry_multiplicity
 _atom_site_fract_x
 _atom_site_fract_y
 _atom_site_fract_z
 _atom_site_occupancy
  Sr  Sr0  1  0.549123  0.450877  0.250000  1
  Ca  Ca1  1  0.451752  0.548248  0.750000  1
  Ni  Ni2  1  0.993529  0.994496  0.507042  1
  Ni  Ni3  1  0.005504  0.006471  0.992958  1
  F  F4  1  0.080079  0.919921  0.750000  1
  F  F5  1  0.929865  0.070135  0.250000  1
  F  F6  1  0.211861  0.245884  0.885082  1
  F  F7  1  0.754116  0.788139  0.614918  1
  F  F8  1  0.715799  0.292574  0.541851  1
  F  F9  1  0.707426  0.284201  0.958149  1
  F  F10  1  0.276147  0.697121  0.482227  1
  F  F11  1  0.302879  0.723853  0.017773  1
  F  F12  1  0.226117  0.204198  0.392540  1
  F  F13  1  0.795802  0.773883  0.107460  1
