# generated using pymatgen
data_Tb4Al18ZnIr5
_symmetry_space_group_name_H-M   'P 1'
_cell_length_a   7.58951435
_cell_length_b   7.58951441
_cell_length_c   9.45986955
_cell_angle_alpha   90.01944872
_cell_angle_beta   90.01945342
_cell_angle_gamma   119.57115006
_symmetry_Int_Tables_number   1
_chemical_formula_structural   Tb4Al18ZnIr5
_chemical_formula_sum   'Tb4 Al18 Zn1 Ir5'
_cell_volume   473.91912247
_cell_formula_units_Z   1
loop_
 _symmetry_equiv_pos_site_id
 _symmetry_equiv_pos_as_xyz
  1  'x, y, z'
loop_
 _atom_site_type_symbol
 _atom_site_label
 _atom_site_symmetry_multiplicity
 _atom_site_fract_x
 _atom_site_fract_y
 _atom_site_fract_z
 _atom_site_occupancy
  Tb  Tb0  1  0.994809  0.673869  0.249657  1
  Tb  Tb1  1  0.005191  0.326131  0.750343  1
  Tb  Tb2  1  0.673869  0.994809  0.249657  1
  Tb  Tb3  1  0.326131  0.005191  0.750343  1
  Al  Al4  1  0.134550  0.134550  0.256555  1
  Al  Al5  1  0.865450  0.865450  0.743445  1
  Al  Al6  1  0.001627  0.344346  0.079011  1
  Al  Al7  1  0.998373  0.655654  0.920989  1
  Al  Al8  1  0.000899  0.664984  0.571411  1
  Al  Al9  1  0.335016  0.999101  0.428589  1
  Al  Al10  1  0.999101  0.335016  0.428589  1
  Al  Al11  1  0.664984  0.000899  0.571411  1
  Al  Al12  1  0.655654  0.998373  0.920989  1
  Al  Al13  1  0.344346  0.001627  0.079011  1
  Al  Al14  1  0.333094  0.333094  0.551365  1
  Al  Al15  1  0.666906  0.666906  0.448635  1
  Al  Al16  1  0.657754  0.657754  0.059276  1
  Al  Al17  1  0.342246  0.342246  0.940724  1
  Al  Al18  1  0.338207  0.549275  0.251642  1
  Al  Al19  1  0.661793  0.450725  0.748358  1
  Al  Al20  1  0.549275  0.338207  0.251642  1
  Al  Al21  1  0.450725  0.661793  0.748358  1
  Zn  Zn22  1  0.000000  0.000000  0.000000  1
  Ir  Ir23  1  0.671445  0.328555  0.000000  1
  Ir  Ir24  1  0.328555  0.671445  0.000000  1
  Ir  Ir25  1  0.328651  0.671349  0.500000  1
  Ir  Ir26  1  0.671349  0.328651  0.500000  1
  Ir  Ir27  1  0.000000  0.000000  0.500000  1
