# generated using pymatgen
data_Dy4MoSe5O24
_symmetry_space_group_name_H-M   'P 1'
_cell_length_a   10.09470013
_cell_length_b   10.03164198
_cell_length_c   10.03164229
_cell_angle_alpha   58.21309525
_cell_angle_beta   57.92589102
_cell_angle_gamma   57.92589608
_symmetry_Int_Tables_number   1
_chemical_formula_structural   Dy4MoSe5O24
_chemical_formula_sum   'Dy4 Mo1 Se5 O24'
_cell_volume   685.72020389
_cell_formula_units_Z   1
loop_
 _symmetry_equiv_pos_site_id
 _symmetry_equiv_pos_as_xyz
  1  'x, y, z'
loop_
 _atom_site_type_symbol
 _atom_site_label
 _atom_site_symmetry_multiplicity
 _atom_site_fract_x
 _atom_site_fract_y
 _atom_site_fract_z
 _atom_site_occupancy
  Dy  Dy0  1  0.640970  0.638999  0.645553  1
  Dy  Dy1  1  0.347601  0.363597  0.355068  1
  Dy  Dy2  1  0.152399  0.144932  0.136403  1
  Dy  Dy3  1  0.859030  0.854447  0.861001  1
  Mo  Mo4  1  0.750000  0.038641  0.461359  1
  Se  Se5  1  0.960890  0.534065  0.252779  1
  Se  Se6  1  0.539110  0.247221  0.965936  1
  Se  Se7  1  0.467858  0.749089  0.034274  1
  Se  Se8  1  0.032142  0.465726  0.750911  1
  Se  Se9  1  0.250000  0.964977  0.535023  1
  O  O10  1  0.930804  0.067666  0.280460  1
  O  O11  1  0.775750  0.005726  0.640902  1
  O  O12  1  0.995335  0.368546  0.223211  1
  O  O13  1  0.708442  0.078721  0.943515  1
  O  O14  1  0.569196  0.219540  0.432334  1
  O  O15  1  0.866547  0.493268  0.728124  1
  O  O16  1  0.504665  0.276789  0.131454  1
  O  O17  1  0.791558  0.556485  0.421279  1
  O  O18  1  0.932286  0.705221  0.088164  1
  O  O19  1  0.567714  0.411836  0.794779  1
  O  O20  1  0.376081  0.222408  0.991153  1
  O  O21  1  0.274208  0.131348  0.506050  1
  O  O22  1  0.724250  0.859098  0.494274  1
  O  O23  1  0.633453  0.771876  0.006732  1
  O  O24  1  0.435824  0.583863  0.203804  1
  O  O25  1  0.064176  0.296196  0.916137  1
  O  O26  1  0.200131  0.440360  0.581786  1
  O  O27  1  0.496554  0.724604  0.867886  1
  O  O28  1  0.123919  0.508847  0.277592  1
  O  O29  1  0.416757  0.795075  0.563448  1
  O  O30  1  0.299869  0.918214  0.059640  1
  O  O31  1  0.003446  0.632114  0.775396  1
  O  O32  1  0.225792  0.993950  0.368652  1
  O  O33  1  0.083243  0.936552  0.704925  1
