# generated using pymatgen
data_Ho3Sc2Ga2Bi
_symmetry_space_group_name_H-M   'P 1'
_cell_length_a   8.58182024
_cell_length_b   8.58512584
_cell_length_c   6.25556700
_cell_angle_alpha   90.00000000
_cell_angle_beta   90.00000000
_cell_angle_gamma   120.01274659
_symmetry_Int_Tables_number   1
_chemical_formula_structural   Ho3Sc2Ga2Bi
_chemical_formula_sum   'Ho6 Sc4 Ga4 Bi2'
_cell_volume   399.08701192
_cell_formula_units_Z   2
loop_
 _symmetry_equiv_pos_site_id
 _symmetry_equiv_pos_as_xyz
  1  'x, y, z'
loop_
 _atom_site_type_symbol
 _atom_site_label
 _atom_site_symmetry_multiplicity
 _atom_site_fract_x
 _atom_site_fract_y
 _atom_site_fract_z
 _atom_site_occupancy
  Ho  Ho0  1  0.232956  0.000614  0.250000  1
  Ho  Ho1  1  0.232956  0.232342  0.750000  1
  Ho  Ho2  1  0.016795  0.763135  0.750000  1
  Ho  Ho3  1  0.016795  0.253659  0.250000  1
  Ho  Ho4  1  0.765211  0.747967  0.250000  1
  Ho  Ho5  1  0.765211  0.017243  0.750000  1
  Sc  Sc6  1  0.308840  0.654420  0.000000  1
  Sc  Sc7  1  0.673429  0.336714  0.500000  1
  Sc  Sc8  1  0.673429  0.336714  0.000000  1
  Sc  Sc9  1  0.308840  0.654420  0.500000  1
  Ga  Ga10  1  0.998414  0.402843  0.750000  1
  Ga  Ga11  1  0.998414  0.595571  0.250000  1
  Ga  Ga12  1  0.404819  0.399917  0.250000  1
  Ga  Ga13  1  0.404819  0.004902  0.750000  1
  Bi  Bi14  1  0.599537  0.993975  0.250000  1
  Bi  Bi15  1  0.599537  0.605562  0.750000  1
