# generated using pymatgen
data_La20AlCdSi10
_symmetry_space_group_name_H-M   'P 1'
_cell_length_a   7.90621200
_cell_length_b   7.90621200
_cell_length_c   14.53922200
_cell_angle_alpha   90.00000000
_cell_angle_beta   90.00000000
_cell_angle_gamma   90.00000000
_symmetry_Int_Tables_number   1
_chemical_formula_structural   La20AlCdSi10
_chemical_formula_sum   'La20 Al1 Cd1 Si10'
_cell_volume   908.82042490
_cell_formula_units_Z   1
loop_
 _symmetry_equiv_pos_site_id
 _symmetry_equiv_pos_as_xyz
  1  'x, y, z'
loop_
 _atom_site_type_symbol
 _atom_site_label
 _atom_site_symmetry_multiplicity
 _atom_site_fract_x
 _atom_site_fract_y
 _atom_site_fract_z
 _atom_site_occupancy
  La  La0  1  0.500000  0.000000  0.775395  1
  La  La1  1  0.336933  0.308720  0.106902  1
  La  La2  1  0.823347  0.822198  0.893198  1
  La  La3  1  0.000000  0.500000  0.229207  1
  La  La4  1  0.824369  0.179384  0.393196  1
  La  La5  1  0.176653  0.177802  0.893198  1
  La  La6  1  0.663067  0.691280  0.106902  1
  La  La7  1  0.000000  0.500000  0.723092  1
  La  La8  1  0.810139  0.834561  0.606947  1
  La  La9  1  0.320616  0.324369  0.393196  1
  La  La10  1  0.191280  0.836933  0.106902  1
  La  La11  1  0.189861  0.165439  0.606947  1
  La  La12  1  0.808720  0.163067  0.106902  1
  La  La13  1  0.334561  0.689861  0.606947  1
  La  La14  1  0.500000  0.000000  0.274778  1
  La  La15  1  0.677802  0.323347  0.893198  1
  La  La16  1  0.665439  0.310139  0.606947  1
  La  La17  1  0.322198  0.676653  0.893198  1
  La  La18  1  0.175631  0.820616  0.393196  1
  La  La19  1  0.679384  0.675631  0.393196  1
  Al  Al20  1  0.000000  0.500000  0.501317  1
  Cd  Cd21  1  0.000000  0.500000  0.002972  1
  Si  Si22  1  0.614145  0.388561  0.249994  1
  Si  Si23  1  0.888614  0.114608  0.750694  1
  Si  Si24  1  0.500000  0.000000  0.494552  1
  Si  Si25  1  0.888561  0.885855  0.249994  1
  Si  Si26  1  0.111386  0.885392  0.750694  1
  Si  Si27  1  0.385392  0.388614  0.750694  1
  Si  Si28  1  0.111439  0.114145  0.249994  1
  Si  Si29  1  0.385855  0.611439  0.249994  1
  Si  Si30  1  0.614608  0.611386  0.750694  1
  Si  Si31  1  0.500000  0.000000  0.994958  1
