# generated using pymatgen
data_Co3Si3(NiW2)2
_symmetry_space_group_name_H-M   'P 1'
_cell_length_a   4.75344845
_cell_length_b   4.75345000
_cell_length_c   7.54682100
_cell_angle_alpha   90.00000000
_cell_angle_beta   90.00000000
_cell_angle_gamma   120.04565117
_symmetry_Int_Tables_number   1
_chemical_formula_structural   Co3Si3(NiW2)2
_chemical_formula_sum   'Co3 Si3 Ni2 W4'
_cell_volume   147.60886308
_cell_formula_units_Z   1
loop_
 _symmetry_equiv_pos_site_id
 _symmetry_equiv_pos_as_xyz
  1  'x, y, z'
loop_
 _atom_site_type_symbol
 _atom_site_label
 _atom_site_symmetry_multiplicity
 _atom_site_fract_x
 _atom_site_fract_y
 _atom_site_fract_z
 _atom_site_occupancy
  Co  Co0  1  0.823988  0.176012  0.000000  1
  Co  Co1  1  0.338225  0.174583  0.000000  1
  Co  Co2  1  0.825417  0.661775  0.000000  1
  Si  Si3  1  0.991001  0.008999  0.240486  1
  Si  Si4  1  0.991001  0.008999  0.759514  1
  Si  Si5  1  0.187135  0.812865  0.500000  1
  Ni  Ni6  1  0.677379  0.824373  0.500000  1
  Ni  Ni7  1  0.175627  0.322621  0.500000  1
  W  W8  1  0.328782  0.671218  0.820714  1
  W  W9  1  0.666344  0.333656  0.689765  1
  W  W10  1  0.666344  0.333656  0.310235  1
  W  W11  1  0.328782  0.671218  0.179286  1
