# generated using pymatgen
data_Ca3Yb(ZrH5)4
_symmetry_space_group_name_H-M   'P 1'
_cell_length_a   3.46418503
_cell_length_b   5.19765712
_cell_length_c   14.12588048
_cell_angle_alpha   89.97489670
_cell_angle_beta   90.01576921
_cell_angle_gamma   89.99864015
_symmetry_Int_Tables_number   1
_chemical_formula_structural   Ca3Yb(ZrH5)4
_chemical_formula_sum   'Ca3 Yb1 Zr4 H20'
_cell_volume   254.34556939
_cell_formula_units_Z   1
loop_
 _symmetry_equiv_pos_site_id
 _symmetry_equiv_pos_as_xyz
  1  'x, y, z'
loop_
 _atom_site_type_symbol
 _atom_site_label
 _atom_site_symmetry_multiplicity
 _atom_site_fract_x
 _atom_site_fract_y
 _atom_site_fract_z
 _atom_site_occupancy
  Ca  Ca0  1  0.235127  0.998345  0.185440  1
  Ca  Ca1  1  0.764792  0.498450  0.314119  1
  Ca  Ca2  1  0.265050  0.001564  0.686826  1
  Yb  Yb3  1  0.734894  0.501613  0.812770  1
  Zr  Zr4  1  0.230949  0.000926  0.932366  1
  Zr  Zr5  1  0.731359  0.499032  0.066397  1
  Zr  Zr6  1  0.268571  0.999030  0.433169  1
  Zr  Zr7  1  0.769202  0.500996  0.567736  1
  H  H8  1  0.726977  0.755745  0.949811  1
  H  H9  1  0.226970  0.743091  0.048569  1
  H  H10  1  0.773025  0.242901  0.451448  1
  H  H11  1  0.273036  0.257741  0.549226  1
  H  H12  1  0.232831  0.755248  0.823603  1
  H  H13  1  0.733113  0.743724  0.176292  1
  H  H14  1  0.266827  0.243798  0.323383  1
  H  H15  1  0.767014  0.256315  0.677453  1
  H  H16  1  0.733155  0.253700  0.175890  1
  H  H17  1  0.232854  0.247368  0.824038  1
  H  H18  1  0.766952  0.746171  0.677128  1
  H  H19  1  0.266801  0.753584  0.323795  1
  H  H20  1  0.729242  0.001381  0.841257  1
  H  H21  1  0.229127  0.498606  0.156925  1
  H  H22  1  0.770932  0.998591  0.343004  1
  H  H23  1  0.271176  0.501416  0.660351  1
  H  H24  1  0.227066  0.255028  0.049178  1
  H  H25  1  0.727035  0.246292  0.949154  1
  H  H26  1  0.272949  0.744163  0.549835  1
  H  H27  1  0.772977  0.755178  0.450838  1
