# generated using pymatgen
data_KHCl8
_symmetry_space_group_name_H-M   'P 1'
_cell_length_a   7.77605666
_cell_length_b   9.85289766
_cell_length_c   12.03738803
_cell_angle_alpha   111.70024937
_cell_angle_beta   120.44023951
_cell_angle_gamma   98.52801260
_symmetry_Int_Tables_number   1
_chemical_formula_structural   KHCl8
_chemical_formula_sum   'K2 H2 Cl16'
_cell_volume   670.81726771
_cell_formula_units_Z   2
loop_
 _symmetry_equiv_pos_site_id
 _symmetry_equiv_pos_as_xyz
  1  'x, y, z'
loop_
 _atom_site_type_symbol
 _atom_site_label
 _atom_site_symmetry_multiplicity
 _atom_site_fract_x
 _atom_site_fract_y
 _atom_site_fract_z
 _atom_site_occupancy
  K  K0  1  0.885262  0.213968  0.767467  1
  K  K1  1  0.114738  0.786032  0.232533  1
  H  H2  1  0.848490  0.766905  0.432356  1
  H  H3  1  0.151510  0.233095  0.567644  1
  Cl  Cl4  1  0.471749  0.320008  0.281394  1
  Cl  Cl5  1  0.528251  0.679992  0.718606  1
  Cl  Cl6  1  0.623118  0.864162  0.445114  1
  Cl  Cl7  1  0.376882  0.135838  0.554886  1
  Cl  Cl8  1  0.978358  0.700620  0.421565  1
  Cl  Cl9  1  0.021642  0.299380  0.578435  1
  Cl  Cl10  1  0.420996  0.226338  0.417934  1
  Cl  Cl11  1  0.579004  0.773662  0.582066  1
  Cl  Cl12  1  0.853455  0.010445  0.165086  1
  Cl  Cl13  1  0.146545  0.989555  0.834914  1
  Cl  Cl14  1  0.835418  0.384734  0.030246  1
  Cl  Cl15  1  0.164582  0.615266  0.969754  1
  Cl  Cl16  1  0.146009  0.352546  0.153199  1
  Cl  Cl17  1  0.853991  0.647454  0.846801  1
  Cl  Cl18  1  0.442471  0.151963  0.922525  1
  Cl  Cl19  1  0.557529  0.848037  0.077475  1
