# generated using pymatgen
data_TbTiCo4P3
_symmetry_space_group_name_H-M   'P 1'
_cell_length_a   3.66572300
_cell_length_b   10.48500900
_cell_length_c   11.97565600
_cell_angle_alpha   90.00000000
_cell_angle_beta   90.00000000
_cell_angle_gamma   90.00000000
_symmetry_Int_Tables_number   1
_chemical_formula_structural   TbTiCo4P3
_chemical_formula_sum   'Tb4 Ti4 Co16 P12'
_cell_volume   460.28599874
_cell_formula_units_Z   4
loop_
 _symmetry_equiv_pos_site_id
 _symmetry_equiv_pos_as_xyz
  1  'x, y, z'
loop_
 _atom_site_type_symbol
 _atom_site_label
 _atom_site_symmetry_multiplicity
 _atom_site_fract_x
 _atom_site_fract_y
 _atom_site_fract_z
 _atom_site_occupancy
  Tb  Tb0  1  0.250000  0.582408  0.706138  1
  Tb  Tb1  1  0.250000  0.917592  0.206138  1
  Tb  Tb2  1  0.750000  0.417592  0.293862  1
  Tb  Tb3  1  0.750000  0.082408  0.793862  1
  Ti  Ti4  1  0.250000  0.702226  0.990438  1
  Ti  Ti5  1  0.250000  0.797774  0.490438  1
  Ti  Ti6  1  0.750000  0.297774  0.009562  1
  Ti  Ti7  1  0.750000  0.202226  0.509562  1
  Co  Co8  1  0.250000  0.406162  0.490220  1
  Co  Co9  1  0.250000  0.093838  0.990220  1
  Co  Co10  1  0.750000  0.593838  0.509780  1
  Co  Co11  1  0.750000  0.906162  0.009780  1
  Co  Co12  1  0.250000  0.221666  0.175825  1
  Co  Co13  1  0.250000  0.278334  0.675825  1
  Co  Co14  1  0.750000  0.778334  0.824175  1
  Co  Co15  1  0.750000  0.721666  0.324175  1
  Co  Co16  1  0.250000  0.884919  0.700030  1
  Co  Co17  1  0.250000  0.615081  0.200030  1
  Co  Co18  1  0.750000  0.115081  0.299970  1
  Co  Co19  1  0.750000  0.384919  0.799970  1
  Co  Co20  1  0.250000  0.464313  0.933362  1
  Co  Co21  1  0.250000  0.035687  0.433362  1
  Co  Co22  1  0.750000  0.535687  0.066638  1
  Co  Co23  1  0.750000  0.964313  0.566638  1
  P  P24  1  0.250000  0.421653  0.115156  1
  P  P25  1  0.250000  0.078347  0.615156  1
  P  P26  1  0.750000  0.578347  0.884844  1
  P  P27  1  0.750000  0.921653  0.384844  1
  P  P28  1  0.250000  0.269912  0.862364  1
  P  P29  1  0.250000  0.230088  0.362364  1
  P  P30  1  0.750000  0.730088  0.137636  1
  P  P31  1  0.750000  0.769912  0.637636  1
  P  P32  1  0.250000  0.593121  0.390418  1
  P  P33  1  0.250000  0.906879  0.890418  1
  P  P34  1  0.750000  0.406879  0.609582  1
  P  P35  1  0.750000  0.093121  0.109582  1
