# generated using pymatgen
data_HfZr(TiI6)2
_symmetry_space_group_name_H-M   'P 1'
_cell_length_a   6.62504119
_cell_length_b   7.88906278
_cell_length_c   13.78644900
_cell_angle_alpha   90.00000000
_cell_angle_beta   90.00000000
_cell_angle_gamma   89.96080963
_symmetry_Int_Tables_number   1
_chemical_formula_structural   HfZr(TiI6)2
_chemical_formula_sum   'Hf1 Zr1 Ti2 I12'
_cell_volume   720.55363223
_cell_formula_units_Z   1
loop_
 _symmetry_equiv_pos_site_id
 _symmetry_equiv_pos_as_xyz
  1  'x, y, z'
loop_
 _atom_site_type_symbol
 _atom_site_label
 _atom_site_symmetry_multiplicity
 _atom_site_fract_x
 _atom_site_fract_y
 _atom_site_fract_z
 _atom_site_occupancy
  Hf  Hf0  1  0.249391  0.752048  0.500000  1
  Zr  Zr1  1  0.250546  0.247890  0.000000  1
  Ti  Ti2  1  0.750642  0.752129  0.500000  1
  Ti  Ti3  1  0.749528  0.247926  0.000000  1
  I  I4  1  0.997115  0.604905  0.646495  1
  I  I5  1  0.997460  0.047225  0.500000  1
  I  I6  1  0.993337  0.099928  0.852496  1
  I  I7  1  0.993337  0.099928  0.147504  1
  I  I8  1  0.502755  0.899015  0.353763  1
  I  I9  1  0.506563  0.396075  0.147637  1
  I  I10  1  0.502640  0.457438  0.500000  1
  I  I11  1  0.502755  0.899015  0.646237  1
  I  I12  1  0.506563  0.396075  0.852363  1
  I  I13  1  0.505412  0.950578  0.000000  1
  I  I14  1  0.994844  0.544922  0.000000  1
  I  I15  1  0.997115  0.604905  0.353505  1
