# generated using pymatgen
data_Ca3Be2(BRh2)4
_symmetry_space_group_name_H-M   'P 1'
_cell_length_a   10.02069143
_cell_length_b   9.20343674
_cell_length_c   5.62581371
_cell_angle_alpha   81.14594740
_cell_angle_beta   65.16195887
_cell_angle_gamma   33.69208920
_symmetry_Int_Tables_number   1
_chemical_formula_structural   Ca3Be2(BRh2)4
_chemical_formula_sum   'Ca3 Be2 B4 Rh8'
_cell_volume   240.67466643
_cell_formula_units_Z   1
loop_
 _symmetry_equiv_pos_site_id
 _symmetry_equiv_pos_as_xyz
  1  'x, y, z'
loop_
 _atom_site_type_symbol
 _atom_site_label
 _atom_site_symmetry_multiplicity
 _atom_site_fract_x
 _atom_site_fract_y
 _atom_site_fract_z
 _atom_site_occupancy
  Ca  Ca0  1  0.318028  0.318028  0.681972  1
  Ca  Ca1  1  0.677319  0.677319  0.322681  1
  Ca  Ca2  1  0.499178  0.499178  0.500822  1
  Be  Be3  1  0.678010  0.979228  0.020772  1
  Be  Be4  1  0.979228  0.678010  0.321990  1
  B  B5  1  0.335865  0.002227  0.997773  1
  B  B6  1  0.002227  0.335865  0.664135  1
  B  B7  1  0.172627  0.825009  0.174991  1
  B  B8  1  0.825009  0.172627  0.827373  1
  Rh  Rh9  1  0.583634  0.583634  0.916366  1
  Rh  Rh10  1  0.927274  0.927274  0.072726  1
  Rh  Rh11  1  0.418056  0.418056  0.081944  1
  Rh  Rh12  1  0.083634  0.083634  0.416366  1
  Rh  Rh13  1  0.918056  0.918056  0.581944  1
  Rh  Rh14  1  0.244737  0.244737  0.255263  1
  Rh  Rh15  1  0.092384  0.092384  0.907616  1
  Rh  Rh16  1  0.744737  0.744737  0.755263  1
