# generated using pymatgen
data_ErTm(Si7Rh3)2
_symmetry_space_group_name_H-M   'P 1'
_cell_length_a   7.96787463
_cell_length_b   7.96787478
_cell_length_c   7.96787622
_cell_angle_alpha   57.10307495
_cell_angle_beta   57.10307284
_cell_angle_gamma   57.10307201
_symmetry_Int_Tables_number   1
_chemical_formula_structural   ErTm(Si7Rh3)2
_chemical_formula_sum   'Er1 Tm1 Si14 Rh6'
_cell_volume   333.81424408
_cell_formula_units_Z   1
loop_
 _symmetry_equiv_pos_site_id
 _symmetry_equiv_pos_as_xyz
  1  'x, y, z'
loop_
 _atom_site_type_symbol
 _atom_site_label
 _atom_site_symmetry_multiplicity
 _atom_site_fract_x
 _atom_site_fract_y
 _atom_site_fract_z
 _atom_site_occupancy
  Er  Er0  1  0.000000  0.000000  0.000000  1
  Tm  Tm1  1  0.500000  0.500000  0.500000  1
  Si  Si2  1  0.749906  0.749906  0.749906  1
  Si  Si3  1  0.250094  0.250094  0.250094  1
  Si  Si4  1  0.851666  0.065332  0.671976  1
  Si  Si5  1  0.671976  0.851666  0.065332  1
  Si  Si6  1  0.065332  0.671976  0.851666  1
  Si  Si7  1  0.648317  0.827779  0.434610  1
  Si  Si8  1  0.434610  0.648317  0.827779  1
  Si  Si9  1  0.827779  0.434610  0.648317  1
  Si  Si10  1  0.172221  0.565390  0.351683  1
  Si  Si11  1  0.565390  0.351683  0.172221  1
  Si  Si12  1  0.351683  0.172221  0.565390  1
  Si  Si13  1  0.934668  0.328024  0.148334  1
  Si  Si14  1  0.328024  0.148334  0.934668  1
  Si  Si15  1  0.148334  0.934668  0.328024  1
  Rh  Rh16  1  0.070764  0.430120  0.749588  1
  Rh  Rh17  1  0.250412  0.929236  0.569880  1
  Rh  Rh18  1  0.569880  0.250412  0.929236  1
  Rh  Rh19  1  0.929236  0.569880  0.250412  1
  Rh  Rh20  1  0.430120  0.749588  0.070764  1
  Rh  Rh21  1  0.749588  0.070764  0.430120  1
