# generated using pymatgen
data_Ti6Tc3Ru2Pt
_symmetry_space_group_name_H-M   'P 1'
_cell_length_a   4.39089200
_cell_length_b   6.20697100
_cell_length_c   13.18280100
_cell_angle_alpha   90.00000000
_cell_angle_beta   89.99982174
_cell_angle_gamma   90.00000000
_symmetry_Int_Tables_number   1
_chemical_formula_structural   Ti6Tc3Ru2Pt
_chemical_formula_sum   'Ti12 Tc6 Ru4 Pt2'
_cell_volume   359.28589492
_cell_formula_units_Z   2
loop_
 _symmetry_equiv_pos_site_id
 _symmetry_equiv_pos_as_xyz
  1  'x, y, z'
loop_
 _atom_site_type_symbol
 _atom_site_label
 _atom_site_symmetry_multiplicity
 _atom_site_fract_x
 _atom_site_fract_y
 _atom_site_fract_z
 _atom_site_occupancy
  Ti  Ti0  1  0.499982  0.245842  0.995131  1
  Ti  Ti1  1  0.499982  0.754157  0.995131  1
  Ti  Ti2  1  0.000029  0.254155  0.171557  1
  Ti  Ti3  1  0.000029  0.745844  0.171557  1
  Ti  Ti4  1  0.500032  0.253780  0.338319  1
  Ti  Ti5  1  0.500032  0.746220  0.338319  1
  Ti  Ti6  1  0.999996  0.249657  0.500925  1
  Ti  Ti7  1  0.999996  0.750344  0.500925  1
  Ti  Ti8  1  0.499957  0.250339  0.665732  1
  Ti  Ti9  1  0.499957  0.749661  0.665732  1
  Ti  Ti10  1  0.999952  0.246237  0.828351  1
  Ti  Ti11  1  0.999952  0.753762  0.828351  1
  Tc  Tc12  1  0.999982  0.000000  0.001971  1
  Tc  Tc13  1  0.500027  0.500000  0.164726  1
  Tc  Tc14  1  0.000028  0.000000  0.331515  1
  Tc  Tc15  1  0.499997  0.500000  0.500003  1
  Tc  Tc16  1  0.999959  0.000000  0.666628  1
  Tc  Tc17  1  0.499953  0.500000  0.835138  1
  Ru  Ru18  1  0.000030  0.500000  0.332715  1
  Ru  Ru19  1  0.499996  0.000000  0.499168  1
  Ru  Ru20  1  0.999963  0.500000  0.667457  1
  Ru  Ru21  1  0.499949  0.000000  0.833976  1
  Pt  Pt22  1  0.999986  0.500000  0.000011  1
  Pt  Pt23  1  0.500028  0.000000  0.166668  1
