# generated using pymatgen
data_Cs2Ni(PdS2)2
_symmetry_space_group_name_H-M   'P 1'
_cell_length_a   6.09812657
_cell_length_b   6.09812581
_cell_length_c   8.05461261
_cell_angle_alpha   102.18295016
_cell_angle_beta   102.18294688
_cell_angle_gamma   116.26468310
_symmetry_Int_Tables_number   1
_chemical_formula_structural   Cs2Ni(PdS2)2
_chemical_formula_sum   'Cs2 Ni1 Pd2 S4'
_cell_volume   246.21338014
_cell_formula_units_Z   1
loop_
 _symmetry_equiv_pos_site_id
 _symmetry_equiv_pos_as_xyz
  1  'x, y, z'
loop_
 _atom_site_type_symbol
 _atom_site_label
 _atom_site_symmetry_multiplicity
 _atom_site_fract_x
 _atom_site_fract_y
 _atom_site_fract_z
 _atom_site_occupancy
  Cs  Cs0  1  0.661168  0.661168  0.322334  1
  Cs  Cs1  1  0.338832  0.338832  0.677666  1
  Ni  Ni2  1  0.000000  0.000000  0.000000  1
  Pd  Pd3  1  0.000000  0.500000  0.000000  1
  Pd  Pd4  1  0.500000  0.000000  0.000000  1
  S  S5  1  0.740366  0.059813  0.800180  1
  S  S6  1  0.940187  0.259634  0.199820  1
  S  S7  1  0.059813  0.740366  0.800180  1
  S  S8  1  0.259634  0.940187  0.199820  1
