# generated using pymatgen
data_Sr2Ga6Co3Ni
_symmetry_space_group_name_H-M   'P 1'
_cell_length_a   5.28323734
_cell_length_b   6.39661613
_cell_length_c   6.39661673
_cell_angle_alpha   75.14713331
_cell_angle_beta   90.02140907
_cell_angle_gamma   89.97858603
_symmetry_Int_Tables_number   1
_chemical_formula_structural   Sr2Ga6Co3Ni
_chemical_formula_sum   'Sr2 Ga6 Co3 Ni1'
_cell_volume   208.94969048
_cell_formula_units_Z   1
loop_
 _symmetry_equiv_pos_site_id
 _symmetry_equiv_pos_as_xyz
  1  'x, y, z'
loop_
 _atom_site_type_symbol
 _atom_site_label
 _atom_site_symmetry_multiplicity
 _atom_site_fract_x
 _atom_site_fract_y
 _atom_site_fract_z
 _atom_site_occupancy
  Sr  Sr0  1  0.748867  0.342933  0.655539  1
  Sr  Sr1  1  0.251133  0.655539  0.342933  1
  Ga  Ga2  1  0.751835  0.941643  0.057989  1
  Ga  Ga3  1  0.248165  0.057989  0.941643  1
  Ga  Ga4  1  0.753097  0.525083  0.075817  1
  Ga  Ga5  1  0.246903  0.075817  0.525083  1
  Ga  Ga6  1  0.248844  0.478930  0.918206  1
  Ga  Ga7  1  0.751156  0.918206  0.478930  1
  Co  Co8  1  0.000000  0.199110  0.199110  1
  Co  Co9  1  0.500000  0.801925  0.801925  1
  Co  Co10  1  0.000000  0.801019  0.801019  1
  Ni  Ni11  1  0.500000  0.201806  0.201806  1
