# generated using pymatgen
data_Ho2Er2MoOsC4
_symmetry_space_group_name_H-M   'P 1'
_cell_length_a   5.06421800
_cell_length_b   6.56678114
_cell_length_c   9.84372317
_cell_angle_alpha   89.18559544
_cell_angle_beta   90.00000000
_cell_angle_gamma   90.00000000
_symmetry_Int_Tables_number   1
_chemical_formula_structural   Ho2Er2MoOsC4
_chemical_formula_sum   'Ho4 Er4 Mo2 Os2 C8'
_cell_volume   327.32596180
_cell_formula_units_Z   2
loop_
 _symmetry_equiv_pos_site_id
 _symmetry_equiv_pos_as_xyz
  1  'x, y, z'
loop_
 _atom_site_type_symbol
 _atom_site_label
 _atom_site_symmetry_multiplicity
 _atom_site_fract_x
 _atom_site_fract_y
 _atom_site_fract_z
 _atom_site_occupancy
  Ho  Ho0  1  0.250000  0.538486  0.218622  1
  Ho  Ho1  1  0.750000  0.461514  0.781378  1
  Ho  Ho2  1  0.750000  0.968512  0.716473  1
  Ho  Ho3  1  0.250000  0.031488  0.283527  1
  Er  Er4  1  0.250000  0.677335  0.558206  1
  Er  Er5  1  0.750000  0.322665  0.441794  1
  Er  Er6  1  0.750000  0.825518  0.058500  1
  Er  Er7  1  0.250000  0.174482  0.941500  1
  Mo  Mo8  1  0.250000  0.715877  0.868345  1
  Mo  Mo9  1  0.750000  0.284123  0.131655  1
  Os  Os10  1  0.750000  0.780229  0.367430  1
  Os  Os11  1  0.250000  0.219771  0.632570  1
  C  C12  1  0.250000  0.448438  0.757390  1
  C  C13  1  0.750000  0.551562  0.242610  1
  C  C14  1  0.750000  0.047200  0.260542  1
  C  C15  1  0.250000  0.952800  0.739458  1
  C  C16  1  0.250000  0.825889  0.053399  1
  C  C17  1  0.750000  0.174111  0.946601  1
  C  C18  1  0.750000  0.675282  0.550316  1
  C  C19  1  0.250000  0.324718  0.449684  1
