# generated using pymatgen
data_AcCo5P3
_symmetry_space_group_name_H-M   'P 1'
_cell_length_a   6.07244459
_cell_length_b   6.07244525
_cell_length_c   11.56874000
_cell_angle_alpha   90.00000000
_cell_angle_beta   90.00000000
_cell_angle_gamma   144.98270248
_symmetry_Int_Tables_number   1
_chemical_formula_structural   AcCo5P3
_chemical_formula_sum   'Ac2 Co10 P6'
_cell_volume   244.78889919
_cell_formula_units_Z   2
loop_
 _symmetry_equiv_pos_site_id
 _symmetry_equiv_pos_as_xyz
  1  'x, y, z'
loop_
 _atom_site_type_symbol
 _atom_site_label
 _atom_site_symmetry_multiplicity
 _atom_site_fract_x
 _atom_site_fract_y
 _atom_site_fract_z
 _atom_site_occupancy
  Ac  Ac0  1  0.336746  0.663254  0.250000  1
  Ac  Ac1  1  0.663254  0.336746  0.750000  1
  Co  Co2  1  0.054385  0.945615  0.142527  1
  Co  Co3  1  0.054385  0.945615  0.357473  1
  Co  Co4  1  0.697439  0.302561  0.433232  1
  Co  Co5  1  0.302561  0.697439  0.566768  1
  Co  Co6  1  0.302561  0.697439  0.933232  1
  Co  Co7  1  0.697439  0.302561  0.066768  1
  Co  Co8  1  0.500000  0.500000  0.500000  1
  Co  Co9  1  0.500000  0.500000  0.000000  1
  Co  Co10  1  0.945615  0.054385  0.642527  1
  Co  Co11  1  0.945615  0.054385  0.857473  1
  P  P12  1  0.608696  0.391304  0.250000  1
  P  P13  1  0.391304  0.608696  0.750000  1
  P  P14  1  0.117401  0.882599  0.534854  1
  P  P15  1  0.882599  0.117401  0.465146  1
  P  P16  1  0.882599  0.117401  0.034854  1
  P  P17  1  0.117401  0.882599  0.965146  1
