# generated using pymatgen
data_NaPu3O10
_symmetry_space_group_name_H-M   'P 1'
_cell_length_a   10.92415946
_cell_length_b   9.23682988
_cell_length_c   8.09033438
_cell_angle_alpha   77.85840758
_cell_angle_beta   55.75383021
_cell_angle_gamma   46.38776439
_symmetry_Int_Tables_number   1
_chemical_formula_structural   NaPu3O10
_chemical_formula_sum   'Na2 Pu6 O20'
_cell_volume   466.51694517
_cell_formula_units_Z   2
loop_
 _symmetry_equiv_pos_site_id
 _symmetry_equiv_pos_as_xyz
  1  'x, y, z'
loop_
 _atom_site_type_symbol
 _atom_site_label
 _atom_site_symmetry_multiplicity
 _atom_site_fract_x
 _atom_site_fract_y
 _atom_site_fract_z
 _atom_site_occupancy
  Na  Na0  1  0.986322  0.013678  0.013678  1
  Na  Na1  1  0.236322  0.263678  0.263678  1
  Pu  Pu2  1  0.506502  0.493498  0.493498  1
  Pu  Pu3  1  0.756502  0.743498  0.743498  1
  Pu  Pu4  1  0.256674  0.241315  0.742379  1
  Pu  Pu5  1  0.759632  0.742379  0.241315  1
  Pu  Pu6  1  0.507621  0.490368  0.993326  1
  Pu  Pu7  1  0.008685  0.993326  0.490368  1
  O  O8  1  0.152748  0.127852  0.842582  1
  O  O9  1  0.876818  0.842582  0.127852  1
  O  O10  1  0.407418  0.373182  0.097252  1
  O  O11  1  0.122148  0.097252  0.373182  1
  O  O12  1  0.808815  0.198643  0.784917  1
  O  O13  1  0.207624  0.784917  0.198643  1
  O  O14  1  0.465083  0.042376  0.441185  1
  O  O15  1  0.051357  0.441185  0.042376  1
  O  O16  1  0.839535  0.658532  0.471450  1
  O  O17  1  0.030483  0.471450  0.658532  1
  O  O18  1  0.778550  0.219517  0.410465  1
  O  O19  1  0.591468  0.410465  0.219517  1
  O  O20  1  0.641527  0.637611  0.357702  1
  O  O21  1  0.363158  0.357702  0.637611  1
  O  O22  1  0.892298  0.886842  0.608473  1
  O  O23  1  0.612389  0.608473  0.886842  1
  O  O24  1  0.486164  0.014682  0.822358  1
  O  O25  1  0.676796  0.822358  0.014682  1
  O  O26  1  0.427642  0.573204  0.763836  1
  O  O27  1  0.235318  0.763836  0.573204  1
