# generated using pymatgen
data_LuPu3(AlB4)4
_symmetry_space_group_name_H-M   'P 1'
_cell_length_a   3.56903800
_cell_length_b   5.92412168
_cell_length_c   11.48924132
_cell_angle_alpha   89.94499644
_cell_angle_beta   90.00000000
_cell_angle_gamma   90.00000000
_symmetry_Int_Tables_number   1
_chemical_formula_structural   LuPu3(AlB4)4
_chemical_formula_sum   'Lu1 Pu3 Al4 B16'
_cell_volume   242.92169001
_cell_formula_units_Z   1
loop_
 _symmetry_equiv_pos_site_id
 _symmetry_equiv_pos_as_xyz
  1  'x, y, z'
loop_
 _atom_site_type_symbol
 _atom_site_label
 _atom_site_symmetry_multiplicity
 _atom_site_fract_x
 _atom_site_fract_y
 _atom_site_fract_z
 _atom_site_occupancy
  Lu  Lu0  1  0.000000  0.129122  0.150296  1
  Pu  Pu1  1  0.000000  0.369586  0.650111  1
  Pu  Pu2  1  0.000000  0.630543  0.349418  1
  Pu  Pu3  1  0.000000  0.869898  0.850608  1
  Al  Al4  1  0.000000  0.361503  0.909199  1
  Al  Al5  1  0.000000  0.638755  0.090126  1
  Al  Al6  1  0.000000  0.861193  0.590474  1
  Al  Al7  1  0.000000  0.139170  0.409954  1
  B  B8  1  0.500000  0.026002  0.693067  1
  B  B9  1  0.500000  0.974721  0.306174  1
  B  B10  1  0.500000  0.527040  0.806869  1
  B  B11  1  0.500000  0.473881  0.192689  1
  B  B12  1  0.500000  0.113832  0.547078  1
  B  B13  1  0.500000  0.886765  0.452548  1
  B  B14  1  0.500000  0.613254  0.953868  1
  B  B15  1  0.500000  0.384029  0.047671  1
  B  B16  1  0.500000  0.290219  0.311969  1
  B  B17  1  0.500000  0.709506  0.687726  1
  B  B18  1  0.500000  0.791183  0.187467  1
  B  B19  1  0.500000  0.209008  0.812666  1
  B  B20  1  0.500000  0.367017  0.468031  1
  B  B21  1  0.500000  0.632903  0.530893  1
  B  B22  1  0.500000  0.867863  0.031529  1
  B  B23  1  0.500000  0.133006  0.969567  1
