# generated using pymatgen
data_Mn3BeNb12(Ga2N)4
_symmetry_space_group_name_H-M   'P 1'
_cell_length_a   8.20715041
_cell_length_b   8.22772769
_cell_length_c   8.22773000
_cell_angle_alpha   60.00000679
_cell_angle_beta   59.91703332
_cell_angle_gamma   59.91703315
_symmetry_Int_Tables_number   1
_chemical_formula_structural   Mn3BeNb12(Ga2N)4
_chemical_formula_sum   'Mn3 Be1 Nb12 Ga8 N4'
_cell_volume   392.36620551
_cell_formula_units_Z   1
loop_
 _symmetry_equiv_pos_site_id
 _symmetry_equiv_pos_as_xyz
  1  'x, y, z'
loop_
 _atom_site_type_symbol
 _atom_site_label
 _atom_site_symmetry_multiplicity
 _atom_site_fract_x
 _atom_site_fract_y
 _atom_site_fract_z
 _atom_site_occupancy
  Mn  Mn0  1  0.625000  0.625000  0.125000  1
  Mn  Mn1  1  0.625000  0.125000  0.625000  1
  Mn  Mn2  1  0.625000  0.625000  0.625000  1
  Be  Be3  1  0.125000  0.625000  0.625000  1
  Nb  Nb4  1  0.443136  0.444162  0.056351  1
  Nb  Nb5  1  0.056372  0.445460  0.052707  1
  Nb  Nb6  1  0.443136  0.056351  0.056351  1
  Nb  Nb7  1  0.056372  0.052707  0.445460  1
  Nb  Nb8  1  0.443136  0.056351  0.444162  1
  Nb  Nb9  1  0.056372  0.445460  0.445460  1
  Nb  Nb10  1  0.806864  0.805838  0.193649  1
  Nb  Nb11  1  0.193628  0.804540  0.197293  1
  Nb  Nb12  1  0.806864  0.193649  0.193649  1
  Nb  Nb13  1  0.193628  0.197293  0.804540  1
  Nb  Nb14  1  0.806864  0.193649  0.805838  1
  Nb  Nb15  1  0.193628  0.804540  0.804540  1
  Ga  Ga16  1  0.838609  0.833458  0.494477  1
  Ga  Ga17  1  0.838609  0.494477  0.833458  1
  Ga  Ga18  1  0.490509  0.836497  0.836497  1
  Ga  Ga19  1  0.838609  0.833458  0.833458  1
  Ga  Ga20  1  0.411391  0.416542  0.755523  1
  Ga  Ga21  1  0.411391  0.755523  0.416542  1
  Ga  Ga22  1  0.759491  0.413503  0.413503  1
  Ga  Ga23  1  0.411391  0.416542  0.416542  1
  N  N24  1  0.125000  0.125000  0.625000  1
  N  N25  1  0.125000  0.625000  0.125000  1
  N  N26  1  0.625000  0.125000  0.125000  1
  N  N27  1  0.125000  0.125000  0.125000  1
