# generated using pymatgen
data_Mn2CrP6IN12
_symmetry_space_group_name_H-M   'P 1'
_cell_length_a   7.33419931
_cell_length_b   7.28578829
_cell_length_c   7.33419847
_cell_angle_alpha   109.44048425
_cell_angle_beta   110.32209492
_cell_angle_gamma   109.44045857
_symmetry_Int_Tables_number   1
_chemical_formula_structural   Mn2CrP6IN12
_chemical_formula_sum   'Mn2 Cr1 P6 I1 N12'
_cell_volume   298.69653229
_cell_formula_units_Z   1
loop_
 _symmetry_equiv_pos_site_id
 _symmetry_equiv_pos_as_xyz
  1  'x, y, z'
loop_
 _atom_site_type_symbol
 _atom_site_label
 _atom_site_symmetry_multiplicity
 _atom_site_fract_x
 _atom_site_fract_y
 _atom_site_fract_z
 _atom_site_occupancy
  Mn  Mn0  1  0.005299  0.996656  0.367675  1
  Mn  Mn1  1  0.367675  0.996656  0.005299  1
  Cr  Cr2  1  0.049054  0.427319  0.049054  1
  P  P3  1  0.513386  0.259621  0.757016  1
  P  P4  1  0.249633  0.747537  0.496293  1
  P  P5  1  0.737555  0.495431  0.257123  1
  P  P6  1  0.757016  0.259621  0.513386  1
  P  P7  1  0.496293  0.747537  0.249633  1
  P  P8  1  0.257123  0.495431  0.737555  1
  I  I9  1  0.969481  0.979586  0.969481  1
  N  N10  1  0.365343  0.649262  0.365343  1
  N  N11  1  0.716291  0.432077  0.438516  1
  N  N12  1  0.438516  0.432077  0.716291  1
  N  N13  1  0.746778  0.299752  0.746778  1
  N  N14  1  0.987431  0.571788  0.279236  1
  N  N15  1  0.279236  0.571788  0.987431  1
  N  N16  1  0.296771  0.001811  0.559779  1
  N  N17  1  0.000728  0.275285  0.560212  1
  N  N18  1  0.716212  0.721830  0.290183  1
  N  N19  1  0.559779  0.001811  0.296771  1
  N  N20  1  0.290183  0.721830  0.716212  1
  N  N21  1  0.560212  0.275285  0.000728  1
