# generated using pymatgen
data_Cs4InReCl12
_symmetry_space_group_name_H-M   'P 1'
_cell_length_a   7.58722939
_cell_length_b   7.59045939
_cell_length_c   10.61329900
_cell_angle_alpha   90.00000000
_cell_angle_beta   90.00000000
_cell_angle_gamma   89.72163875
_symmetry_Int_Tables_number   1
_chemical_formula_structural   Cs4InReCl12
_chemical_formula_sum   'Cs4 In1 Re1 Cl12'
_cell_volume   611.21858300
_cell_formula_units_Z   1
loop_
 _symmetry_equiv_pos_site_id
 _symmetry_equiv_pos_as_xyz
  1  'x, y, z'
loop_
 _atom_site_type_symbol
 _atom_site_label
 _atom_site_symmetry_multiplicity
 _atom_site_fract_x
 _atom_site_fract_y
 _atom_site_fract_z
 _atom_site_occupancy
  Cs  Cs0  1  0.500000  0.000000  0.780418  1
  Cs  Cs1  1  0.000000  0.500000  0.219585  1
  Cs  Cs2  1  0.500000  0.000000  0.219582  1
  Cs  Cs3  1  0.000000  0.500000  0.780415  1
  In  In4  1  0.000000  0.000000  0.000000  1
  Re  Re5  1  0.500000  0.500000  0.500000  1
  Cl  Cl6  1  0.000000  0.000000  0.759508  1
  Cl  Cl7  1  0.500000  0.500000  0.279510  1
  Cl  Cl8  1  0.717905  0.717830  0.500000  1
  Cl  Cl9  1  0.238632  0.238626  0.000000  1
  Cl  Cl10  1  0.718232  0.281832  0.500000  1
  Cl  Cl11  1  0.238675  0.761333  0.000000  1
  Cl  Cl12  1  0.000000  0.000000  0.240492  1
  Cl  Cl13  1  0.500000  0.500000  0.720490  1
  Cl  Cl14  1  0.282095  0.282170  0.500000  1
  Cl  Cl15  1  0.761368  0.761374  0.000000  1
  Cl  Cl16  1  0.281768  0.718168  0.500000  1
  Cl  Cl17  1  0.761325  0.238667  0.000000  1
