# generated using pymatgen
data_MnHg2Bi(Pt2O7)2
_symmetry_space_group_name_H-M   'P 1'
_cell_length_a   7.22378650
_cell_length_b   7.32556984
_cell_length_c   7.18160900
_cell_angle_alpha   60.64797116
_cell_angle_beta   60.19295074
_cell_angle_gamma   60.27765459
_symmetry_Int_Tables_number   1
_chemical_formula_structural   MnHg2Bi(Pt2O7)2
_chemical_formula_sum   'Mn1 Hg2 Bi1 Pt4 O14'
_cell_volume   270.98484048
_cell_formula_units_Z   1
loop_
 _symmetry_equiv_pos_site_id
 _symmetry_equiv_pos_as_xyz
  1  'x, y, z'
loop_
 _atom_site_type_symbol
 _atom_site_label
 _atom_site_symmetry_multiplicity
 _atom_site_fract_x
 _atom_site_fract_y
 _atom_site_fract_z
 _atom_site_occupancy
  Mn  Mn0  1  0.625000  0.125000  0.125000  1
  Hg  Hg1  1  0.125000  0.125000  0.625000  1
  Hg  Hg2  1  0.125000  0.125000  0.125000  1
  Bi  Bi3  1  0.125000  0.625000  0.125000  1
  Pt  Pt4  1  0.625000  0.625000  0.125000  1
  Pt  Pt5  1  0.625000  0.125000  0.625000  1
  Pt  Pt6  1  0.125000  0.625000  0.625000  1
  Pt  Pt7  1  0.625000  0.625000  0.625000  1
  O  O8  1  0.293305  0.248246  0.229224  1
  O  O9  1  0.956695  0.001754  0.020776  1
  O  O10  1  0.553666  0.958246  0.525948  1
  O  O11  1  0.290808  0.706938  0.289188  1
  O  O12  1  0.540699  0.542681  0.958310  1
  O  O13  1  0.959192  0.543062  0.536935  1
  O  O14  1  0.553666  0.958246  0.962139  1
  O  O15  1  0.958221  0.957425  0.542177  1
  O  O16  1  0.959192  0.543062  0.960812  1
  O  O17  1  0.696334  0.291754  0.287861  1
  O  O18  1  0.290808  0.706938  0.713065  1
  O  O19  1  0.696334  0.291754  0.724052  1
  O  O20  1  0.291779  0.292575  0.707823  1
  O  O21  1  0.709301  0.707319  0.291690  1
