# generated using pymatgen
data_Hf3Ge3Mo2C
_symmetry_space_group_name_H-M   'P 1'
_cell_length_a   7.79390900
_cell_length_b   7.79390995
_cell_length_c   5.39133500
_cell_angle_alpha   90.00000000
_cell_angle_beta   90.00000000
_cell_angle_gamma   120.00000020
_symmetry_Int_Tables_number   1
_chemical_formula_structural   Hf3Ge3Mo2C
_chemical_formula_sum   'Hf6 Ge6 Mo4 C2'
_cell_volume   283.62052965
_cell_formula_units_Z   2
loop_
 _symmetry_equiv_pos_site_id
 _symmetry_equiv_pos_as_xyz
  1  'x, y, z'
loop_
 _atom_site_type_symbol
 _atom_site_label
 _atom_site_symmetry_multiplicity
 _atom_site_fract_x
 _atom_site_fract_y
 _atom_site_fract_z
 _atom_site_occupancy
  Hf  Hf0  1  0.765523  0.000000  0.750000  1
  Hf  Hf1  1  0.765523  0.765523  0.250000  1
  Hf  Hf2  1  0.000000  0.234477  0.250000  1
  Hf  Hf3  1  0.000000  0.765523  0.750000  1
  Hf  Hf4  1  0.234477  0.234477  0.750000  1
  Hf  Hf5  1  0.234477  0.000000  0.250000  1
  Ge  Ge6  1  0.407023  0.000000  0.750000  1
  Ge  Ge7  1  0.407023  0.407023  0.250000  1
  Ge  Ge8  1  0.000000  0.592977  0.250000  1
  Ge  Ge9  1  0.000000  0.407023  0.750000  1
  Ge  Ge10  1  0.592977  0.592977  0.750000  1
  Ge  Ge11  1  0.592977  0.000000  0.250000  1
  Mo  Mo12  1  0.666667  0.333333  0.000000  1
  Mo  Mo13  1  0.333333  0.666667  0.500000  1
  Mo  Mo14  1  0.666667  0.333333  0.500000  1
  Mo  Mo15  1  0.333333  0.666667  0.000000  1
  C  C16  1  0.000000  0.000000  0.500000  1
  C  C17  1  0.000000  0.000000  0.000000  1
