# generated using pymatgen
data_DyCu4HgO8
_symmetry_space_group_name_H-M   'P 1'
_cell_length_a   6.28712854
_cell_length_b   6.28712818
_cell_length_c   6.28712791
_cell_angle_alpha   125.43710270
_cell_angle_beta   125.43711256
_cell_angle_gamma   80.81527801
_symmetry_Int_Tables_number   1
_chemical_formula_structural   DyCu4HgO8
_chemical_formula_sum   'Dy1 Cu4 Hg1 O8'
_cell_volume   159.02895044
_cell_formula_units_Z   1
loop_
 _symmetry_equiv_pos_site_id
 _symmetry_equiv_pos_as_xyz
  1  'x, y, z'
loop_
 _atom_site_type_symbol
 _atom_site_label
 _atom_site_symmetry_multiplicity
 _atom_site_fract_x
 _atom_site_fract_y
 _atom_site_fract_z
 _atom_site_occupancy
  Dy  Dy0  1  0.750000  0.250000  0.500000  1
  Cu  Cu1  1  0.872739  0.616765  0.240266  1
  Cu  Cu2  1  0.376499  0.632473  0.759734  1
  Cu  Cu3  1  0.367527  0.127261  0.744026  1
  Cu  Cu4  1  0.383235  0.623501  0.255974  1
  Hg  Hg5  1  0.000000  0.000000  0.000000  1
  O  O6  1  0.421487  0.837208  0.153877  1
  O  O7  1  0.683330  0.267610  0.846123  1
  O  O8  1  0.358929  0.425036  0.381379  1
  O  O9  1  0.043657  0.977549  0.618621  1
  O  O10  1  0.022451  0.641071  0.066108  1
  O  O11  1  0.574964  0.956343  0.933892  1
  O  O12  1  0.162792  0.316670  0.584279  1
  O  O13  1  0.732390  0.578513  0.415721  1
