# generated using pymatgen
data_NaMn2(AgO2)3
_symmetry_space_group_name_H-M   'P 1'
_cell_length_a   5.30936755
_cell_length_b   5.31025477
_cell_length_c   6.50112317
_cell_angle_alpha   74.25660071
_cell_angle_beta   97.79836444
_cell_angle_gamma   120.00533639
_symmetry_Int_Tables_number   1
_chemical_formula_structural   NaMn2(AgO2)3
_chemical_formula_sum   'Na1 Mn2 Ag3 O6'
_cell_volume   152.77365416
_cell_formula_units_Z   1
loop_
 _symmetry_equiv_pos_site_id
 _symmetry_equiv_pos_as_xyz
  1  'x, y, z'
loop_
 _atom_site_type_symbol
 _atom_site_label
 _atom_site_symmetry_multiplicity
 _atom_site_fract_x
 _atom_site_fract_y
 _atom_site_fract_z
 _atom_site_occupancy
  Na  Na0  1  0.333322  0.166661  0.500001  1
  Mn  Mn1  1  0.000004  0.500012  0.500002  1
  Mn  Mn2  1  0.666658  0.833321  0.499999  1
  Ag  Ag3  1  0.680791  0.340395  0.999999  1
  Ag  Ag4  1  0.333341  0.666671  0.000000  1
  Ag  Ag5  1  0.985864  0.992932  0.000002  1
  O  O6  1  0.333333  0.730201  0.666959  1
  O  O7  1  0.954988  0.112507  0.665960  1
  O  O8  1  0.711689  0.490880  0.665963  1
  O  O9  1  0.711687  0.220809  0.334035  1
  O  O10  1  0.333335  0.603134  0.333039  1
  O  O11  1  0.954988  0.842479  0.334041  1
