# generated using pymatgen
data_Li6U4VCrO16
_symmetry_space_group_name_H-M   'P 1'
_cell_length_a   5.12857191
_cell_length_b   6.12446352
_cell_length_c   10.71728315
_cell_angle_alpha   89.03871140
_cell_angle_beta   89.69108534
_cell_angle_gamma   89.95091158
_symmetry_Int_Tables_number   1
_chemical_formula_structural   Li6U4VCrO16
_chemical_formula_sum   'Li6 U4 V1 Cr1 O16'
_cell_volume   336.57483317
_cell_formula_units_Z   1
loop_
 _symmetry_equiv_pos_site_id
 _symmetry_equiv_pos_as_xyz
  1  'x, y, z'
loop_
 _atom_site_type_symbol
 _atom_site_label
 _atom_site_symmetry_multiplicity
 _atom_site_fract_x
 _atom_site_fract_y
 _atom_site_fract_z
 _atom_site_occupancy
  Li  Li0  1  0.542751  0.746039  0.925564  1
  Li  Li1  1  0.043641  0.252285  0.573787  1
  Li  Li2  1  0.457249  0.253961  0.074436  1
  Li  Li3  1  0.956359  0.747715  0.426213  1
  Li  Li4  1  0.500000  0.500000  0.500000  1
  Li  Li5  1  0.000000  0.500000  0.000000  1
  U  U6  1  0.981523  0.747870  0.733415  1
  U  U7  1  0.483125  0.252142  0.764354  1
  U  U8  1  0.018477  0.252130  0.266585  1
  U  U9  1  0.516875  0.747858  0.235646  1
  V  V10  1  0.000000  0.000000  0.000000  1
  Cr  Cr11  1  0.500000  0.000000  0.500000  1
  O  O12  1  0.177376  0.755835  0.906534  1
  O  O13  1  0.253023  0.227823  0.422890  1
  O  O14  1  0.248569  0.227116  0.923325  1
  O  O15  1  0.751431  0.772884  0.076675  1
  O  O16  1  0.248568  0.006122  0.159472  1
  O  O17  1  0.743622  0.995315  0.345743  1
  O  O18  1  0.719988  0.518482  0.831594  1
  O  O19  1  0.218980  0.480056  0.667838  1
  O  O20  1  0.751432  0.993878  0.840528  1
  O  O21  1  0.256378  0.004685  0.654257  1
  O  O22  1  0.280012  0.481518  0.168406  1
  O  O23  1  0.781020  0.519944  0.332162  1
  O  O24  1  0.822624  0.244165  0.093466  1
  O  O25  1  0.322049  0.755637  0.408238  1
  O  O26  1  0.746977  0.772177  0.577110  1
  O  O27  1  0.677951  0.244363  0.591762  1
