# generated using pymatgen
data_TbY11MgCo6
_symmetry_space_group_name_H-M   'P 1'
_cell_length_a   8.41877633
_cell_length_b   8.41877729
_cell_length_c   8.42056900
_cell_angle_alpha   109.48159332
_cell_angle_beta   109.46694169
_cell_angle_gamma   109.45649860
_symmetry_Int_Tables_number   1
_chemical_formula_structural   TbY11MgCo6
_chemical_formula_sum   'Tb1 Y11 Mg1 Co6'
_cell_volume   459.47698432
_cell_formula_units_Z   1
loop_
 _symmetry_equiv_pos_site_id
 _symmetry_equiv_pos_as_xyz
  1  'x, y, z'
loop_
 _atom_site_type_symbol
 _atom_site_label
 _atom_site_symmetry_multiplicity
 _atom_site_fract_x
 _atom_site_fract_y
 _atom_site_fract_z
 _atom_site_occupancy
  Tb  Tb0  1  0.805415  0.694651  0.500066  1
  Y  Y1  1  0.194547  0.304254  0.498801  1
  Y  Y2  1  0.194665  0.695780  0.890445  1
  Y  Y3  1  0.805501  0.304003  0.109504  1
  Y  Y4  1  0.695777  0.501241  0.805458  1
  Y  Y5  1  0.304009  0.498629  0.194368  1
  Y  Y6  1  0.695738  0.890359  0.194368  1
  Y  Y7  1  0.304217  0.109681  0.805458  1
  Y  Y8  1  0.501305  0.805532  0.695746  1
  Y  Y9  1  0.498530  0.194376  0.304133  1
  Y  Y10  1  0.109757  0.805603  0.304133  1
  Y  Y11  1  0.890214  0.194441  0.695746  1
  Mg  Mg12  1  0.000143  0.000233  0.000375  1
  Co  Co13  1  0.887636  0.388018  0.500120  1
  Co  Co14  1  0.112102  0.612484  0.500120  1
  Co  Co15  1  0.387922  0.499979  0.887902  1
  Co  Co16  1  0.612697  0.500662  0.113359  1
  Co  Co17  1  0.499772  0.887749  0.387521  1
  Co  Co18  1  0.500052  0.112324  0.612376  1
