# generated using pymatgen
data_ScU2(Co3B2)3
_symmetry_space_group_name_H-M   'P 1'
_cell_length_a   5.74410188
_cell_length_b   5.74410252
_cell_length_c   5.74410288
_cell_angle_alpha   94.85664460
_cell_angle_beta   94.85663400
_cell_angle_gamma   94.85663075
_symmetry_Int_Tables_number   1
_chemical_formula_structural   ScU2(Co3B2)3
_chemical_formula_sum   'Sc1 U2 Co9 B6'
_cell_volume   187.35991573
_cell_formula_units_Z   1
loop_
 _symmetry_equiv_pos_site_id
 _symmetry_equiv_pos_as_xyz
  1  'x, y, z'
loop_
 _atom_site_type_symbol
 _atom_site_label
 _atom_site_symmetry_multiplicity
 _atom_site_fract_x
 _atom_site_fract_y
 _atom_site_fract_z
 _atom_site_occupancy
  Sc  Sc0  1  0.666517  0.666517  0.666517  1
  U  U1  1  0.009657  0.009657  0.009657  1
  U  U2  1  0.313646  0.313646  0.313646  1
  Co  Co3  1  0.500209  0.001912  0.001912  1
  Co  Co4  1  0.001912  0.500209  0.001912  1
  Co  Co5  1  0.001912  0.001912  0.500209  1
  Co  Co6  1  0.695107  0.193150  0.695107  1
  Co  Co7  1  0.695107  0.695107  0.193150  1
  Co  Co8  1  0.193150  0.695107  0.695107  1
  Co  Co9  1  0.309051  0.797551  0.309051  1
  Co  Co10  1  0.309051  0.309051  0.797551  1
  Co  Co11  1  0.797551  0.309051  0.309051  1
  B  B12  1  0.379951  0.993857  0.629756  1
  B  B13  1  0.629756  0.379951  0.993857  1
  B  B14  1  0.993857  0.629756  0.379951  1
  B  B15  1  0.629756  0.993857  0.379951  1
  B  B16  1  0.379951  0.629756  0.993857  1
  B  B17  1  0.993857  0.379951  0.629756  1
