# generated using pymatgen
data_Ba4La7PuSe16
_symmetry_space_group_name_H-M   'P 1'
_cell_length_a   4.41491800
_cell_length_b   13.07672065
_cell_length_c   15.74853291
_cell_angle_alpha   89.89049517
_cell_angle_beta   90.00000000
_cell_angle_gamma   90.00000000
_symmetry_Int_Tables_number   1
_chemical_formula_structural   Ba4La7PuSe16
_chemical_formula_sum   'Ba4 La7 Pu1 Se16'
_cell_volume   909.20286827
_cell_formula_units_Z   1
loop_
 _symmetry_equiv_pos_site_id
 _symmetry_equiv_pos_as_xyz
  1  'x, y, z'
loop_
 _atom_site_type_symbol
 _atom_site_label
 _atom_site_symmetry_multiplicity
 _atom_site_fract_x
 _atom_site_fract_y
 _atom_site_fract_z
 _atom_site_occupancy
  Ba  Ba0  1  0.250000  0.756599  0.339816  1
  Ba  Ba1  1  0.250000  0.256181  0.163500  1
  Ba  Ba2  1  0.750000  0.241568  0.658148  1
  Ba  Ba3  1  0.750000  0.743698  0.838631  1
  La  La4  1  0.250000  0.425653  0.391511  1
  La  La5  1  0.250000  0.930744  0.112081  1
  La  La6  1  0.750000  0.571018  0.609664  1
  La  La7  1  0.750000  0.071607  0.890553  1
  La  La8  1  0.250000  0.418451  0.898262  1
  La  La9  1  0.250000  0.921932  0.599370  1
  La  La10  1  0.750000  0.580576  0.102618  1
  Pu  Pu11  1  0.750000  0.079921  0.397868  1
  Se  Se12  1  0.250000  0.207059  0.820194  1
  Se  Se13  1  0.250000  0.709161  0.676139  1
  Se  Se14  1  0.750000  0.793132  0.179410  1
  Se  Se15  1  0.750000  0.287595  0.324734  1
  Se  Se16  1  0.250000  0.131524  0.517248  1
  Se  Se17  1  0.250000  0.631347  0.975209  1
  Se  Se18  1  0.750000  0.872639  0.471852  1
  Se  Se19  1  0.750000  0.368048  0.025681  1
  Se  Se20  1  0.250000  0.519941  0.217444  1
  Se  Se21  1  0.250000  0.025202  0.287386  1
  Se  Se22  1  0.750000  0.478187  0.783498  1
  Se  Se23  1  0.750000  0.979118  0.715522  1
  Se  Se24  1  0.250000  0.416101  0.580728  1
  Se  Se25  1  0.250000  0.917342  0.921913  1
  Se  Se26  1  0.750000  0.581778  0.420317  1
  Se  Se27  1  0.750000  0.083879  0.080701  1
