# generated using pymatgen
data_Rb4LiGaTe4
_symmetry_space_group_name_H-M   'P 1'
_cell_length_a   8.90638506
_cell_length_b   8.90638655
_cell_length_c   8.90638400
_cell_angle_alpha   131.08470320
_cell_angle_beta   129.87566591
_cell_angle_gamma   72.64460998
_symmetry_Int_Tables_number   1
_chemical_formula_structural   Rb4LiGaTe4
_chemical_formula_sum   'Rb4 Li1 Ga1 Te4'
_cell_volume   399.31514590
_cell_formula_units_Z   1
loop_
 _symmetry_equiv_pos_site_id
 _symmetry_equiv_pos_as_xyz
  1  'x, y, z'
loop_
 _atom_site_type_symbol
 _atom_site_label
 _atom_site_symmetry_multiplicity
 _atom_site_fract_x
 _atom_site_fract_y
 _atom_site_fract_z
 _atom_site_occupancy
  Rb  Rb0  1  0.464493  0.135661  0.316683  1
  Rb  Rb1  1  0.818978  0.647810  0.183317  1
  Rb  Rb2  1  0.535511  0.852188  0.671171  1
  Rb  Rb3  1  0.181017  0.364340  0.828829  1
  Li  Li4  1  0.999996  0.749996  0.750000  1
  Ga  Ga5  1  0.000004  0.250004  0.250000  1
  Te  Te6  1  0.084123  0.914012  0.207998  1
  Te  Te7  1  0.915875  0.123872  0.829883  1
  Te  Te8  1  0.293989  0.585990  0.670117  1
  Te  Te9  1  0.706014  0.376127  0.292002  1
