# generated using pymatgen
data_Nd20Sn13Sb3
_symmetry_space_group_name_H-M   'P 1'
_cell_length_a   8.34155990
_cell_length_b   8.44275765
_cell_length_c   16.03588295
_cell_angle_alpha   89.91780618
_cell_angle_beta   90.72552127
_cell_angle_gamma   90.08821562
_symmetry_Int_Tables_number   1
_chemical_formula_structural   Nd20Sn13Sb3
_chemical_formula_sum   'Nd20 Sn13 Sb3'
_cell_volume   1129.24637326
_cell_formula_units_Z   1
loop_
 _symmetry_equiv_pos_site_id
 _symmetry_equiv_pos_as_xyz
  1  'x, y, z'
loop_
 _atom_site_type_symbol
 _atom_site_label
 _atom_site_symmetry_multiplicity
 _atom_site_fract_x
 _atom_site_fract_y
 _atom_site_fract_z
 _atom_site_occupancy
  Nd  Nd0  1  0.032360  0.174691  0.396534  1
  Nd  Nd1  1  0.369644  0.838593  0.121412  1
  Nd  Nd2  1  0.125356  0.339308  0.617437  1
  Nd  Nd3  1  0.479465  0.679799  0.899823  1
  Nd  Nd4  1  0.869441  0.660781  0.121748  1
  Nd  Nd5  1  0.130259  0.338630  0.878688  1
  Nd  Nd6  1  0.202045  0.500719  0.245091  1
  Nd  Nd7  1  0.702139  0.999336  0.244726  1
  Nd  Nd8  1  0.469728  0.678335  0.603422  1
  Nd  Nd9  1  0.298335  0.000985  0.753321  1
  Nd  Nd10  1  0.624032  0.159829  0.618248  1
  Nd  Nd11  1  0.798107  0.498811  0.754602  1
  Nd  Nd12  1  0.875088  0.660573  0.382448  1
  Nd  Nd13  1  0.020232  0.180030  0.100557  1
  Nd  Nd14  1  0.979376  0.820569  0.899680  1
  Nd  Nd15  1  0.629984  0.162010  0.878644  1
  Nd  Nd16  1  0.520513  0.320970  0.100464  1
  Nd  Nd17  1  0.374631  0.839698  0.382000  1
  Nd  Nd18  1  0.971280  0.824469  0.603083  1
  Nd  Nd19  1  0.527813  0.320150  0.397875  1
  Sn  Sn20  1  0.671892  0.857058  0.748487  1
  Sn  Sn21  1  0.288394  0.036696  0.958484  1
  Sn  Sn22  1  0.828275  0.357131  0.252627  1
  Sn  Sn23  1  0.788685  0.464044  0.958409  1
  Sn  Sn24  1  0.571199  0.619306  0.253900  1
  Sn  Sn25  1  0.211488  0.536496  0.041510  1
  Sn  Sn26  1  0.428579  0.380577  0.747044  1
  Sn  Sn27  1  0.171887  0.642517  0.748265  1
  Sn  Sn28  1  0.928979  0.119270  0.747319  1
  Sn  Sn29  1  0.280659  0.031015  0.544469  1
  Sn  Sn30  1  0.711926  0.963066  0.041398  1
  Sn  Sn31  1  0.328791  0.142774  0.251707  1
  Sn  Sn32  1  0.071030  0.880353  0.253077  1
  Sb  Sb33  1  0.778327  0.471566  0.545603  1
  Sb  Sb34  1  0.719825  0.971087  0.454234  1
  Sb  Sb35  1  0.220237  0.528754  0.453663  1
