# generated using pymatgen
data_La3Pr(Sn2Pt)4
_symmetry_space_group_name_H-M   'P 1'
_cell_length_a   9.24877384
_cell_length_b   9.24877446
_cell_length_c   9.60865900
_cell_angle_alpha   90.00000000
_cell_angle_beta   90.00000000
_cell_angle_gamma   150.74757412
_symmetry_Int_Tables_number   1
_chemical_formula_structural   La3Pr(Sn2Pt)4
_chemical_formula_sum   'La3 Pr1 Sn8 Pt4'
_cell_volume   401.63939547
_cell_formula_units_Z   1
loop_
 _symmetry_equiv_pos_site_id
 _symmetry_equiv_pos_as_xyz
  1  'x, y, z'
loop_
 _atom_site_type_symbol
 _atom_site_label
 _atom_site_symmetry_multiplicity
 _atom_site_fract_x
 _atom_site_fract_y
 _atom_site_fract_z
 _atom_site_occupancy
  La  La0  1  0.499900  0.500100  0.499670  1
  La  La1  1  0.499900  0.500100  0.000330  1
  La  La2  1  0.702686  0.297314  0.750000  1
  Pr  Pr3  1  0.297665  0.702335  0.250000  1
  Sn  Sn4  1  0.913882  0.086118  0.750000  1
  Sn  Sn5  1  0.926857  0.073143  0.250000  1
  Sn  Sn6  1  0.085831  0.914169  0.250000  1
  Sn  Sn7  1  0.072348  0.927652  0.750000  1
  Sn  Sn8  1  0.699065  0.300935  0.406967  1
  Sn  Sn9  1  0.301289  0.698711  0.591662  1
  Sn  Sn10  1  0.301289  0.698711  0.908338  1
  Sn  Sn11  1  0.699065  0.300935  0.093033  1
  Pt  Pt12  1  0.148341  0.851659  0.507009  1
  Pt  Pt13  1  0.851771  0.148229  0.007395  1
  Pt  Pt14  1  0.148341  0.851659  0.992991  1
  Pt  Pt15  1  0.851771  0.148229  0.492605  1
