# generated using pymatgen
data_Yb2Y5Tm(ReC2)4
_symmetry_space_group_name_H-M   'P 1'
_cell_length_a   5.11935800
_cell_length_b   6.56362120
_cell_length_c   9.98830145
_cell_angle_alpha   88.89884047
_cell_angle_beta   90.00000000
_cell_angle_gamma   90.00000000
_symmetry_Int_Tables_number   1
_chemical_formula_structural   Yb2Y5Tm(ReC2)4
_chemical_formula_sum   'Yb2 Y5 Tm1 Re4 C8'
_cell_volume   335.56019624
_cell_formula_units_Z   1
loop_
 _symmetry_equiv_pos_site_id
 _symmetry_equiv_pos_as_xyz
  1  'x, y, z'
loop_
 _atom_site_type_symbol
 _atom_site_label
 _atom_site_symmetry_multiplicity
 _atom_site_fract_x
 _atom_site_fract_y
 _atom_site_fract_z
 _atom_site_occupancy
  Yb  Yb0  1  0.750000  0.963153  0.720675  1
  Yb  Yb1  1  0.250000  0.036517  0.279784  1
  Y  Y2  1  0.750000  0.312727  0.446415  1
  Y  Y3  1  0.750000  0.819902  0.054740  1
  Y  Y4  1  0.250000  0.179730  0.945023  1
  Y  Y5  1  0.250000  0.535850  0.222311  1
  Y  Y6  1  0.750000  0.465002  0.778476  1
  Tm  Tm7  1  0.250000  0.684126  0.554977  1
  Re  Re8  1  0.250000  0.719678  0.860456  1
  Re  Re9  1  0.750000  0.280292  0.138873  1
  Re  Re10  1  0.750000  0.775018  0.364097  1
  Re  Re11  1  0.250000  0.225054  0.636293  1
  C  C12  1  0.250000  0.454823  0.758220  1
  C  C13  1  0.750000  0.545951  0.241008  1
  C  C14  1  0.750000  0.044361  0.261015  1
  C  C15  1  0.250000  0.953998  0.737115  1
  C  C16  1  0.250000  0.813558  0.041214  1
  C  C17  1  0.750000  0.186626  0.958167  1
  C  C18  1  0.750000  0.677970  0.545685  1
  C  C19  1  0.250000  0.325663  0.455458  1
