# generated using pymatgen
data_YTm3MgP12Ru19
_symmetry_space_group_name_H-M   'P 1'
_cell_length_a   12.45514501
_cell_length_b   12.47265662
_cell_length_c   3.98100800
_cell_angle_alpha   90.00000000
_cell_angle_beta   90.00000000
_cell_angle_gamma   120.07226181
_symmetry_Int_Tables_number   1
_chemical_formula_structural   YTm3MgP12Ru19
_chemical_formula_sum   'Y1 Tm3 Mg1 P12 Ru19'
_cell_volume   535.19831894
_cell_formula_units_Z   1
loop_
 _symmetry_equiv_pos_site_id
 _symmetry_equiv_pos_as_xyz
  1  'x, y, z'
loop_
 _atom_site_type_symbol
 _atom_site_label
 _atom_site_symmetry_multiplicity
 _atom_site_fract_x
 _atom_site_fract_y
 _atom_site_fract_z
 _atom_site_occupancy
  Y  Y0  1  0.326964  0.659966  0.000000  1
  Tm  Tm1  1  0.816920  0.816128  0.500000  1
  Tm  Tm2  1  0.183133  0.999226  0.500000  1
  Tm  Tm3  1  0.672929  0.332780  0.000000  1
  Mg  Mg4  1  0.999984  0.189499  0.500000  1
  P  P5  1  0.999783  0.827691  0.000000  1
  P  P6  1  0.194062  0.179860  0.000000  1
  P  P7  1  0.806391  0.986458  0.000000  1
  P  P8  1  0.698476  0.169624  0.500000  1
  P  P9  1  0.830507  0.524863  0.500000  1
  P  P10  1  0.481690  0.306990  0.500000  1
  P  P11  1  0.168573  0.694273  0.500000  1
  P  P12  1  0.519088  0.826091  0.500000  1
  P  P13  1  0.301493  0.470434  0.500000  1
  P  P14  1  0.000023  0.380871  0.000000  1
  P  P15  1  0.625717  0.626546  0.000000  1
  P  P16  1  0.374257  0.000838  0.000000  1
  Ru  Ru17  1  0.999811  0.560584  0.000000  1
  Ru  Ru18  1  0.440035  0.445871  0.000000  1
  Ru  Ru19  1  0.560053  0.006030  0.000000  1
  Ru  Ru20  1  0.999627  0.722692  0.500000  1
  Ru  Ru21  1  0.283258  0.278566  0.500000  1
  Ru  Ru22  1  0.717165  0.996062  0.500000  1
  Ru  Ru23  1  0.824943  0.182675  0.000000  1
  Ru  Ru24  1  0.815121  0.628279  0.000000  1
  Ru  Ru25  1  0.384620  0.194305  0.000000  1
  Ru  Ru26  1  0.184275  0.813378  0.000000  1
  Ru  Ru27  1  0.616345  0.810312  0.000000  1
  Ru  Ru28  1  0.174797  0.356953  0.000000  1
  Ru  Ru29  1  0.872989  0.364769  0.500000  1
  Ru  Ru30  1  0.634077  0.508313  0.500000  1
  Ru  Ru31  1  0.497792  0.128167  0.500000  1
  Ru  Ru32  1  0.366062  0.875458  0.500000  1
  Ru  Ru33  1  0.503591  0.630458  0.500000  1
  Ru  Ru34  1  0.125395  0.490147  0.500000  1
  Ru  Ru35  1  0.000055  0.014836  0.000000  1
