# generated using pymatgen
data_Er10SnHg7Pt4
_symmetry_space_group_name_H-M   'P 1'
_cell_length_a   3.61648800
_cell_length_b   7.94132140
_cell_length_c   18.11741284
_cell_angle_alpha   90.30652556
_cell_angle_beta   90.00000000
_cell_angle_gamma   90.00000000
_symmetry_Int_Tables_number   1
_chemical_formula_structural   Er10SnHg7Pt4
_chemical_formula_sum   'Er10 Sn1 Hg7 Pt4'
_cell_volume   520.31909856
_cell_formula_units_Z   1
loop_
 _symmetry_equiv_pos_site_id
 _symmetry_equiv_pos_as_xyz
  1  'x, y, z'
loop_
 _atom_site_type_symbol
 _atom_site_label
 _atom_site_symmetry_multiplicity
 _atom_site_fract_x
 _atom_site_fract_y
 _atom_site_fract_z
 _atom_site_occupancy
  Er  Er0  1  0.000000  0.111128  0.414577  1
  Er  Er1  1  0.000000  0.887540  0.586460  1
  Er  Er2  1  0.000000  0.388175  0.913525  1
  Er  Er3  1  0.000000  0.610956  0.086169  1
  Er  Er4  1  0.000000  0.235598  0.215653  1
  Er  Er5  1  0.000000  0.763829  0.783741  1
  Er  Er6  1  0.000000  0.262165  0.716706  1
  Er  Er7  1  0.000000  0.742362  0.282396  1
  Er  Er8  1  0.000000  0.001855  0.001047  1
  Er  Er9  1  0.000000  0.498094  0.499503  1
  Sn  Sn10  1  0.500000  0.420963  0.353082  1
  Hg  Hg11  1  0.500000  0.577990  0.644563  1
  Hg  Hg12  1  0.500000  0.078044  0.855462  1
  Hg  Hg13  1  0.500000  0.919750  0.144695  1
  Hg  Hg14  1  0.500000  0.288685  0.062380  1
  Hg  Hg15  1  0.500000  0.712648  0.938043  1
  Hg  Hg16  1  0.500000  0.210327  0.562601  1
  Hg  Hg17  1  0.500000  0.788844  0.437963  1
  Pt  Pt18  1  0.500000  0.027081  0.302908  1
  Pt  Pt19  1  0.500000  0.974722  0.697510  1
  Pt  Pt20  1  0.500000  0.475802  0.802722  1
  Pt  Pt21  1  0.500000  0.523441  0.198296  1
