# generated using pymatgen
data_Th2SnH4
_symmetry_space_group_name_H-M   'P 1'
_cell_length_a   6.60541289
_cell_length_b   6.40010144
_cell_length_c   6.40010218
_cell_angle_alpha   105.44403645
_cell_angle_beta   58.93301810
_cell_angle_gamma   121.06697107
_symmetry_Int_Tables_number   1
_chemical_formula_structural   Th2SnH4
_chemical_formula_sum   'Th4 Sn2 H8'
_cell_volume   198.51532361
_cell_formula_units_Z   2
loop_
 _symmetry_equiv_pos_site_id
 _symmetry_equiv_pos_as_xyz
  1  'x, y, z'
loop_
 _atom_site_type_symbol
 _atom_site_label
 _atom_site_symmetry_multiplicity
 _atom_site_fract_x
 _atom_site_fract_y
 _atom_site_fract_z
 _atom_site_occupancy
  Th  Th0  1  0.157590  0.500000  0.184821  1
  Th  Th1  1  0.342411  0.184821  0.500000  1
  Th  Th2  1  0.657590  0.815180  0.500001  1
  Th  Th3  1  0.842410  0.500001  0.815180  1
  Sn  Sn4  1  0.250000  0.000000  0.000000  1
  Sn  Sn5  1  0.750001  0.000000  0.000000  1
  H  H6  1  0.475544  0.500000  0.248296  1
  H  H7  1  0.776160  0.500000  0.248296  1
  H  H8  1  0.024457  0.248296  0.500000  1
  H  H9  1  0.723840  0.248296  0.500000  1
  H  H10  1  0.975543  0.751705  0.500001  1
  H  H11  1  0.276160  0.751705  0.500001  1
  H  H12  1  0.223841  0.500001  0.751705  1
  H  H13  1  0.524457  0.500001  0.751705  1
