# generated using pymatgen
data_Cr(PtO3)2
_symmetry_space_group_name_H-M   'P 1'
_cell_length_a   4.56611623
_cell_length_b   18.86653100
_cell_length_c   4.59215309
_cell_angle_alpha   90.00138488
_cell_angle_beta   90.00656526
_cell_angle_gamma   90.00011903
_symmetry_Int_Tables_number   1
_chemical_formula_structural   Cr(PtO3)2
_chemical_formula_sum   'Cr4 Pt8 O24'
_cell_volume   395.59916886
_cell_formula_units_Z   4
loop_
 _symmetry_equiv_pos_site_id
 _symmetry_equiv_pos_as_xyz
  1  'x, y, z'
loop_
 _atom_site_type_symbol
 _atom_site_label
 _atom_site_symmetry_multiplicity
 _atom_site_fract_x
 _atom_site_fract_y
 _atom_site_fract_z
 _atom_site_occupancy
  Cr  Cr0  1  0.000026  0.499979  0.999981  1
  Cr  Cr1  1  0.499970  0.750000  0.500039  1
  Cr  Cr2  1  0.999965  0.000021  0.999988  1
  Cr  Cr3  1  0.500043  0.249993  0.499996  1
  Pt  Pt4  1  0.000103  0.166042  0.999993  1
  Pt  Pt5  1  0.000072  0.666042  0.000034  1
  Pt  Pt6  1  0.499939  0.416044  0.499992  1
  Pt  Pt7  1  0.499891  0.916062  0.500010  1
  Pt  Pt8  1  0.500085  0.083940  0.499974  1
  Pt  Pt9  1  0.500089  0.583949  0.500002  1
  Pt  Pt10  1  0.999946  0.333951  0.999987  1
  Pt  Pt11  1  0.999893  0.833975  0.000018  1
  O  O12  1  0.803137  0.250004  0.189651  1
  O  O13  1  0.803149  0.750005  0.189659  1
  O  O14  1  0.303117  0.000006  0.310346  1
  O  O15  1  0.303193  0.499998  0.310378  1
  O  O16  1  0.696831  0.499989  0.689608  1
  O  O17  1  0.696863  0.999997  0.689609  1
  O  O18  1  0.196908  0.250012  0.810321  1
  O  O19  1  0.196809  0.750015  0.810415  1
  O  O20  1  0.804140  0.418227  0.188202  1
  O  O21  1  0.804036  0.918232  0.188249  1
  O  O22  1  0.804362  0.081783  0.188336  1
  O  O23  1  0.804413  0.581784  0.188366  1
  O  O24  1  0.304403  0.168206  0.311631  1
  O  O25  1  0.304407  0.668193  0.311680  1
  O  O26  1  0.304072  0.331776  0.311733  1
  O  O27  1  0.304081  0.831785  0.311808  1
  O  O28  1  0.695929  0.168204  0.688226  1
  O  O29  1  0.695853  0.668195  0.688275  1
  O  O30  1  0.695688  0.331781  0.688373  1
  O  O31  1  0.695576  0.831791  0.688355  1
  O  O32  1  0.195605  0.418224  0.811646  1
  O  O33  1  0.195607  0.918227  0.811635  1
  O  O34  1  0.195924  0.081778  0.811730  1
  O  O35  1  0.195875  0.581788  0.811753  1
