# generated using pymatgen
data_Dy2(AlPt3)3
_symmetry_space_group_name_H-M   'P 1'
_cell_length_a   7.70448264
_cell_length_b   7.69843354
_cell_length_c   10.24133586
_cell_angle_alpha   67.98970447
_cell_angle_beta   112.02033683
_cell_angle_gamma   120.14288332
_symmetry_Int_Tables_number   1
_chemical_formula_structural   Dy2(AlPt3)3
_chemical_formula_sum   'Dy4 Al6 Pt18'
_cell_volume   473.61830174
_cell_formula_units_Z   2
loop_
 _symmetry_equiv_pos_site_id
 _symmetry_equiv_pos_as_xyz
  1  'x, y, z'
loop_
 _atom_site_type_symbol
 _atom_site_label
 _atom_site_symmetry_multiplicity
 _atom_site_fract_x
 _atom_site_fract_y
 _atom_site_fract_z
 _atom_site_occupancy
  Dy  Dy0  1  0.586228  0.246419  0.250408  1
  Dy  Dy1  1  0.246528  0.586271  0.249563  1
  Dy  Dy2  1  0.413780  0.753559  0.749588  1
  Dy  Dy3  1  0.753453  0.413743  0.750443  1
  Al  Al4  1  0.500005  0.000004  0.000000  1
  Al  Al5  1  0.000012  0.500010  0.499995  1
  Al  Al6  1  0.354019  0.177682  0.499438  1
  Al  Al7  1  0.177691  0.353926  0.000633  1
  Al  Al8  1  0.645968  0.822306  0.500563  1
  Al  Al9  1  0.822301  0.646068  0.999365  1
  Pt  Pt10  1  0.136133  0.135942  0.250085  1
  Pt  Pt11  1  0.863881  0.864079  0.749912  1
  Pt  Pt12  1  0.527743  0.644348  0.076173  1
  Pt  Pt13  1  0.644476  0.527791  0.423792  1
  Pt  Pt14  1  0.472249  0.355638  0.923844  1
  Pt  Pt15  1  0.355518  0.472197  0.576193  1
  Pt  Pt16  1  0.703092  0.917496  0.252239  1
  Pt  Pt17  1  0.917521  0.703236  0.247689  1
  Pt  Pt18  1  0.296930  0.082495  0.747762  1
  Pt  Pt19  1  0.082472  0.296788  0.752311  1
  Pt  Pt20  1  0.305403  0.858538  0.425256  1
  Pt  Pt21  1  0.858899  0.305457  0.074845  1
  Pt  Pt22  1  0.694624  0.141481  0.574751  1
  Pt  Pt23  1  0.141118  0.694551  0.925167  1
  Pt  Pt24  1  0.190575  0.977830  0.071759  1
  Pt  Pt25  1  0.977857  0.190753  0.428084  1
  Pt  Pt26  1  0.809414  0.022157  0.928255  1
  Pt  Pt27  1  0.022114  0.809239  0.571889  1
