# generated using pymatgen
data_Pr8U(IrO8)3
_symmetry_space_group_name_H-M   'P 1'
_cell_length_a   5.53302825
_cell_length_b   9.53315971
_cell_length_c   10.33719980
_cell_angle_alpha   89.66724261
_cell_angle_beta   89.75503941
_cell_angle_gamma   90.01286501
_symmetry_Int_Tables_number   1
_chemical_formula_structural   Pr8U(IrO8)3
_chemical_formula_sum   'Pr8 U1 Ir3 O24'
_cell_volume   545.24458412
_cell_formula_units_Z   1
loop_
 _symmetry_equiv_pos_site_id
 _symmetry_equiv_pos_as_xyz
  1  'x, y, z'
loop_
 _atom_site_type_symbol
 _atom_site_label
 _atom_site_symmetry_multiplicity
 _atom_site_fract_x
 _atom_site_fract_y
 _atom_site_fract_z
 _atom_site_occupancy
  Pr  Pr0  1  0.034880  0.217361  0.132288  1
  Pr  Pr1  1  0.467515  0.785198  0.632576  1
  Pr  Pr2  1  0.963373  0.721790  0.362966  1
  Pr  Pr3  1  0.536924  0.279972  0.868798  1
  Pr  Pr4  1  0.025233  0.097513  0.537205  1
  Pr  Pr5  1  0.474383  0.899028  0.037736  1
  Pr  Pr6  1  0.976588  0.606007  0.971521  1
  Pr  Pr7  1  0.527917  0.394325  0.451304  1
  U  U8  1  0.041981  0.492672  0.647231  1
  Ir  Ir9  1  0.542067  0.003193  0.355234  1
  Ir  Ir10  1  0.957000  0.997735  0.857955  1
  Ir  Ir11  1  0.457016  0.502779  0.141905  1
  O  O12  1  0.429228  0.148003  0.473479  1
  O  O13  1  0.065015  0.853560  0.981186  1
  O  O14  1  0.566621  0.651842  0.024847  1
  O  O15  1  0.921901  0.340355  0.518629  1
  O  O16  1  0.721418  0.385794  0.071190  1
  O  O17  1  0.766045  0.614333  0.555621  1
  O  O18  1  0.275810  0.887843  0.434651  1
  O  O19  1  0.221296  0.112467  0.935314  1
  O  O20  1  0.252035  0.413252  0.005948  1
  O  O21  1  0.254175  0.589487  0.503383  1
  O  O22  1  0.749408  0.913133  0.491816  1
  O  O23  1  0.748785  0.088325  0.993261  1
  O  O24  1  0.187933  0.631102  0.181720  1
  O  O25  1  0.336422  0.355934  0.672306  1
  O  O26  1  0.810203  0.130725  0.317836  1
  O  O27  1  0.687630  0.871066  0.820920  1
  O  O28  1  0.338099  0.057049  0.214529  1
  O  O29  1  0.161924  0.943300  0.716656  1
  O  O30  1  0.662238  0.558184  0.281251  1
  O  O31  1  0.825455  0.453089  0.804274  1
  O  O32  1  0.320026  0.359935  0.254518  1
  O  O33  1  0.187817  0.640994  0.765768  1
  O  O34  1  0.674733  0.861815  0.241186  1
  O  O35  1  0.830906  0.140838  0.742996  1
