# generated using pymatgen
data_Cs2Nd9SmOs2Br17
_symmetry_space_group_name_H-M   'P 1'
_cell_length_a   9.57194556
_cell_length_b   11.21880017
_cell_length_c   11.21884154
_cell_angle_alpha   107.64595795
_cell_angle_beta   93.64033711
_cell_angle_gamma   93.64058811
_symmetry_Int_Tables_number   1
_chemical_formula_structural   Cs2Nd9SmOs2Br17
_chemical_formula_sum   'Cs2 Nd9 Sm1 Os2 Br17'
_cell_volume   1141.39652827
_cell_formula_units_Z   1
loop_
 _symmetry_equiv_pos_site_id
 _symmetry_equiv_pos_as_xyz
  1  'x, y, z'
loop_
 _atom_site_type_symbol
 _atom_site_label
 _atom_site_symmetry_multiplicity
 _atom_site_fract_x
 _atom_site_fract_y
 _atom_site_fract_z
 _atom_site_occupancy
  Cs  Cs0  1  0.999878  0.823424  0.176271  1
  Cs  Cs1  1  0.999878  0.176271  0.823423  1
  Nd  Nd2  1  0.573849  0.508561  0.203809  1
  Nd  Nd3  1  0.829967  0.289119  0.289118  1
  Nd  Nd4  1  0.305890  0.435795  0.435798  1
  Nd  Nd5  1  0.425565  0.802485  0.486135  1
  Nd  Nd6  1  0.573847  0.203807  0.508562  1
  Nd  Nd7  1  0.692442  0.569521  0.569522  1
  Nd  Nd8  1  0.175123  0.709119  0.709118  1
  Nd  Nd9  1  0.425568  0.486139  0.802487  1
  Nd  Nd10  1  0.560026  0.834401  0.834400  1
  Sm  Sm11  1  0.438840  0.164117  0.164116  1
  Os  Os12  1  0.570593  0.358354  0.358354  1
  Os  Os13  1  0.430147  0.641301  0.641301  1
  Br  Br14  1  0.578635  0.685554  0.021559  1
  Br  Br15  1  0.710155  0.067571  0.067571  1
  Br  Br16  1  0.855746  0.449166  0.120413  1
  Br  Br17  1  0.136153  0.204805  0.204806  1
  Br  Br18  1  0.283902  0.604531  0.255036  1
  Br  Br19  1  0.421281  0.981516  0.309531  1
  Br  Br20  1  0.715426  0.744577  0.395613  1
  Br  Br21  1  0.855746  0.120414  0.449166  1
  Br  Br22  1  0.999974  0.500234  0.500234  1
  Br  Br23  1  0.144041  0.880062  0.549531  1
  Br  Br24  1  0.283904  0.255035  0.604537  1
  Br  Br25  1  0.578634  0.021558  0.685551  1
  Br  Br26  1  0.715428  0.395614  0.744573  1
  Br  Br27  1  0.866785  0.794035  0.794035  1
  Br  Br28  1  0.144040  0.549532  0.880062  1
  Br  Br29  1  0.287258  0.933852  0.933852  1
  Br  Br30  1  0.421282  0.309532  0.981517  1
