# generated using pymatgen
data_Ba2TbPr3S8
_symmetry_space_group_name_H-M   'P 1'
_cell_length_a   4.19064400
_cell_length_b   12.50699600
_cell_length_c   14.97214100
_cell_angle_alpha   90.00000000
_cell_angle_beta   90.00000000
_cell_angle_gamma   90.00000000
_symmetry_Int_Tables_number   1
_chemical_formula_structural   Ba2TbPr3S8
_chemical_formula_sum   'Ba4 Tb2 Pr6 S16'
_cell_volume   784.72536003
_cell_formula_units_Z   2
loop_
 _symmetry_equiv_pos_site_id
 _symmetry_equiv_pos_as_xyz
  1  'x, y, z'
loop_
 _atom_site_type_symbol
 _atom_site_label
 _atom_site_symmetry_multiplicity
 _atom_site_fract_x
 _atom_site_fract_y
 _atom_site_fract_z
 _atom_site_occupancy
  Ba  Ba0  1  0.250000  0.756542  0.338232  1
  Ba  Ba1  1  0.250000  0.256542  0.161768  1
  Ba  Ba2  1  0.750000  0.242017  0.657848  1
  Ba  Ba3  1  0.750000  0.742017  0.842152  1
  Tb  Tb4  1  0.750000  0.578438  0.103848  1
  Tb  Tb5  1  0.750000  0.078438  0.396152  1
  Pr  Pr6  1  0.250000  0.427326  0.389748  1
  Pr  Pr7  1  0.250000  0.927326  0.110252  1
  Pr  Pr8  1  0.750000  0.571914  0.608273  1
  Pr  Pr9  1  0.750000  0.071914  0.891727  1
  Pr  Pr10  1  0.250000  0.421780  0.899291  1
  Pr  Pr11  1  0.250000  0.921780  0.600709  1
  S  S12  1  0.250000  0.208562  0.825826  1
  S  S13  1  0.250000  0.708562  0.674174  1
  S  S14  1  0.750000  0.786921  0.171891  1
  S  S15  1  0.750000  0.286921  0.328109  1
  S  S16  1  0.250000  0.129234  0.518256  1
  S  S17  1  0.250000  0.629234  0.981744  1
  S  S18  1  0.750000  0.875307  0.471343  1
  S  S19  1  0.750000  0.375307  0.028657  1
  S  S20  1  0.250000  0.023462  0.286747  1
  S  S21  1  0.250000  0.523462  0.213253  1
  S  S22  1  0.750000  0.979066  0.716315  1
  S  S23  1  0.750000  0.479066  0.783685  1
  S  S24  1  0.250000  0.417560  0.578493  1
  S  S25  1  0.250000  0.917560  0.921507  1
  S  S26  1  0.750000  0.581870  0.419332  1
  S  S27  1  0.750000  0.081870  0.080668  1
