# generated using pymatgen
data_Nd4Ho5LuPb8
_symmetry_space_group_name_H-M   'P 1'
_cell_length_a   8.27408400
_cell_length_b   8.33588000
_cell_length_c   15.79136400
_cell_angle_alpha   90.00000000
_cell_angle_beta   90.00000000
_cell_angle_gamma   90.00000000
_symmetry_Int_Tables_number   1
_chemical_formula_structural   Nd4Ho5LuPb8
_chemical_formula_sum   'Nd8 Ho10 Lu2 Pb16'
_cell_volume   1089.15834686
_cell_formula_units_Z   2
loop_
 _symmetry_equiv_pos_site_id
 _symmetry_equiv_pos_as_xyz
  1  'x, y, z'
loop_
 _atom_site_type_symbol
 _atom_site_label
 _atom_site_symmetry_multiplicity
 _atom_site_fract_x
 _atom_site_fract_y
 _atom_site_fract_z
 _atom_site_occupancy
  Nd  Nd0  1  0.473423  0.677469  0.597520  1
  Nd  Nd1  1  0.973423  0.822531  0.902480  1
  Nd  Nd2  1  0.526486  0.322398  0.097766  1
  Nd  Nd3  1  0.026486  0.177602  0.402234  1
  Nd  Nd4  1  0.526486  0.322398  0.402234  1
  Nd  Nd5  1  0.026486  0.177602  0.097766  1
  Nd  Nd6  1  0.473423  0.677469  0.902480  1
  Nd  Nd7  1  0.973423  0.822531  0.597520  1
  Ho  Ho8  1  0.632613  0.158297  0.622537  1
  Ho  Ho9  1  0.132613  0.341703  0.877463  1
  Ho  Ho10  1  0.367451  0.841924  0.122867  1
  Ho  Ho11  1  0.867451  0.658076  0.377133  1
  Ho  Ho12  1  0.367451  0.841924  0.377133  1
  Ho  Ho13  1  0.867451  0.658076  0.122867  1
  Ho  Ho14  1  0.632613  0.158297  0.877463  1
  Ho  Ho15  1  0.132613  0.341703  0.622537  1
  Ho  Ho16  1  0.799498  0.494355  0.750000  1
  Ho  Ho17  1  0.299498  0.005645  0.750000  1
  Lu  Lu18  1  0.200552  0.505943  0.250000  1
  Lu  Lu19  1  0.700552  0.994057  0.250000  1
  Pb  Pb20  1  0.706812  0.960237  0.455955  1
  Pb  Pb21  1  0.206812  0.539763  0.044045  1
  Pb  Pb22  1  0.293390  0.039928  0.956710  1
  Pb  Pb23  1  0.793390  0.460072  0.543290  1
  Pb  Pb24  1  0.293390  0.039928  0.543290  1
  Pb  Pb25  1  0.793390  0.460072  0.956710  1
  Pb  Pb26  1  0.706812  0.960237  0.044045  1
  Pb  Pb27  1  0.206812  0.539763  0.455955  1
  Pb  Pb28  1  0.437930  0.371389  0.750000  1
  Pb  Pb29  1  0.937930  0.128611  0.750000  1
  Pb  Pb30  1  0.561215  0.628780  0.250000  1
  Pb  Pb31  1  0.061215  0.871220  0.250000  1
  Pb  Pb32  1  0.662708  0.848537  0.750000  1
  Pb  Pb33  1  0.162708  0.651463  0.750000  1
  Pb  Pb34  1  0.337747  0.152840  0.250000  1
  Pb  Pb35  1  0.837747  0.347160  0.250000  1
