# generated using pymatgen
data_Eu4Mg(Si2Pt)5
_symmetry_space_group_name_H-M   'P 1'
_cell_length_a   8.39231937
_cell_length_b   8.39231962
_cell_length_c   8.39231928
_cell_angle_alpha   138.09668592
_cell_angle_beta   104.96474632
_cell_angle_gamma   89.85689459
_symmetry_Int_Tables_number   1
_chemical_formula_structural   Eu4Mg(Si2Pt)5
_chemical_formula_sum   'Eu4 Mg1 Si10 Pt5'
_cell_volume   364.52494493
_cell_formula_units_Z   1
loop_
 _symmetry_equiv_pos_site_id
 _symmetry_equiv_pos_as_xyz
  1  'x, y, z'
loop_
 _atom_site_type_symbol
 _atom_site_label
 _atom_site_symmetry_multiplicity
 _atom_site_fract_x
 _atom_site_fract_y
 _atom_site_fract_z
 _atom_site_occupancy
  Eu  Eu0  1  0.107916  0.869456  0.230347  1
  Eu  Eu1  1  0.892084  0.122430  0.761540  1
  Eu  Eu2  1  0.639109  0.377570  0.269653  1
  Eu  Eu3  1  0.360891  0.630544  0.738460  1
  Mg  Mg4  1  0.500000  0.750000  0.250000  1
  Si  Si5  1  0.000000  0.750000  0.750000  1
  Si  Si6  1  0.000000  0.250000  0.250000  1
  Si  Si7  1  0.270966  0.020966  0.750000  1
  Si  Si8  1  0.729034  0.479034  0.750000  1
  Si  Si9  1  0.734416  0.984416  0.250000  1
  Si  Si10  1  0.265584  0.515584  0.250000  1
  Si  Si11  1  0.772773  0.608175  0.142535  1
  Si  Si12  1  0.227227  0.369762  0.835403  1
  Si  Si13  1  0.465640  0.130238  0.357465  1
  Si  Si14  1  0.534360  0.891825  0.664597  1
  Pt  Pt15  1  0.500000  0.250000  0.750000  1
  Pt  Pt16  1  0.025041  0.635060  0.389025  1
  Pt  Pt17  1  0.974959  0.363984  0.610019  1
  Pt  Pt18  1  0.246035  0.136016  0.110975  1
  Pt  Pt19  1  0.753965  0.864940  0.889981  1
