# generated using pymatgen
data_YbSc3Al18IrPd5
_symmetry_space_group_name_H-M   'P 1'
_cell_length_a   7.55578700
_cell_length_b   7.55056972
_cell_length_c   9.35243617
_cell_angle_alpha   90.00872011
_cell_angle_beta   90.02126681
_cell_angle_gamma   119.66184024
_symmetry_Int_Tables_number   1
_chemical_formula_structural   YbSc3Al18IrPd5
_chemical_formula_sum   'Yb1 Sc3 Al18 Ir1 Pd5'
_cell_volume   463.64390660
_cell_formula_units_Z   1
loop_
 _symmetry_equiv_pos_site_id
 _symmetry_equiv_pos_as_xyz
  1  'x, y, z'
loop_
 _atom_site_type_symbol
 _atom_site_label
 _atom_site_symmetry_multiplicity
 _atom_site_fract_x
 _atom_site_fract_y
 _atom_site_fract_z
 _atom_site_occupancy
  Yb  Yb0  1  0.329413  0.004982  0.749304  1
  Sc  Sc1  1  0.995533  0.670748  0.250733  1
  Sc  Sc2  1  0.004518  0.329973  0.749199  1
  Sc  Sc3  1  0.669523  0.994652  0.250875  1
  Al  Al4  1  0.123954  0.125478  0.250973  1
  Al  Al5  1  0.869949  0.873081  0.747997  1
  Al  Al6  1  0.995827  0.334694  0.082560  1
  Al  Al7  1  0.999899  0.661441  0.922869  1
  Al  Al8  1  0.001025  0.666033  0.574302  1
  Al  Al9  1  0.331577  0.996493  0.418421  1
  Al  Al10  1  0.995619  0.331709  0.420495  1
  Al  Al11  1  0.671394  0.003345  0.575107  1
  Al  Al12  1  0.668425  0.002591  0.922257  1
  Al  Al13  1  0.335044  0.996889  0.084668  1
  Al  Al14  1  0.327331  0.329768  0.556023  1
  Al  Al15  1  0.672826  0.672789  0.435931  1
  Al  Al16  1  0.670344  0.670318  0.066342  1
  Al  Al17  1  0.330906  0.333829  0.942116  1
  Al  Al18  1  0.340334  0.551797  0.250621  1
  Al  Al19  1  0.664192  0.453977  0.749555  1
  Al  Al20  1  0.554385  0.341418  0.250862  1
  Al  Al21  1  0.447817  0.654606  0.749301  1
  Ir  Ir22  1  0.999440  0.999342  0.498579  1
  Pd  Pd23  1  0.671774  0.327259  0.000460  1
  Pd  Pd24  1  0.328288  0.673000  0.000798  1
  Pd  Pd25  1  0.328324  0.672583  0.499221  1
  Pd  Pd26  1  0.672153  0.327892  0.499953  1
  Pd  Pd27  1  0.000184  0.999312  0.000476  1
