# generated using pymatgen
data_Dy4V3Si12Ni17
_symmetry_space_group_name_H-M   'P 1'
_cell_length_a   3.74904500
_cell_length_b   10.64312849
_cell_length_c   12.03483325
_cell_angle_alpha   89.45103885
_cell_angle_beta   90.00000000
_cell_angle_gamma   90.00000000
_symmetry_Int_Tables_number   1
_chemical_formula_structural   Dy4V3Si12Ni17
_chemical_formula_sum   'Dy4 V3 Si12 Ni17'
_cell_volume   480.18667191
_cell_formula_units_Z   1
loop_
 _symmetry_equiv_pos_site_id
 _symmetry_equiv_pos_as_xyz
  1  'x, y, z'
loop_
 _atom_site_type_symbol
 _atom_site_label
 _atom_site_symmetry_multiplicity
 _atom_site_fract_x
 _atom_site_fract_y
 _atom_site_fract_z
 _atom_site_occupancy
  Dy  Dy0  1  0.250000  0.581041  0.702119  1
  Dy  Dy1  1  0.250000  0.914258  0.202490  1
  Dy  Dy2  1  0.750000  0.414844  0.296986  1
  Dy  Dy3  1  0.750000  0.083436  0.793434  1
  V  V4  1  0.250000  0.702135  0.990326  1
  V  V5  1  0.250000  0.794761  0.490658  1
  V  V6  1  0.750000  0.298344  0.009368  1
  Si  Si7  1  0.250000  0.415494  0.113639  1
  Si  Si8  1  0.250000  0.090570  0.605311  1
  Si  Si9  1  0.750000  0.583874  0.886344  1
  Si  Si10  1  0.750000  0.913141  0.386648  1
  Si  Si11  1  0.250000  0.269881  0.867439  1
  Si  Si12  1  0.250000  0.228513  0.376174  1
  Si  Si13  1  0.750000  0.728777  0.131370  1
  Si  Si14  1  0.750000  0.773390  0.631982  1
  Si  Si15  1  0.250000  0.596449  0.392262  1
  Si  Si16  1  0.250000  0.902507  0.892507  1
  Si  Si17  1  0.750000  0.395987  0.606417  1
  Si  Si18  1  0.750000  0.099017  0.110935  1
  Ni  Ni19  1  0.750000  0.210181  0.509160  1
  Ni  Ni20  1  0.250000  0.406590  0.490143  1
  Ni  Ni21  1  0.250000  0.094346  0.992042  1
  Ni  Ni22  1  0.750000  0.593511  0.510773  1
  Ni  Ni23  1  0.750000  0.907690  0.010637  1
  Ni  Ni24  1  0.250000  0.214042  0.179743  1
  Ni  Ni25  1  0.250000  0.284019  0.676637  1
  Ni  Ni26  1  0.750000  0.786725  0.824045  1
  Ni  Ni27  1  0.750000  0.712859  0.324192  1
  Ni  Ni28  1  0.250000  0.887661  0.697501  1
  Ni  Ni29  1  0.250000  0.615545  0.198999  1
  Ni  Ni30  1  0.750000  0.117037  0.303669  1
  Ni  Ni31  1  0.750000  0.384497  0.800730  1
  Ni  Ni32  1  0.250000  0.470411  0.930171  1
  Ni  Ni33  1  0.250000  0.026045  0.426565  1
  Ni  Ni34  1  0.750000  0.529243  0.070369  1
  Ni  Ni35  1  0.750000  0.973179  0.568214  1
