# generated using pymatgen
data_Ho4Er4VOs3C8
_symmetry_space_group_name_H-M   'P 1'
_cell_length_a   5.05911700
_cell_length_b   6.49766252
_cell_length_c   9.75357202
_cell_angle_alpha   89.81125874
_cell_angle_beta   90.00000000
_cell_angle_gamma   90.00000000
_symmetry_Int_Tables_number   1
_chemical_formula_structural   Ho4Er4VOs3C8
_chemical_formula_sum   'Ho4 Er4 V1 Os3 C8'
_cell_volume   320.62192152
_cell_formula_units_Z   1
loop_
 _symmetry_equiv_pos_site_id
 _symmetry_equiv_pos_as_xyz
  1  'x, y, z'
loop_
 _atom_site_type_symbol
 _atom_site_label
 _atom_site_symmetry_multiplicity
 _atom_site_fract_x
 _atom_site_fract_y
 _atom_site_fract_z
 _atom_site_occupancy
  Ho  Ho0  1  0.250000  0.533168  0.213404  1
  Ho  Ho1  1  0.750000  0.468177  0.780128  1
  Ho  Ho2  1  0.750000  0.972258  0.716469  1
  Ho  Ho3  1  0.250000  0.029498  0.283411  1
  Er  Er4  1  0.250000  0.682345  0.558341  1
  Er  Er5  1  0.750000  0.321993  0.444124  1
  Er  Er6  1  0.750000  0.820381  0.055131  1
  Er  Er7  1  0.250000  0.174994  0.942010  1
  V  V8  1  0.250000  0.722812  0.866916  1
  Os  Os9  1  0.750000  0.278124  0.133823  1
  Os  Os10  1  0.750000  0.777341  0.365003  1
  Os  Os11  1  0.250000  0.225320  0.634405  1
  C  C12  1  0.250000  0.458545  0.762599  1
  C  C13  1  0.750000  0.542619  0.242180  1
  C  C14  1  0.750000  0.043438  0.259015  1
  C  C15  1  0.250000  0.955847  0.741345  1
  C  C16  1  0.250000  0.820786  0.051743  1
  C  C17  1  0.750000  0.173374  0.950172  1
  C  C18  1  0.750000  0.674888  0.551656  1
  C  C19  1  0.250000  0.324092  0.448126  1
