# generated using pymatgen
data_Y2U(AlCo)3
_symmetry_space_group_name_H-M   'P 1'
_cell_length_a   3.57548500
_cell_length_b   7.11567131
_cell_length_c   7.20533094
_cell_angle_alpha   120.41707452
_cell_angle_beta   90.00000000
_cell_angle_gamma   90.00000000
_symmetry_Int_Tables_number   1
_chemical_formula_structural   Y2U(AlCo)3
_chemical_formula_sum   'Y2 U1 Al3 Co3'
_cell_volume   158.08650579
_cell_formula_units_Z   1
loop_
 _symmetry_equiv_pos_site_id
 _symmetry_equiv_pos_as_xyz
  1  'x, y, z'
loop_
 _atom_site_type_symbol
 _atom_site_label
 _atom_site_symmetry_multiplicity
 _atom_site_fract_x
 _atom_site_fract_y
 _atom_site_fract_z
 _atom_site_occupancy
  Y  Y0  1  0.500000  0.584648  0.001765  1
  Y  Y1  1  0.500000  0.415328  0.417154  1
  U  U2  1  0.500000  0.999974  0.572508  1
  Al  Al3  1  0.000000  0.236477  0.995241  1
  Al  Al4  1  0.000000  0.763424  0.758762  1
  Al  Al5  1  0.000000  0.999999  0.227717  1
  Co  Co6  1  0.000000  0.276463  0.657489  1
  Co  Co7  1  0.000000  0.723599  0.381088  1
  Co  Co8  1  0.500000  0.999988  0.988278  1
