# generated using pymatgen
data_Tb6IrPd2Au5
_symmetry_space_group_name_H-M   'P 1'
_cell_length_a   8.10325906
_cell_length_b   8.04666176
_cell_length_c   8.08472243
_cell_angle_alpha   114.34523825
_cell_angle_beta   114.59874823
_cell_angle_gamma   114.07229007
_symmetry_Int_Tables_number   1
_chemical_formula_structural   Tb6IrPd2Au5
_chemical_formula_sum   'Tb6 Ir1 Pd2 Au5'
_cell_volume   312.06304907
_cell_formula_units_Z   1
loop_
 _symmetry_equiv_pos_site_id
 _symmetry_equiv_pos_as_xyz
  1  'x, y, z'
loop_
 _atom_site_type_symbol
 _atom_site_label
 _atom_site_symmetry_multiplicity
 _atom_site_fract_x
 _atom_site_fract_y
 _atom_site_fract_z
 _atom_site_occupancy
  Tb  Tb0  1  0.980778  0.610079  0.732974  1
  Tb  Tb1  1  0.723328  0.973054  0.605376  1
  Tb  Tb2  1  0.615561  0.732020  0.978108  1
  Tb  Tb3  1  0.029952  0.389602  0.268807  1
  Tb  Tb4  1  0.265536  0.021220  0.383279  1
  Tb  Tb5  1  0.382171  0.273383  0.025287  1
  Ir  Ir6  1  0.996736  0.996403  0.994991  1
  Pd  Pd7  1  0.501945  0.500802  0.500429  1
  Pd  Pd8  1  0.230348  0.563414  0.069100  1
  Au  Au9  1  0.933337  0.769401  0.437774  1
  Au  Au10  1  0.439080  0.937942  0.773883  1
  Au  Au11  1  0.773099  0.435808  0.930136  1
  Au  Au12  1  0.069735  0.236436  0.569593  1
  Au  Au13  1  0.558394  0.060436  0.230264  1
