# generated using pymatgen
data_Sm8AlPd17Pt7
_symmetry_space_group_name_H-M   'P 1'
_cell_length_a   8.47263900
_cell_length_b   8.46777300
_cell_length_c   8.48288500
_cell_angle_alpha   90.00000000
_cell_angle_beta   90.00000000
_cell_angle_gamma   90.00000000
_symmetry_Int_Tables_number   1
_chemical_formula_structural   Sm8AlPd17Pt7
_chemical_formula_sum   'Sm8 Al1 Pd17 Pt7'
_cell_volume   608.59935686
_cell_formula_units_Z   1
loop_
 _symmetry_equiv_pos_site_id
 _symmetry_equiv_pos_as_xyz
  1  'x, y, z'
loop_
 _atom_site_type_symbol
 _atom_site_label
 _atom_site_symmetry_multiplicity
 _atom_site_fract_x
 _atom_site_fract_y
 _atom_site_fract_z
 _atom_site_occupancy
  Sm  Sm0  1  0.250162  0.250587  0.249863  1
  Sm  Sm1  1  0.749748  0.749748  0.749554  1
  Sm  Sm2  1  0.749748  0.749748  0.250446  1
  Sm  Sm3  1  0.749748  0.250252  0.749554  1
  Sm  Sm4  1  0.250162  0.250587  0.750137  1
  Sm  Sm5  1  0.250162  0.749413  0.249863  1
  Sm  Sm6  1  0.250162  0.749413  0.750137  1
  Sm  Sm7  1  0.749748  0.250252  0.250446  1
  Al  Al8  1  0.001116  0.000000  0.000000  1
  Pd  Pd9  1  0.736436  0.500000  0.000000  1
  Pd  Pd10  1  0.000032  0.263172  0.500000  1
  Pd  Pd11  1  0.499971  0.263062  0.000000  1
  Pd  Pd12  1  0.000032  0.736828  0.500000  1
  Pd  Pd13  1  0.499971  0.736938  0.000000  1
  Pd  Pd14  1  0.500195  0.000000  0.263354  1
  Pd  Pd15  1  0.263483  0.000000  0.500000  1
  Pd  Pd16  1  0.500195  0.000000  0.736646  1
  Pd  Pd17  1  0.736812  0.000000  0.500000  1
  Pd  Pd18  1  0.999793  0.500000  0.263786  1
  Pd  Pd19  1  0.999793  0.500000  0.736214  1
  Pd  Pd20  1  0.254644  0.500000  0.500000  1
  Pd  Pd21  1  0.744807  0.500000  0.500000  1
  Pd  Pd22  1  0.500087  0.254730  0.500000  1
  Pd  Pd23  1  0.500087  0.745270  0.500000  1
  Pd  Pd24  1  0.499758  0.500000  0.254590  1
  Pd  Pd25  1  0.499758  0.500000  0.745410  1
  Pt  Pt26  1  0.262807  0.500000  0.000000  1
  Pt  Pt27  1  0.295781  0.000000  0.000000  1
  Pt  Pt28  1  0.705220  0.000000  0.000000  1
  Pt  Pt29  1  0.999697  0.295857  0.000000  1
  Pt  Pt30  1  0.999697  0.704143  0.000000  1
  Pt  Pt31  1  0.000092  0.000000  0.295475  1
  Pt  Pt32  1  0.000092  0.000000  0.704525  1
