# generated using pymatgen
data_ErTh(CdRh)2
_symmetry_space_group_name_H-M   'P 1'
_cell_length_a   3.90050200
_cell_length_b   7.40221522
_cell_length_c   9.18473500
_cell_angle_alpha   92.85926656
_cell_angle_beta   90.00000000
_cell_angle_gamma   90.00000000
_symmetry_Int_Tables_number   1
_chemical_formula_structural   ErTh(CdRh)2
_chemical_formula_sum   'Er2 Th2 Cd4 Rh4'
_cell_volume   264.85479601
_cell_formula_units_Z   2
loop_
 _symmetry_equiv_pos_site_id
 _symmetry_equiv_pos_as_xyz
  1  'x, y, z'
loop_
 _atom_site_type_symbol
 _atom_site_label
 _atom_site_symmetry_multiplicity
 _atom_site_fract_x
 _atom_site_fract_y
 _atom_site_fract_z
 _atom_site_occupancy
  Er  Er0  1  0.750000  0.951710  0.682318  1
  Er  Er1  1  0.250000  0.048290  0.317682  1
  Th  Th2  1  0.250000  0.543228  0.191953  1
  Th  Th3  1  0.750000  0.456772  0.808047  1
  Cd  Cd4  1  0.250000  0.647048  0.553223  1
  Cd  Cd5  1  0.750000  0.352952  0.446777  1
  Cd  Cd6  1  0.750000  0.872278  0.059244  1
  Cd  Cd7  1  0.250000  0.127722  0.940756  1
  Rh  Rh8  1  0.250000  0.721560  0.858398  1
  Rh  Rh9  1  0.750000  0.278440  0.141602  1
  Rh  Rh10  1  0.750000  0.764106  0.349377  1
  Rh  Rh11  1  0.250000  0.235894  0.650623  1
