# generated using pymatgen
data_Sr10Sn3Pb3F2
_symmetry_space_group_name_H-M   'P 1'
_cell_length_a   8.71477390
_cell_length_b   8.71478389
_cell_length_c   10.10743407
_cell_angle_alpha   115.24436359
_cell_angle_beta   115.24429803
_cell_angle_gamma   90.01523070
_symmetry_Int_Tables_number   1
_chemical_formula_structural   Sr10Sn3Pb3F2
_chemical_formula_sum   'Sr10 Sn3 Pb3 F2'
_cell_volume   612.24890007
_cell_formula_units_Z   1
loop_
 _symmetry_equiv_pos_site_id
 _symmetry_equiv_pos_as_xyz
  1  'x, y, z'
loop_
 _atom_site_type_symbol
 _atom_site_label
 _atom_site_symmetry_multiplicity
 _atom_site_fract_x
 _atom_site_fract_y
 _atom_site_fract_z
 _atom_site_occupancy
  Sr  Sr0  1  0.997792  0.001351  0.999984  1
  Sr  Sr1  1  0.501351  0.497792  0.999984  1
  Sr  Sr2  1  0.491688  0.312340  0.301813  1
  Sr  Sr3  1  0.990419  0.490421  0.302777  1
  Sr  Sr4  1  0.310794  0.810793  0.303142  1
  Sr  Sr5  1  0.812338  0.991688  0.301815  1
  Sr  Sr6  1  0.189814  0.010318  0.698307  1
  Sr  Sr7  1  0.688955  0.188955  0.698706  1
  Sr  Sr8  1  0.007453  0.507452  0.695321  1
  Sr  Sr9  1  0.510317  0.689814  0.698307  1
  Sn  Sn10  1  0.623503  0.123503  0.999811  1
  Sn  Sn11  1  0.122604  0.378245  0.999959  1
  Sn  Sn12  1  0.878246  0.622603  0.999959  1
  Pb  Pb13  1  0.373363  0.873363  0.999918  1
  Pb  Pb14  1  0.249962  0.251376  0.500052  1
  Pb  Pb15  1  0.751376  0.749962  0.500052  1
  F  F16  1  0.749861  0.249861  0.499382  1
  F  F17  1  0.250166  0.750165  0.500711  1
