# generated using pymatgen
data_Ce4CuIr3Pb2
_symmetry_space_group_name_H-M   'P 1'
_cell_length_a   7.83932856
_cell_length_b   7.83932856
_cell_length_c   3.71538200
_cell_angle_alpha   90.00000000
_cell_angle_beta   90.00000000
_cell_angle_gamma   89.68532820
_symmetry_Int_Tables_number   1
_chemical_formula_structural   Ce4CuIr3Pb2
_chemical_formula_sum   'Ce4 Cu1 Ir3 Pb2'
_cell_volume   228.32562564
_cell_formula_units_Z   1
loop_
 _symmetry_equiv_pos_site_id
 _symmetry_equiv_pos_as_xyz
  1  'x, y, z'
loop_
 _atom_site_type_symbol
 _atom_site_label
 _atom_site_symmetry_multiplicity
 _atom_site_fract_x
 _atom_site_fract_y
 _atom_site_fract_z
 _atom_site_occupancy
  Ce  Ce0  1  0.313612  0.165639  0.500001  1
  Ce  Ce1  1  0.840503  0.340503  0.500001  1
  Ce  Ce2  1  0.175317  0.675318  0.500001  1
  Ce  Ce3  1  0.665640  0.813612  0.500001  1
  Cu  Cu4  1  0.626399  0.126398  0.000000  1
  Ir  Ir5  1  0.132796  0.370382  0.000000  1
  Ir  Ir6  1  0.870383  0.632797  0.000000  1
  Ir  Ir7  1  0.386523  0.886524  0.000000  1
  Pb  Pb8  1  0.989243  0.999584  0.000000  1
  Pb  Pb9  1  0.499583  0.489242  0.000000  1
