# generated using pymatgen
data_K9Rb3(MnN2)8
_symmetry_space_group_name_H-M   'P 1'
_cell_length_a   6.31263725
_cell_length_b   9.55402171
_cell_length_c   10.51533381
_cell_angle_alpha   89.77767325
_cell_angle_beta   90.08610726
_cell_angle_gamma   89.53746434
_symmetry_Int_Tables_number   1
_chemical_formula_structural   K9Rb3(MnN2)8
_chemical_formula_sum   'K9 Rb3 Mn8 N16'
_cell_volume   634.16488241
_cell_formula_units_Z   1
loop_
 _symmetry_equiv_pos_site_id
 _symmetry_equiv_pos_as_xyz
  1  'x, y, z'
loop_
 _atom_site_type_symbol
 _atom_site_label
 _atom_site_symmetry_multiplicity
 _atom_site_fract_x
 _atom_site_fract_y
 _atom_site_fract_z
 _atom_site_occupancy
  K  K0  1  0.640862  0.149951  0.413990  1
  K  K1  1  0.855149  0.843225  0.420478  1
  K  K2  1  0.645365  0.345245  0.084124  1
  K  K3  1  0.854693  0.654271  0.084175  1
  K  K4  1  0.360043  0.847271  0.582977  1
  K  K5  1  0.746528  0.497469  0.413215  1
  K  K6  1  0.750961  0.999893  0.086124  1
  K  K7  1  0.248596  0.504245  0.588020  1
  K  K8  1  0.250682  0.999863  0.911242  1
  Rb  Rb9  1  0.151420  0.157350  0.578015  1
  Rb  Rb10  1  0.349443  0.659278  0.919202  1
  Rb  Rb11  1  0.152902  0.342149  0.917038  1
  Mn  Mn12  1  0.748977  0.501901  0.738892  1
  Mn  Mn13  1  0.754735  0.000968  0.760029  1
  Mn  Mn14  1  0.247780  0.498551  0.264361  1
  Mn  Mn15  1  0.247681  0.998709  0.235832  1
  Mn  Mn16  1  0.711535  0.251375  0.749329  1
  Mn  Mn17  1  0.791760  0.751190  0.749930  1
  Mn  Mn18  1  0.289984  0.748550  0.252028  1
  Mn  Mn19  1  0.205360  0.248938  0.248748  1
  N  N20  1  0.870228  0.363396  0.648560  1
  N  N21  1  0.629769  0.643156  0.648118  1
  N  N22  1  0.870278  0.139086  0.851887  1
  N  N23  1  0.632786  0.863594  0.850754  1
  N  N24  1  0.125247  0.639904  0.352044  1
  N  N25  1  0.363668  0.355282  0.354105  1
  N  N26  1  0.133434  0.856984  0.145707  1
  N  N27  1  0.370369  0.140214  0.148297  1
  N  N28  1  0.573080  0.394852  0.829867  1
  N  N29  1  0.926501  0.606298  0.830747  1
  N  N30  1  0.576966  0.107314  0.668018  1
  N  N31  1  0.937040  0.892523  0.671774  1
  N  N32  1  0.434881  0.602781  0.177835  1
  N  N33  1  0.065863  0.396399  0.172733  1
  N  N34  1  0.426301  0.893873  0.330406  1
  N  N35  1  0.059133  0.103953  0.321403  1
