# generated using pymatgen
data_Ho2TmAl12Ru3Rh
_symmetry_space_group_name_H-M   'P 1'
_cell_length_a   8.76064713
_cell_length_b   8.76359088
_cell_length_c   9.56872900
_cell_angle_alpha   90.00000000
_cell_angle_beta   90.00000000
_cell_angle_gamma   119.78075485
_symmetry_Int_Tables_number   1
_chemical_formula_structural   Ho2TmAl12Ru3Rh
_chemical_formula_sum   'Ho4 Tm2 Al24 Ru6 Rh2'
_cell_volume   637.61482328
_cell_formula_units_Z   2
loop_
 _symmetry_equiv_pos_site_id
 _symmetry_equiv_pos_as_xyz
  1  'x, y, z'
loop_
 _atom_site_type_symbol
 _atom_site_label
 _atom_site_symmetry_multiplicity
 _atom_site_fract_x
 _atom_site_fract_y
 _atom_site_fract_z
 _atom_site_occupancy
  Ho  Ho0  1  0.805579  0.194437  0.750000  1
  Ho  Ho1  1  0.194421  0.805563  0.250000  1
  Ho  Ho2  1  0.386008  0.189378  0.750000  1
  Ho  Ho3  1  0.613992  0.810622  0.250000  1
  Tm  Tm4  1  0.810408  0.613170  0.750000  1
  Tm  Tm5  1  0.189592  0.386830  0.250000  1
  Al  Al6  1  0.667316  0.332977  0.978886  1
  Al  Al7  1  0.332684  0.667023  0.021114  1
  Al  Al8  1  0.332684  0.667023  0.478886  1
  Al  Al9  1  0.667316  0.332977  0.521114  1
  Al  Al10  1  0.837011  0.163215  0.422079  1
  Al  Al11  1  0.162989  0.836785  0.577921  1
  Al  Al12  1  0.324928  0.161681  0.421495  1
  Al  Al13  1  0.162989  0.836785  0.922079  1
  Al  Al14  1  0.675072  0.838319  0.578505  1
  Al  Al15  1  0.837011  0.163215  0.077921  1
  Al  Al16  1  0.838362  0.674989  0.421674  1
  Al  Al17  1  0.675072  0.838319  0.921495  1
  Al  Al18  1  0.161638  0.325011  0.578326  1
  Al  Al19  1  0.324928  0.161681  0.078505  1
  Al  Al20  1  0.161638  0.325011  0.921674  1
  Al  Al21  1  0.838362  0.674989  0.078326  1
  Al  Al22  1  0.438998  0.561321  0.750000  1
  Al  Al23  1  0.561002  0.438679  0.250000  1
  Al  Al24  1  0.124008  0.561281  0.750000  1
  Al  Al25  1  0.875992  0.438719  0.250000  1
  Al  Al26  1  0.438783  0.875734  0.750000  1
  Al  Al27  1  0.561217  0.124266  0.250000  1
  Al  Al28  1  0.000238  0.999180  0.750000  1
  Al  Al29  1  0.999762  0.000820  0.250000  1
  Ru  Ru30  1  0.000000  0.500000  0.000000  1
  Ru  Ru31  1  0.500000  0.000000  0.000000  1
  Ru  Ru32  1  0.000000  0.500000  0.500000  1
  Ru  Ru33  1  0.500000  0.000000  0.500000  1
  Ru  Ru34  1  0.000000  0.000000  0.000000  1
  Ru  Ru35  1  0.000000  0.000000  0.500000  1
  Rh  Rh36  1  0.500000  0.500000  0.000000  1
  Rh  Rh37  1  0.500000  0.500000  0.500000  1
