# generated using pymatgen
data_Sr2PClO4
_symmetry_space_group_name_H-M   'P 1'
_cell_length_a   8.96145100
_cell_length_b   8.53818527
_cell_length_c   9.05368500
_cell_angle_alpha   65.70681662
_cell_angle_beta   90.00000000
_cell_angle_gamma   90.00000000
_symmetry_Int_Tables_number   1
_chemical_formula_structural   Sr2PClO4
_chemical_formula_sum   'Sr8 P4 Cl4 O16'
_cell_volume   631.39799815
_cell_formula_units_Z   4
loop_
 _symmetry_equiv_pos_site_id
 _symmetry_equiv_pos_as_xyz
  1  'x, y, z'
loop_
 _atom_site_type_symbol
 _atom_site_label
 _atom_site_symmetry_multiplicity
 _atom_site_fract_x
 _atom_site_fract_y
 _atom_site_fract_z
 _atom_site_occupancy
  Sr  Sr0  1  0.299763  0.458203  0.149927  1
  Sr  Sr1  1  0.799763  0.041797  0.850073  1
  Sr  Sr2  1  0.700237  0.541797  0.850073  1
  Sr  Sr3  1  0.200237  0.958203  0.149927  1
  Sr  Sr4  1  0.323651  0.968292  0.734484  1
  Sr  Sr5  1  0.823651  0.531708  0.265516  1
  Sr  Sr6  1  0.676349  0.031708  0.265516  1
  Sr  Sr7  1  0.176349  0.468292  0.734484  1
  P  P8  1  0.049040  0.746623  0.952003  1
  P  P9  1  0.549040  0.753377  0.047997  1
  P  P10  1  0.950960  0.253377  0.047997  1
  P  P11  1  0.450960  0.246623  0.952003  1
  Cl  Cl12  1  0.830596  0.693617  0.508208  1
  Cl  Cl13  1  0.330596  0.806383  0.491792  1
  Cl  Cl14  1  0.169404  0.306383  0.491792  1
  Cl  Cl15  1  0.669404  0.193617  0.508208  1
  O  O16  1  0.072363  0.662147  0.140247  1
  O  O17  1  0.572363  0.837853  0.859753  1
  O  O18  1  0.927637  0.337853  0.859753  1
  O  O19  1  0.427637  0.162147  0.140247  1
  O  O20  1  0.115887  0.277367  0.084041  1
  O  O21  1  0.615887  0.222633  0.915959  1
  O  O22  1  0.884113  0.722633  0.915959  1
  O  O23  1  0.384113  0.777367  0.084041  1
  O  O24  1  0.663560  0.829865  0.129311  1
  O  O25  1  0.163560  0.670135  0.870689  1
  O  O26  1  0.336440  0.170135  0.870689  1
  O  O27  1  0.836440  0.329865  0.129311  1
  O  O28  1  0.418826  0.443733  0.886004  1
  O  O29  1  0.918826  0.056267  0.113996  1
  O  O30  1  0.581174  0.556267  0.113996  1
  O  O31  1  0.081174  0.943733  0.886004  1
