# generated using pymatgen
data_Zr2PaZnPt12
_symmetry_space_group_name_H-M   'P 1'
_cell_length_a   5.73918200
_cell_length_b   5.73918280
_cell_length_c   9.37047300
_cell_angle_alpha   90.00232142
_cell_angle_beta   89.99768019
_cell_angle_gamma   119.99905357
_symmetry_Int_Tables_number   1
_chemical_formula_structural   Zr2PaZnPt12
_chemical_formula_sum   'Zr2 Pa1 Zn1 Pt12'
_cell_volume   267.29838922
_cell_formula_units_Z   1
loop_
 _symmetry_equiv_pos_site_id
 _symmetry_equiv_pos_as_xyz
  1  'x, y, z'
loop_
 _atom_site_type_symbol
 _atom_site_label
 _atom_site_symmetry_multiplicity
 _atom_site_fract_x
 _atom_site_fract_y
 _atom_site_fract_z
 _atom_site_occupancy
  Zr  Zr0  1  0.999999  0.000001  0.000742  1
  Zr  Zr1  1  0.666671  0.333329  0.752535  1
  Pa  Pa2  1  0.999997  0.000003  0.497565  1
  Zn  Zn3  1  0.333331  0.666669  0.249012  1
  Pt  Pt4  1  0.500110  0.499890  0.499170  1
  Pt  Pt5  1  0.500109  0.000230  0.499169  1
  Pt  Pt6  1  0.999770  0.499891  0.499169  1
  Pt  Pt7  1  0.500092  0.499908  0.001071  1
  Pt  Pt8  1  0.500092  0.000196  0.001079  1
  Pt  Pt9  1  0.999804  0.499908  0.001079  1
  Pt  Pt10  1  0.830327  0.660628  0.247843  1
  Pt  Pt11  1  0.339372  0.169673  0.247843  1
  Pt  Pt12  1  0.830338  0.169662  0.247840  1
  Pt  Pt13  1  0.170199  0.340405  0.751962  1
  Pt  Pt14  1  0.659595  0.829801  0.751962  1
  Pt  Pt15  1  0.170192  0.829808  0.751957  1
