# generated using pymatgen
data_Tb2ErCd3Pb2Au
_symmetry_space_group_name_H-M   'P 1'
_cell_length_a   7.57137999
_cell_length_b   7.57138043
_cell_length_c   4.57158400
_cell_angle_alpha   90.00000000
_cell_angle_beta   90.00000000
_cell_angle_gamma   119.97838978
_symmetry_Int_Tables_number   1
_chemical_formula_structural   Tb2ErCd3Pb2Au
_chemical_formula_sum   'Tb2 Er1 Cd3 Pb2 Au1'
_cell_volume   227.00842575
_cell_formula_units_Z   1
loop_
 _symmetry_equiv_pos_site_id
 _symmetry_equiv_pos_as_xyz
  1  'x, y, z'
loop_
 _atom_site_type_symbol
 _atom_site_label
 _atom_site_symmetry_multiplicity
 _atom_site_fract_x
 _atom_site_fract_y
 _atom_site_fract_z
 _atom_site_occupancy
  Tb  Tb0  1  0.596979  0.999957  0.000000  1
  Tb  Tb1  1  0.999957  0.596979  0.000000  1
  Er  Er2  1  0.402311  0.402311  0.000000  1
  Cd  Cd3  1  0.235861  0.000372  0.500000  1
  Cd  Cd4  1  0.000372  0.235861  0.500000  1
  Cd  Cd5  1  0.764054  0.764054  0.500000  1
  Pb  Pb6  1  0.333580  0.665659  0.500000  1
  Pb  Pb7  1  0.665659  0.333580  0.500000  1
  Au  Au8  1  0.001228  0.001228  0.000000  1
