# generated using pymatgen
data_CaTb(Ga2Ag)2
_symmetry_space_group_name_H-M   'P 1'
_cell_length_a   4.37774500
_cell_length_b   7.02612082
_cell_length_c   10.45472699
_cell_angle_alpha   89.00137758
_cell_angle_beta   90.00000000
_cell_angle_gamma   90.00000000
_symmetry_Int_Tables_number   1
_chemical_formula_structural   CaTb(Ga2Ag)2
_chemical_formula_sum   'Ca2 Tb2 Ga8 Ag4'
_cell_volume   321.52356046
_cell_formula_units_Z   2
loop_
 _symmetry_equiv_pos_site_id
 _symmetry_equiv_pos_as_xyz
  1  'x, y, z'
loop_
 _atom_site_type_symbol
 _atom_site_label
 _atom_site_symmetry_multiplicity
 _atom_site_fract_x
 _atom_site_fract_y
 _atom_site_fract_z
 _atom_site_occupancy
  Ca  Ca0  1  0.250000  0.775948  0.827204  1
  Ca  Ca1  1  0.750000  0.224052  0.172796  1
  Tb  Tb2  1  0.750000  0.721692  0.329790  1
  Tb  Tb3  1  0.250000  0.278308  0.670210  1
  Ga  Ga4  1  0.250000  0.924146  0.153308  1
  Ga  Ga5  1  0.750000  0.075854  0.846692  1
  Ga  Ga6  1  0.750000  0.573402  0.649587  1
  Ga  Ga7  1  0.250000  0.426598  0.350413  1
  Ga  Ga8  1  0.250000  0.703490  0.534374  1
  Ga  Ga9  1  0.750000  0.296510  0.465626  1
  Ga  Ga10  1  0.750000  0.798194  0.035596  1
  Ga  Ga11  1  0.250000  0.201806  0.964404  1
  Ag  Ag12  1  0.250000  0.542406  0.098737  1
  Ag  Ag13  1  0.750000  0.457594  0.901263  1
  Ag  Ag14  1  0.750000  0.956729  0.597713  1
  Ag  Ag15  1  0.250000  0.043271  0.402287  1
