# generated using pymatgen
data_Th3Si4H
_symmetry_space_group_name_H-M   'P 1'
_cell_length_a   4.10930700
_cell_length_b   4.11190895
_cell_length_c   9.98336700
_cell_angle_alpha   65.75127651
_cell_angle_beta   90.00026492
_cell_angle_gamma   89.98609109
_symmetry_Int_Tables_number   1
_chemical_formula_structural   Th3Si4H
_chemical_formula_sum   'Th3 Si4 H1'
_cell_volume   153.80659786
_cell_formula_units_Z   1
loop_
 _symmetry_equiv_pos_site_id
 _symmetry_equiv_pos_as_xyz
  1  'x, y, z'
loop_
 _atom_site_type_symbol
 _atom_site_label
 _atom_site_symmetry_multiplicity
 _atom_site_fract_x
 _atom_site_fract_y
 _atom_site_fract_z
 _atom_site_occupancy
  Th  Th0  1  0.159537  0.183898  0.986146  1
  Th  Th1  1  0.659430  0.941182  0.729347  1
  Th  Th2  1  0.159258  0.314996  0.358559  1
  Si  Si3  1  0.659588  0.588040  0.083333  1
  Si  Si4  1  0.659194  0.683844  0.488635  1
  Si  Si5  1  0.159338  0.540706  0.632898  1
  Si  Si6  1  0.659382  0.942370  0.228104  1
  H  H7  1  0.659682  0.312542  0.858580  1
