# generated using pymatgen
data_Er7Sn23(Ru2Pt)2
_symmetry_space_group_name_H-M   'P 1'
_cell_length_a   9.87500049
_cell_length_b   9.87500042
_cell_length_c   10.06873680
_cell_angle_alpha   89.54270646
_cell_angle_beta   90.45729395
_cell_angle_gamma   120.09828887
_symmetry_Int_Tables_number   1
_chemical_formula_structural   Er7Sn23(Ru2Pt)2
_chemical_formula_sum   'Er7 Sn23 Ru4 Pt2'
_cell_volume   849.43559319
_cell_formula_units_Z   1
loop_
 _symmetry_equiv_pos_site_id
 _symmetry_equiv_pos_as_xyz
  1  'x, y, z'
loop_
 _atom_site_type_symbol
 _atom_site_label
 _atom_site_symmetry_multiplicity
 _atom_site_fract_x
 _atom_site_fract_y
 _atom_site_fract_z
 _atom_site_occupancy
  Er  Er0  1  0.482428  0.517572  0.305713  1
  Er  Er1  1  0.517572  0.482428  0.694287  1
  Er  Er2  1  0.482225  0.965749  0.306274  1
  Er  Er3  1  0.517775  0.034251  0.693726  1
  Er  Er4  1  0.034251  0.517775  0.306274  1
  Er  Er5  1  0.965749  0.482225  0.693726  1
  Er  Er6  1  0.000000  0.000000  0.000000  1
  Sn  Sn7  1  0.117667  0.882333  0.278520  1
  Sn  Sn8  1  0.882333  0.117667  0.721480  1
  Sn  Sn9  1  0.123154  0.238659  0.281104  1
  Sn  Sn10  1  0.876846  0.761341  0.718896  1
  Sn  Sn11  1  0.761341  0.876846  0.281104  1
  Sn  Sn12  1  0.238659  0.123154  0.718896  1
  Sn  Sn13  1  0.777210  0.222790  0.463047  1
  Sn  Sn14  1  0.222790  0.777210  0.536953  1
  Sn  Sn15  1  0.779288  0.557186  0.458808  1
  Sn  Sn16  1  0.220712  0.442814  0.541192  1
  Sn  Sn17  1  0.442814  0.220712  0.458808  1
  Sn  Sn18  1  0.557186  0.779288  0.541192  1
  Sn  Sn19  1  0.354030  0.004144  0.003340  1
  Sn  Sn20  1  0.645970  0.995856  0.996660  1
  Sn  Sn21  1  0.004144  0.354030  0.996660  1
  Sn  Sn22  1  0.995856  0.645970  0.003340  1
  Sn  Sn23  1  0.650300  0.650300  0.000000  1
  Sn  Sn24  1  0.349700  0.349700  0.000000  1
  Sn  Sn25  1  0.333530  0.666470  0.126498  1
  Sn  Sn26  1  0.666470  0.333530  0.873502  1
  Sn  Sn27  1  0.337223  0.662777  0.823619  1
  Sn  Sn28  1  0.662777  0.337223  0.176381  1
  Sn  Sn29  1  0.000000  0.000000  0.500000  1
  Ru  Ru30  1  0.831149  0.661382  0.200235  1
  Ru  Ru31  1  0.168851  0.338618  0.799765  1
  Ru  Ru32  1  0.338618  0.168851  0.200235  1
  Ru  Ru33  1  0.661382  0.831149  0.799765  1
  Pt  Pt34  1  0.829194  0.170806  0.200373  1
  Pt  Pt35  1  0.170806  0.829194  0.799627  1
