# generated using pymatgen
data_TbHfAgS4
_symmetry_space_group_name_H-M   'P 1'
_cell_length_a   7.80369613
_cell_length_b   7.80369671
_cell_length_c   7.80369683
_cell_angle_alpha   118.74096835
_cell_angle_beta   121.78314392
_cell_angle_gamma   89.56705063
_symmetry_Int_Tables_number   1
_chemical_formula_structural   TbHfAgS4
_chemical_formula_sum   'Tb2 Hf2 Ag2 S8'
_cell_volume   334.39717308
_cell_formula_units_Z   2
loop_
 _symmetry_equiv_pos_site_id
 _symmetry_equiv_pos_as_xyz
  1  'x, y, z'
loop_
 _atom_site_type_symbol
 _atom_site_label
 _atom_site_symmetry_multiplicity
 _atom_site_fract_x
 _atom_site_fract_y
 _atom_site_fract_z
 _atom_site_occupancy
  Tb  Tb0  1  0.000000  0.000000  0.500000  1
  Tb  Tb1  1  0.000000  0.500000  0.000000  1
  Hf  Hf2  1  0.000000  0.000000  0.000000  1
  Hf  Hf3  1  0.500000  0.000000  0.500000  1
  Ag  Ag4  1  0.370780  0.620780  0.750000  1
  Ag  Ag5  1  0.629220  0.379220  0.250000  1
  S  S6  1  0.249258  0.777980  0.028722  1
  S  S7  1  0.750742  0.779465  0.528722  1
  S  S8  1  0.223574  0.229520  0.994054  1
  S  S9  1  0.735466  0.229520  0.505946  1
  S  S10  1  0.776426  0.770480  0.005946  1
  S  S11  1  0.264534  0.770480  0.494054  1
  S  S12  1  0.750742  0.222020  0.971278  1
  S  S13  1  0.249258  0.220535  0.471278  1
