# generated using pymatgen
data_Ta6Be15Co3Cu2Ni3
_symmetry_space_group_name_H-M   'P 1'
_cell_length_a   7.58183828
_cell_length_b   7.57802820
_cell_length_c   7.58522063
_cell_angle_alpha   59.90530775
_cell_angle_beta   59.89035299
_cell_angle_gamma   59.91009331
_symmetry_Int_Tables_number   1
_chemical_formula_structural   Ta6Be15Co3Cu2Ni3
_chemical_formula_sum   'Ta6 Be15 Co3 Cu2 Ni3'
_cell_volume   307.47972659
_cell_formula_units_Z   1
loop_
 _symmetry_equiv_pos_site_id
 _symmetry_equiv_pos_as_xyz
  1  'x, y, z'
loop_
 _atom_site_type_symbol
 _atom_site_label
 _atom_site_symmetry_multiplicity
 _atom_site_fract_x
 _atom_site_fract_y
 _atom_site_fract_z
 _atom_site_occupancy
  Ta  Ta0  1  0.706067  0.302736  0.293234  1
  Ta  Ta1  1  0.291915  0.712393  0.695563  1
  Ta  Ta2  1  0.304892  0.707648  0.296034  1
  Ta  Ta3  1  0.710735  0.289105  0.702655  1
  Ta  Ta4  1  0.293511  0.293745  0.706509  1
  Ta  Ta5  1  0.694971  0.703605  0.292192  1
  Be  Be6  1  0.328219  0.323621  0.330807  1
  Be  Be7  1  0.670269  0.670377  0.675965  1
  Be  Be8  1  0.328005  0.321986  0.019186  1
  Be  Be9  1  0.323270  0.025909  0.326012  1
  Be  Be10  1  0.675007  0.674898  0.975999  1
  Be  Be11  1  0.672552  0.979131  0.678873  1
  Be  Be12  1  0.021532  0.321395  0.329274  1
  Be  Be13  1  0.979421  0.672315  0.678024  1
  Be  Be14  1  0.499917  0.000498  0.999498  1
  Be  Be15  1  0.000539  0.496198  0.503086  1
  Be  Be16  1  0.999781  0.498662  0.999173  1
  Be  Be17  1  0.497323  0.001343  0.501224  1
  Be  Be18  1  0.001193  0.001749  0.500532  1
  Be  Be19  1  0.501635  0.498386  0.999427  1
  Be  Be20  1  0.000066  0.005867  0.994386  1
  Co  Co21  1  0.122357  0.122192  0.122400  1
  Co  Co22  1  0.877566  0.876753  0.878238  1
  Co  Co23  1  0.122680  0.122219  0.633542  1
  Cu  Cu24  1  0.122974  0.632767  0.122494  1
  Cu  Cu25  1  0.877083  0.877089  0.367269  1
  Ni  Ni26  1  0.876256  0.368611  0.877346  1
  Ni  Ni27  1  0.632210  0.122774  0.123345  1
  Ni  Ni28  1  0.368053  0.876028  0.877712  1
