# generated using pymatgen
data_Tb3Pr17(Ga5Sn)2
_symmetry_space_group_name_H-M   'P 1'
_cell_length_a   7.96126500
_cell_length_b   7.96126500
_cell_length_c   14.83271500
_cell_angle_alpha   90.00000000
_cell_angle_beta   90.00000000
_cell_angle_gamma   90.00000000
_symmetry_Int_Tables_number   1
_chemical_formula_structural   Tb3Pr17(Ga5Sn)2
_chemical_formula_sum   'Tb3 Pr17 Ga10 Sn2'
_cell_volume   940.12329156
_cell_formula_units_Z   1
loop_
 _symmetry_equiv_pos_site_id
 _symmetry_equiv_pos_as_xyz
  1  'x, y, z'
loop_
 _atom_site_type_symbol
 _atom_site_label
 _atom_site_symmetry_multiplicity
 _atom_site_fract_x
 _atom_site_fract_y
 _atom_site_fract_z
 _atom_site_occupancy
  Tb  Tb0  1  0.000000  0.500000  0.732273  1
  Tb  Tb1  1  0.000000  0.500000  0.217384  1
  Tb  Tb2  1  0.500000  0.000000  0.263763  1
  Pr  Pr3  1  0.818192  0.840167  0.608677  1
  Pr  Pr4  1  0.182678  0.840162  0.102368  1
  Pr  Pr5  1  0.160323  0.820359  0.390379  1
  Pr  Pr6  1  0.839677  0.179641  0.390379  1
  Pr  Pr7  1  0.679641  0.660323  0.390379  1
  Pr  Pr8  1  0.659833  0.318192  0.608677  1
  Pr  Pr9  1  0.340167  0.681808  0.608677  1
  Pr  Pr10  1  0.659838  0.682678  0.102368  1
  Pr  Pr11  1  0.685646  0.343284  0.897794  1
  Pr  Pr12  1  0.843284  0.814354  0.897794  1
  Pr  Pr13  1  0.320359  0.339677  0.390379  1
  Pr  Pr14  1  0.181808  0.159833  0.608677  1
  Pr  Pr15  1  0.817322  0.159838  0.102368  1
  Pr  Pr16  1  0.314354  0.656716  0.897794  1
  Pr  Pr17  1  0.340162  0.317322  0.102368  1
  Pr  Pr18  1  0.156716  0.185646  0.897794  1
  Pr  Pr19  1  0.500000  0.000000  0.790831  1
  Ga  Ga20  1  0.622139  0.377297  0.248158  1
  Ga  Ga21  1  0.118528  0.875818  0.750614  1
  Ga  Ga22  1  0.375818  0.381472  0.750614  1
  Ga  Ga23  1  0.377861  0.622703  0.248158  1
  Ga  Ga24  1  0.877297  0.877861  0.248158  1
  Ga  Ga25  1  0.624182  0.618528  0.750614  1
  Ga  Ga26  1  0.881472  0.124182  0.750614  1
  Ga  Ga27  1  0.500000  0.000000  0.998809  1
  Ga  Ga28  1  0.122703  0.122139  0.248158  1
  Ga  Ga29  1  0.000000  0.500000  0.008946  1
  Sn  Sn30  1  0.000000  0.500000  0.511074  1
  Sn  Sn31  1  0.500000  0.000000  0.484957  1
