# generated using pymatgen
data_EuErCu2(PH)2
_symmetry_space_group_name_H-M   'P 1'
_cell_length_a   3.85195700
_cell_length_b   3.84719600
_cell_length_c   15.23139200
_cell_angle_alpha   90.00000000
_cell_angle_beta   90.00000000
_cell_angle_gamma   90.00000000
_symmetry_Int_Tables_number   1
_chemical_formula_structural   EuErCu2(PH)2
_chemical_formula_sum   'Eu2 Er2 Cu4 P4 H4'
_cell_volume   225.71755553
_cell_formula_units_Z   2
loop_
 _symmetry_equiv_pos_site_id
 _symmetry_equiv_pos_as_xyz
  1  'x, y, z'
loop_
 _atom_site_type_symbol
 _atom_site_label
 _atom_site_symmetry_multiplicity
 _atom_site_fract_x
 _atom_site_fract_y
 _atom_site_fract_z
 _atom_site_occupancy
  Eu  Eu0  1  0.250000  0.749504  0.416832  1
  Eu  Eu1  1  0.250000  0.750496  0.916832  1
  Er  Er2  1  0.750000  0.250740  0.584495  1
  Er  Er3  1  0.750000  0.249260  0.084495  1
  Cu  Cu4  1  0.250000  0.254360  0.248283  1
  Cu  Cu5  1  0.750000  0.757136  0.744662  1
  Cu  Cu6  1  0.250000  0.245640  0.748283  1
  Cu  Cu7  1  0.750000  0.742864  0.244662  1
  P  P8  1  0.250000  0.749055  0.153122  1
  P  P9  1  0.750000  0.248859  0.338325  1
  P  P10  1  0.750000  0.251141  0.838325  1
  P  P11  1  0.250000  0.750945  0.653122  1
  H  H12  1  0.750000  0.750410  0.507154  1
  H  H13  1  0.750000  0.749590  0.007154  1
  H  H14  1  0.250000  0.249950  0.507127  1
  H  H15  1  0.250000  0.250050  0.007127  1
