# generated using pymatgen
data_Sm8LuSc11Si15Tc
_symmetry_space_group_name_H-M   'P 1'
_cell_length_a   7.18111911
_cell_length_b   7.54006464
_cell_length_c   14.11181461
_cell_angle_alpha   89.94538573
_cell_angle_beta   90.06134028
_cell_angle_gamma   90.21691214
_symmetry_Int_Tables_number   1
_chemical_formula_structural   Sm8LuSc11Si15Tc
_chemical_formula_sum   'Sm8 Lu1 Sc11 Si15 Tc1'
_cell_volume   764.09349971
_cell_formula_units_Z   1
loop_
 _symmetry_equiv_pos_site_id
 _symmetry_equiv_pos_as_xyz
  1  'x, y, z'
loop_
 _atom_site_type_symbol
 _atom_site_label
 _atom_site_symmetry_multiplicity
 _atom_site_fract_x
 _atom_site_fract_y
 _atom_site_fract_z
 _atom_site_occupancy
  Sm  Sm0  1  0.012364  0.177994  0.096346  1
  Sm  Sm1  1  0.988609  0.827651  0.904204  1
  Sm  Sm2  1  0.487945  0.673613  0.904805  1
  Sm  Sm3  1  0.988204  0.826058  0.597712  1
  Sm  Sm4  1  0.511791  0.325018  0.096186  1
  Sm  Sm5  1  0.012519  0.177660  0.402934  1
  Sm  Sm6  1  0.512844  0.324993  0.401949  1
  Sm  Sm7  1  0.487828  0.674462  0.596587  1
  Lu  Lu8  1  0.315803  0.171593  0.626588  1
  Sc  Sc9  1  0.152789  0.495108  0.751724  1
  Sc  Sc10  1  0.841500  0.497529  0.249531  1
  Sc  Sc11  1  0.339918  0.004355  0.249303  1
  Sc  Sc12  1  0.666707  0.000293  0.751370  1
  Sc  Sc13  1  0.673992  0.827107  0.372355  1
  Sc  Sc14  1  0.173516  0.677638  0.372659  1
  Sc  Sc15  1  0.673159  0.827658  0.126281  1
  Sc  Sc16  1  0.836593  0.318381  0.628155  1
  Sc  Sc17  1  0.314429  0.170664  0.872591  1
  Sc  Sc18  1  0.835906  0.318805  0.873723  1
  Sc  Sc19  1  0.173501  0.677908  0.125992  1
  Si  Si20  1  0.970197  0.880378  0.249280  1
  Si  Si21  1  0.471663  0.618351  0.249273  1
  Si  Si22  1  0.529872  0.386401  0.751698  1
  Si  Si23  1  0.284991  0.869693  0.751527  1
  Si  Si24  1  0.713388  0.125646  0.249420  1
  Si  Si25  1  0.214558  0.374957  0.249480  1
  Si  Si26  1  0.779458  0.623379  0.750916  1
  Si  Si27  1  0.152774  0.472364  0.536064  1
  Si  Si28  1  0.847865  0.538258  0.460455  1
  Si  Si29  1  0.349903  0.962531  0.456404  1
  Si  Si30  1  0.848553  0.537535  0.039341  1
  Si  Si31  1  0.656630  0.033529  0.537019  1
  Si  Si32  1  0.156497  0.468072  0.963266  1
  Si  Si33  1  0.650789  0.034346  0.961167  1
  Si  Si34  1  0.347493  0.964933  0.040654  1
  Tc  Tc35  1  0.025452  0.115138  0.753043  1
