# generated using pymatgen
data_Tb16Cd3HgRu3Rh
_symmetry_space_group_name_H-M   'P 1'
_cell_length_a   9.61174921
_cell_length_b   9.68096758
_cell_length_c   9.68096900
_cell_angle_alpha   59.99999855
_cell_angle_beta   59.76148975
_cell_angle_gamma   59.76148843
_symmetry_Int_Tables_number   1
_chemical_formula_structural   Tb16Cd3HgRu3Rh
_chemical_formula_sum   'Tb16 Cd3 Hg1 Ru3 Rh1'
_cell_volume   634.67283212
_cell_formula_units_Z   1
loop_
 _symmetry_equiv_pos_site_id
 _symmetry_equiv_pos_as_xyz
  1  'x, y, z'
loop_
 _atom_site_type_symbol
 _atom_site_label
 _atom_site_symmetry_multiplicity
 _atom_site_fract_x
 _atom_site_fract_y
 _atom_site_fract_z
 _atom_site_occupancy
  Tb  Tb0  1  0.285538  0.904820  0.904820  1
  Tb  Tb1  1  0.689241  0.312282  0.686194  1
  Tb  Tb2  1  0.312654  0.687498  0.312350  1
  Tb  Tb3  1  0.061471  0.439603  0.439603  1
  Tb  Tb4  1  0.689241  0.312282  0.312282  1
  Tb  Tb5  1  0.437824  0.060796  0.440584  1
  Tb  Tb6  1  0.437824  0.060796  0.060796  1
  Tb  Tb7  1  0.903569  0.900979  0.900979  1
  Tb  Tb8  1  0.061471  0.439603  0.059323  1
  Tb  Tb9  1  0.903569  0.294475  0.900979  1
  Tb  Tb10  1  0.312654  0.687498  0.687498  1
  Tb  Tb11  1  0.903569  0.900979  0.294475  1
  Tb  Tb12  1  0.437824  0.440584  0.060796  1
  Tb  Tb13  1  0.312654  0.312350  0.687498  1
  Tb  Tb14  1  0.689241  0.686194  0.312282  1
  Tb  Tb15  1  0.061471  0.059323  0.439603  1
  Cd  Cd16  1  0.669197  0.989785  0.670509  1
  Cd  Cd17  1  0.669197  0.670509  0.989785  1
  Cd  Cd18  1  0.669197  0.670509  0.670509  1
  Hg  Hg19  1  0.001130  0.666290  0.666290  1
  Ru  Ru20  1  0.106192  0.112028  0.669752  1
  Ru  Ru21  1  0.106192  0.669752  0.112028  1
  Ru  Ru22  1  0.106192  0.112028  0.112028  1
  Rh  Rh23  1  0.672888  0.109038  0.109038  1
