# generated using pymatgen
data_Tb4PrY7Fe2I17
_symmetry_space_group_name_H-M   'P 1'
_cell_length_a   9.76490807
_cell_length_b   11.77308348
_cell_length_c   11.74169502
_cell_angle_alpha   93.52202252
_cell_angle_beta   104.68607837
_cell_angle_gamma   114.36835011
_symmetry_Int_Tables_number   1
_chemical_formula_structural   Tb4PrY7Fe2I17
_chemical_formula_sum   'Tb4 Pr1 Y7 Fe2 I17'
_cell_volume   1168.12570048
_cell_formula_units_Z   1
loop_
 _symmetry_equiv_pos_site_id
 _symmetry_equiv_pos_as_xyz
  1  'x, y, z'
loop_
 _atom_site_type_symbol
 _atom_site_label
 _atom_site_symmetry_multiplicity
 _atom_site_fract_x
 _atom_site_fract_y
 _atom_site_fract_z
 _atom_site_occupancy
  Tb  Tb0  1  0.051774  0.500687  0.320740  1
  Tb  Tb1  1  0.990698  0.809905  0.584167  1
  Tb  Tb2  1  0.653874  0.241465  0.281882  1
  Tb  Tb3  1  0.007920  0.192357  0.410320  1
  Pr  Pr4  1  0.854136  0.712787  0.846569  1
  Y  Y5  1  0.219867  0.670524  0.985785  1
  Y  Y6  1  0.257409  0.981093  0.889453  1
  Y  Y7  1  0.337871  0.757764  0.720028  1
  Y  Y8  1  0.945890  0.492748  0.677853  1
  Y  Y9  1  0.747455  0.024915  0.112297  1
  Y  Y10  1  0.144580  0.287950  0.154474  1
  Y  Y11  1  0.783233  0.327519  0.019014  1
  Fe  Fe12  1  0.100209  0.737372  0.785650  1
  Fe  Fe13  1  0.896719  0.262508  0.215376  1
  I  I14  1  0.782891  0.528563  0.418700  1
  I  I15  1  0.643491  0.410033  0.759832  1
  I  I16  1  0.844931  0.896571  0.325545  1
  I  I17  1  0.329368  0.214478  0.368588  1
  I  I18  1  0.156964  0.103383  0.673432  1
  I  I19  1  0.585050  0.050812  0.842418  1
  I  I20  1  0.758834  0.187989  0.540368  1
  I  I21  1  0.546805  0.712183  0.954208  1
  I  I22  1  0.357837  0.581878  0.237838  1
  I  I23  1  0.218073  0.473008  0.584852  1
  I  I24  1  0.059287  0.369331  0.896624  1
  I  I25  1  0.448569  0.289073  0.044450  1
  I  I26  1  0.004262  0.004332  0.001082  1
  I  I27  1  0.242726  0.811833  0.462669  1
  I  I28  1  0.412134  0.945992  0.155794  1
  I  I29  1  0.670186  0.789568  0.623258  1
  I  I30  1  0.946953  0.631379  0.106735  1
