# generated using pymatgen
data_CaY6CoBr12
_symmetry_space_group_name_H-M   'P 1'
_cell_length_a   9.21667002
_cell_length_b   9.21667024
_cell_length_c   9.21667018
_cell_angle_alpha   106.82869479
_cell_angle_beta   106.82869657
_cell_angle_gamma   106.82869247
_symmetry_Int_Tables_number   1
_chemical_formula_structural   CaY6CoBr12
_chemical_formula_sum   'Ca1 Y6 Co1 Br12'
_cell_volume   655.05346161
_cell_formula_units_Z   1
loop_
 _symmetry_equiv_pos_site_id
 _symmetry_equiv_pos_as_xyz
  1  'x, y, z'
loop_
 _atom_site_type_symbol
 _atom_site_label
 _atom_site_symmetry_multiplicity
 _atom_site_fract_x
 _atom_site_fract_y
 _atom_site_fract_z
 _atom_site_occupancy
  Ca  Ca0  1  0.500000  0.500000  0.500000  1
  Y  Y1  1  0.978551  0.901250  0.695357  1
  Y  Y2  1  0.021449  0.098750  0.304643  1
  Y  Y3  1  0.098750  0.304643  0.021449  1
  Y  Y4  1  0.304643  0.021449  0.098750  1
  Y  Y5  1  0.901250  0.695357  0.978551  1
  Y  Y6  1  0.695357  0.978551  0.901250  1
  Co  Co7  1  0.000000  0.000000  0.000000  1
  Br  Br8  1  0.548062  0.625828  0.845760  1
  Br  Br9  1  0.451938  0.374172  0.154240  1
  Br  Br10  1  0.322256  0.928263  0.779834  1
  Br  Br11  1  0.374172  0.154240  0.451938  1
  Br  Br12  1  0.928263  0.779834  0.322256  1
  Br  Br13  1  0.677744  0.071737  0.220166  1
  Br  Br14  1  0.071737  0.220166  0.677744  1
  Br  Br15  1  0.779834  0.322256  0.928263  1
  Br  Br16  1  0.220166  0.677744  0.071737  1
  Br  Br17  1  0.845760  0.548062  0.625828  1
  Br  Br18  1  0.154240  0.451938  0.374172  1
  Br  Br19  1  0.625828  0.845760  0.548062  1
