# generated using pymatgen
data_Ho5Co19Si11P
_symmetry_space_group_name_H-M   'P 1'
_cell_length_a   12.14374313
_cell_length_b   12.13992155
_cell_length_c   3.73546800
_cell_angle_alpha   90.00000000
_cell_angle_beta   90.00000000
_cell_angle_gamma   119.99385251
_symmetry_Int_Tables_number   1
_chemical_formula_structural   Ho5Co19Si11P
_chemical_formula_sum   'Ho5 Co19 Si11 P1'
_cell_volume   476.94796924
_cell_formula_units_Z   1
loop_
 _symmetry_equiv_pos_site_id
 _symmetry_equiv_pos_as_xyz
  1  'x, y, z'
loop_
 _atom_site_type_symbol
 _atom_site_label
 _atom_site_symmetry_multiplicity
 _atom_site_fract_x
 _atom_site_fract_y
 _atom_site_fract_z
 _atom_site_occupancy
  Ho  Ho0  1  0.666832  0.333467  0.000000  1
  Ho  Ho1  1  0.333301  0.665114  0.000000  1
  Ho  Ho2  1  0.812773  0.812971  0.500000  1
  Ho  Ho3  1  0.186284  0.000526  0.500000  1
  Ho  Ho4  1  0.998849  0.184870  0.500000  1
  Co  Co5  1  0.878069  0.357148  0.500000  1
  Co  Co6  1  0.643246  0.519867  0.500000  1
  Co  Co7  1  0.479728  0.123229  0.500000  1
  Co  Co8  1  0.357128  0.876738  0.500000  1
  Co  Co9  1  0.512898  0.636396  0.500000  1
  Co  Co10  1  0.125006  0.479771  0.500000  1
  Co  Co11  1  0.443783  0.440221  0.000000  1
  Co  Co12  1  0.559311  0.000001  0.000000  1
  Co  Co13  1  0.000632  0.558787  0.000000  1
  Co  Co14  1  0.802622  0.180424  0.000000  1
  Co  Co15  1  0.819431  0.621410  0.000000  1
  Co  Co16  1  0.377536  0.198090  0.000000  1
  Co  Co17  1  0.180737  0.802100  0.000000  1
  Co  Co18  1  0.620385  0.818003  0.000000  1
  Co  Co19  1  0.202935  0.382822  0.000000  1
  Co  Co20  1  0.283581  0.288964  0.500000  1
  Co  Co21  1  0.717318  0.999310  0.500000  1
  Co  Co22  1  0.000258  0.717860  0.500000  1
  Co  Co23  1  0.000771  0.000948  0.000000  1
  Si  Si24  1  0.683264  0.161428  0.500000  1
  Si  Si25  1  0.839157  0.521737  0.500000  1
  Si  Si26  1  0.478145  0.316902  0.500000  1
  Si  Si27  1  0.161615  0.683059  0.500000  1
  Si  Si28  1  0.521219  0.837567  0.500000  1
  Si  Si29  1  0.185085  0.186096  0.000000  1
  Si  Si30  1  0.814799  0.999204  0.000000  1
  Si  Si31  1  0.000120  0.815465  0.000000  1
  Si  Si32  1  0.628179  0.628297  0.000000  1
  Si  Si33  1  0.371881  0.999972  0.000000  1
  Si  Si34  1  0.000748  0.371745  0.000000  1
  P  P35  1  0.312376  0.479487  0.500000  1
