# generated using pymatgen
data_PaTeBr9
_symmetry_space_group_name_H-M   'P 1'
_cell_length_a   12.79322100
_cell_length_b   7.49732252
_cell_length_c   10.82831900
_cell_angle_alpha   76.23859789
_cell_angle_beta   90.00000000
_cell_angle_gamma   90.00000000
_symmetry_Int_Tables_number   1
_chemical_formula_structural   PaTeBr9
_chemical_formula_sum   'Pa2 Te2 Br18'
_cell_volume   1008.78398438
_cell_formula_units_Z   2
loop_
 _symmetry_equiv_pos_site_id
 _symmetry_equiv_pos_as_xyz
  1  'x, y, z'
loop_
 _atom_site_type_symbol
 _atom_site_label
 _atom_site_symmetry_multiplicity
 _atom_site_fract_x
 _atom_site_fract_y
 _atom_site_fract_z
 _atom_site_occupancy
  Pa  Pa0  1  0.250000  0.647618  0.848514  1
  Pa  Pa1  1  0.750000  0.351901  0.152602  1
  Te  Te2  1  0.250000  0.758981  0.464422  1
  Te  Te3  1  0.750000  0.241677  0.533213  1
  Br  Br4  1  0.602338  0.449733  0.316069  1
  Br  Br5  1  0.102890  0.550567  0.684068  1
  Br  Br6  1  0.397110  0.550567  0.684068  1
  Br  Br7  1  0.897662  0.449733  0.316069  1
  Br  Br8  1  0.750000  0.693879  0.008876  1
  Br  Br9  1  0.250000  0.307116  0.995404  1
  Br  Br10  1  0.750000  0.503760  0.643813  1
  Br  Br11  1  0.250000  0.498625  0.352266  1
  Br  Br12  1  0.750000  0.010053  0.327810  1
  Br  Br13  1  0.250000  0.988664  0.672371  1
  Br  Br14  1  0.902597  0.239281  0.021595  1
  Br  Br15  1  0.401841  0.758674  0.981670  1
  Br  Br16  1  0.098159  0.758674  0.981670  1
  Br  Br17  1  0.597403  0.239281  0.021595  1
  Br  Br18  1  0.898641  0.059315  0.657432  1
  Br  Br19  1  0.398360  0.941294  0.339520  1
  Br  Br20  1  0.101640  0.941294  0.339520  1
  Br  Br21  1  0.601359  0.059315  0.657432  1
