# generated using pymatgen
data_Cs2VTc11S14
_symmetry_space_group_name_H-M   'P 1'
_cell_length_a   9.51059413
_cell_length_b   9.54066008
_cell_length_c   9.52734500
_cell_angle_alpha   60.39693807
_cell_angle_beta   60.10668703
_cell_angle_gamma   60.46283759
_symmetry_Int_Tables_number   1
_chemical_formula_structural   Cs2VTc11S14
_chemical_formula_sum   'Cs2 V1 Tc11 S14'
_cell_volume   615.72628148
_cell_formula_units_Z   1
loop_
 _symmetry_equiv_pos_site_id
 _symmetry_equiv_pos_as_xyz
  1  'x, y, z'
loop_
 _atom_site_type_symbol
 _atom_site_label
 _atom_site_symmetry_multiplicity
 _atom_site_fract_x
 _atom_site_fract_y
 _atom_site_fract_z
 _atom_site_occupancy
  Cs  Cs0  1  0.376701  0.377196  0.374945  1
  Cs  Cs1  1  0.624485  0.621952  0.624038  1
  V  V2  1  0.302309  0.124471  0.997411  1
  Tc  Tc3  1  0.201284  0.880776  0.062691  1
  Tc  Tc4  1  0.883502  0.062998  0.196839  1
  Tc  Tc5  1  0.935983  0.802776  0.116767  1
  Tc  Tc6  1  0.800243  0.117998  0.937266  1
  Tc  Tc7  1  0.117047  0.938897  0.802302  1
  Tc  Tc8  1  0.993861  0.309538  0.123989  1
  Tc  Tc9  1  0.871928  0.006936  0.690479  1
  Tc  Tc10  1  0.127744  0.991941  0.308064  1
  Tc  Tc11  1  0.007916  0.688805  0.872554  1
  Tc  Tc12  1  0.687874  0.872142  0.011334  1
  Tc  Tc13  1  0.063823  0.201877  0.878605  1
  S  S14  1  0.985185  0.231235  0.651063  1
  S  S15  1  0.231103  0.652186  0.983649  1
  S  S16  1  0.650391  0.985842  0.232069  1
  S  S17  1  0.018146  0.767338  0.346077  1
  S  S18  1  0.771386  0.351340  0.010638  1
  S  S19  1  0.349827  0.015981  0.768166  1
  S  S20  1  0.167787  0.410383  0.827345  1
  S  S21  1  0.410131  0.824935  0.169620  1
  S  S22  1  0.828567  0.166074  0.410823  1
  S  S23  1  0.831477  0.590016  0.176191  1
  S  S24  1  0.586979  0.172727  0.835222  1
  S  S25  1  0.175892  0.833791  0.588708  1
  S  S26  1  0.780009  0.781148  0.784214  1
  S  S27  1  0.218421  0.218702  0.218933  1
