# generated using pymatgen
data_Ca20Zn8CdHg3
_symmetry_space_group_name_H-M   'P 1'
_cell_length_a   7.98165100
_cell_length_b   7.98165100
_cell_length_c   15.27073100
_cell_angle_alpha   90.00000000
_cell_angle_beta   90.00000000
_cell_angle_gamma   90.00000000
_symmetry_Int_Tables_number   1
_chemical_formula_structural   Ca20Zn8CdHg3
_chemical_formula_sum   'Ca20 Zn8 Cd1 Hg3'
_cell_volume   972.84868315
_cell_formula_units_Z   1
loop_
 _symmetry_equiv_pos_site_id
 _symmetry_equiv_pos_as_xyz
  1  'x, y, z'
loop_
 _atom_site_type_symbol
 _atom_site_label
 _atom_site_symmetry_multiplicity
 _atom_site_fract_x
 _atom_site_fract_y
 _atom_site_fract_z
 _atom_site_occupancy
  Ca  Ca0  1  0.671367  0.164464  0.104029  1
  Ca  Ca1  1  0.169549  0.669494  0.604734  1
  Ca  Ca2  1  0.328633  0.835536  0.104029  1
  Ca  Ca3  1  0.830451  0.330506  0.604734  1
  Ca  Ca4  1  0.835536  0.671367  0.104029  1
  Ca  Ca5  1  0.330506  0.169549  0.604734  1
  Ca  Ca6  1  0.164464  0.328633  0.104029  1
  Ca  Ca7  1  0.669494  0.830451  0.604734  1
  Ca  Ca8  1  0.835536  0.328633  0.895971  1
  Ca  Ca9  1  0.330506  0.830451  0.395266  1
  Ca  Ca10  1  0.164464  0.671367  0.895971  1
  Ca  Ca11  1  0.669494  0.169549  0.395266  1
  Ca  Ca12  1  0.671367  0.835536  0.895971  1
  Ca  Ca13  1  0.169549  0.330506  0.395266  1
  Ca  Ca14  1  0.328633  0.164464  0.895971  1
  Ca  Ca15  1  0.830451  0.669494  0.395266  1
  Ca  Ca16  1  0.500000  0.500000  0.755224  1
  Ca  Ca17  1  0.000000  0.000000  0.250148  1
  Ca  Ca18  1  0.000000  0.000000  0.749852  1
  Ca  Ca19  1  0.500000  0.500000  0.244776  1
  Zn  Zn20  1  0.618179  0.119071  0.751216  1
  Zn  Zn21  1  0.119071  0.618179  0.248784  1
  Zn  Zn22  1  0.880929  0.381821  0.248784  1
  Zn  Zn23  1  0.381821  0.880929  0.751216  1
  Zn  Zn24  1  0.880929  0.618179  0.751216  1
  Zn  Zn25  1  0.381821  0.119071  0.248784  1
  Zn  Zn26  1  0.119071  0.381821  0.751216  1
  Zn  Zn27  1  0.618179  0.880929  0.248784  1
  Cd  Cd28  1  0.500000  0.500000  0.000000  1
  Hg  Hg29  1  0.000000  0.000000  0.000000  1
  Hg  Hg30  1  0.500000  0.500000  0.500000  1
  Hg  Hg31  1  0.000000  0.000000  0.500000  1
