# generated using pymatgen
data_Ca3Nb2TcN6
_symmetry_space_group_name_H-M   'P 1'
_cell_length_a   5.49566268
_cell_length_b   5.49566315
_cell_length_c   5.83827925
_cell_angle_alpha   98.98297863
_cell_angle_beta   98.98298049
_cell_angle_gamma   119.88741129
_symmetry_Int_Tables_number   1
_chemical_formula_structural   Ca3Nb2TcN6
_chemical_formula_sum   'Ca3 Nb2 Tc1 N6'
_cell_volume   145.25987114
_cell_formula_units_Z   1
loop_
 _symmetry_equiv_pos_site_id
 _symmetry_equiv_pos_as_xyz
  1  'x, y, z'
loop_
 _atom_site_type_symbol
 _atom_site_label
 _atom_site_symmetry_multiplicity
 _atom_site_fract_x
 _atom_site_fract_y
 _atom_site_fract_z
 _atom_site_occupancy
  Ca  Ca0  1  0.836352  0.163648  0.500000  1
  Ca  Ca1  1  0.163648  0.836352  0.500000  1
  Ca  Ca2  1  0.500000  0.500000  0.500000  1
  Nb  Nb3  1  0.331946  0.668054  0.000000  1
  Nb  Nb4  1  0.668054  0.331946  0.000000  1
  Tc  Tc5  1  0.000000  0.000000  0.000000  1
  N  N6  1  0.414442  0.072233  0.216959  1
  N  N7  1  0.927767  0.585558  0.783041  1
  N  N8  1  0.585558  0.927767  0.783041  1
  N  N9  1  0.072233  0.414442  0.216959  1
  N  N10  1  0.730377  0.730377  0.215612  1
  N  N11  1  0.269623  0.269623  0.784388  1
