# generated using pymatgen
data_Er2TmLuC7
_symmetry_space_group_name_H-M   'P 1'
_cell_length_a   13.63929335
_cell_length_b   3.64537322
_cell_length_c   6.36970322
_cell_angle_alpha   74.57604999
_cell_angle_beta   89.81676375
_cell_angle_gamma   89.76568785
_symmetry_Int_Tables_number   1
_chemical_formula_structural   Er2TmLuC7
_chemical_formula_sum   'Er4 Tm2 Lu2 C14'
_cell_volume   305.29406611
_cell_formula_units_Z   2
loop_
 _symmetry_equiv_pos_site_id
 _symmetry_equiv_pos_as_xyz
  1  'x, y, z'
loop_
 _atom_site_type_symbol
 _atom_site_label
 _atom_site_symmetry_multiplicity
 _atom_site_fract_x
 _atom_site_fract_y
 _atom_site_fract_z
 _atom_site_occupancy
  Er  Er0  1  0.055564  0.631866  0.739231  1
  Er  Er1  1  0.944436  0.368134  0.260769  1
  Er  Er2  1  0.555228  0.366467  0.760143  1
  Er  Er3  1  0.444772  0.633533  0.239857  1
  Tm  Tm4  1  0.338866  0.943290  0.662653  1
  Tm  Tm5  1  0.661134  0.056710  0.337347  1
  Lu  Lu6  1  0.840922  0.059464  0.839350  1
  Lu  Lu7  1  0.159078  0.940536  0.160650  1
  C  C8  1  0.895964  0.736314  0.553697  1
  C  C9  1  0.104036  0.263686  0.446303  1
  C  C10  1  0.396173  0.265131  0.948919  1
  C  C11  1  0.603827  0.734869  0.051081  1
  C  C12  1  0.215052  0.533020  0.932079  1
  C  C13  1  0.784948  0.466980  0.067921  1
  C  C14  1  0.716355  0.458288  0.571528  1
  C  C15  1  0.283645  0.541712  0.428472  1
  C  C16  1  0.803578  0.621607  0.545038  1
  C  C17  1  0.196422  0.378393  0.454962  1
  C  C18  1  0.303173  0.373966  0.958946  1
  C  C19  1  0.696827  0.626034  0.041054  1
  C  C20  1  0.500000  0.000000  0.500000  1
  C  C21  1  0.000000  0.000000  0.000000  1
