# generated using pymatgen
data_La4Tb5LuRu4
_symmetry_space_group_name_H-M   'P 1'
_cell_length_a   6.50835942
_cell_length_b   7.26385682
_cell_length_c   8.79776395
_cell_angle_alpha   96.35852127
_cell_angle_beta   111.70865905
_cell_angle_gamma   90.00000590
_symmetry_Int_Tables_number   1
_chemical_formula_structural   La4Tb5LuRu4
_chemical_formula_sum   'La4 Tb5 Lu1 Ru4'
_cell_volume   383.66746360
_cell_formula_units_Z   1
loop_
 _symmetry_equiv_pos_site_id
 _symmetry_equiv_pos_as_xyz
  1  'x, y, z'
loop_
 _atom_site_type_symbol
 _atom_site_label
 _atom_site_symmetry_multiplicity
 _atom_site_fract_x
 _atom_site_fract_y
 _atom_site_fract_z
 _atom_site_occupancy
  La  La0  1  0.521351  0.087949  0.804354  1
  La  La1  1  0.479148  0.910528  0.195109  1
  La  La2  1  0.716997  0.412051  0.195646  1
  La  La3  1  0.284039  0.589472  0.804891  1
  Tb  Tb4  1  0.298992  0.313749  0.430062  1
  Tb  Tb5  1  0.701071  0.687090  0.571149  1
  Tb  Tb6  1  0.868932  0.186251  0.569938  1
  Tb  Tb7  1  0.129920  0.812910  0.428851  1
  Tb  Tb8  1  0.074700  0.250000  0.000000  1
  Lu  Lu9  1  0.926226  0.750000  0.000000  1
  Ru  Ru10  1  0.322426  0.582939  0.224447  1
  Ru  Ru11  1  0.677023  0.419532  0.775827  1
  Ru  Ru12  1  0.097980  0.917061  0.775553  1
  Ru  Ru13  1  0.901195  0.080468  0.224173  1
