# generated using pymatgen
data_Zr2V2SiP
_symmetry_space_group_name_H-M   'P 1'
_cell_length_a   3.65942700
_cell_length_b   3.65942700
_cell_length_c   7.15093700
_cell_angle_alpha   90.00000000
_cell_angle_beta   90.00000000
_cell_angle_gamma   90.00000000
_symmetry_Int_Tables_number   1
_chemical_formula_structural   Zr2V2SiP
_chemical_formula_sum   'Zr2 V2 Si1 P1'
_cell_volume   95.76110042
_cell_formula_units_Z   1
loop_
 _symmetry_equiv_pos_site_id
 _symmetry_equiv_pos_as_xyz
  1  'x, y, z'
loop_
 _atom_site_type_symbol
 _atom_site_label
 _atom_site_symmetry_multiplicity
 _atom_site_fract_x
 _atom_site_fract_y
 _atom_site_fract_z
 _atom_site_occupancy
  Zr  Zr0  1  0.500000  0.000000  0.639141  1
  Zr  Zr1  1  0.000000  0.500000  0.355243  1
  V  V2  1  0.500000  0.500000  0.002795  1
  V  V3  1  0.000000  0.000000  0.002795  1
  Si  Si4  1  0.000000  0.500000  0.755156  1
  P  P5  1  0.500000  0.000000  0.244872  1
