# generated using pymatgen
data_Sr4Zn11Cu9
_symmetry_space_group_name_H-M   'P 1'
_cell_length_a   5.22932700
_cell_length_b   6.60268885
_cell_length_c   12.62306776
_cell_angle_alpha   89.76468372
_cell_angle_beta   90.00000000
_cell_angle_gamma   90.00000000
_symmetry_Int_Tables_number   1
_chemical_formula_structural   Sr4Zn11Cu9
_chemical_formula_sum   'Sr4 Zn11 Cu9'
_cell_volume   435.84079907
_cell_formula_units_Z   1
loop_
 _symmetry_equiv_pos_site_id
 _symmetry_equiv_pos_as_xyz
  1  'x, y, z'
loop_
 _atom_site_type_symbol
 _atom_site_label
 _atom_site_symmetry_multiplicity
 _atom_site_fract_x
 _atom_site_fract_y
 _atom_site_fract_z
 _atom_site_occupancy
  Sr  Sr0  1  0.250000  0.638053  0.911398  1
  Sr  Sr1  1  0.250000  0.856526  0.416545  1
  Sr  Sr2  1  0.750000  0.358657  0.082555  1
  Sr  Sr3  1  0.750000  0.146248  0.587563  1
  Zn  Zn4  1  0.250000  0.153925  0.217996  1
  Zn  Zn5  1  0.750000  0.651873  0.281636  1
  Zn  Zn6  1  0.750000  0.844311  0.782021  1
  Zn  Zn7  1  0.250000  0.956180  0.710911  1
  Zn  Zn8  1  0.250000  0.550053  0.211813  1
  Zn  Zn9  1  0.750000  0.051500  0.288200  1
  Zn  Zn10  1  0.750000  0.448653  0.787056  1
  Zn  Zn11  1  0.250000  0.411063  0.521498  1
  Zn  Zn12  1  0.250000  0.088974  0.018028  1
  Zn  Zn13  1  0.750000  0.588769  0.482584  1
  Zn  Zn14  1  0.750000  0.910533  0.981202  1
  Cu  Cu15  1  0.250000  0.343834  0.716477  1
  Cu  Cu16  1  0.999112  0.151903  0.853447  1
  Cu  Cu17  1  0.500331  0.347850  0.356165  1
  Cu  Cu18  1  0.498709  0.848437  0.145198  1
  Cu  Cu19  1  0.004780  0.652234  0.646448  1
  Cu  Cu20  1  0.001291  0.848437  0.145198  1
  Cu  Cu21  1  0.495220  0.652234  0.646448  1
  Cu  Cu22  1  0.500888  0.151903  0.853447  1
  Cu  Cu23  1  0.999669  0.347850  0.356165  1
