# generated using pymatgen
data_Ta12B12Os11Rh
_symmetry_space_group_name_H-M   'P 1'
_cell_length_a   3.11580700
_cell_length_b   9.08555205
_cell_length_c   15.82958202
_cell_angle_alpha   89.65984017
_cell_angle_beta   90.00000000
_cell_angle_gamma   90.00000000
_symmetry_Int_Tables_number   1
_chemical_formula_structural   Ta12B12Os11Rh
_chemical_formula_sum   'Ta12 B12 Os11 Rh1'
_cell_volume   448.10899666
_cell_formula_units_Z   1
loop_
 _symmetry_equiv_pos_site_id
 _symmetry_equiv_pos_as_xyz
  1  'x, y, z'
loop_
 _atom_site_type_symbol
 _atom_site_label
 _atom_site_symmetry_multiplicity
 _atom_site_fract_x
 _atom_site_fract_y
 _atom_site_fract_z
 _atom_site_occupancy
  Ta  Ta0  1  0.000000  0.800226  0.494669  1
  Ta  Ta1  1  0.000000  0.202342  0.504289  1
  Ta  Ta2  1  0.000000  0.297745  0.005383  1
  Ta  Ta3  1  0.000000  0.699113  0.994298  1
  Ta  Ta4  1  0.000000  0.516119  0.593446  1
  Ta  Ta5  1  0.000000  0.486016  0.406427  1
  Ta  Ta6  1  0.000000  0.015200  0.907851  1
  Ta  Ta7  1  0.000000  0.980280  0.094490  1
  Ta  Ta8  1  0.000000  0.690054  0.200784  1
  Ta  Ta9  1  0.000000  0.310482  0.797863  1
  Ta  Ta10  1  0.000000  0.190965  0.297989  1
  Ta  Ta11  1  0.000000  0.811525  0.702091  1
  B  B12  1  0.500000  0.605859  0.496858  1
  B  B13  1  0.500000  0.396561  0.503168  1
  B  B14  1  0.500000  0.103067  0.004459  1
  B  B15  1  0.500000  0.893692  0.998227  1
  B  B16  1  0.000000  0.608735  0.832323  1
  B  B17  1  0.000000  0.390227  0.167971  1
  B  B18  1  0.000000  0.107977  0.667883  1
  B  B19  1  0.000000  0.893831  0.331578  1
  B  B20  1  0.500000  0.714560  0.597307  1
  B  B21  1  0.500000  0.286400  0.401440  1
  B  B22  1  0.500000  0.213787  0.902778  1
  B  B23  1  0.500000  0.779662  0.095088  1
  Os  Os24  1  0.500000  0.722138  0.353454  1
  Os  Os25  1  0.500000  0.280033  0.644247  1
  Os  Os26  1  0.500000  0.217797  0.145871  1
  Os  Os27  1  0.500000  0.779866  0.854728  1
  Os  Os28  1  0.500000  0.514372  0.092907  1
  Os  Os29  1  0.500000  0.482099  0.905766  1
  Os  Os30  1  0.500000  0.018194  0.407542  1
  Os  Os31  1  0.500000  0.983481  0.593825  1
  Os  Os32  1  0.500000  0.559944  0.734391  1
  Os  Os33  1  0.500000  0.441876  0.265383  1
  Os  Os34  1  0.500000  0.059620  0.765534  1
  Rh  Rh35  1  0.500000  0.946154  0.237692  1
