# generated using pymatgen
data_La2CdPtRh
_symmetry_space_group_name_H-M   'P 1'
_cell_length_a   7.88726600
_cell_length_b   7.89178400
_cell_length_c   3.94243300
_cell_angle_alpha   90.00000000
_cell_angle_beta   90.00000000
_cell_angle_gamma   90.00000000
_symmetry_Int_Tables_number   1
_chemical_formula_structural   La2CdPtRh
_chemical_formula_sum   'La4 Cd2 Pt2 Rh2'
_cell_volume   245.39516362
_cell_formula_units_Z   2
loop_
 _symmetry_equiv_pos_site_id
 _symmetry_equiv_pos_as_xyz
  1  'x, y, z'
loop_
 _atom_site_type_symbol
 _atom_site_label
 _atom_site_symmetry_multiplicity
 _atom_site_fract_x
 _atom_site_fract_y
 _atom_site_fract_z
 _atom_site_occupancy
  La  La0  1  0.831921  0.672577  0.500000  1
  La  La1  1  0.331921  0.827423  0.500000  1
  La  La2  1  0.666514  0.161497  0.500000  1
  La  La3  1  0.166514  0.338503  0.500000  1
  Cd  Cd4  1  0.998850  0.997272  0.000000  1
  Cd  Cd5  1  0.498850  0.502728  0.000000  1
  Pt  Pt6  1  0.864461  0.364878  0.000000  1
  Pt  Pt7  1  0.364461  0.135122  0.000000  1
  Rh  Rh8  1  0.638254  0.861933  0.000000  1
  Rh  Rh9  1  0.138254  0.638067  0.000000  1
