# generated using pymatgen
data_Sm3YMn4(CuO5)4
_symmetry_space_group_name_H-M   'P 1'
_cell_length_a   5.67193300
_cell_length_b   7.64998838
_cell_length_c   8.54457591
_cell_angle_alpha   90.10872657
_cell_angle_beta   90.00000000
_cell_angle_gamma   90.00000000
_symmetry_Int_Tables_number   1
_chemical_formula_structural   Sm3YMn4(CuO5)4
_chemical_formula_sum   'Sm3 Y1 Mn4 Cu4 O20'
_cell_volume   370.75037451
_cell_formula_units_Z   1
loop_
 _symmetry_equiv_pos_site_id
 _symmetry_equiv_pos_as_xyz
  1  'x, y, z'
loop_
 _atom_site_type_symbol
 _atom_site_label
 _atom_site_symmetry_multiplicity
 _atom_site_fract_x
 _atom_site_fract_y
 _atom_site_fract_z
 _atom_site_occupancy
  Sm  Sm0  1  0.500000  0.349775  0.325095  1
  Sm  Sm1  1  0.500000  0.650541  0.674674  1
  Sm  Sm2  1  0.500000  0.149345  0.826343  1
  Y  Y3  1  0.500000  0.848492  0.175227  1
  Mn  Mn4  1  0.239648  0.999137  0.499063  1
  Mn  Mn5  1  0.760352  0.999137  0.499063  1
  Mn  Mn6  1  0.760692  0.501940  0.000702  1
  Mn  Mn7  1  0.239308  0.501940  0.000702  1
  Cu  Cu8  1  0.000000  0.065302  0.150902  1
  Cu  Cu9  1  0.000000  0.928873  0.850219  1
  Cu  Cu10  1  0.000000  0.430871  0.650456  1
  Cu  Cu11  1  0.000000  0.572295  0.349261  1
  O  O12  1  0.225411  0.996536  0.001711  1
  O  O13  1  0.774589  0.996536  0.001711  1
  O  O14  1  0.776561  0.499695  0.499322  1
  O  O15  1  0.223439  0.499695  0.499322  1
  O  O16  1  0.000000  0.350263  0.061911  1
  O  O17  1  0.000000  0.652709  0.939583  1
  O  O18  1  0.000000  0.151962  0.557334  1
  O  O19  1  0.000000  0.847041  0.440712  1
  O  O20  1  0.256883  0.088369  0.285769  1
  O  O21  1  0.745462  0.908245  0.712571  1
  O  O22  1  0.254538  0.908245  0.712571  1
  O  O23  1  0.745361  0.408275  0.787764  1
  O  O24  1  0.743117  0.088369  0.285769  1
  O  O25  1  0.255717  0.597443  0.212603  1
  O  O26  1  0.744283  0.597443  0.212603  1
  O  O27  1  0.254639  0.408275  0.787764  1
  O  O28  1  0.500000  0.340517  0.050246  1
  O  O29  1  0.500000  0.664196  0.952116  1
  O  O30  1  0.500000  0.160732  0.549457  1
  O  O31  1  0.500000  0.837808  0.447450  1
