# generated using pymatgen
data_Yb6Ni9B4Pt5
_symmetry_space_group_name_H-M   'P 1'
_cell_length_a   5.16653942
_cell_length_b   5.16180861
_cell_length_c   14.62385857
_cell_angle_alpha   89.53724996
_cell_angle_beta   90.01834788
_cell_angle_gamma   119.31989541
_symmetry_Int_Tables_number   1
_chemical_formula_structural   Yb6Ni9B4Pt5
_chemical_formula_sum   'Yb6 Ni9 B4 Pt5'
_cell_volume   340.02590637
_cell_formula_units_Z   1
loop_
 _symmetry_equiv_pos_site_id
 _symmetry_equiv_pos_as_xyz
  1  'x, y, z'
loop_
 _atom_site_type_symbol
 _atom_site_label
 _atom_site_symmetry_multiplicity
 _atom_site_fract_x
 _atom_site_fract_y
 _atom_site_fract_z
 _atom_site_occupancy
  Yb  Yb0  1  0.657675  0.324686  0.538117  1
  Yb  Yb1  1  0.326814  0.659221  0.463831  1
  Yb  Yb2  1  0.330032  0.665580  0.032884  1
  Yb  Yb3  1  0.662791  0.335258  0.752832  1
  Yb  Yb4  1  0.662572  0.332265  0.962315  1
  Yb  Yb5  1  0.343554  0.669661  0.248492  1
  Ni  Ni6  1  0.160912  0.831650  0.846795  1
  Ni  Ni7  1  0.842532  0.668763  0.344024  1
  Ni  Ni8  1  0.844738  0.171201  0.152595  1
  Ni  Ni9  1  0.666093  0.837691  0.658661  1
  Ni  Ni10  1  0.662140  0.832911  0.845703  1
  Ni  Ni11  1  0.161839  0.836723  0.657756  1
  Ni  Ni12  1  0.844688  0.674410  0.153496  1
  Ni  Ni13  1  0.161440  0.333846  0.846710  1
  Ni  Ni14  1  0.842006  0.165144  0.344646  1
  B  B15  1  0.695797  0.346356  0.248711  1
  B  B16  1  0.992168  0.993143  0.753984  1
  B  B17  1  0.335618  0.679454  0.754030  1
  B  B18  1  0.994371  0.995146  0.248754  1
  Pt  Pt19  1  0.165168  0.341414  0.651237  1
  Pt  Pt20  1  0.346715  0.169089  0.352480  1
  Pt  Pt21  1  0.349234  0.174611  0.145125  1
  Pt  Pt22  1  0.980920  0.990538  0.995391  1
  Pt  Pt23  1  0.970181  0.971239  0.501431  1
