# generated using pymatgen
data_Rb5Pu3Br12
_symmetry_space_group_name_H-M   'P 1'
_cell_length_a   14.17745000
_cell_length_b   14.17744962
_cell_length_c   4.64797300
_cell_angle_alpha   90.00000000
_cell_angle_beta   90.00000000
_cell_angle_gamma   119.99999622
_symmetry_Int_Tables_number   1
_chemical_formula_structural   Rb5Pu3Br12
_chemical_formula_sum   'Rb5 Pu3 Br12'
_cell_volume   809.07816693
_cell_formula_units_Z   1
loop_
 _symmetry_equiv_pos_site_id
 _symmetry_equiv_pos_as_xyz
  1  'x, y, z'
loop_
 _atom_site_type_symbol
 _atom_site_label
 _atom_site_symmetry_multiplicity
 _atom_site_fract_x
 _atom_site_fract_y
 _atom_site_fract_z
 _atom_site_occupancy
  Rb  Rb0  1  0.333333  0.666667  0.000000  1
  Rb  Rb1  1  0.666667  0.333333  0.000000  1
  Rb  Rb2  1  0.712764  0.000000  0.000000  1
  Rb  Rb3  1  0.000000  0.712764  0.000000  1
  Rb  Rb4  1  0.287236  0.287236  0.000000  1
  Pu  Pu5  1  0.328238  0.000000  0.500000  1
  Pu  Pu6  1  0.000000  0.328238  0.500000  1
  Pu  Pu7  1  0.671762  0.671762  0.500000  1
  Br  Br8  1  0.189731  0.000000  0.000000  1
  Br  Br9  1  0.000000  0.189731  0.000000  1
  Br  Br10  1  0.810269  0.810269  0.000000  1
  Br  Br11  1  0.462482  0.000000  0.000000  1
  Br  Br12  1  0.000000  0.462482  0.000000  1
  Br  Br13  1  0.537518  0.537518  0.000000  1
  Br  Br14  1  0.241623  0.444918  0.500000  1
  Br  Br15  1  0.555082  0.796704  0.500000  1
  Br  Br16  1  0.444918  0.241623  0.500000  1
  Br  Br17  1  0.203296  0.758377  0.500000  1
  Br  Br18  1  0.796704  0.555082  0.500000  1
  Br  Br19  1  0.758377  0.203296  0.500000  1
