# generated using pymatgen
data_Er8Al2CoNi
_symmetry_space_group_name_H-M   'P 1'
_cell_length_a   9.34665586
_cell_length_b   9.35038018
_cell_length_c   9.35502800
_cell_angle_alpha   60.30359703
_cell_angle_beta   60.23292504
_cell_angle_gamma   60.28103470
_symmetry_Int_Tables_number   1
_chemical_formula_structural   Er8Al2CoNi
_chemical_formula_sum   'Er16 Al4 Co2 Ni2'
_cell_volume   581.68218976
_cell_formula_units_Z   2
loop_
 _symmetry_equiv_pos_site_id
 _symmetry_equiv_pos_as_xyz
  1  'x, y, z'
loop_
 _atom_site_type_symbol
 _atom_site_label
 _atom_site_symmetry_multiplicity
 _atom_site_fract_x
 _atom_site_fract_y
 _atom_site_fract_z
 _atom_site_occupancy
  Er  Er0  1  0.187833  0.193945  0.807248  1
  Er  Er1  1  0.438215  0.060841  0.060802  1
  Er  Er2  1  0.437690  0.062632  0.434285  1
  Er  Er3  1  0.062564  0.435396  0.061265  1
  Er  Er4  1  0.649872  0.054074  0.645190  1
  Er  Er5  1  0.191665  0.808461  0.808360  1
  Er  Er6  1  0.062311  0.061331  0.435621  1
  Er  Er7  1  0.809209  0.190137  0.189831  1
  Er  Er8  1  0.809505  0.807950  0.194267  1
  Er  Er9  1  0.650173  0.645026  0.054103  1
  Er  Er10  1  0.654091  0.650596  0.650702  1
  Er  Er11  1  0.063331  0.435845  0.435933  1
  Er  Er12  1  0.048972  0.648957  0.649240  1
  Er  Er13  1  0.809556  0.194468  0.807939  1
  Er  Er14  1  0.437779  0.434612  0.062491  1
  Er  Er15  1  0.187848  0.807254  0.193943  1
  Al  Al16  1  0.422921  0.732572  0.423926  1
  Al  Al17  1  0.422870  0.423896  0.732581  1
  Al  Al18  1  0.733114  0.423547  0.423549  1
  Al  Al19  1  0.421170  0.422580  0.422675  1
  Co  Co20  1  0.858851  0.425853  0.861374  1
  Co  Co21  1  0.858787  0.861423  0.425854  1
  Ni  Ni22  1  0.426273  0.859906  0.860488  1
  Ni  Ni23  1  0.855396  0.858698  0.858332  1
