# generated using pymatgen
data_Nd2TcB5Os2
_symmetry_space_group_name_H-M   'P 1'
_cell_length_a   5.72626104
_cell_length_b   5.73233927
_cell_length_c   8.22690178
_cell_angle_alpha   123.50841000
_cell_angle_beta   123.59643280
_cell_angle_gamma   41.57233383
_symmetry_Int_Tables_number   1
_chemical_formula_structural   Nd2TcB5Os2
_chemical_formula_sum   'Nd2 Tc1 B5 Os2'
_cell_volume   144.52669150
_cell_formula_units_Z   1
loop_
 _symmetry_equiv_pos_site_id
 _symmetry_equiv_pos_as_xyz
  1  'x, y, z'
loop_
 _atom_site_type_symbol
 _atom_site_label
 _atom_site_symmetry_multiplicity
 _atom_site_fract_x
 _atom_site_fract_y
 _atom_site_fract_z
 _atom_site_occupancy
  Nd  Nd0  1  0.393623  0.939587  0.259063  1
  Nd  Nd1  1  0.059060  0.607575  0.739829  1
  Tc  Tc2  1  0.614130  0.126954  0.098431  1
  B  B3  1  0.728839  0.272803  0.999633  1
  B  B4  1  0.091893  0.621051  0.190384  1
  B  B5  1  0.490437  0.475191  0.384937  1
  B  B6  1  0.522847  0.508698  0.615156  1
  B  B7  1  0.375660  0.910153  0.811043  1
  Os  Os8  1  0.014751  0.983557  0.499997  1
  Os  Os9  1  0.874999  0.388189  0.901529  1
