# generated using pymatgen
data_Rb4P2S9
_symmetry_space_group_name_H-M   'P 1'
_cell_length_a   7.05314588
_cell_length_b   7.05314571
_cell_length_c   18.62383773
_cell_angle_alpha   86.49643618
_cell_angle_beta   86.49643670
_cell_angle_gamma   95.43424929
_symmetry_Int_Tables_number   1
_chemical_formula_structural   Rb4P2S9
_chemical_formula_sum   'Rb8 P4 S18'
_cell_volume   918.50094381
_cell_formula_units_Z   2
loop_
 _symmetry_equiv_pos_site_id
 _symmetry_equiv_pos_as_xyz
  1  'x, y, z'
loop_
 _atom_site_type_symbol
 _atom_site_label
 _atom_site_symmetry_multiplicity
 _atom_site_fract_x
 _atom_site_fract_y
 _atom_site_fract_z
 _atom_site_occupancy
  Rb  Rb0  1  0.724051  0.215155  0.473745  1
  Rb  Rb1  1  0.275949  0.784845  0.526255  1
  Rb  Rb2  1  0.784845  0.275949  0.026255  1
  Rb  Rb3  1  0.568096  0.761377  0.177516  1
  Rb  Rb4  1  0.238623  0.431904  0.322484  1
  Rb  Rb5  1  0.761377  0.568096  0.677516  1
  Rb  Rb6  1  0.215155  0.724051  0.973745  1
  Rb  Rb7  1  0.431904  0.238623  0.822484  1
  P  P8  1  0.732352  0.744378  0.379377  1
  P  P9  1  0.255622  0.267648  0.120623  1
  P  P10  1  0.744378  0.732352  0.879377  1
  P  P11  1  0.267648  0.255622  0.620623  1
  S  S12  1  0.127999  0.504644  0.140631  1
  S  S13  1  0.872001  0.495356  0.859369  1
  S  S14  1  0.510839  0.753309  0.823710  1
  S  S15  1  0.504644  0.127999  0.640631  1
  S  S16  1  0.753309  0.510839  0.323710  1
  S  S17  1  0.495356  0.872001  0.359369  1
  S  S18  1  0.246691  0.489161  0.676290  1
  S  S19  1  0.017735  0.044222  0.656345  1
  S  S20  1  0.281876  0.210572  0.015123  1
  S  S21  1  0.982265  0.955778  0.343655  1
  S  S22  1  0.789428  0.718124  0.484877  1
  S  S23  1  0.955778  0.982265  0.843655  1
  S  S24  1  0.489161  0.246691  0.176290  1
  S  S25  1  0.718124  0.789428  0.984877  1
  S  S26  1  0.044222  0.017735  0.156345  1
  S  S27  1  0.906204  0.093796  0.250000  1
  S  S28  1  0.210572  0.281876  0.515123  1
  S  S29  1  0.093796  0.906204  0.750000  1
