# generated using pymatgen
data_CeSi4(Ru2Rh)2
_symmetry_space_group_name_H-M   'P 1'
_cell_length_a   7.05948600
_cell_length_b   6.99607452
_cell_length_c   3.83152200
_cell_angle_alpha   90.00000000
_cell_angle_beta   90.00000000
_cell_angle_gamma   120.30028594
_symmetry_Int_Tables_number   1
_chemical_formula_structural   CeSi4(Ru2Rh)2
_chemical_formula_sum   'Ce1 Si4 Ru4 Rh2'
_cell_volume   163.38319013
_cell_formula_units_Z   1
loop_
 _symmetry_equiv_pos_site_id
 _symmetry_equiv_pos_as_xyz
  1  'x, y, z'
loop_
 _atom_site_type_symbol
 _atom_site_label
 _atom_site_symmetry_multiplicity
 _atom_site_fract_x
 _atom_site_fract_y
 _atom_site_fract_z
 _atom_site_occupancy
  Ce  Ce0  1  0.003813  0.007628  0.000000  1
  Si  Si1  1  0.330621  0.661239  0.000000  1
  Si  Si2  1  0.404667  0.203137  0.500000  1
  Si  Si3  1  0.798469  0.203137  0.500000  1
  Si  Si4  1  0.797814  0.595628  0.500000  1
  Ru  Ru5  1  0.533819  0.067639  0.000000  1
  Ru  Ru6  1  0.535535  0.465931  0.000000  1
  Ru  Ru7  1  0.930398  0.465931  0.000000  1
  Ru  Ru8  1  0.197685  0.395369  0.500000  1
  Rh  Rh9  1  0.198053  0.800480  0.500000  1
  Rh  Rh10  1  0.602427  0.800480  0.500000  1
