# generated using pymatgen
data_Cs4Na2LaInBi4
_symmetry_space_group_name_H-M   'P 1'
_cell_length_a   11.90799951
_cell_length_b   11.90799994
_cell_length_c   7.72700400
_cell_angle_alpha   90.00000000
_cell_angle_beta   90.00000000
_cell_angle_gamma   100.91790393
_symmetry_Int_Tables_number   1
_chemical_formula_structural   Cs4Na2LaInBi4
_chemical_formula_sum   'Cs8 Na4 La2 In2 Bi8'
_cell_volume   1075.86019902
_cell_formula_units_Z   2
loop_
 _symmetry_equiv_pos_site_id
 _symmetry_equiv_pos_as_xyz
  1  'x, y, z'
loop_
 _atom_site_type_symbol
 _atom_site_label
 _atom_site_symmetry_multiplicity
 _atom_site_fract_x
 _atom_site_fract_y
 _atom_site_fract_z
 _atom_site_occupancy
  Cs  Cs0  1  0.071488  0.428512  0.250000  1
  Cs  Cs1  1  0.428512  0.071488  0.750000  1
  Cs  Cs2  1  0.920344  0.579656  0.750000  1
  Cs  Cs3  1  0.579656  0.920344  0.250000  1
  Cs  Cs4  1  0.677737  0.330580  0.218105  1
  Cs  Cs5  1  0.822263  0.169420  0.718105  1
  Cs  Cs6  1  0.330580  0.677737  0.781895  1
  Cs  Cs7  1  0.169420  0.822263  0.281895  1
  Na  Na8  1  0.382285  0.382285  0.000000  1
  Na  Na9  1  0.117715  0.117715  0.500000  1
  Na  Na10  1  0.621693  0.621693  0.000000  1
  Na  Na11  1  0.878307  0.878307  0.500000  1
  La  La12  1  0.125420  0.125420  0.000000  1
  La  La13  1  0.374580  0.374580  0.500000  1
  In  In14  1  0.868770  0.868770  0.000000  1
  In  In15  1  0.631230  0.631230  0.500000  1
  Bi  Bi16  1  0.843523  0.656476  0.250000  1
  Bi  Bi17  1  0.656476  0.843523  0.750000  1
  Bi  Bi18  1  0.150525  0.349474  0.750000  1
  Bi  Bi19  1  0.349474  0.150525  0.250000  1
  Bi  Bi20  1  0.892604  0.091241  0.217580  1
  Bi  Bi21  1  0.607396  0.408759  0.717580  1
  Bi  Bi22  1  0.091241  0.892604  0.782420  1
  Bi  Bi23  1  0.408759  0.607396  0.282420  1
