# generated using pymatgen
data_Pd(PtO3)2
_symmetry_space_group_name_H-M   'P 1'
_cell_length_a   4.60561802
_cell_length_b   19.07929200
_cell_length_c   4.56187302
_cell_angle_alpha   89.99839755
_cell_angle_beta   89.99994151
_cell_angle_gamma   90.00009824
_symmetry_Int_Tables_number   1
_chemical_formula_structural   Pd(PtO3)2
_chemical_formula_sum   'Pd4 Pt8 O24'
_cell_volume   400.86059077
_cell_formula_units_Z   4
loop_
 _symmetry_equiv_pos_site_id
 _symmetry_equiv_pos_as_xyz
  1  'x, y, z'
loop_
 _atom_site_type_symbol
 _atom_site_label
 _atom_site_symmetry_multiplicity
 _atom_site_fract_x
 _atom_site_fract_y
 _atom_site_fract_z
 _atom_site_occupancy
  Pd  Pd0  1  0.999998  0.500026  0.000002  1
  Pd  Pd1  1  0.499992  0.750023  0.500012  1
  Pd  Pd2  1  0.000002  0.999969  0.999988  1
  Pd  Pd3  1  0.500004  0.249987  0.500000  1
  Pt  Pt4  1  0.000021  0.166482  0.999992  1
  Pt  Pt5  1  0.000013  0.666539  0.000008  1
  Pt  Pt6  1  0.499980  0.416476  0.499993  1
  Pt  Pt7  1  0.499974  0.916462  0.499987  1
  Pt  Pt8  1  0.500028  0.083498  0.499997  1
  Pt  Pt9  1  0.500022  0.583545  0.500016  1
  Pt  Pt10  1  0.999987  0.333494  0.000003  1
  Pt  Pt11  1  0.999979  0.833502  0.000004  1
  O  O12  1  0.761661  0.249995  0.136400  1
  O  O13  1  0.761649  0.750018  0.136488  1
  O  O14  1  0.261705  0.999970  0.363524  1
  O  O15  1  0.261856  0.500019  0.363515  1
  O  O16  1  0.738166  0.500027  0.636489  1
  O  O17  1  0.738321  0.999980  0.636445  1
  O  O18  1  0.238377  0.249989  0.863610  1
  O  O19  1  0.238357  0.750012  0.863539  1
  O  O20  1  0.757363  0.416396  0.139788  1
  O  O21  1  0.757350  0.916404  0.139763  1
  O  O22  1  0.757627  0.083560  0.139881  1
  O  O23  1  0.757440  0.583624  0.139746  1
  O  O24  1  0.257430  0.166403  0.360186  1
  O  O25  1  0.257507  0.666474  0.360249  1
  O  O26  1  0.257367  0.333563  0.360171  1
  O  O27  1  0.257279  0.833568  0.360248  1
  O  O28  1  0.742644  0.166399  0.639750  1
  O  O29  1  0.742548  0.666472  0.639734  1
  O  O30  1  0.742554  0.333560  0.639892  1
  O  O31  1  0.742620  0.833562  0.639818  1
  O  O32  1  0.242528  0.416402  0.860117  1
  O  O33  1  0.242528  0.916407  0.860112  1
  O  O34  1  0.242475  0.083563  0.860183  1
  O  O35  1  0.242646  0.583627  0.860348  1
