# generated using pymatgen
data_Lu8ReB24Os2W
_symmetry_space_group_name_H-M   'P 1'
_cell_length_a   3.59218900
_cell_length_b   9.08040793
_cell_length_c   11.45432142
_cell_angle_alpha   90.16012918
_cell_angle_beta   90.00000000
_cell_angle_gamma   90.00000000
_symmetry_Int_Tables_number   1
_chemical_formula_structural   Lu8ReB24Os2W
_chemical_formula_sum   'Lu8 Re1 B24 Os2 W1'
_cell_volume   373.62179917
_cell_formula_units_Z   1
loop_
 _symmetry_equiv_pos_site_id
 _symmetry_equiv_pos_as_xyz
  1  'x, y, z'
loop_
 _atom_site_type_symbol
 _atom_site_label
 _atom_site_symmetry_multiplicity
 _atom_site_fract_x
 _atom_site_fract_y
 _atom_site_fract_z
 _atom_site_occupancy
  Lu  Lu0  1  0.000000  0.320449  0.413757  1
  Lu  Lu1  1  0.000000  0.680566  0.587688  1
  Lu  Lu2  1  0.000000  0.821773  0.083754  1
  Lu  Lu3  1  0.000000  0.175677  0.913644  1
  Lu  Lu4  1  0.000000  0.942500  0.373042  1
  Lu  Lu5  1  0.000000  0.056162  0.629208  1
  Lu  Lu6  1  0.000000  0.445474  0.127825  1
  Lu  Lu7  1  0.000000  0.557429  0.871001  1
  Re  Re8  1  0.000000  0.861414  0.819624  1
  B  B9  1  0.500000  0.553619  0.434065  1
  B  B10  1  0.500000  0.446489  0.566189  1
  B  B11  1  0.500000  0.050450  0.063705  1
  B  B12  1  0.500000  0.946516  0.932492  1
  B  B13  1  0.500000  0.749594  0.419959  1
  B  B14  1  0.500000  0.250207  0.580571  1
  B  B15  1  0.500000  0.252636  0.077267  1
  B  B16  1  0.500000  0.750561  0.919351  1
  B  B17  1  0.500000  0.790928  0.265943  1
  B  B18  1  0.500000  0.208317  0.734792  1
  B  B19  1  0.500000  0.296517  0.236928  1
  B  B20  1  0.500000  0.707210  0.764647  1
  B  B21  1  0.500000  0.630522  0.185220  1
  B  B22  1  0.500000  0.369855  0.814714  1
  B  B23  1  0.500000  0.131023  0.318755  1
  B  B24  1  0.500000  0.869083  0.684385  1
  B  B25  1  0.500000  0.976156  0.213257  1
  B  B26  1  0.500000  0.018808  0.787087  1
  B  B27  1  0.500000  0.482264  0.287967  1
  B  B28  1  0.500000  0.518680  0.712125  1
  B  B29  1  0.500000  0.602824  0.028216  1
  B  B30  1  0.500000  0.398837  0.970693  1
  B  B31  1  0.500000  0.102255  0.473058  1
  B  B32  1  0.500000  0.897224  0.528627  1
  Os  Os33  1  0.000000  0.637476  0.322108  1
  Os  Os34  1  0.000000  0.362422  0.678481  1
  W  W35  1  0.000000  0.138083  0.179853  1
