# generated using pymatgen
data_Tb4Ho4ReRu3C8
_symmetry_space_group_name_H-M   'P 1'
_cell_length_a   5.11448300
_cell_length_b   6.51153738
_cell_length_c   9.79143658
_cell_angle_alpha   90.03932422
_cell_angle_beta   90.00000000
_cell_angle_gamma   90.00000000
_symmetry_Int_Tables_number   1
_chemical_formula_structural   Tb4Ho4ReRu3C8
_chemical_formula_sum   'Tb4 Ho4 Re1 Ru3 C8'
_cell_volume   326.08557731
_cell_formula_units_Z   1
loop_
 _symmetry_equiv_pos_site_id
 _symmetry_equiv_pos_as_xyz
  1  'x, y, z'
loop_
 _atom_site_type_symbol
 _atom_site_label
 _atom_site_symmetry_multiplicity
 _atom_site_fract_x
 _atom_site_fract_y
 _atom_site_fract_z
 _atom_site_occupancy
  Tb  Tb0  1  0.750000  0.469899  0.784138  1
  Tb  Tb1  1  0.250000  0.028150  0.288580  1
  Tb  Tb2  1  0.750000  0.971159  0.714308  1
  Tb  Tb3  1  0.250000  0.527403  0.212398  1
  Ho  Ho4  1  0.750000  0.825261  0.055009  1
  Ho  Ho5  1  0.250000  0.675084  0.555202  1
  Ho  Ho6  1  0.750000  0.325913  0.444207  1
  Ho  Ho7  1  0.250000  0.180235  0.943395  1
  Re  Re8  1  0.250000  0.721982  0.866064  1
  Ru  Ru9  1  0.750000  0.279221  0.135476  1
  Ru  Ru10  1  0.250000  0.222431  0.633418  1
  Ru  Ru11  1  0.750000  0.780020  0.363855  1
  C  C12  1  0.750000  0.172048  0.948656  1
  C  C13  1  0.250000  0.823643  0.052734  1
  C  C14  1  0.750000  0.671271  0.551221  1
  C  C15  1  0.250000  0.324957  0.448185  1
  C  C16  1  0.750000  0.045158  0.257851  1
  C  C17  1  0.250000  0.455980  0.761116  1
  C  C18  1  0.750000  0.545216  0.241499  1
  C  C19  1  0.250000  0.954971  0.742690  1
