# generated using pymatgen
data_Sr2AcLaSi8
_symmetry_space_group_name_H-M   'P 1'
_cell_length_a   4.47070800
_cell_length_b   4.47070800
_cell_length_c   13.76711900
_cell_angle_alpha   90.00000000
_cell_angle_beta   90.00000000
_cell_angle_gamma   90.00000000
_symmetry_Int_Tables_number   1
_chemical_formula_structural   Sr2AcLaSi8
_chemical_formula_sum   'Sr2 Ac1 La1 Si8'
_cell_volume   275.16657418
_cell_formula_units_Z   1
loop_
 _symmetry_equiv_pos_site_id
 _symmetry_equiv_pos_as_xyz
  1  'x, y, z'
loop_
 _atom_site_type_symbol
 _atom_site_label
 _atom_site_symmetry_multiplicity
 _atom_site_fract_x
 _atom_site_fract_y
 _atom_site_fract_z
 _atom_site_occupancy
  Sr  Sr0  1  0.500000  0.000000  0.751036  1
  Sr  Sr1  1  0.000000  0.500000  0.248964  1
  Ac  Ac2  1  0.000000  0.000000  0.500000  1
  La  La3  1  0.500000  0.500000  0.000000  1
  Si  Si4  1  0.000000  0.000000  0.916826  1
  Si  Si5  1  0.500000  0.500000  0.415862  1
  Si  Si6  1  0.000000  0.500000  0.838130  1
  Si  Si7  1  0.500000  0.000000  0.333417  1
  Si  Si8  1  0.000000  0.000000  0.083174  1
  Si  Si9  1  0.500000  0.500000  0.584138  1
  Si  Si10  1  0.500000  0.000000  0.161870  1
  Si  Si11  1  0.000000  0.500000  0.666583  1
