# generated using pymatgen
data_Tb5Y5(BiPb)3
_symmetry_space_group_name_H-M   'P 1'
_cell_length_a   9.18104936
_cell_length_b   9.15428750
_cell_length_c   6.51235300
_cell_angle_alpha   90.00000000
_cell_angle_beta   90.00000000
_cell_angle_gamma   119.90363210
_symmetry_Int_Tables_number   1
_chemical_formula_structural   Tb5Y5(BiPb)3
_chemical_formula_sum   'Tb5 Y5 Bi3 Pb3'
_cell_volume   474.46736472
_cell_formula_units_Z   1
loop_
 _symmetry_equiv_pos_site_id
 _symmetry_equiv_pos_as_xyz
  1  'x, y, z'
loop_
 _atom_site_type_symbol
 _atom_site_label
 _atom_site_symmetry_multiplicity
 _atom_site_fract_x
 _atom_site_fract_y
 _atom_site_fract_z
 _atom_site_occupancy
  Tb  Tb0  1  0.667117  0.333499  0.999165  1
  Tb  Tb1  1  0.332883  0.666383  0.999165  1
  Tb  Tb2  1  0.332883  0.666383  0.500835  1
  Tb  Tb3  1  0.667117  0.333499  0.500835  1
  Tb  Tb4  1  0.000000  0.761422  0.250000  1
  Y  Y5  1  0.760141  0.760163  0.750000  1
  Y  Y6  1  0.239859  0.000022  0.750000  1
  Y  Y7  1  0.000000  0.238749  0.750000  1
  Y  Y8  1  0.239423  0.239426  0.250000  1
  Y  Y9  1  0.760577  0.000003  0.250000  1
  Bi  Bi10  1  0.608799  0.608921  0.250000  1
  Bi  Bi11  1  0.391201  0.000122  0.250000  1
  Bi  Bi12  1  0.000000  0.391427  0.250000  1
  Pb  Pb13  1  0.390595  0.390861  0.750000  1
  Pb  Pb14  1  0.609405  0.000266  0.750000  1
  Pb  Pb15  1  0.000000  0.608854  0.750000  1
