# generated using pymatgen
data_Ho5ZnCo5
_symmetry_space_group_name_H-M   'P 1'
_cell_length_a   5.40726572
_cell_length_b   5.40726649
_cell_length_c   20.52569700
_cell_angle_alpha   90.00000000
_cell_angle_beta   90.00000000
_cell_angle_gamma   136.09618416
_symmetry_Int_Tables_number   1
_chemical_formula_structural   Ho5ZnCo5
_chemical_formula_sum   'Ho10 Zn2 Co10'
_cell_volume   416.16776258
_cell_formula_units_Z   2
loop_
 _symmetry_equiv_pos_site_id
 _symmetry_equiv_pos_as_xyz
  1  'x, y, z'
loop_
 _atom_site_type_symbol
 _atom_site_label
 _atom_site_symmetry_multiplicity
 _atom_site_fract_x
 _atom_site_fract_y
 _atom_site_fract_z
 _atom_site_occupancy
  Ho  Ho0  1  0.291892  0.708108  0.250000  1
  Ho  Ho1  1  0.295120  0.704880  0.065001  1
  Ho  Ho2  1  0.995651  0.004349  0.843584  1
  Ho  Ho3  1  0.708108  0.291892  0.750000  1
  Ho  Ho4  1  0.704880  0.295120  0.565001  1
  Ho  Ho5  1  0.004349  0.995651  0.343584  1
  Ho  Ho6  1  0.995651  0.004349  0.656416  1
  Ho  Ho7  1  0.704880  0.295120  0.934999  1
  Ho  Ho8  1  0.004349  0.995651  0.156416  1
  Ho  Ho9  1  0.295120  0.704880  0.434999  1
  Zn  Zn10  1  0.000000  0.000000  0.500000  1
  Zn  Zn11  1  0.000000  0.000000  0.000000  1
  Co  Co12  1  0.291441  0.708559  0.654393  1
  Co  Co13  1  0.586306  0.413694  0.439877  1
  Co  Co14  1  0.410822  0.589178  0.750000  1
  Co  Co15  1  0.413694  0.586306  0.939877  1
  Co  Co16  1  0.589178  0.410822  0.250000  1
  Co  Co17  1  0.413694  0.586306  0.560123  1
  Co  Co18  1  0.708559  0.291441  0.345607  1
  Co  Co19  1  0.708559  0.291441  0.154393  1
  Co  Co20  1  0.586306  0.413694  0.060123  1
  Co  Co21  1  0.291441  0.708559  0.845607  1
