# generated using pymatgen
data_Pa2InRePd
_symmetry_space_group_name_H-M   'P 1'
_cell_length_a   7.76042700
_cell_length_b   7.77237300
_cell_length_c   3.64577100
_cell_angle_alpha   90.00000000
_cell_angle_beta   90.00000000
_cell_angle_gamma   90.00000000
_symmetry_Int_Tables_number   1
_chemical_formula_structural   Pa2InRePd
_chemical_formula_sum   'Pa4 In2 Re2 Pd2'
_cell_volume   219.90172617
_cell_formula_units_Z   2
loop_
 _symmetry_equiv_pos_site_id
 _symmetry_equiv_pos_as_xyz
  1  'x, y, z'
loop_
 _atom_site_type_symbol
 _atom_site_label
 _atom_site_symmetry_multiplicity
 _atom_site_fract_x
 _atom_site_fract_y
 _atom_site_fract_z
 _atom_site_occupancy
  Pa  Pa0  1  0.329511  0.851525  0.500000  1
  Pa  Pa1  1  0.829511  0.648475  0.500000  1
  Pa  Pa2  1  0.165637  0.316030  0.500000  1
  Pa  Pa3  1  0.665637  0.183970  0.500000  1
  In  In4  1  0.994463  0.995275  0.000000  1
  In  In5  1  0.494463  0.504725  0.000000  1
  Re  Re6  1  0.370161  0.131237  0.000000  1
  Re  Re7  1  0.870161  0.368763  0.000000  1
  Pd  Pd8  1  0.140229  0.638088  0.000000  1
  Pd  Pd9  1  0.640229  0.861912  0.000000  1
