# generated using pymatgen
data_Li4Al8ZnRh3
_symmetry_space_group_name_H-M   'P 1'
_cell_length_a   6.10593600
_cell_length_b   4.28369700
_cell_length_c   8.60225100
_cell_angle_alpha   90.00000000
_cell_angle_beta   89.99998396
_cell_angle_gamma   90.00000000
_symmetry_Int_Tables_number   1
_chemical_formula_structural   Li4Al8ZnRh3
_chemical_formula_sum   'Li4 Al8 Zn1 Rh3'
_cell_volume   225.00030275
_cell_formula_units_Z   1
loop_
 _symmetry_equiv_pos_site_id
 _symmetry_equiv_pos_as_xyz
  1  'x, y, z'
loop_
 _atom_site_type_symbol
 _atom_site_label
 _atom_site_symmetry_multiplicity
 _atom_site_fract_x
 _atom_site_fract_y
 _atom_site_fract_z
 _atom_site_occupancy
  Li  Li0  1  0.250021  0.250001  0.124973  1
  Li  Li1  1  0.750019  0.750001  0.377507  1
  Li  Li2  1  0.250001  0.250001  0.624965  1
  Li  Li3  1  0.750013  0.750001  0.872528  1
  Al  Al4  1  0.013777  0.750001  0.124993  1
  Al  Al5  1  0.486252  0.750001  0.124996  1
  Al  Al6  1  0.006427  0.250001  0.384079  1
  Al  Al7  1  0.493595  0.250001  0.384075  1
  Al  Al8  1  0.495035  0.750001  0.624997  1
  Al  Al9  1  0.004990  0.750001  0.624998  1
  Al  Al10  1  0.493584  0.250001  0.865888  1
  Al  Al11  1  0.006439  0.250001  0.865885  1
  Zn  Zn12  1  0.750019  0.250001  0.124986  1
  Rh  Rh13  1  0.249971  0.750001  0.371305  1
  Rh  Rh14  1  0.749849  0.250001  0.625146  1
  Rh  Rh15  1  0.250009  0.750001  0.878678  1
