# generated using pymatgen
data_Ti4Co6Si6Os
_symmetry_space_group_name_H-M   'P 1'
_cell_length_a   6.53228488
_cell_length_b   6.53228589
_cell_length_c   6.53228600
_cell_angle_alpha   109.47122408
_cell_angle_beta   109.47122720
_cell_angle_gamma   109.47121533
_symmetry_Int_Tables_number   1
_chemical_formula_structural   Ti4Co6Si6Os
_chemical_formula_sum   'Ti4 Co6 Si6 Os1'
_cell_volume   214.57225992
_cell_formula_units_Z   1
loop_
 _symmetry_equiv_pos_site_id
 _symmetry_equiv_pos_as_xyz
  1  'x, y, z'
loop_
 _atom_site_type_symbol
 _atom_site_label
 _atom_site_symmetry_multiplicity
 _atom_site_fract_x
 _atom_site_fract_y
 _atom_site_fract_z
 _atom_site_occupancy
  Ti  Ti0  1  0.500000  0.000000  0.000000  1
  Ti  Ti1  1  0.000000  0.500000  0.000000  1
  Ti  Ti2  1  0.000000  0.000000  0.500000  1
  Ti  Ti3  1  0.500000  0.500000  0.500000  1
  Co  Co4  1  0.500000  0.750000  0.250000  1
  Co  Co5  1  0.750000  0.500000  0.250000  1
  Co  Co6  1  0.250000  0.750000  0.500000  1
  Co  Co7  1  0.250000  0.500000  0.750000  1
  Co  Co8  1  0.500000  0.250000  0.750000  1
  Co  Co9  1  0.750000  0.250000  0.500000  1
  Si  Si10  1  0.000000  0.324130  0.324130  1
  Si  Si11  1  0.675870  0.000000  0.675870  1
  Si  Si12  1  0.675870  0.675870  0.000000  1
  Si  Si13  1  0.000000  0.675870  0.675870  1
  Si  Si14  1  0.324130  0.000000  0.324130  1
  Si  Si15  1  0.324130  0.324130  0.000000  1
  Os  Os16  1  0.000000  0.000000  0.000000  1
