# generated using pymatgen
data_TbHo3SiI6
_symmetry_space_group_name_H-M   'P 1'
_cell_length_a   4.21545500
_cell_length_b   13.95626075
_cell_length_c   14.74290268
_cell_angle_alpha   90.14564542
_cell_angle_beta   90.00000000
_cell_angle_gamma   90.00000000
_symmetry_Int_Tables_number   1
_chemical_formula_structural   TbHo3SiI6
_chemical_formula_sum   'Tb2 Ho6 Si2 I12'
_cell_volume   867.35148842
_cell_formula_units_Z   2
loop_
 _symmetry_equiv_pos_site_id
 _symmetry_equiv_pos_as_xyz
  1  'x, y, z'
loop_
 _atom_site_type_symbol
 _atom_site_label
 _atom_site_symmetry_multiplicity
 _atom_site_fract_x
 _atom_site_fract_y
 _atom_site_fract_z
 _atom_site_occupancy
  Tb  Tb0  1  0.000000  0.611528  0.925290  1
  Tb  Tb1  1  0.000000  0.388472  0.074710  1
  Ho  Ho2  1  0.500000  0.113343  0.348091  1
  Ho  Ho3  1  0.500000  0.886657  0.651909  1
  Ho  Ho4  1  0.500000  0.613760  0.152317  1
  Ho  Ho5  1  0.500000  0.386240  0.847683  1
  Ho  Ho6  1  0.000000  0.110196  0.573781  1
  Ho  Ho7  1  0.000000  0.889804  0.426219  1
  Si  Si8  1  0.500000  0.000000  0.500000  1
  Si  Si9  1  0.500000  0.500000  0.000000  1
  I  I10  1  0.500000  0.243838  0.163000  1
  I  I11  1  0.500000  0.756162  0.837000  1
  I  I12  1  0.500000  0.746664  0.338385  1
  I  I13  1  0.500000  0.253336  0.661615  1
  I  I14  1  0.000000  0.257944  0.414484  1
  I  I15  1  0.000000  0.742056  0.585516  1
  I  I16  1  0.000000  0.758728  0.087352  1
  I  I17  1  0.000000  0.241272  0.912648  1
  I  I18  1  0.000000  0.999131  0.241016  1
  I  I19  1  0.000000  0.000869  0.758984  1
  I  I20  1  0.000000  0.501063  0.260557  1
  I  I21  1  0.000000  0.498937  0.739443  1
