# generated using pymatgen
data_Tb3CrCo7NiP6
_symmetry_space_group_name_H-M   'P 1'
_cell_length_a   3.71177900
_cell_length_b   10.51817400
_cell_length_c   12.23076700
_cell_angle_alpha   90.00000000
_cell_angle_beta   90.00000000
_cell_angle_gamma   90.00000000
_symmetry_Int_Tables_number   1
_chemical_formula_structural   Tb3CrCo7NiP6
_chemical_formula_sum   'Tb6 Cr2 Co14 Ni2 P12'
_cell_volume   477.50305461
_cell_formula_units_Z   2
loop_
 _symmetry_equiv_pos_site_id
 _symmetry_equiv_pos_as_xyz
  1  'x, y, z'
loop_
 _atom_site_type_symbol
 _atom_site_label
 _atom_site_symmetry_multiplicity
 _atom_site_fract_x
 _atom_site_fract_y
 _atom_site_fract_z
 _atom_site_occupancy
  Tb  Tb0  1  0.000000  0.500000  0.520728  1
  Tb  Tb1  1  0.500000  0.000000  0.479272  1
  Tb  Tb2  1  0.500000  0.816277  0.204246  1
  Tb  Tb3  1  0.500000  0.183723  0.204246  1
  Tb  Tb4  1  0.000000  0.683723  0.795754  1
  Tb  Tb5  1  0.000000  0.316277  0.795754  1
  Cr  Cr6  1  0.500000  0.500000  0.155645  1
  Cr  Cr7  1  0.000000  0.000000  0.844355  1
  Co  Co8  1  0.000000  0.500000  0.986837  1
  Co  Co9  1  0.500000  0.000000  0.013163  1
  Co  Co10  1  0.500000  0.332641  0.992629  1
  Co  Co11  1  0.500000  0.667359  0.992629  1
  Co  Co12  1  0.000000  0.167359  0.007371  1
  Co  Co13  1  0.000000  0.832641  0.007371  1
  Co  Co14  1  0.500000  0.297277  0.431184  1
  Co  Co15  1  0.500000  0.702723  0.431184  1
  Co  Co16  1  0.000000  0.202723  0.568816  1
  Co  Co17  1  0.000000  0.797277  0.568816  1
  Co  Co18  1  0.500000  0.879679  0.709394  1
  Co  Co19  1  0.500000  0.120321  0.709394  1
  Co  Co20  1  0.000000  0.620321  0.290606  1
  Co  Co21  1  0.000000  0.379679  0.290606  1
  Ni  Ni22  1  0.500000  0.500000  0.702759  1
  Ni  Ni23  1  0.000000  0.000000  0.297241  1
  P  P24  1  0.500000  0.500000  0.883496  1
  P  P25  1  0.000000  0.000000  0.116504  1
  P  P26  1  0.500000  0.500000  0.343798  1
  P  P27  1  0.000000  0.000000  0.656202  1
  P  P28  1  0.500000  0.309796  0.615547  1
  P  P29  1  0.500000  0.690204  0.615547  1
  P  P30  1  0.000000  0.190204  0.384453  1
  P  P31  1  0.000000  0.809796  0.384453  1
  P  P32  1  0.500000  0.847844  0.892961  1
  P  P33  1  0.500000  0.152156  0.892961  1
  P  P34  1  0.000000  0.652156  0.107039  1
  P  P35  1  0.000000  0.347844  0.107039  1
