# generated using pymatgen
data_Tm3Lu7Cd3Ni
_symmetry_space_group_name_H-M   'P 1'
_cell_length_a   9.47831800
_cell_length_b   9.47831822
_cell_length_c   9.46389200
_cell_angle_alpha   90.00000000
_cell_angle_beta   90.00000000
_cell_angle_gamma   119.99999227
_symmetry_Int_Tables_number   1
_chemical_formula_structural   Tm3Lu7Cd3Ni
_chemical_formula_sum   'Tm6 Lu14 Cd6 Ni2'
_cell_volume   736.31390428
_cell_formula_units_Z   2
loop_
 _symmetry_equiv_pos_site_id
 _symmetry_equiv_pos_as_xyz
  1  'x, y, z'
loop_
 _atom_site_type_symbol
 _atom_site_label
 _atom_site_symmetry_multiplicity
 _atom_site_fract_x
 _atom_site_fract_y
 _atom_site_fract_z
 _atom_site_occupancy
  Tm  Tm0  1  0.542458  0.457542  0.250000  1
  Tm  Tm1  1  0.542458  0.084915  0.250000  1
  Tm  Tm2  1  0.915085  0.457542  0.250000  1
  Tm  Tm3  1  0.457542  0.542458  0.750000  1
  Tm  Tm4  1  0.457542  0.915085  0.750000  1
  Tm  Tm5  1  0.084915  0.542458  0.750000  1
  Lu  Lu6  1  0.000000  0.000000  0.500000  1
  Lu  Lu7  1  0.000000  0.000000  0.000000  1
  Lu  Lu8  1  0.211238  0.788762  0.437617  1
  Lu  Lu9  1  0.211238  0.422475  0.437617  1
  Lu  Lu10  1  0.577525  0.788762  0.437617  1
  Lu  Lu11  1  0.788762  0.211238  0.562383  1
  Lu  Lu12  1  0.788762  0.577525  0.562383  1
  Lu  Lu13  1  0.422475  0.211238  0.562383  1
  Lu  Lu14  1  0.788762  0.211238  0.937617  1
  Lu  Lu15  1  0.788762  0.577525  0.937617  1
  Lu  Lu16  1  0.422475  0.211238  0.937617  1
  Lu  Lu17  1  0.211238  0.788762  0.062383  1
  Lu  Lu18  1  0.211238  0.422475  0.062383  1
  Lu  Lu19  1  0.577525  0.788762  0.062383  1
  Cd  Cd20  1  0.885187  0.114813  0.250000  1
  Cd  Cd21  1  0.885187  0.770373  0.250000  1
  Cd  Cd22  1  0.229627  0.114813  0.250000  1
  Cd  Cd23  1  0.114813  0.885187  0.750000  1
  Cd  Cd24  1  0.114813  0.229627  0.750000  1
  Cd  Cd25  1  0.770373  0.885187  0.750000  1
  Ni  Ni26  1  0.333333  0.666667  0.250000  1
  Ni  Ni27  1  0.666667  0.333333  0.750000  1
