# generated using pymatgen
data_LaPr3Rh4F28
_symmetry_space_group_name_H-M   'P 1'
_cell_length_a   5.72886734
_cell_length_b   9.26085368
_cell_length_c   12.30522082
_cell_angle_alpha   62.13404208
_cell_angle_beta   89.96074663
_cell_angle_gamma   89.97963576
_symmetry_Int_Tables_number   1
_chemical_formula_structural   LaPr3Rh4F28
_chemical_formula_sum   'La1 Pr3 Rh4 F28'
_cell_volume   577.14206530
_cell_formula_units_Z   1
loop_
 _symmetry_equiv_pos_site_id
 _symmetry_equiv_pos_as_xyz
  1  'x, y, z'
loop_
 _atom_site_type_symbol
 _atom_site_label
 _atom_site_symmetry_multiplicity
 _atom_site_fract_x
 _atom_site_fract_y
 _atom_site_fract_z
 _atom_site_occupancy
  La  La0  1  0.739629  0.810639  0.765650  1
  Pr  Pr1  1  0.760288  0.810695  0.265793  1
  Pr  Pr2  1  0.260350  0.190150  0.234240  1
  Pr  Pr3  1  0.239764  0.191356  0.733981  1
  Rh  Rh4  1  0.244785  0.725216  0.542292  1
  Rh  Rh5  1  0.744702  0.273039  0.957090  1
  Rh  Rh6  1  0.755513  0.275785  0.455720  1
  Rh  Rh7  1  0.255513  0.725337  0.044953  1
  F  F8  1  0.959913  0.713034  0.458693  1
  F  F9  1  0.460721  0.285897  0.041646  1
  F  F10  1  0.038840  0.286999  0.541183  1
  F  F11  1  0.539518  0.712670  0.961340  1
  F  F12  1  0.063290  0.706943  0.921642  1
  F  F13  1  0.559536  0.292017  0.579537  1
  F  F14  1  0.940065  0.291366  0.080025  1
  F  F15  1  0.438858  0.707708  0.418727  1
  F  F16  1  0.739701  0.508457  0.861759  1
  F  F17  1  0.240039  0.489214  0.637778  1
  F  F18  1  0.260186  0.489575  0.140183  1
  F  F19  1  0.760375  0.511602  0.361389  1
  F  F20  1  0.739503  0.037140  0.049151  1
  F  F21  1  0.239483  0.961270  0.450798  1
  F  F22  1  0.260394  0.961080  0.951721  1
  F  F23  1  0.760496  0.040357  0.546444  1
  F  F24  1  0.054173  0.741330  0.667929  1
  F  F25  1  0.551784  0.256429  0.832106  1
  F  F26  1  0.949073  0.259632  0.330768  1
  F  F27  1  0.446559  0.742624  0.169827  1
  F  F28  1  0.024573  0.266493  0.868266  1
  F  F29  1  0.524641  0.732017  0.629878  1
  F  F30  1  0.974816  0.732598  0.132542  1
  F  F31  1  0.476643  0.268794  0.366943  1
  F  F32  1  0.090447  0.969233  0.230173  1
  F  F33  1  0.590371  0.031371  0.270229  1
  F  F34  1  0.908678  0.032695  0.769940  1
  F  F35  1  0.406782  0.969241  0.729667  1
