# generated using pymatgen
data_Ho3(ThSn2)2
_symmetry_space_group_name_H-M   'P 1'
_cell_length_a   8.12637800
_cell_length_b   8.22091700
_cell_length_c   15.52383900
_cell_angle_alpha   90.00000000
_cell_angle_beta   90.00000000
_cell_angle_gamma   90.00000000
_symmetry_Int_Tables_number   1
_chemical_formula_structural   Ho3(ThSn2)2
_chemical_formula_sum   'Ho12 Th8 Sn16'
_cell_volume   1037.08992014
_cell_formula_units_Z   4
loop_
 _symmetry_equiv_pos_site_id
 _symmetry_equiv_pos_as_xyz
  1  'x, y, z'
loop_
 _atom_site_type_symbol
 _atom_site_label
 _atom_site_symmetry_multiplicity
 _atom_site_fract_x
 _atom_site_fract_y
 _atom_site_fract_z
 _atom_site_occupancy
  Ho  Ho0  1  0.364446  0.836321  0.876438  1
  Ho  Ho1  1  0.864446  0.663679  0.623562  1
  Ho  Ho2  1  0.635554  0.163679  0.376438  1
  Ho  Ho3  1  0.135554  0.336321  0.123562  1
  Ho  Ho4  1  0.635554  0.163679  0.123562  1
  Ho  Ho5  1  0.135554  0.336321  0.376438  1
  Ho  Ho6  1  0.364446  0.836321  0.623562  1
  Ho  Ho7  1  0.864446  0.663679  0.876438  1
  Ho  Ho8  1  0.192356  0.498100  0.750000  1
  Ho  Ho9  1  0.692356  0.001900  0.750000  1
  Ho  Ho10  1  0.807644  0.501900  0.250000  1
  Ho  Ho11  1  0.307644  0.998100  0.250000  1
  Th  Th12  1  0.519819  0.320216  0.903367  1
  Th  Th13  1  0.019819  0.179784  0.596633  1
  Th  Th14  1  0.480181  0.679784  0.403367  1
  Th  Th15  1  0.980181  0.820216  0.096633  1
  Th  Th16  1  0.480181  0.679784  0.096633  1
  Th  Th17  1  0.980181  0.820216  0.403367  1
  Th  Th18  1  0.519819  0.320216  0.596633  1
  Th  Th19  1  0.019819  0.179784  0.903367  1
  Sn  Sn20  1  0.296384  0.038511  0.042433  1
  Sn  Sn21  1  0.796384  0.461489  0.457567  1
  Sn  Sn22  1  0.703616  0.961489  0.542433  1
  Sn  Sn23  1  0.203616  0.538511  0.957567  1
  Sn  Sn24  1  0.703616  0.961489  0.957567  1
  Sn  Sn25  1  0.203616  0.538511  0.542433  1
  Sn  Sn26  1  0.296384  0.038511  0.457567  1
  Sn  Sn27  1  0.796384  0.461489  0.042433  1
  Sn  Sn28  1  0.559988  0.621833  0.750000  1
  Sn  Sn29  1  0.059988  0.878167  0.750000  1
  Sn  Sn30  1  0.440012  0.378167  0.250000  1
  Sn  Sn31  1  0.940012  0.121833  0.250000  1
  Sn  Sn32  1  0.325655  0.141835  0.750000  1
  Sn  Sn33  1  0.825655  0.358165  0.750000  1
  Sn  Sn34  1  0.674345  0.858165  0.250000  1
  Sn  Sn35  1  0.174345  0.641835  0.250000  1
