# generated using pymatgen
data_Tm16In6CuRh
_symmetry_space_group_name_H-M   'P 1'
_cell_length_a   10.35181409
_cell_length_b   10.35394613
_cell_length_c   6.84219900
_cell_angle_alpha   89.99995933
_cell_angle_beta   90.00181769
_cell_angle_gamma   119.97856761
_symmetry_Int_Tables_number   1
_chemical_formula_structural   Tm16In6CuRh
_chemical_formula_sum   'Tm16 In6 Cu1 Rh1'
_cell_volume   635.24674766
_cell_formula_units_Z   1
loop_
 _symmetry_equiv_pos_site_id
 _symmetry_equiv_pos_as_xyz
  1  'x, y, z'
loop_
 _atom_site_type_symbol
 _atom_site_label
 _atom_site_symmetry_multiplicity
 _atom_site_fract_x
 _atom_site_fract_y
 _atom_site_fract_z
 _atom_site_occupancy
  Tm  Tm0  1  0.526793  0.053614  0.518330  1
  Tm  Tm1  1  0.946464  0.473286  0.518566  1
  Tm  Tm2  1  0.526821  0.473253  0.518812  1
  Tm  Tm3  1  0.468953  0.937852  0.016022  1
  Tm  Tm4  1  0.062128  0.531001  0.016108  1
  Tm  Tm5  1  0.468919  0.531022  0.016168  1
  Tm  Tm6  1  0.176280  0.352512  0.725323  1
  Tm  Tm7  1  0.647474  0.823724  0.725341  1
  Tm  Tm8  1  0.176255  0.823730  0.725372  1
  Tm  Tm9  1  0.823936  0.647857  0.225459  1
  Tm  Tm10  1  0.352062  0.176033  0.225570  1
  Tm  Tm11  1  0.823999  0.176050  0.225557  1
  Tm  Tm12  1  0.666634  0.333339  0.888445  1
  Tm  Tm13  1  0.333338  0.666616  0.393285  1
  Tm  Tm14  1  0.999957  0.000118  0.495983  1
  Tm  Tm15  1  0.999991  0.000089  0.001816  1
  In  In16  1  0.835718  0.671460  0.755229  1
  In  In17  1  0.328587  0.164326  0.755143  1
  In  In18  1  0.835737  0.164332  0.755095  1
  In  In19  1  0.161620  0.323250  0.256905  1
  In  In20  1  0.676635  0.838387  0.256939  1
  In  In21  1  0.161747  0.838252  0.256927  1
  Cu  Cu22  1  0.666662  0.333268  0.293335  1
  Rh  Rh23  1  0.333291  0.666628  0.792271  1
