# generated using pymatgen
data_YNi2HgPt2
_symmetry_space_group_name_H-M   'P 1'
_cell_length_a   5.09898776
_cell_length_b   5.19520483
_cell_length_c   5.19520499
_cell_angle_alpha   62.88389955
_cell_angle_beta   60.61078889
_cell_angle_gamma   60.61078543
_symmetry_Int_Tables_number   1
_chemical_formula_structural   YNi2HgPt2
_chemical_formula_sum   'Y1 Ni2 Hg1 Pt2'
_cell_volume   100.20333605
_cell_formula_units_Z   1
loop_
 _symmetry_equiv_pos_site_id
 _symmetry_equiv_pos_as_xyz
  1  'x, y, z'
loop_
 _atom_site_type_symbol
 _atom_site_label
 _atom_site_symmetry_multiplicity
 _atom_site_fract_x
 _atom_site_fract_y
 _atom_site_fract_z
 _atom_site_occupancy
  Y  Y0  1  0.001136  0.998864  0.998864  1
  Ni  Ni1  1  0.128601  0.622128  0.622128  1
  Ni  Ni2  1  0.627143  0.622128  0.622128  1
  Hg  Hg3  1  0.241978  0.258022  0.258022  1
  Pt  Pt4  1  0.625571  0.624318  0.124540  1
  Pt  Pt5  1  0.625571  0.124540  0.624318  1
