# generated using pymatgen
data_HfMg2(InRh2)3
_symmetry_space_group_name_H-M   'P 1'
_cell_length_a   4.55092402
_cell_length_b   6.37583401
_cell_length_c   13.62882403
_cell_angle_alpha   90.00029972
_cell_angle_beta   90.00001046
_cell_angle_gamma   90.00611113
_symmetry_Int_Tables_number   1
_chemical_formula_structural   HfMg2(InRh2)3
_chemical_formula_sum   'Hf2 Mg4 In6 Rh12'
_cell_volume   395.45308495
_cell_formula_units_Z   2
loop_
 _symmetry_equiv_pos_site_id
 _symmetry_equiv_pos_as_xyz
  1  'x, y, z'
loop_
 _atom_site_type_symbol
 _atom_site_label
 _atom_site_symmetry_multiplicity
 _atom_site_fract_x
 _atom_site_fract_y
 _atom_site_fract_z
 _atom_site_occupancy
  Hf  Hf0  1  0.999949  0.499998  0.663846  1
  Hf  Hf1  1  0.499959  0.000001  0.836142  1
  Mg  Mg2  1  0.000001  0.499997  0.002083  1
  Mg  Mg3  1  0.500033  0.000000  0.167779  1
  Mg  Mg4  1  0.000069  0.499998  0.332234  1
  Mg  Mg5  1  0.500002  0.000000  0.497932  1
  In  In6  1  0.999986  0.999999  0.005129  1
  In  In7  1  0.500057  0.499997  0.169448  1
  In  In8  1  0.000034  0.000006  0.330518  1
  In  In9  1  0.500002  0.500005  0.494873  1
  In  In10  1  0.999940  0.999999  0.663896  1
  In  In11  1  0.499972  0.500000  0.836093  1
  Rh  Rh12  1  0.499975  0.248576  0.998724  1
  Rh  Rh13  1  0.500014  0.751427  0.998727  1
  Rh  Rh14  1  0.000020  0.252231  0.166113  1
  Rh  Rh15  1  0.000048  0.747769  0.166112  1
  Rh  Rh16  1  0.500083  0.247815  0.333888  1
  Rh  Rh17  1  0.500058  0.752182  0.333892  1
  Rh  Rh18  1  0.000017  0.251445  0.501233  1
  Rh  Rh19  1  0.999982  0.748557  0.501232  1
  Rh  Rh20  1  0.499881  0.251042  0.667300  1
  Rh  Rh21  1  0.499990  0.748955  0.667300  1
  Rh  Rh22  1  0.000032  0.248928  0.832752  1
  Rh  Rh23  1  0.999901  0.751074  0.832754  1
