# generated using pymatgen
data_Ho5TlPPb2
_symmetry_space_group_name_H-M   'P 1'
_cell_length_a   9.12686900
_cell_length_b   9.14097305
_cell_length_c   6.74736900
_cell_angle_alpha   90.00000000
_cell_angle_beta   90.00000000
_cell_angle_gamma   120.05114360
_symmetry_Int_Tables_number   1
_chemical_formula_structural   Ho5TlPPb2
_chemical_formula_sum   'Ho10 Tl2 P2 Pb4'
_cell_volume   487.25386371
_cell_formula_units_Z   2
loop_
 _symmetry_equiv_pos_site_id
 _symmetry_equiv_pos_as_xyz
  1  'x, y, z'
loop_
 _atom_site_type_symbol
 _atom_site_label
 _atom_site_symmetry_multiplicity
 _atom_site_fract_x
 _atom_site_fract_y
 _atom_site_fract_z
 _atom_site_occupancy
  Ho  Ho0  1  0.763312  0.762389  0.750000  1
  Ho  Ho1  1  0.236688  0.999076  0.750000  1
  Ho  Ho2  1  0.000000  0.238742  0.750000  1
  Ho  Ho3  1  0.235246  0.235834  0.250000  1
  Ho  Ho4  1  0.764754  0.000587  0.250000  1
  Ho  Ho5  1  0.000000  0.762228  0.250000  1
  Ho  Ho6  1  0.666887  0.333364  0.997100  1
  Ho  Ho7  1  0.333113  0.666478  0.997100  1
  Ho  Ho8  1  0.333113  0.666478  0.502900  1
  Ho  Ho9  1  0.666887  0.333364  0.502900  1
  Tl  Tl10  1  0.402170  0.402397  0.750000  1
  Tl  Tl11  1  0.597830  0.000226  0.750000  1
  P  P12  1  0.000000  0.000213  0.000486  1
  P  P13  1  0.000000  0.000213  0.499514  1
  Pb  Pb14  1  0.000000  0.598796  0.750000  1
  Pb  Pb15  1  0.598723  0.598939  0.250000  1
  Pb  Pb16  1  0.401277  0.000216  0.250000  1
  Pb  Pb17  1  0.000000  0.400461  0.250000  1
