# generated using pymatgen
data_Dy3Ti(Co4P3)2
_symmetry_space_group_name_H-M   'P 1'
_cell_length_a   3.69891800
_cell_length_b   10.62850800
_cell_length_c   12.30767100
_cell_angle_alpha   90.00000000
_cell_angle_beta   90.00000000
_cell_angle_gamma   90.00000000
_symmetry_Int_Tables_number   1
_chemical_formula_structural   Dy3Ti(Co4P3)2
_chemical_formula_sum   'Dy6 Ti2 Co16 P12'
_cell_volume   483.86352606
_cell_formula_units_Z   2
loop_
 _symmetry_equiv_pos_site_id
 _symmetry_equiv_pos_as_xyz
  1  'x, y, z'
loop_
 _atom_site_type_symbol
 _atom_site_label
 _atom_site_symmetry_multiplicity
 _atom_site_fract_x
 _atom_site_fract_y
 _atom_site_fract_z
 _atom_site_occupancy
  Dy  Dy0  1  0.000000  0.500000  0.524667  1
  Dy  Dy1  1  0.500000  0.000000  0.475333  1
  Dy  Dy2  1  0.500000  0.819564  0.204347  1
  Dy  Dy3  1  0.500000  0.180436  0.204347  1
  Dy  Dy4  1  0.000000  0.680436  0.795653  1
  Dy  Dy5  1  0.000000  0.319564  0.795653  1
  Ti  Ti6  1  0.500000  0.500000  0.153017  1
  Ti  Ti7  1  0.000000  0.000000  0.846983  1
  Co  Co8  1  0.500000  0.500000  0.702232  1
  Co  Co9  1  0.000000  0.000000  0.297768  1
  Co  Co10  1  0.000000  0.500000  0.986605  1
  Co  Co11  1  0.500000  0.000000  0.013395  1
  Co  Co12  1  0.500000  0.332355  0.993638  1
  Co  Co13  1  0.500000  0.667645  0.993638  1
  Co  Co14  1  0.000000  0.167645  0.006362  1
  Co  Co15  1  0.000000  0.832355  0.006362  1
  Co  Co16  1  0.500000  0.295828  0.431858  1
  Co  Co17  1  0.500000  0.704172  0.431858  1
  Co  Co18  1  0.000000  0.204172  0.568142  1
  Co  Co19  1  0.000000  0.795828  0.568142  1
  Co  Co20  1  0.500000  0.878546  0.706272  1
  Co  Co21  1  0.500000  0.121454  0.706272  1
  Co  Co22  1  0.000000  0.621454  0.293728  1
  Co  Co23  1  0.000000  0.378546  0.293728  1
  P  P24  1  0.500000  0.500000  0.882642  1
  P  P25  1  0.000000  0.000000  0.117358  1
  P  P26  1  0.500000  0.500000  0.352447  1
  P  P27  1  0.000000  0.000000  0.647553  1
  P  P28  1  0.500000  0.310302  0.615669  1
  P  P29  1  0.500000  0.689698  0.615669  1
  P  P30  1  0.000000  0.189698  0.384331  1
  P  P31  1  0.000000  0.810302  0.384331  1
  P  P32  1  0.500000  0.843080  0.892756  1
  P  P33  1  0.500000  0.156920  0.892756  1
  P  P34  1  0.000000  0.656920  0.107244  1
  P  P35  1  0.000000  0.343080  0.107244  1
