# generated using pymatgen
data_SmYHo(Si3Pd10)2
_symmetry_space_group_name_H-M   'P 1'
_cell_length_a   8.72155682
_cell_length_b   8.72155729
_cell_length_c   8.72155700
_cell_angle_alpha   60.00000488
_cell_angle_beta   60.00000310
_cell_angle_gamma   60.00000165
_symmetry_Int_Tables_number   1
_chemical_formula_structural   SmYHo(Si3Pd10)2
_chemical_formula_sum   'Sm1 Y1 Ho1 Si6 Pd20'
_cell_volume   469.10181074
_cell_formula_units_Z   1
loop_
 _symmetry_equiv_pos_site_id
 _symmetry_equiv_pos_as_xyz
  1  'x, y, z'
loop_
 _atom_site_type_symbol
 _atom_site_label
 _atom_site_symmetry_multiplicity
 _atom_site_fract_x
 _atom_site_fract_y
 _atom_site_fract_z
 _atom_site_occupancy
  Sm  Sm0  1  0.250000  0.250000  0.250000  1
  Y  Y1  1  0.750000  0.750000  0.750000  1
  Ho  Ho2  1  0.000000  0.000000  0.000000  1
  Si  Si3  1  0.732635  0.267365  0.267365  1
  Si  Si4  1  0.267365  0.732635  0.732635  1
  Si  Si5  1  0.267365  0.732635  0.267365  1
  Si  Si6  1  0.732635  0.267365  0.732635  1
  Si  Si7  1  0.267365  0.267365  0.732635  1
  Si  Si8  1  0.732635  0.732635  0.267365  1
  Pd  Pd9  1  0.384199  0.384199  0.384199  1
  Pd  Pd10  1  0.616254  0.616254  0.616254  1
  Pd  Pd11  1  0.384199  0.384199  0.847403  1
  Pd  Pd12  1  0.384199  0.847403  0.384199  1
  Pd  Pd13  1  0.616254  0.616254  0.151237  1
  Pd  Pd14  1  0.616254  0.151237  0.616254  1
  Pd  Pd15  1  0.847403  0.384199  0.384199  1
  Pd  Pd16  1  0.151237  0.616254  0.616254  1
  Pd  Pd17  1  0.345343  0.999826  0.999826  1
  Pd  Pd18  1  0.655006  0.999826  0.999826  1
  Pd  Pd19  1  0.999826  0.345343  0.655006  1
  Pd  Pd20  1  0.999826  0.655006  0.345343  1
  Pd  Pd21  1  0.999826  0.345343  0.999826  1
  Pd  Pd22  1  0.655006  0.999826  0.345343  1
  Pd  Pd23  1  0.999826  0.655006  0.999826  1
  Pd  Pd24  1  0.345343  0.999826  0.655006  1
  Pd  Pd25  1  0.999826  0.999826  0.345343  1
  Pd  Pd26  1  0.999826  0.999826  0.655006  1
  Pd  Pd27  1  0.655006  0.345343  0.999826  1
  Pd  Pd28  1  0.345343  0.655006  0.999826  1
