# generated using pymatgen
data_Tm5AlGaRu3
_symmetry_space_group_name_H-M   'P 1'
_cell_length_a   8.22463414
_cell_length_b   8.25734658
_cell_length_c   8.25734648
_cell_angle_alpha   109.55982504
_cell_angle_beta   109.51215916
_cell_angle_gamma   109.50249997
_symmetry_Int_Tables_number   1
_chemical_formula_structural   Tm5AlGaRu3
_chemical_formula_sum   'Tm10 Al2 Ga2 Ru6'
_cell_volume   430.83467567
_cell_formula_units_Z   2
loop_
 _symmetry_equiv_pos_site_id
 _symmetry_equiv_pos_as_xyz
  1  'x, y, z'
loop_
 _atom_site_type_symbol
 _atom_site_label
 _atom_site_symmetry_multiplicity
 _atom_site_fract_x
 _atom_site_fract_y
 _atom_site_fract_z
 _atom_site_occupancy
  Tm  Tm0  1  0.785059  0.785461  0.784480  1
  Tm  Tm1  1  0.319913  0.569587  0.749380  1
  Tm  Tm2  1  0.750000  0.320712  0.570712  1
  Tm  Tm3  1  0.568946  0.749123  0.320181  1
  Tm  Tm4  1  0.714941  0.499421  0.000403  1
  Tm  Tm5  1  0.001137  0.714164  0.500663  1
  Tm  Tm6  1  0.498863  0.999526  0.713027  1
  Tm  Tm7  1  0.250000  0.180179  0.930179  1
  Tm  Tm8  1  0.931054  0.251235  0.180178  1
  Tm  Tm9  1  0.180087  0.929466  0.249673  1
  Al  Al10  1  0.999302  0.089454  0.499790  1
  Al  Al11  1  0.500698  0.000488  0.090153  1
  Ga  Ga12  1  0.411572  0.411300  0.411681  1
  Ga  Ga13  1  0.088428  0.500109  0.999728  1
  Ru  Ru14  1  0.873907  0.123177  0.747519  1
  Ru  Ru15  1  0.750000  0.875221  0.125221  1
  Ru  Ru16  1  0.126089  0.752197  0.875656  1
  Ru  Ru17  1  0.250000  0.625999  0.375999  1
  Ru  Ru18  1  0.373911  0.249567  0.626108  1
  Ru  Ru19  1  0.626093  0.373612  0.249270  1
