# generated using pymatgen
data_Y4Lu8Co4CuBi
_symmetry_space_group_name_H-M   'P 1'
_cell_length_a   8.24264992
_cell_length_b   8.24319572
_cell_length_c   8.24265115
_cell_angle_alpha   110.93526917
_cell_angle_beta   110.09658513
_cell_angle_gamma   107.39994407
_symmetry_Int_Tables_number   1
_chemical_formula_structural   Y4Lu8Co4CuBi
_chemical_formula_sum   'Y4 Lu8 Co4 Cu1 Bi1'
_cell_volume   430.69899476
_cell_formula_units_Z   1
loop_
 _symmetry_equiv_pos_site_id
 _symmetry_equiv_pos_as_xyz
  1  'x, y, z'
loop_
 _atom_site_type_symbol
 _atom_site_label
 _atom_site_symmetry_multiplicity
 _atom_site_fract_x
 _atom_site_fract_y
 _atom_site_fract_z
 _atom_site_occupancy
  Y  Y0  1  0.814550  0.711474  0.526028  1
  Y  Y1  1  0.185450  0.288526  0.473972  1
  Y  Y2  1  0.185446  0.711474  0.896923  1
  Y  Y3  1  0.814554  0.288526  0.103077  1
  Lu  Lu4  1  0.686801  0.376724  0.689924  1
  Lu  Lu5  1  0.313199  0.623276  0.310076  1
  Lu  Lu6  1  0.686803  0.996891  0.310088  1
  Lu  Lu7  1  0.313197  0.003109  0.689912  1
  Lu  Lu8  1  0.587797  0.789412  0.798402  1
  Lu  Lu9  1  0.412203  0.210588  0.201598  1
  Lu  Lu10  1  0.991010  0.789412  0.201616  1
  Lu  Lu11  1  0.008990  0.210588  0.798384  1
  Co  Co12  1  0.621921  0.000000  0.621921  1
  Co  Co13  1  0.378079  0.000000  0.378079  1
  Co  Co14  1  0.115503  0.615516  0.500012  1
  Co  Co15  1  0.884497  0.384484  0.499988  1
  Cu  Cu16  1  0.000000  0.000000  0.000000  1
  Bi  Bi17  1  0.500000  0.500000  0.000000  1
