# generated using pymatgen
data_ErSi3PRh6
_symmetry_space_group_name_H-M   'P 1'
_cell_length_a   7.06277806
_cell_length_b   7.06277717
_cell_length_c   3.73965700
_cell_angle_alpha   90.00000000
_cell_angle_beta   90.00000000
_cell_angle_gamma   120.52192045
_symmetry_Int_Tables_number   1
_chemical_formula_structural   ErSi3PRh6
_chemical_formula_sum   'Er1 Si3 P1 Rh6'
_cell_volume   160.69608929
_cell_formula_units_Z   1
loop_
 _symmetry_equiv_pos_site_id
 _symmetry_equiv_pos_as_xyz
  1  'x, y, z'
loop_
 _atom_site_type_symbol
 _atom_site_label
 _atom_site_symmetry_multiplicity
 _atom_site_fract_x
 _atom_site_fract_y
 _atom_site_fract_z
 _atom_site_occupancy
  Er  Er0  1  0.332852  0.667148  0.000000  1
  Si  Si1  1  0.666487  0.333513  0.000000  1
  Si  Si2  1  0.727734  0.865248  0.500000  1
  Si  Si3  1  0.134752  0.272266  0.500000  1
  P  P4  1  0.140658  0.859342  0.500000  1
  Rh  Rh5  1  0.264885  0.132248  0.000000  1
  Rh  Rh6  1  0.867752  0.735115  0.000000  1
  Rh  Rh7  1  0.866753  0.133247  0.000000  1
  Rh  Rh8  1  0.939434  0.471633  0.500000  1
  Rh  Rh9  1  0.528367  0.060566  0.500000  1
  Rh  Rh10  1  0.530326  0.469674  0.500000  1
