# generated using pymatgen
data_Tm4Ge2As4Ir7
_symmetry_space_group_name_H-M   'P 1'
_cell_length_a   7.24437329
_cell_length_b   7.24437380
_cell_length_c   7.25400620
_cell_angle_alpha   109.31470116
_cell_angle_beta   109.31469914
_cell_angle_gamma   109.73117323
_symmetry_Int_Tables_number   1
_chemical_formula_structural   Tm4Ge2As4Ir7
_chemical_formula_sum   'Tm4 Ge2 As4 Ir7'
_cell_volume   293.24875381
_cell_formula_units_Z   1
loop_
 _symmetry_equiv_pos_site_id
 _symmetry_equiv_pos_as_xyz
  1  'x, y, z'
loop_
 _atom_site_type_symbol
 _atom_site_label
 _atom_site_symmetry_multiplicity
 _atom_site_fract_x
 _atom_site_fract_y
 _atom_site_fract_z
 _atom_site_occupancy
  Tm  Tm0  1  0.999815  0.999815  0.499849  1
  Tm  Tm1  1  0.999668  0.499668  0.999336  1
  Tm  Tm2  1  0.499668  0.999668  0.999336  1
  Tm  Tm3  1  0.500034  0.500034  0.499849  1
  Ge  Ge4  1  0.684114  0.998943  0.683056  1
  Ge  Ge5  1  0.998943  0.684114  0.683056  1
  As  As6  1  0.682764  0.682764  0.998326  1
  As  As7  1  0.320153  0.999222  0.319374  1
  As  As8  1  0.999222  0.320153  0.319374  1
  As  As9  1  0.315563  0.315563  0.998326  1
  Ir  Ir10  1  0.751276  0.251276  0.502553  1
  Ir  Ir11  1  0.749405  0.501057  0.250461  1
  Ir  Ir12  1  0.501651  0.250004  0.751654  1
  Ir  Ir13  1  0.250004  0.501651  0.751654  1
  Ir  Ir14  1  0.251276  0.751276  0.502553  1
  Ir  Ir15  1  0.501057  0.749405  0.250461  1
  Ir  Ir16  1  0.995389  0.995389  0.990778  1
