# generated using pymatgen
data_ThSc15(CdCo)4
_symmetry_space_group_name_H-M   'P 1'
_cell_length_a   8.91160757
_cell_length_b   8.91160761
_cell_length_c   8.91160862
_cell_angle_alpha   60.74329122
_cell_angle_beta   60.74328135
_cell_angle_gamma   60.74329198
_symmetry_Int_Tables_number   1
_chemical_formula_structural   ThSc15(CdCo)4
_chemical_formula_sum   'Th1 Sc15 Cd4 Co4'
_cell_volume   508.83444947
_cell_formula_units_Z   1
loop_
 _symmetry_equiv_pos_site_id
 _symmetry_equiv_pos_as_xyz
  1  'x, y, z'
loop_
 _atom_site_type_symbol
 _atom_site_label
 _atom_site_symmetry_multiplicity
 _atom_site_fract_x
 _atom_site_fract_y
 _atom_site_fract_z
 _atom_site_occupancy
  Th  Th0  1  0.342563  0.342563  0.342563  1
  Sc  Sc1  1  0.347904  0.347904  0.952650  1
  Sc  Sc2  1  0.347904  0.952650  0.347904  1
  Sc  Sc3  1  0.952650  0.347904  0.347904  1
  Sc  Sc4  1  0.817733  0.185450  0.185450  1
  Sc  Sc5  1  0.187490  0.813057  0.813057  1
  Sc  Sc6  1  0.185450  0.817733  0.185450  1
  Sc  Sc7  1  0.813057  0.187490  0.813057  1
  Sc  Sc8  1  0.185450  0.185450  0.817733  1
  Sc  Sc9  1  0.813057  0.813057  0.187490  1
  Sc  Sc10  1  0.933932  0.565591  0.565591  1
  Sc  Sc11  1  0.562778  0.941056  0.941056  1
  Sc  Sc12  1  0.565591  0.933932  0.565591  1
  Sc  Sc13  1  0.941056  0.562778  0.941056  1
  Sc  Sc14  1  0.565591  0.565591  0.933932  1
  Sc  Sc15  1  0.941056  0.941056  0.562778  1
  Cd  Cd16  1  0.582212  0.582212  0.582212  1
  Cd  Cd17  1  0.586151  0.586151  0.249219  1
  Cd  Cd18  1  0.586151  0.249219  0.586151  1
  Cd  Cd19  1  0.249219  0.586151  0.586151  1
  Co  Co20  1  0.142609  0.142609  0.142609  1
  Co  Co21  1  0.136271  0.136271  0.577858  1
  Co  Co22  1  0.136271  0.577858  0.136271  1
  Co  Co23  1  0.577858  0.136271  0.136271  1
