# generated using pymatgen
data_Tb2TaIr2Ru
_symmetry_space_group_name_H-M   'P 1'
_cell_length_a   5.67448830
_cell_length_b   5.67448858
_cell_length_c   8.20898500
_cell_angle_alpha   90.00000000
_cell_angle_beta   90.00000000
_cell_angle_gamma   120.10318759
_symmetry_Int_Tables_number   1
_chemical_formula_structural   Tb2TaIr2Ru
_chemical_formula_sum   'Tb4 Ta2 Ir4 Ru2'
_cell_volume   228.67622370
_cell_formula_units_Z   2
loop_
 _symmetry_equiv_pos_site_id
 _symmetry_equiv_pos_as_xyz
  1  'x, y, z'
loop_
 _atom_site_type_symbol
 _atom_site_label
 _atom_site_symmetry_multiplicity
 _atom_site_fract_x
 _atom_site_fract_y
 _atom_site_fract_z
 _atom_site_occupancy
  Tb  Tb0  1  0.333696  0.666304  0.437848  1
  Tb  Tb1  1  0.667000  0.333000  0.560249  1
  Tb  Tb2  1  0.667000  0.333000  0.939751  1
  Tb  Tb3  1  0.333696  0.666304  0.062152  1
  Ta  Ta4  1  0.998782  0.001218  0.506494  1
  Ta  Ta5  1  0.998782  0.001218  0.993506  1
  Ir  Ir6  1  0.828663  0.171337  0.250000  1
  Ir  Ir7  1  0.829428  0.659186  0.250000  1
  Ir  Ir8  1  0.340814  0.170572  0.250000  1
  Ir  Ir9  1  0.173325  0.826675  0.750000  1
  Ru  Ru10  1  0.173714  0.344901  0.750000  1
  Ru  Ru11  1  0.655099  0.826286  0.750000  1
