# generated using pymatgen
data_Hf4Zr12Re3Ni4Mo
_symmetry_space_group_name_H-M   'P 1'
_cell_length_a   8.73323876
_cell_length_b   8.73323766
_cell_length_c   8.75294998
_cell_angle_alpha   60.07447027
_cell_angle_beta   60.07446813
_cell_angle_gamma   59.99999640
_symmetry_Int_Tables_number   1
_chemical_formula_structural   Hf4Zr12Re3Ni4Mo
_chemical_formula_sum   'Hf4 Zr12 Re3 Ni4 Mo1'
_cell_volume   472.58287120
_cell_formula_units_Z   1
loop_
 _symmetry_equiv_pos_site_id
 _symmetry_equiv_pos_as_xyz
  1  'x, y, z'
loop_
 _atom_site_type_symbol
 _atom_site_label
 _atom_site_symmetry_multiplicity
 _atom_site_fract_x
 _atom_site_fract_y
 _atom_site_fract_z
 _atom_site_occupancy
  Hf  Hf0  1  0.192637  0.602139  0.603085  1
  Hf  Hf1  1  0.602139  0.192637  0.603085  1
  Hf  Hf2  1  0.602139  0.602139  0.603085  1
  Hf  Hf3  1  0.601966  0.601966  0.194103  1
  Zr  Zr4  1  0.456786  0.456786  0.043170  1
  Zr  Zr5  1  0.043285  0.043285  0.458005  1
  Zr  Zr6  1  0.456786  0.043257  0.043170  1
  Zr  Zr7  1  0.043285  0.455424  0.458005  1
  Zr  Zr8  1  0.043257  0.456786  0.043170  1
  Zr  Zr9  1  0.455424  0.043285  0.458005  1
  Zr  Zr10  1  0.814784  0.814784  0.183717  1
  Zr  Zr11  1  0.185329  0.185329  0.814366  1
  Zr  Zr12  1  0.814784  0.186716  0.183717  1
  Zr  Zr13  1  0.185329  0.814976  0.814366  1
  Zr  Zr14  1  0.186716  0.814784  0.183717  1
  Zr  Zr15  1  0.814976  0.185329  0.814366  1
  Re  Re16  1  0.505453  0.831014  0.832520  1
  Re  Re17  1  0.831014  0.505453  0.832520  1
  Re  Re18  1  0.831014  0.831014  0.832520  1
  Ni  Ni19  1  0.825801  0.391587  0.391025  1
  Ni  Ni20  1  0.391587  0.825801  0.391025  1
  Ni  Ni21  1  0.391587  0.391587  0.391025  1
  Ni  Ni22  1  0.391961  0.391961  0.824118  1
  Mo  Mo23  1  0.831960  0.831960  0.504118  1
