# generated using pymatgen
data_ZnSn2Pt9
_symmetry_space_group_name_H-M   'P 1'
_cell_length_a   4.01963100
_cell_length_b   4.01963100
_cell_length_c   12.06624100
_cell_angle_alpha   90.00000000
_cell_angle_beta   90.00000000
_cell_angle_gamma   90.00000000
_symmetry_Int_Tables_number   1
_chemical_formula_structural   ZnSn2Pt9
_chemical_formula_sum   'Zn1 Sn2 Pt9'
_cell_volume   194.95948506
_cell_formula_units_Z   1
loop_
 _symmetry_equiv_pos_site_id
 _symmetry_equiv_pos_as_xyz
  1  'x, y, z'
loop_
 _atom_site_type_symbol
 _atom_site_label
 _atom_site_symmetry_multiplicity
 _atom_site_fract_x
 _atom_site_fract_y
 _atom_site_fract_z
 _atom_site_occupancy
  Zn  Zn0  1  0.000000  0.000000  0.000000  1
  Sn  Sn1  1  0.000000  0.000000  0.325814  1
  Sn  Sn2  1  0.000000  0.000000  0.674186  1
  Pt  Pt3  1  0.500000  0.500000  0.000000  1
  Pt  Pt4  1  0.500000  0.500000  0.330644  1
  Pt  Pt5  1  0.500000  0.500000  0.669356  1
  Pt  Pt6  1  0.500000  0.000000  0.158633  1
  Pt  Pt7  1  0.500000  0.000000  0.500000  1
  Pt  Pt8  1  0.500000  0.000000  0.841367  1
  Pt  Pt9  1  0.000000  0.500000  0.158633  1
  Pt  Pt10  1  0.000000  0.500000  0.500000  1
  Pt  Pt11  1  0.000000  0.500000  0.841367  1
