# generated using pymatgen
data_HfNpMnB6
_symmetry_space_group_name_H-M   'P 1'
_cell_length_a   3.48777300
_cell_length_b   8.95469700
_cell_length_c   11.30384600
_cell_angle_alpha   90.00000000
_cell_angle_beta   90.00000000
_cell_angle_gamma   90.00000000
_symmetry_Int_Tables_number   1
_chemical_formula_structural   HfNpMnB6
_chemical_formula_sum   'Hf4 Np4 Mn4 B24'
_cell_volume   353.04115782
_cell_formula_units_Z   4
loop_
 _symmetry_equiv_pos_site_id
 _symmetry_equiv_pos_as_xyz
  1  'x, y, z'
loop_
 _atom_site_type_symbol
 _atom_site_label
 _atom_site_symmetry_multiplicity
 _atom_site_fract_x
 _atom_site_fract_y
 _atom_site_fract_z
 _atom_site_occupancy
  Hf  Hf0  1  0.000000  0.443769  0.128797  1
  Hf  Hf1  1  0.000000  0.556231  0.871203  1
  Hf  Hf2  1  0.000000  0.943769  0.371203  1
  Hf  Hf3  1  0.000000  0.056231  0.628797  1
  Np  Np4  1  0.000000  0.824576  0.084630  1
  Np  Np5  1  0.000000  0.175424  0.915370  1
  Np  Np6  1  0.000000  0.324576  0.415370  1
  Np  Np7  1  0.000000  0.675424  0.584630  1
  Mn  Mn8  1  0.000000  0.140462  0.180737  1
  Mn  Mn9  1  0.000000  0.859538  0.819263  1
  Mn  Mn10  1  0.000000  0.640462  0.319263  1
  Mn  Mn11  1  0.000000  0.359538  0.680737  1
  B  B12  1  0.500000  0.054485  0.067813  1
  B  B13  1  0.500000  0.945515  0.932187  1
  B  B14  1  0.500000  0.554485  0.432187  1
  B  B15  1  0.500000  0.445515  0.567813  1
  B  B16  1  0.500000  0.250813  0.082284  1
  B  B17  1  0.500000  0.749187  0.917716  1
  B  B18  1  0.500000  0.750813  0.417716  1
  B  B19  1  0.500000  0.249187  0.582284  1
  B  B20  1  0.500000  0.294063  0.235624  1
  B  B21  1  0.500000  0.705937  0.764376  1
  B  B22  1  0.500000  0.794063  0.264376  1
  B  B23  1  0.500000  0.205937  0.735624  1
  B  B24  1  0.500000  0.131265  0.316343  1
  B  B25  1  0.500000  0.868735  0.683657  1
  B  B26  1  0.500000  0.631265  0.183657  1
  B  B27  1  0.500000  0.368735  0.816343  1
  B  B28  1  0.500000  0.483175  0.287062  1
  B  B29  1  0.500000  0.516825  0.712938  1
  B  B30  1  0.500000  0.983175  0.212938  1
  B  B31  1  0.500000  0.016825  0.787062  1
  B  B32  1  0.500000  0.101187  0.472742  1
  B  B33  1  0.500000  0.898813  0.527258  1
  B  B34  1  0.500000  0.601187  0.027258  1
  B  B35  1  0.500000  0.398813  0.972742  1
