# generated using pymatgen
data_Lu5(NiTe)2
_symmetry_space_group_name_H-M   'P 1'
_cell_length_a   3.96922600
_cell_length_b   14.29706100
_cell_length_c   15.36334900
_cell_angle_alpha   90.00000000
_cell_angle_beta   90.00000000
_cell_angle_gamma   90.00000000
_symmetry_Int_Tables_number   1
_chemical_formula_structural   Lu5(NiTe)2
_chemical_formula_sum   'Lu20 Ni8 Te8'
_cell_volume   871.84341946
_cell_formula_units_Z   4
loop_
 _symmetry_equiv_pos_site_id
 _symmetry_equiv_pos_as_xyz
  1  'x, y, z'
loop_
 _atom_site_type_symbol
 _atom_site_label
 _atom_site_symmetry_multiplicity
 _atom_site_fract_x
 _atom_site_fract_y
 _atom_site_fract_z
 _atom_site_occupancy
  Lu  Lu0  1  0.250000  0.152341  0.257656  1
  Lu  Lu1  1  0.250000  0.652341  0.242344  1
  Lu  Lu2  1  0.750000  0.847659  0.742344  1
  Lu  Lu3  1  0.750000  0.347659  0.757656  1
  Lu  Lu4  1  0.250000  0.882899  0.190895  1
  Lu  Lu5  1  0.250000  0.382899  0.309105  1
  Lu  Lu6  1  0.750000  0.117101  0.809105  1
  Lu  Lu7  1  0.750000  0.617101  0.690895  1
  Lu  Lu8  1  0.250000  0.879749  0.554620  1
  Lu  Lu9  1  0.250000  0.379749  0.945380  1
  Lu  Lu10  1  0.750000  0.120251  0.445380  1
  Lu  Lu11  1  0.750000  0.620251  0.054620  1
  Lu  Lu12  1  0.250000  0.208920  0.624436  1
  Lu  Lu13  1  0.250000  0.708920  0.875564  1
  Lu  Lu14  1  0.750000  0.791080  0.375564  1
  Lu  Lu15  1  0.750000  0.291080  0.124436  1
  Lu  Lu16  1  0.250000  0.144272  0.994968  1
  Lu  Lu17  1  0.250000  0.644272  0.505032  1
  Lu  Lu18  1  0.750000  0.855728  0.005032  1
  Lu  Lu19  1  0.750000  0.355728  0.494968  1
  Ni  Ni20  1  0.250000  0.739965  0.680279  1
  Ni  Ni21  1  0.250000  0.239965  0.819721  1
  Ni  Ni22  1  0.750000  0.260035  0.319721  1
  Ni  Ni23  1  0.750000  0.760035  0.180279  1
  Ni  Ni24  1  0.250000  0.245148  0.435712  1
  Ni  Ni25  1  0.250000  0.745148  0.064288  1
  Ni  Ni26  1  0.750000  0.754852  0.564288  1
  Ni  Ni27  1  0.750000  0.254852  0.935712  1
  Te  Te28  1  0.250000  0.967536  0.372694  1
  Te  Te29  1  0.250000  0.467536  0.127306  1
  Te  Te30  1  0.750000  0.032464  0.627306  1
  Te  Te31  1  0.750000  0.532464  0.872694  1
  Te  Te32  1  0.250000  0.953629  0.873105  1
  Te  Te33  1  0.250000  0.453629  0.626895  1
  Te  Te34  1  0.750000  0.046371  0.126895  1
  Te  Te35  1  0.750000  0.546371  0.373105  1
