# generated using pymatgen
data_YbNb8VSe16
_symmetry_space_group_name_H-M   'P 1'
_cell_length_a   6.99890600
_cell_length_b   6.99890616
_cell_length_c   13.89198900
_cell_angle_alpha   90.00000000
_cell_angle_beta   90.00000000
_cell_angle_gamma   120.00000871
_symmetry_Int_Tables_number   1
_chemical_formula_structural   YbNb8VSe16
_chemical_formula_sum   'Yb1 Nb8 V1 Se16'
_cell_volume   589.32566583
_cell_formula_units_Z   1
loop_
 _symmetry_equiv_pos_site_id
 _symmetry_equiv_pos_as_xyz
  1  'x, y, z'
loop_
 _atom_site_type_symbol
 _atom_site_label
 _atom_site_symmetry_multiplicity
 _atom_site_fract_x
 _atom_site_fract_y
 _atom_site_fract_z
 _atom_site_occupancy
  Yb  Yb0  1  0.000000  0.000000  0.000000  1
  Nb  Nb1  1  0.000000  0.000000  0.267976  1
  Nb  Nb2  1  0.000000  0.000000  0.732024  1
  Nb  Nb3  1  0.506580  0.013161  0.268694  1
  Nb  Nb4  1  0.493420  0.986839  0.731306  1
  Nb  Nb5  1  0.986839  0.493420  0.268694  1
  Nb  Nb6  1  0.013161  0.506580  0.731306  1
  Nb  Nb7  1  0.506580  0.493420  0.268694  1
  Nb  Nb8  1  0.493420  0.506580  0.731306  1
  V  V9  1  0.000000  0.000000  0.500000  1
  Se  Se10  1  0.333333  0.666667  0.608364  1
  Se  Se11  1  0.666667  0.333333  0.391636  1
  Se  Se12  1  0.666667  0.333333  0.144019  1
  Se  Se13  1  0.333333  0.666667  0.855981  1
  Se  Se14  1  0.168714  0.337427  0.148574  1
  Se  Se15  1  0.831286  0.662573  0.851426  1
  Se  Se16  1  0.662573  0.831286  0.148574  1
  Se  Se17  1  0.832961  0.665922  0.612422  1
  Se  Se18  1  0.337427  0.168714  0.851426  1
  Se  Se19  1  0.167039  0.334078  0.387578  1
  Se  Se20  1  0.168714  0.831286  0.148574  1
  Se  Se21  1  0.334078  0.167039  0.612422  1
  Se  Se22  1  0.831286  0.168714  0.851426  1
  Se  Se23  1  0.665922  0.832961  0.387578  1
  Se  Se24  1  0.832961  0.167039  0.612422  1
  Se  Se25  1  0.167039  0.832961  0.387578  1
