# generated using pymatgen
data_Er10Ir3Os2Pd
_symmetry_space_group_name_H-M   'P 1'
_cell_length_a   10.80120823
_cell_length_b   10.80111000
_cell_length_c   6.39317014
_cell_angle_alpha   90.00000000
_cell_angle_beta   90.02390124
_cell_angle_gamma   90.00000000
_symmetry_Int_Tables_number   1
_chemical_formula_structural   Er10Ir3Os2Pd
_chemical_formula_sum   'Er20 Ir6 Os4 Pd2'
_cell_volume   745.85937410
_cell_formula_units_Z   2
loop_
 _symmetry_equiv_pos_site_id
 _symmetry_equiv_pos_as_xyz
  1  'x, y, z'
loop_
 _atom_site_type_symbol
 _atom_site_label
 _atom_site_symmetry_multiplicity
 _atom_site_fract_x
 _atom_site_fract_y
 _atom_site_fract_z
 _atom_site_occupancy
  Er  Er0  1  0.293851  0.085961  0.376369  1
  Er  Er1  1  0.293851  0.914039  0.876369  1
  Er  Er2  1  0.701910  0.088581  0.873273  1
  Er  Er3  1  0.701910  0.911419  0.373273  1
  Er  Er4  1  0.582092  0.793063  0.877757  1
  Er  Er5  1  0.582092  0.206937  0.377757  1
  Er  Er6  1  0.413325  0.793544  0.377147  1
  Er  Er7  1  0.413325  0.206456  0.877147  1
  Er  Er8  1  0.206488  0.413645  0.622802  1
  Er  Er9  1  0.206488  0.586355  0.122802  1
  Er  Er10  1  0.793128  0.417779  0.122197  1
  Er  Er11  1  0.793128  0.582221  0.622197  1
  Er  Er12  1  0.915274  0.703945  0.128415  1
  Er  Er13  1  0.915274  0.296055  0.628415  1
  Er  Er14  1  0.089644  0.704251  0.622053  1
  Er  Er15  1  0.089644  0.295749  0.122053  1
  Er  Er16  1  0.004233  0.999672  0.500039  1
  Er  Er17  1  0.004233  0.000328  0.000039  1
  Er  Er18  1  0.499725  0.499878  0.999999  1
  Er  Er19  1  0.499725  0.500122  0.499999  1
  Ir  Ir20  1  0.150717  0.151416  0.749982  1
  Ir  Ir21  1  0.150717  0.848584  0.249982  1
  Ir  Ir22  1  0.652987  0.346946  0.750084  1
  Ir  Ir23  1  0.652987  0.653054  0.250084  1
  Ir  Ir24  1  0.347915  0.347920  0.249867  1
  Ir  Ir25  1  0.347915  0.652080  0.749867  1
  Os  Os26  1  0.501767  0.000111  0.123719  1
  Os  Os27  1  0.501767  0.999889  0.623719  1
  Os  Os28  1  0.999513  0.500126  0.876322  1
  Os  Os29  1  0.999513  0.499874  0.376322  1
  Pd  Pd30  1  0.847430  0.152348  0.249975  1
  Pd  Pd31  1  0.847430  0.847652  0.749975  1
