# generated using pymatgen
data_Pa3(ReSi2)2
_symmetry_space_group_name_H-M   'P 1'
_cell_length_a   10.42756102
_cell_length_b   10.42756095
_cell_length_c   14.24072267
_cell_angle_alpha   55.13125802
_cell_angle_beta   55.13125734
_cell_angle_gamma   31.85114184
_symmetry_Int_Tables_number   1
_chemical_formula_structural   Pa3(ReSi2)2
_chemical_formula_sum   'Pa12 Re8 Si16'
_cell_volume   657.04841718
_cell_formula_units_Z   4
loop_
 _symmetry_equiv_pos_site_id
 _symmetry_equiv_pos_as_xyz
  1  'x, y, z'
loop_
 _atom_site_type_symbol
 _atom_site_label
 _atom_site_symmetry_multiplicity
 _atom_site_fract_x
 _atom_site_fract_y
 _atom_site_fract_z
 _atom_site_occupancy
  Pa  Pa0  1  0.737075  0.481620  0.054540  1
  Pa  Pa1  1  0.538244  0.320503  0.149981  1
  Pa  Pa2  1  0.518380  0.262925  0.445460  1
  Pa  Pa3  1  0.461756  0.679497  0.850019  1
  Pa  Pa4  1  0.284710  0.054117  0.131969  1
  Pa  Pa5  1  0.945883  0.715290  0.368031  1
  Pa  Pa6  1  0.715290  0.945883  0.868031  1
  Pa  Pa7  1  0.054117  0.284710  0.631969  1
  Pa  Pa8  1  0.262925  0.518380  0.945460  1
  Pa  Pa9  1  0.481620  0.737075  0.554540  1
  Pa  Pa10  1  0.320503  0.538244  0.649981  1
  Pa  Pa11  1  0.679497  0.461756  0.350019  1
  Re  Re12  1  0.639089  0.823109  0.288492  1
  Re  Re13  1  0.823109  0.639089  0.788492  1
  Re  Re14  1  0.360911  0.176891  0.711508  1
  Re  Re15  1  0.176891  0.360911  0.211508  1
  Re  Re16  1  0.140000  0.911682  0.074218  1
  Re  Re17  1  0.088318  0.860000  0.425782  1
  Re  Re18  1  0.860000  0.088318  0.925782  1
  Re  Re19  1  0.911682  0.140000  0.574218  1
  Si  Si20  1  0.913420  0.086580  0.250000  1
  Si  Si21  1  0.086580  0.913420  0.750000  1
  Si  Si22  1  0.335076  0.664924  0.250000  1
  Si  Si23  1  0.664924  0.335076  0.750000  1
  Si  Si24  1  0.008881  0.222650  0.874506  1
  Si  Si25  1  0.777350  0.991119  0.625494  1
  Si  Si26  1  0.991119  0.777350  0.125494  1
  Si  Si27  1  0.222650  0.008881  0.374506  1
  Si  Si28  1  0.607396  0.041633  0.077566  1
  Si  Si29  1  0.958367  0.392604  0.422434  1
  Si  Si30  1  0.392604  0.958367  0.922434  1
  Si  Si31  1  0.041633  0.607396  0.577566  1
  Si  Si32  1  0.381684  0.160144  0.384899  1
  Si  Si33  1  0.839856  0.618316  0.115101  1
  Si  Si34  1  0.618316  0.839856  0.615101  1
  Si  Si35  1  0.160144  0.381684  0.884899  1
