# generated using pymatgen
data_BaBi(PdO2)4
_symmetry_space_group_name_H-M   'P 1'
_cell_length_a   5.87832773
_cell_length_b   6.15105955
_cell_length_c   6.75491523
_cell_angle_alpha   115.19229537
_cell_angle_beta   96.42534516
_cell_angle_gamma   109.88314701
_symmetry_Int_Tables_number   1
_chemical_formula_structural   BaBi(PdO2)4
_chemical_formula_sum   'Ba1 Bi1 Pd4 O8'
_cell_volume   198.15698184
_cell_formula_units_Z   1
loop_
 _symmetry_equiv_pos_site_id
 _symmetry_equiv_pos_as_xyz
  1  'x, y, z'
loop_
 _atom_site_type_symbol
 _atom_site_label
 _atom_site_symmetry_multiplicity
 _atom_site_fract_x
 _atom_site_fract_y
 _atom_site_fract_z
 _atom_site_occupancy
  Ba  Ba0  1  0.875196  0.257441  0.624268  1
  Bi  Bi1  1  0.143541  0.754397  0.329199  1
  Pd  Pd2  1  0.999030  0.000038  0.002921  1
  Pd  Pd3  1  0.496298  0.498936  0.003701  1
  Pd  Pd4  1  0.503612  0.502355  0.503739  1
  Pd  Pd5  1  0.492848  0.999721  0.997124  1
  O  O6  1  0.632273  0.396355  0.228498  1
  O  O7  1  0.371739  0.605483  0.775242  1
  O  O8  1  0.840516  0.824079  0.658785  1
  O  O9  1  0.172213  0.149853  0.343183  1
  O  O10  1  0.503298  0.861663  0.227244  1
  O  O11  1  0.462889  0.132590  0.772663  1
  O  O12  1  0.867975  0.655266  0.006135  1
  O  O13  1  0.138572  0.361822  0.027299  1
