# generated using pymatgen
data_CeNp3Al12Pd
_symmetry_space_group_name_H-M   'P 1'
_cell_length_a   7.52041386
_cell_length_b   7.52015662
_cell_length_c   7.52041500
_cell_angle_alpha   109.47052669
_cell_angle_beta   109.47191057
_cell_angle_gamma   109.47052927
_symmetry_Int_Tables_number   1
_chemical_formula_structural   CeNp3Al12Pd
_chemical_formula_sum   'Ce1 Np3 Al12 Pd1'
_cell_volume   327.41024884
_cell_formula_units_Z   1
loop_
 _symmetry_equiv_pos_site_id
 _symmetry_equiv_pos_as_xyz
  1  'x, y, z'
loop_
 _atom_site_type_symbol
 _atom_site_label
 _atom_site_symmetry_multiplicity
 _atom_site_fract_x
 _atom_site_fract_y
 _atom_site_fract_z
 _atom_site_occupancy
  Ce  Ce0  1  0.000000  0.500000  0.000000  1
  Np  Np1  1  0.500000  0.000000  0.000000  1
  Np  Np2  1  0.000000  0.000000  0.500000  1
  Np  Np3  1  0.500000  0.500000  0.500000  1
  Al  Al4  1  0.293688  0.003217  0.293688  1
  Al  Al5  1  0.497216  0.248607  0.748607  1
  Al  Al6  1  0.000000  0.709530  0.706312  1
  Al  Al7  1  0.706312  0.996783  0.706312  1
  Al  Al8  1  0.748607  0.500000  0.251393  1
  Al  Al9  1  0.251393  0.751393  0.502784  1
  Al  Al10  1  0.748607  0.248607  0.497216  1
  Al  Al11  1  0.706312  0.709530  0.000000  1
  Al  Al12  1  0.251393  0.500000  0.748607  1
  Al  Al13  1  0.502784  0.751393  0.251393  1
  Al  Al14  1  0.293688  0.290470  0.000000  1
  Al  Al15  1  0.000000  0.290470  0.293688  1
  Pd  Pd16  1  0.000000  0.000000  0.000000  1
