# generated using pymatgen
data_Y8Sc12Si15Ru
_symmetry_space_group_name_H-M   'P 1'
_cell_length_a   7.07287230
_cell_length_b   7.44439118
_cell_length_c   13.96159600
_cell_angle_alpha   90.00000000
_cell_angle_beta   90.00000000
_cell_angle_gamma   90.13289647
_symmetry_Int_Tables_number   1
_chemical_formula_structural   Y8Sc12Si15Ru
_chemical_formula_sum   'Y8 Sc12 Si15 Ru1'
_cell_volume   735.12112244
_cell_formula_units_Z   1
loop_
 _symmetry_equiv_pos_site_id
 _symmetry_equiv_pos_as_xyz
  1  'x, y, z'
loop_
 _atom_site_type_symbol
 _atom_site_label
 _atom_site_symmetry_multiplicity
 _atom_site_fract_x
 _atom_site_fract_y
 _atom_site_fract_z
 _atom_site_occupancy
  Y  Y0  1  0.011167  0.178233  0.096077  1
  Y  Y1  1  0.990908  0.826465  0.904282  1
  Y  Y2  1  0.489241  0.676330  0.904104  1
  Y  Y3  1  0.990908  0.826465  0.595718  1
  Y  Y4  1  0.510966  0.323155  0.096079  1
  Y  Y5  1  0.011167  0.178233  0.403923  1
  Y  Y6  1  0.510966  0.323155  0.403921  1
  Y  Y7  1  0.489241  0.676330  0.595896  1
  Sc  Sc8  1  0.157319  0.500998  0.750000  1
  Sc  Sc9  1  0.838260  0.495844  0.250000  1
  Sc  Sc10  1  0.339138  0.004787  0.250000  1
  Sc  Sc11  1  0.669812  0.999386  0.750000  1
  Sc  Sc12  1  0.316621  0.171911  0.628036  1
  Sc  Sc13  1  0.671876  0.825513  0.373931  1
  Sc  Sc14  1  0.171584  0.677865  0.373935  1
  Sc  Sc15  1  0.671876  0.825513  0.126069  1
  Sc  Sc16  1  0.837187  0.319765  0.627642  1
  Sc  Sc17  1  0.316621  0.171911  0.871964  1
  Sc  Sc18  1  0.837187  0.319765  0.872358  1
  Sc  Sc19  1  0.171584  0.677865  0.126065  1
  Si  Si20  1  0.968759  0.884116  0.250000  1
  Si  Si21  1  0.469207  0.614901  0.250000  1
  Si  Si22  1  0.529363  0.387693  0.750000  1
  Si  Si23  1  0.286197  0.867940  0.750000  1
  Si  Si24  1  0.713342  0.128918  0.250000  1
  Si  Si25  1  0.214086  0.371890  0.250000  1
  Si  Si26  1  0.779606  0.626508  0.750000  1
  Si  Si27  1  0.159450  0.468232  0.537452  1
  Si  Si28  1  0.844512  0.536215  0.461369  1
  Si  Si29  1  0.344745  0.965496  0.460176  1
  Si  Si30  1  0.844512  0.536215  0.038631  1
  Si  Si31  1  0.655594  0.034975  0.538924  1
  Si  Si32  1  0.159450  0.468232  0.962548  1
  Si  Si33  1  0.655594  0.034975  0.961076  1
  Si  Si34  1  0.344745  0.965496  0.039824  1
  Ru  Ru35  1  0.027209  0.108710  0.750000  1
