# generated using pymatgen
data_Mg2In6BRh4
_symmetry_space_group_name_H-M   'P 1'
_cell_length_a   8.77086688
_cell_length_b   8.76756672
_cell_length_c   8.76985894
_cell_angle_alpha   60.03407340
_cell_angle_beta   59.98826726
_cell_angle_gamma   59.99782541
_symmetry_Int_Tables_number   1
_chemical_formula_structural   Mg2In6BRh4
_chemical_formula_sum   'Mg4 In12 B2 Rh8'
_cell_volume   476.94163434
_cell_formula_units_Z   2
loop_
 _symmetry_equiv_pos_site_id
 _symmetry_equiv_pos_as_xyz
  1  'x, y, z'
loop_
 _atom_site_type_symbol
 _atom_site_label
 _atom_site_symmetry_multiplicity
 _atom_site_fract_x
 _atom_site_fract_y
 _atom_site_fract_z
 _atom_site_occupancy
  Mg  Mg0  1  0.125000  0.125000  0.625000  1
  Mg  Mg1  1  0.125000  0.625000  0.125000  1
  Mg  Mg2  1  0.125000  0.125000  0.125000  1
  Mg  Mg3  1  0.625000  0.125000  0.125000  1
  In  In4  1  0.949530  0.949756  0.550371  1
  In  In5  1  0.300410  0.699664  0.300382  1
  In  In6  1  0.699651  0.300200  0.699688  1
  In  In7  1  0.300470  0.300244  0.699629  1
  In  In8  1  0.699647  0.300206  0.300408  1
  In  In9  1  0.699495  0.699709  0.300360  1
  In  In10  1  0.949685  0.550251  0.550419  1
  In  In11  1  0.550353  0.949794  0.949592  1
  In  In12  1  0.550349  0.949800  0.550312  1
  In  In13  1  0.550505  0.550291  0.949640  1
  In  In14  1  0.949590  0.550336  0.949618  1
  In  In15  1  0.300315  0.699749  0.699581  1
  B  B16  1  0.250012  0.249955  0.250035  1
  B  B17  1  0.999988  0.000045  0.999965  1
  Rh  Rh18  1  0.902671  0.902602  0.902662  1
  Rh  Rh19  1  0.902666  0.292101  0.902601  1
  Rh  Rh20  1  0.291972  0.902638  0.902722  1
  Rh  Rh21  1  0.347253  0.347398  0.958036  1
  Rh  Rh22  1  0.958028  0.347362  0.347278  1
  Rh  Rh23  1  0.902747  0.902602  0.291964  1
  Rh  Rh24  1  0.347334  0.957899  0.347399  1
  Rh  Rh25  1  0.347329  0.347398  0.347338  1
