# generated using pymatgen
data_BaNi7B6Ir5
_symmetry_space_group_name_H-M   'P 1'
_cell_length_a   6.34479534
_cell_length_b   6.40159769
_cell_length_c   6.29106166
_cell_angle_alpha   103.44905215
_cell_angle_beta   103.47679594
_cell_angle_gamma   105.00205368
_symmetry_Int_Tables_number   1
_chemical_formula_structural   BaNi7B6Ir5
_chemical_formula_sum   'Ba1 Ni7 B6 Ir5'
_cell_volume   228.04999677
_cell_formula_units_Z   1
loop_
 _symmetry_equiv_pos_site_id
 _symmetry_equiv_pos_as_xyz
  1  'x, y, z'
loop_
 _atom_site_type_symbol
 _atom_site_label
 _atom_site_symmetry_multiplicity
 _atom_site_fract_x
 _atom_site_fract_y
 _atom_site_fract_z
 _atom_site_occupancy
  Ba  Ba0  1  0.996991  0.994683  0.998591  1
  Ni  Ni1  1  0.140731  0.505923  0.862243  1
  Ni  Ni2  1  0.200993  0.463986  0.468919  1
  Ni  Ni3  1  0.492882  0.862331  0.128960  1
  Ni  Ni4  1  0.464136  0.207040  0.461940  1
  Ni  Ni5  1  0.536130  0.808340  0.541283  1
  Ni  Ni6  1  0.807871  0.536159  0.546648  1
  Ni  Ni7  1  0.530124  0.537001  0.809032  1
  B  B8  1  0.767050  0.767587  0.358015  1
  B  B9  1  0.231023  0.658480  0.230015  1
  B  B10  1  0.230797  0.228800  0.644411  1
  B  B11  1  0.656300  0.223350  0.229387  1
  B  B12  1  0.352610  0.767636  0.770340  1
  B  B13  1  0.770729  0.344929  0.765747  1
  Ir  Ir14  1  0.496826  0.130950  0.862104  1
  Ir  Ir15  1  0.869035  0.495842  0.127298  1
  Ir  Ir16  1  0.134921  0.862071  0.497573  1
  Ir  Ir17  1  0.458750  0.468595  0.197763  1
  Ir  Ir18  1  0.862101  0.136299  0.499730  1
