# generated using pymatgen
data_Rb3CrIrBr9
_symmetry_space_group_name_H-M   'P 1'
_cell_length_a   7.54529900
_cell_length_b   7.54529995
_cell_length_c   19.17127000
_cell_angle_alpha   90.00000000
_cell_angle_beta   90.00000000
_cell_angle_gamma   119.99999145
_symmetry_Int_Tables_number   1
_chemical_formula_structural   Rb3CrIrBr9
_chemical_formula_sum   'Rb6 Cr2 Ir2 Br18'
_cell_volume   945.22351268
_cell_formula_units_Z   2
loop_
 _symmetry_equiv_pos_site_id
 _symmetry_equiv_pos_as_xyz
  1  'x, y, z'
loop_
 _atom_site_type_symbol
 _atom_site_label
 _atom_site_symmetry_multiplicity
 _atom_site_fract_x
 _atom_site_fract_y
 _atom_site_fract_z
 _atom_site_occupancy
  Rb  Rb0  1  0.666667  0.333333  0.566368  1
  Rb  Rb1  1  0.333333  0.666667  0.063876  1
  Rb  Rb2  1  0.333333  0.666667  0.433632  1
  Rb  Rb3  1  0.666667  0.333333  0.936124  1
  Rb  Rb4  1  0.000000  0.000000  0.250872  1
  Rb  Rb5  1  0.000000  0.000000  0.749128  1
  Cr  Cr6  1  0.333333  0.666667  0.836038  1
  Cr  Cr7  1  0.666667  0.333333  0.163962  1
  Ir  Ir8  1  0.333333  0.666667  0.666563  1
  Ir  Ir9  1  0.666667  0.333333  0.333437  1
  Br  Br10  1  0.823237  0.646475  0.407412  1
  Br  Br11  1  0.176763  0.823237  0.592588  1
  Br  Br12  1  0.646475  0.823237  0.592588  1
  Br  Br13  1  0.823237  0.176763  0.407412  1
  Br  Br14  1  0.353525  0.176763  0.407412  1
  Br  Br15  1  0.175542  0.351083  0.906489  1
  Br  Br16  1  0.027154  0.513577  0.748621  1
  Br  Br17  1  0.648917  0.824458  0.906489  1
  Br  Br18  1  0.824458  0.648917  0.093511  1
  Br  Br19  1  0.176763  0.353525  0.592588  1
  Br  Br20  1  0.486423  0.972846  0.748621  1
  Br  Br21  1  0.513577  0.486423  0.251379  1
  Br  Br22  1  0.486423  0.513577  0.748621  1
  Br  Br23  1  0.175542  0.824458  0.906489  1
  Br  Br24  1  0.351083  0.175542  0.093511  1
  Br  Br25  1  0.972846  0.486423  0.251379  1
  Br  Br26  1  0.513577  0.027154  0.251379  1
  Br  Br27  1  0.824458  0.175542  0.093511  1
