# generated using pymatgen
data_Ho5(RuO6)2
_symmetry_space_group_name_H-M   'P 1'
_cell_length_a   6.82089798
_cell_length_b   6.82089825
_cell_length_c   7.36333007
_cell_angle_alpha   74.25821443
_cell_angle_beta   74.25821580
_cell_angle_gamma   50.42553655
_symmetry_Int_Tables_number   1
_chemical_formula_structural   Ho5(RuO6)2
_chemical_formula_sum   'Ho5 Ru2 O12'
_cell_volume   251.90500447
_cell_formula_units_Z   1
loop_
 _symmetry_equiv_pos_site_id
 _symmetry_equiv_pos_as_xyz
  1  'x, y, z'
loop_
 _atom_site_type_symbol
 _atom_site_label
 _atom_site_symmetry_multiplicity
 _atom_site_fract_x
 _atom_site_fract_y
 _atom_site_fract_z
 _atom_site_occupancy
  Ho  Ho0  1  0.302570  0.302570  0.360719  1
  Ho  Ho1  1  0.697430  0.697430  0.639281  1
  Ho  Ho2  1  0.310353  0.310353  0.827038  1
  Ho  Ho3  1  0.689647  0.689647  0.172962  1
  Ho  Ho4  1  0.000000  0.000000  0.500000  1
  Ru  Ru5  1  0.763589  0.236411  0.000000  1
  Ru  Ru6  1  0.236411  0.763589  0.000000  1
  O  O7  1  0.905734  0.424802  0.915459  1
  O  O8  1  0.424802  0.905734  0.915459  1
  O  O9  1  0.094266  0.575198  0.084541  1
  O  O10  1  0.575198  0.094266  0.084541  1
  O  O11  1  0.097159  0.595599  0.574315  1
  O  O12  1  0.595599  0.097159  0.574315  1
  O  O13  1  0.902841  0.404401  0.425685  1
  O  O14  1  0.404401  0.902841  0.425685  1
  O  O15  1  0.998615  0.998615  0.805195  1
  O  O16  1  0.001385  0.001385  0.194805  1
  O  O17  1  0.500029  0.500029  0.813549  1
  O  O18  1  0.499971  0.499971  0.186451  1
