# generated using pymatgen
data_KTiRhS4
_symmetry_space_group_name_H-M   'P 1'
_cell_length_a   7.84711504
_cell_length_b   7.84711493
_cell_length_c   5.66896100
_cell_angle_alpha   80.85570766
_cell_angle_beta   80.85570778
_cell_angle_gamma   26.17061965
_symmetry_Int_Tables_number   1
_chemical_formula_structural   KTiRhS4
_chemical_formula_sum   'K1 Ti1 Rh1 S4'
_cell_volume   151.89664736
_cell_formula_units_Z   1
loop_
 _symmetry_equiv_pos_site_id
 _symmetry_equiv_pos_as_xyz
  1  'x, y, z'
loop_
 _atom_site_type_symbol
 _atom_site_label
 _atom_site_symmetry_multiplicity
 _atom_site_fract_x
 _atom_site_fract_y
 _atom_site_fract_z
 _atom_site_occupancy
  K  K0  1  0.242995  0.242995  0.843198  1
  Ti  Ti1  1  0.497171  0.497171  0.461655  1
  Rh  Rh2  1  0.990352  0.990352  0.045406  1
  S  S3  1  0.911606  0.911606  0.715023  1
  S  S4  1  0.390409  0.390409  0.220088  1
  S  S5  1  0.570511  0.570511  0.830564  1
  S  S6  1  0.097956  0.097956  0.317065  1
