# generated using pymatgen
data_Hf16Co3Ni(Ir2N)2
_symmetry_space_group_name_H-M   'P 1'
_cell_length_a   8.60130687
_cell_length_b   8.58894783
_cell_length_c   8.58894659
_cell_angle_alpha   120.07444685
_cell_angle_beta   119.89182010
_cell_angle_gamma   89.98821504
_symmetry_Int_Tables_number   1
_chemical_formula_structural   Hf16Co3Ni(Ir2N)2
_chemical_formula_sum   'Hf16 Co3 Ni1 Ir4 N2'
_cell_volume   448.94593507
_cell_formula_units_Z   1
loop_
 _symmetry_equiv_pos_site_id
 _symmetry_equiv_pos_as_xyz
  1  'x, y, z'
loop_
 _atom_site_type_symbol
 _atom_site_label
 _atom_site_symmetry_multiplicity
 _atom_site_fract_x
 _atom_site_fract_y
 _atom_site_fract_z
 _atom_site_occupancy
  Hf  Hf0  1  0.941419  0.188484  0.752935  1
  Hf  Hf1  1  0.319502  0.569139  0.750362  1
  Hf  Hf2  1  0.936746  0.571091  0.759188  1
  Hf  Hf3  1  0.311082  0.179540  0.744489  1
  Hf  Hf4  1  0.936746  0.177557  0.365655  1
  Hf  Hf5  1  0.311082  0.566594  0.131543  1
  Hf  Hf6  1  0.057916  0.808215  0.249701  1
  Hf  Hf7  1  0.687519  0.438286  0.249233  1
  Hf  Hf8  1  0.060141  0.437891  0.245869  1
  Hf  Hf9  1  0.691388  0.813950  0.253635  1
  Hf  Hf10  1  0.060141  0.814273  0.622250  1
  Hf  Hf11  1  0.691388  0.437753  0.877438  1
  Hf  Hf12  1  0.481805  0.014821  0.028970  1
  Hf  Hf13  1  0.481805  0.452835  0.466985  1
  Hf  Hf14  1  0.482286  0.014030  0.468256  1
  Hf  Hf15  1  0.051557  0.017499  0.034058  1
  Co  Co16  1  0.272315  0.233223  0.460843  1
  Co  Co17  1  0.272315  0.811472  0.039092  1
  Co  Co18  1  0.275835  0.230511  0.045324  1
  Ni  Ni19  1  0.683436  0.228880  0.454557  1
  Ir  Ir20  1  0.708271  0.785677  0.578410  1
  Ir  Ir21  1  0.708271  0.129861  0.922594  1
  Ir  Ir22  1  0.706265  0.790442  0.915824  1
  Ir  Ir23  1  0.374309  0.790205  0.584103  1
  N  N24  1  0.998231  0.498897  0.999354  1
  N  N25  1  0.998231  0.998876  0.499334  1
