# generated using pymatgen
data_Ho4Al17Si(OsPd2)2
_symmetry_space_group_name_H-M   'P 1'
_cell_length_a   7.59692126
_cell_length_b   7.59691900
_cell_length_c   9.41208300
_cell_angle_alpha   90.00000000
_cell_angle_beta   90.00000000
_cell_angle_gamma   119.64862430
_symmetry_Int_Tables_number   1
_chemical_formula_structural   Ho4Al17Si(OsPd2)2
_chemical_formula_sum   'Ho4 Al17 Si1 Os2 Pd4'
_cell_volume   472.08297821
_cell_formula_units_Z   1
loop_
 _symmetry_equiv_pos_site_id
 _symmetry_equiv_pos_as_xyz
  1  'x, y, z'
loop_
 _atom_site_type_symbol
 _atom_site_label
 _atom_site_symmetry_multiplicity
 _atom_site_fract_x
 _atom_site_fract_y
 _atom_site_fract_z
 _atom_site_occupancy
  Ho  Ho0  1  0.993723  0.675003  0.250000  1
  Ho  Ho1  1  0.003248  0.331343  0.750000  1
  Ho  Ho2  1  0.675003  0.993723  0.250000  1
  Ho  Ho3  1  0.331343  0.003248  0.750000  1
  Al  Al4  1  0.878748  0.878748  0.750000  1
  Al  Al5  1  0.000202  0.332721  0.078169  1
  Al  Al6  1  0.000111  0.670893  0.923685  1
  Al  Al7  1  0.000111  0.670893  0.576315  1
  Al  Al8  1  0.332721  0.000202  0.421831  1
  Al  Al9  1  0.000202  0.332721  0.421831  1
  Al  Al10  1  0.670893  0.000111  0.576315  1
  Al  Al11  1  0.670893  0.000111  0.923685  1
  Al  Al12  1  0.332721  0.000202  0.078169  1
  Al  Al13  1  0.327401  0.327401  0.559088  1
  Al  Al14  1  0.667519  0.667520  0.447240  1
  Al  Al15  1  0.667519  0.667520  0.052760  1
  Al  Al16  1  0.327401  0.327401  0.940912  1
  Al  Al17  1  0.338506  0.546751  0.250000  1
  Al  Al18  1  0.659721  0.453746  0.750000  1
  Al  Al19  1  0.546751  0.338506  0.250000  1
  Al  Al20  1  0.453746  0.659721  0.750000  1
  Si  Si21  1  0.126243  0.126243  0.250000  1
  Os  Os22  1  0.000403  0.000403  0.008003  1
  Os  Os23  1  0.000403  0.000403  0.491997  1
  Pd  Pd24  1  0.670910  0.326324  0.000266  1
  Pd  Pd25  1  0.326324  0.670910  0.000266  1
  Pd  Pd26  1  0.326324  0.670910  0.499734  1
  Pd  Pd27  1  0.670910  0.326324  0.499734  1
