# generated using pymatgen
data_Al8NiIr4Os3
_symmetry_space_group_name_H-M   'P 1'
_cell_length_a   6.05753600
_cell_length_b   4.22737400
_cell_length_c   8.48310600
_cell_angle_alpha   90.00000000
_cell_angle_beta   90.00005539
_cell_angle_gamma   90.00000000
_symmetry_Int_Tables_number   1
_chemical_formula_structural   Al8NiIr4Os3
_chemical_formula_sum   'Al8 Ni1 Ir4 Os3'
_cell_volume   217.23088402
_cell_formula_units_Z   1
loop_
 _symmetry_equiv_pos_site_id
 _symmetry_equiv_pos_as_xyz
  1  'x, y, z'
loop_
 _atom_site_type_symbol
 _atom_site_label
 _atom_site_symmetry_multiplicity
 _atom_site_fract_x
 _atom_site_fract_y
 _atom_site_fract_z
 _atom_site_occupancy
  Al  Al0  1  0.998278  0.750001  0.125011  1
  Al  Al1  1  0.501715  0.750001  0.125014  1
  Al  Al2  1  0.998656  0.250000  0.375183  1
  Al  Al3  1  0.501336  0.250000  0.375188  1
  Al  Al4  1  0.502010  0.750001  0.625012  1
  Al  Al5  1  0.997998  0.750001  0.625016  1
  Al  Al6  1  0.501338  0.250000  0.874782  1
  Al  Al7  1  0.998670  0.250000  0.874788  1
  Ni  Ni8  1  0.249999  0.250000  0.124994  1
  Ir  Ir9  1  0.749993  0.250000  0.124994  1
  Ir  Ir10  1  0.249994  0.750001  0.368148  1
  Ir  Ir11  1  0.750006  0.250000  0.624993  1
  Ir  Ir12  1  0.250004  0.750001  0.881872  1
  Os  Os13  1  0.749997  0.750001  0.372616  1
  Os  Os14  1  0.250002  0.250000  0.624987  1
  Os  Os15  1  0.750003  0.750001  0.877402  1
