# generated using pymatgen
data_Dy7Lu3(SiPb3)2
_symmetry_space_group_name_H-M   'P 1'
_cell_length_a   9.27301100
_cell_length_b   9.27300980
_cell_length_c   6.50115200
_cell_angle_alpha   90.00000000
_cell_angle_beta   90.00000000
_cell_angle_gamma   120.00000071
_symmetry_Int_Tables_number   1
_chemical_formula_structural   Dy7Lu3(SiPb3)2
_chemical_formula_sum   'Dy7 Lu3 Si2 Pb6'
_cell_volume   484.13049853
_cell_formula_units_Z   1
loop_
 _symmetry_equiv_pos_site_id
 _symmetry_equiv_pos_as_xyz
  1  'x, y, z'
loop_
 _atom_site_type_symbol
 _atom_site_label
 _atom_site_symmetry_multiplicity
 _atom_site_fract_x
 _atom_site_fract_y
 _atom_site_fract_z
 _atom_site_occupancy
  Dy  Dy0  1  0.249610  0.000219  0.749736  1
  Dy  Dy1  1  0.750610  0.000219  0.250264  1
  Dy  Dy2  1  0.999781  0.249390  0.749736  1
  Dy  Dy3  1  0.999781  0.750390  0.250264  1
  Dy  Dy4  1  0.750610  0.750390  0.749736  1
  Dy  Dy5  1  0.249610  0.249390  0.250264  1
  Dy  Dy6  1  0.333333  0.666667  0.500000  1
  Lu  Lu7  1  0.666667  0.333333  0.500000  1
  Lu  Lu8  1  0.666667  0.333333  0.000000  1
  Lu  Lu9  1  0.333333  0.666667  0.000000  1
  Si  Si10  1  0.000000  0.000000  0.500000  1
  Si  Si11  1  0.000000  0.000000  0.000000  1
  Pb  Pb12  1  0.605040  0.000556  0.750213  1
  Pb  Pb13  1  0.395517  0.000556  0.249787  1
  Pb  Pb14  1  0.999444  0.604483  0.750213  1
  Pb  Pb15  1  0.999444  0.394960  0.249787  1
  Pb  Pb16  1  0.395517  0.394960  0.750213  1
  Pb  Pb17  1  0.605040  0.604483  0.249787  1
