# generated using pymatgen
data_YMg(ZnPt)2
_symmetry_space_group_name_H-M   'P 1'
_cell_length_a   4.23861300
_cell_length_b   6.60369990
_cell_length_c   7.94659107
_cell_angle_alpha   94.90090694
_cell_angle_beta   90.00000000
_cell_angle_gamma   90.00000000
_symmetry_Int_Tables_number   1
_chemical_formula_structural   YMg(ZnPt)2
_chemical_formula_sum   'Y2 Mg2 Zn4 Pt4'
_cell_volume   221.61606807
_cell_formula_units_Z   2
loop_
 _symmetry_equiv_pos_site_id
 _symmetry_equiv_pos_as_xyz
  1  'x, y, z'
loop_
 _atom_site_type_symbol
 _atom_site_label
 _atom_site_symmetry_multiplicity
 _atom_site_fract_x
 _atom_site_fract_y
 _atom_site_fract_z
 _atom_site_occupancy
  Y  Y0  1  0.750000  0.961590  0.683839  1
  Y  Y1  1  0.250000  0.038410  0.316161  1
  Mg  Mg2  1  0.250000  0.534555  0.165699  1
  Mg  Mg3  1  0.750000  0.465445  0.834301  1
  Zn  Zn4  1  0.250000  0.636666  0.543275  1
  Zn  Zn5  1  0.750000  0.363334  0.456725  1
  Zn  Zn6  1  0.750000  0.850017  0.056020  1
  Zn  Zn7  1  0.250000  0.149983  0.943980  1
  Pt  Pt8  1  0.250000  0.746271  0.872770  1
  Pt  Pt9  1  0.750000  0.253729  0.127230  1
  Pt  Pt10  1  0.750000  0.730468  0.357836  1
  Pt  Pt11  1  0.250000  0.269532  0.642164  1
