# generated using pymatgen
data_Gd9ErNi4
_symmetry_space_group_name_H-M   'P 1'
_cell_length_a   8.74228798
_cell_length_b   8.74228685
_cell_length_c   7.07815500
_cell_angle_alpha   83.76230545
_cell_angle_beta   83.76230626
_cell_angle_gamma   42.89219875
_symmetry_Int_Tables_number   1
_chemical_formula_structural   Gd9ErNi4
_chemical_formula_sum   'Gd9 Er1 Ni4'
_cell_volume   365.67576490
_cell_formula_units_Z   1
loop_
 _symmetry_equiv_pos_site_id
 _symmetry_equiv_pos_as_xyz
  1  'x, y, z'
loop_
 _atom_site_type_symbol
 _atom_site_label
 _atom_site_symmetry_multiplicity
 _atom_site_fract_x
 _atom_site_fract_y
 _atom_site_fract_z
 _atom_site_occupancy
  Gd  Gd0  1  0.013033  0.797748  0.915469  1
  Gd  Gd1  1  0.202252  0.986967  0.584531  1
  Gd  Gd2  1  0.987075  0.201430  0.084684  1
  Gd  Gd3  1  0.798570  0.012925  0.415316  1
  Gd  Gd4  1  0.351977  0.215873  0.815187  1
  Gd  Gd5  1  0.784127  0.648023  0.684813  1
  Gd  Gd6  1  0.647995  0.783772  0.184852  1
  Gd  Gd7  1  0.216228  0.352005  0.315148  1
  Gd  Gd8  1  0.570841  0.429159  0.750000  1
  Er  Er9  1  0.428731  0.571269  0.250000  1
  Ni  Ni10  1  0.181532  0.596701  0.570309  1
  Ni  Ni11  1  0.403299  0.818468  0.929691  1
  Ni  Ni12  1  0.818113  0.403775  0.427022  1
  Ni  Ni13  1  0.596225  0.181887  0.072978  1
