# generated using pymatgen
data_Ca2Co3Ni6Mo3P7
_symmetry_space_group_name_H-M   'P 1'
_cell_length_a   9.16478700
_cell_length_b   9.16478570
_cell_length_c   3.71758000
_cell_angle_alpha   90.00000000
_cell_angle_beta   90.00000000
_cell_angle_gamma   120.00001551
_symmetry_Int_Tables_number   1
_chemical_formula_structural   Ca2Co3Ni6Mo3P7
_chemical_formula_sum   'Ca2 Co3 Ni6 Mo3 P7'
_cell_volume   270.41798809
_cell_formula_units_Z   1
loop_
 _symmetry_equiv_pos_site_id
 _symmetry_equiv_pos_as_xyz
  1  'x, y, z'
loop_
 _atom_site_type_symbol
 _atom_site_label
 _atom_site_symmetry_multiplicity
 _atom_site_fract_x
 _atom_site_fract_y
 _atom_site_fract_z
 _atom_site_occupancy
  Ca  Ca0  1  0.333333  0.666667  0.000000  1
  Ca  Ca1  1  0.666667  0.333333  0.500000  1
  Co  Co2  1  0.719485  0.876159  0.000000  1
  Co  Co3  1  0.156674  0.280515  0.000000  1
  Co  Co4  1  0.123841  0.843326  0.000000  1
  Ni  Ni5  1  0.628806  0.567690  0.000000  1
  Ni  Ni6  1  0.938885  0.371194  0.000000  1
  Ni  Ni7  1  0.432310  0.061115  0.000000  1
  Ni  Ni8  1  0.559014  0.946350  0.500000  1
  Ni  Ni9  1  0.387336  0.440986  0.500000  1
  Ni  Ni10  1  0.053650  0.612664  0.500000  1
  Mo  Mo11  1  0.881587  0.781037  0.500000  1
  Mo  Mo12  1  0.899449  0.118413  0.500000  1
  Mo  Mo13  1  0.218963  0.100551  0.500000  1
  P  P14  1  0.595419  0.714293  0.500000  1
  P  P15  1  0.118874  0.404581  0.500000  1
  P  P16  1  0.285707  0.881126  0.500000  1
  P  P17  1  0.000000  0.000000  0.000000  1
  P  P18  1  0.890025  0.591012  0.000000  1
  P  P19  1  0.700987  0.109975  0.000000  1
  P  P20  1  0.408988  0.299013  0.000000  1
