# generated using pymatgen
data_Pr5Zn7Ni12
_symmetry_space_group_name_H-M   'P 1'
_cell_length_a   5.24727887
_cell_length_b   5.24727860
_cell_length_c   16.28048206
_cell_angle_alpha   80.72620135
_cell_angle_beta   80.72620023
_cell_angle_gamma   59.99999687
_symmetry_Int_Tables_number   1
_chemical_formula_structural   Pr5Zn7Ni12
_chemical_formula_sum   'Pr5 Zn7 Ni12'
_cell_volume   381.42904024
_cell_formula_units_Z   1
loop_
 _symmetry_equiv_pos_site_id
 _symmetry_equiv_pos_as_xyz
  1  'x, y, z'
loop_
 _atom_site_type_symbol
 _atom_site_label
 _atom_site_symmetry_multiplicity
 _atom_site_fract_x
 _atom_site_fract_y
 _atom_site_fract_z
 _atom_site_occupancy
  Pr  Pr0  1  0.000000  0.000000  0.000000  1
  Pr  Pr1  1  0.925358  0.925358  0.223928  1
  Pr  Pr2  1  0.074642  0.074642  0.776072  1
  Pr  Pr3  1  0.850683  0.850683  0.447952  1
  Pr  Pr4  1  0.149317  0.149317  0.552048  1
  Zn  Zn5  1  0.500000  0.500000  0.500000  1
  Zn  Zn6  1  0.749819  0.749820  0.750542  1
  Zn  Zn7  1  0.250180  0.250180  0.249459  1
  Zn  Zn8  1  0.666497  0.666497  0.000509  1
  Zn  Zn9  1  0.333503  0.333503  0.999491  1
  Zn  Zn10  1  0.583865  0.583865  0.248407  1
  Zn  Zn11  1  0.416135  0.416135  0.751593  1
  Ni  Ni12  1  0.374953  0.374953  0.371759  1
  Ni  Ni13  1  0.878335  0.374953  0.371759  1
  Ni  Ni14  1  0.374953  0.878335  0.371759  1
  Ni  Ni15  1  0.625047  0.625047  0.628241  1
  Ni  Ni16  1  0.121665  0.625047  0.628241  1
  Ni  Ni17  1  0.625047  0.121665  0.628241  1
  Ni  Ni18  1  0.458154  0.458154  0.123217  1
  Ni  Ni19  1  0.960475  0.458154  0.123217  1
  Ni  Ni20  1  0.458154  0.960475  0.123217  1
  Ni  Ni21  1  0.541846  0.541846  0.876783  1
  Ni  Ni22  1  0.039525  0.541846  0.876783  1
  Ni  Ni23  1  0.541846  0.039525  0.876783  1
