# generated using pymatgen
data_ZrTl3F7
_symmetry_space_group_name_H-M   'P 1'
_cell_length_a   6.21313216
_cell_length_b   6.21313167
_cell_length_c   7.15461000
_cell_angle_alpha   113.25605679
_cell_angle_beta   113.25605485
_cell_angle_gamma   89.12284160
_symmetry_Int_Tables_number   1
_chemical_formula_structural   ZrTl3F7
_chemical_formula_sum   'Zr1 Tl3 F7'
_cell_volume   229.87528426
_cell_formula_units_Z   1
loop_
 _symmetry_equiv_pos_site_id
 _symmetry_equiv_pos_as_xyz
  1  'x, y, z'
loop_
 _atom_site_type_symbol
 _atom_site_label
 _atom_site_symmetry_multiplicity
 _atom_site_fract_x
 _atom_site_fract_y
 _atom_site_fract_z
 _atom_site_occupancy
  Zr  Zr0  1  0.954533  0.954533  0.969937  1
  Tl  Tl1  1  0.497176  0.497176  0.993706  1
  Tl  Tl2  1  0.762645  0.240918  0.503758  1
  Tl  Tl3  1  0.240918  0.762645  0.503758  1
  F  F4  1  0.863276  0.863276  0.187850  1
  F  F5  1  0.978066  0.291064  0.209046  1
  F  F6  1  0.291064  0.978066  0.209046  1
  F  F7  1  0.663090  0.663090  0.760629  1
  F  F8  1  0.668363  0.087841  0.785302  1
  F  F9  1  0.087841  0.668363  0.785302  1
  F  F10  1  0.118031  0.118031  0.841634  1
