# generated using pymatgen
data_Rb2HfSi2O7
_symmetry_space_group_name_H-M   'P 1'
_cell_length_a   5.63050717
_cell_length_b   7.23174235
_cell_length_c   9.15667300
_cell_angle_alpha   71.94762880
_cell_angle_beta   90.08482678
_cell_angle_gamma   90.06946597
_symmetry_Int_Tables_number   1
_chemical_formula_structural   Rb2HfSi2O7
_chemical_formula_sum   'Rb4 Hf2 Si4 O14'
_cell_volume   354.49057770
_cell_formula_units_Z   2
loop_
 _symmetry_equiv_pos_site_id
 _symmetry_equiv_pos_as_xyz
  1  'x, y, z'
loop_
 _atom_site_type_symbol
 _atom_site_label
 _atom_site_symmetry_multiplicity
 _atom_site_fract_x
 _atom_site_fract_y
 _atom_site_fract_z
 _atom_site_occupancy
  Rb  Rb0  1  0.751333  0.809040  0.031483  1
  Rb  Rb1  1  0.251073  0.318878  0.540919  1
  Rb  Rb2  1  0.748928  0.681121  0.459081  1
  Rb  Rb3  1  0.248666  0.190960  0.968517  1
  Hf  Hf4  1  0.749661  0.270280  0.260952  1
  Hf  Hf5  1  0.250338  0.729719  0.739048  1
  Si  Si6  1  0.251245  0.597810  0.163929  1
  Si  Si7  1  0.248454  0.930611  0.328340  1
  Si  Si8  1  0.751545  0.069389  0.671660  1
  Si  Si9  1  0.748756  0.402190  0.836071  1
  O  O10  1  0.748054  0.339212  0.023425  1
  O  O11  1  0.249981  0.811163  0.198661  1
  O  O12  1  0.011173  0.482905  0.241230  1
  O  O13  1  0.492042  0.485082  0.242196  1
  O  O14  1  0.007429  0.061069  0.288855  1
  O  O15  1  0.487723  0.063649  0.290143  1
  O  O16  1  0.248322  0.773830  0.499919  1
  O  O17  1  0.751679  0.226171  0.500081  1
  O  O18  1  0.512278  0.936352  0.709857  1
  O  O19  1  0.992570  0.938930  0.711146  1
  O  O20  1  0.507957  0.514918  0.757805  1
  O  O21  1  0.988826  0.517095  0.758770  1
  O  O22  1  0.750018  0.188836  0.801339  1
  O  O23  1  0.251945  0.660788  0.976574  1
