# generated using pymatgen
data_ErZn(GaRh2)2
_symmetry_space_group_name_H-M   'P 1'
_cell_length_a   6.24149700
_cell_length_b   6.24129800
_cell_length_c   6.26422600
_cell_angle_alpha   90.00000000
_cell_angle_beta   90.00038485
_cell_angle_gamma   90.00000000
_symmetry_Int_Tables_number   1
_chemical_formula_structural   ErZn(GaRh2)2
_chemical_formula_sum   'Er2 Zn2 Ga4 Rh8'
_cell_volume   244.02319158
_cell_formula_units_Z   2
loop_
 _symmetry_equiv_pos_site_id
 _symmetry_equiv_pos_as_xyz
  1  'x, y, z'
loop_
 _atom_site_type_symbol
 _atom_site_label
 _atom_site_symmetry_multiplicity
 _atom_site_fract_x
 _atom_site_fract_y
 _atom_site_fract_z
 _atom_site_occupancy
  Er  Er0  1  0.749753  0.250000  0.000012  1
  Er  Er1  1  0.250246  0.750001  0.999988  1
  Zn  Zn2  1  0.750499  0.250000  0.499981  1
  Zn  Zn3  1  0.249500  0.750001  0.500019  1
  Ga  Ga4  1  0.250032  0.250000  0.999989  1
  Ga  Ga5  1  0.749969  0.750001  0.000011  1
  Ga  Ga6  1  0.750416  0.750001  0.499986  1
  Ga  Ga7  1  0.249585  0.250000  0.500014  1
  Rh  Rh8  1  0.999993  0.999996  0.267261  1
  Rh  Rh9  1  0.999993  0.500010  0.267261  1
  Rh  Rh10  1  0.499982  0.000000  0.267926  1
  Rh  Rh11  1  0.499982  0.499996  0.267926  1
  Rh  Rh12  1  0.500018  0.000000  0.732074  1
  Rh  Rh13  1  0.500018  0.500004  0.732074  1
  Rh  Rh14  1  0.000007  0.000004  0.732739  1
  Rh  Rh15  1  0.000007  0.499990  0.732739  1
