# generated using pymatgen
data_Ce2Al4FeCo
_symmetry_space_group_name_H-M   'P 1'
_cell_length_a   5.10123935
_cell_length_b   5.10123942
_cell_length_c   7.13663800
_cell_angle_alpha   90.00000000
_cell_angle_beta   90.00000000
_cell_angle_gamma   130.06197415
_symmetry_Int_Tables_number   1
_chemical_formula_structural   Ce2Al4FeCo
_chemical_formula_sum   'Ce2 Al4 Fe1 Co1'
_cell_volume   142.13611405
_cell_formula_units_Z   1
loop_
 _symmetry_equiv_pos_site_id
 _symmetry_equiv_pos_as_xyz
  1  'x, y, z'
loop_
 _atom_site_type_symbol
 _atom_site_label
 _atom_site_symmetry_multiplicity
 _atom_site_fract_x
 _atom_site_fract_y
 _atom_site_fract_z
 _atom_site_occupancy
  Ce  Ce0  1  0.549644  0.450356  0.250000  1
  Ce  Ce1  1  0.443774  0.556226  0.750000  1
  Al  Al2  1  0.843408  0.156592  0.052119  1
  Al  Al3  1  0.155566  0.844434  0.949797  1
  Al  Al4  1  0.155566  0.844434  0.550203  1
  Al  Al5  1  0.843408  0.156592  0.447881  1
  Fe  Fe6  1  0.318815  0.681185  0.250000  1
  Co  Co7  1  0.689818  0.310182  0.750000  1
