# generated using pymatgen
data_Dy4NiB16Ru15
_symmetry_space_group_name_H-M   'P 1'
_cell_length_a   9.17470403
_cell_length_b   7.46558344
_cell_length_c   7.47523639
_cell_angle_alpha   89.88584567
_cell_angle_beta   113.71403567
_cell_angle_gamma   114.36545907
_symmetry_Int_Tables_number   1
_chemical_formula_structural   Dy4NiB16Ru15
_chemical_formula_sum   'Dy4 Ni1 B16 Ru15'
_cell_volume   418.69771659
_cell_formula_units_Z   1
loop_
 _symmetry_equiv_pos_site_id
 _symmetry_equiv_pos_as_xyz
  1  'x, y, z'
loop_
 _atom_site_type_symbol
 _atom_site_label
 _atom_site_symmetry_multiplicity
 _atom_site_fract_x
 _atom_site_fract_y
 _atom_site_fract_z
 _atom_site_occupancy
  Dy  Dy0  1  0.749959  0.873825  0.124631  1
  Dy  Dy1  1  0.249864  0.624514  0.373536  1
  Dy  Dy2  1  0.751082  0.375332  0.632944  1
  Dy  Dy3  1  0.246957  0.123477  0.873932  1
  Ni  Ni4  1  0.878011  0.549688  0.040519  1
  B  B5  1  0.914670  0.286309  0.070641  1
  B  B6  1  0.414328  0.568447  0.124636  1
  B  B7  1  0.088237  0.209225  0.151127  1
  B  B8  1  0.586022  0.156210  0.209537  1
  B  B9  1  0.410429  0.061025  0.287351  1
  B  B10  1  0.916637  0.627728  0.349946  1
  B  B11  1  0.585637  0.653750  0.372725  1
  B  B12  1  0.088017  0.876959  0.438991  1
  B  B13  1  0.913940  0.124980  0.564507  1
  B  B14  1  0.414194  0.348391  0.622184  1
  B  B15  1  0.087645  0.374843  0.654764  1
  B  B16  1  0.587240  0.936497  0.710238  1
  B  B17  1  0.415113  0.850900  0.790278  1
  B  B18  1  0.907025  0.783719  0.847641  1
  B  B19  1  0.586381  0.435071  0.874759  1
  B  B20  1  0.081429  0.707894  0.931935  1
  Ru  Ru21  1  0.371428  0.835765  0.050826  1
  Ru  Ru22  1  0.120696  0.938992  0.164336  1
  Ru  Ru23  1  0.631898  0.464592  0.176273  1
  Ru  Ru24  1  0.374587  0.332449  0.317675  1
  Ru  Ru25  1  0.874030  0.324756  0.336164  1
  Ru  Ru26  1  0.627254  0.963225  0.446957  1
  Ru  Ru27  1  0.126612  0.178856  0.459549  1
  Ru  Ru28  1  0.872571  0.820400  0.538505  1
  Ru  Ru29  1  0.374316  0.038674  0.552589  1
  Ru  Ru30  1  0.126446  0.677724  0.665834  1
  Ru  Ru31  1  0.620972  0.664078  0.672605  1
  Ru  Ru32  1  0.375030  0.540072  0.823392  1
  Ru  Ru33  1  0.872772  0.050476  0.834731  1
  Ru  Ru34  1  0.632362  0.173387  0.950245  1
  Ru  Ru35  1  0.126212  0.447773  0.963498  1
