# generated using pymatgen
data_LaTh3(Ga5Rh3)2
_symmetry_space_group_name_H-M   'P 1'
_cell_length_a   8.68996826
_cell_length_b   8.71878606
_cell_length_c   8.71878567
_cell_angle_alpha   141.33097088
_cell_angle_beta   108.11586779
_cell_angle_gamma   84.77995919
_symmetry_Int_Tables_number   1
_chemical_formula_structural   LaTh3(Ga5Rh3)2
_chemical_formula_sum   'La1 Th3 Ga10 Rh6'
_cell_volume   379.25715011
_cell_formula_units_Z   1
loop_
 _symmetry_equiv_pos_site_id
 _symmetry_equiv_pos_as_xyz
  1  'x, y, z'
loop_
 _atom_site_type_symbol
 _atom_site_label
 _atom_site_symmetry_multiplicity
 _atom_site_fract_x
 _atom_site_fract_y
 _atom_site_fract_z
 _atom_site_occupancy
  La  La0  1  0.911818  0.637063  0.274756  1
  Th  Th1  1  0.363013  0.138951  0.224062  1
  Th  Th2  1  0.637505  0.861117  0.776388  1
  Th  Th3  1  0.083129  0.360185  0.722943  1
  Ga  Ga4  1  0.000904  0.252416  0.251905  1
  Ga  Ga5  1  0.000904  0.748999  0.748489  1
  Ga  Ga6  1  0.707185  0.957258  0.250969  1
  Ga  Ga7  1  0.292511  0.543913  0.250038  1
  Ga  Ga8  1  0.292511  0.042473  0.748598  1
  Ga  Ga9  1  0.707185  0.456216  0.749927  1
  Ga  Ga10  1  0.574264  0.408698  0.165566  1
  Ga  Ga11  1  0.240081  0.908428  0.331653  1
  Ga  Ga12  1  0.759618  0.091716  0.667902  1
  Ga  Ga13  1  0.425168  0.590665  0.834503  1
  Rh  Rh14  1  0.948860  0.853775  0.095085  1
  Rh  Rh15  1  0.498357  0.750593  0.250113  1
  Rh  Rh16  1  0.752602  0.351863  0.400738  1
  Rh  Rh17  1  0.251298  0.649464  0.601834  1
  Rh  Rh18  1  0.054729  0.147965  0.906764  1
  Rh  Rh19  1  0.498357  0.248244  0.747765  1
