# generated using pymatgen
data_Ca2CrReC3
_symmetry_space_group_name_H-M   'P 1'
_cell_length_a   5.62245434
_cell_length_b   5.62245450
_cell_length_c   5.71635208
_cell_angle_alpha   74.81946011
_cell_angle_beta   74.81946185
_cell_angle_gamma   37.13022608
_symmetry_Int_Tables_number   1
_chemical_formula_structural   Ca2CrReC3
_chemical_formula_sum   'Ca2 Cr1 Re1 C3'
_cell_volume   104.83461202
_cell_formula_units_Z   1
loop_
 _symmetry_equiv_pos_site_id
 _symmetry_equiv_pos_as_xyz
  1  'x, y, z'
loop_
 _atom_site_type_symbol
 _atom_site_label
 _atom_site_symmetry_multiplicity
 _atom_site_fract_x
 _atom_site_fract_y
 _atom_site_fract_z
 _atom_site_occupancy
  Ca  Ca0  1  0.606535  0.606535  0.177868  1
  Ca  Ca1  1  0.409016  0.409016  0.822450  1
  Cr  Cr2  1  0.156362  0.156362  0.596508  1
  Re  Re3  1  0.842371  0.842371  0.405019  1
  C  C4  1  0.001862  0.001862  0.503329  1
  C  C5  1  0.299743  0.299743  0.285246  1
  C  C6  1  0.684111  0.684111  0.709578  1
