# generated using pymatgen
data_Y3Ho3Fe7Co11
_symmetry_space_group_name_H-M   'P 1'
_cell_length_a   5.08787780
_cell_length_b   5.11728397
_cell_length_c   15.84241716
_cell_angle_alpha   90.00000108
_cell_angle_beta   89.95466015
_cell_angle_gamma   120.19138090
_symmetry_Int_Tables_number   1
_chemical_formula_structural   Y3Ho3Fe7Co11
_chemical_formula_sum   'Y3 Ho3 Fe7 Co11'
_cell_volume   356.52281013
_cell_formula_units_Z   1
loop_
 _symmetry_equiv_pos_site_id
 _symmetry_equiv_pos_as_xyz
  1  'x, y, z'
loop_
 _atom_site_type_symbol
 _atom_site_label
 _atom_site_symmetry_multiplicity
 _atom_site_fract_x
 _atom_site_fract_y
 _atom_site_fract_z
 _atom_site_occupancy
  Y  Y0  1  0.334514  0.667258  0.539225  1
  Y  Y1  1  0.333866  0.666933  0.749958  1
  Y  Y2  1  0.665186  0.332592  0.249804  1
  Ho  Ho3  1  0.333913  0.666957  0.958955  1
  Ho  Ho4  1  0.667761  0.333880  0.036627  1
  Ho  Ho5  1  0.666479  0.333240  0.460880  1
  Fe  Fe6  1  0.661717  0.830859  0.126585  1
  Fe  Fe7  1  0.330698  0.665349  0.252610  1
  Fe  Fe8  1  0.666712  0.333355  0.750122  1
  Fe  Fe9  1  0.000158  0.000078  0.251956  1
  Fe  Fe10  1  0.001435  0.000718  0.750188  1
  Fe  Fe11  1  0.000608  0.000304  0.500336  1
  Fe  Fe12  1  0.003586  0.001793  0.998867  1
  Co  Co13  1  0.166619  0.833183  0.373931  1
  Co  Co14  1  0.166619  0.333437  0.373931  1
  Co  Co15  1  0.666721  0.833361  0.373623  1
  Co  Co16  1  0.833716  0.167561  0.627552  1
  Co  Co17  1  0.833716  0.666155  0.627552  1
  Co  Co18  1  0.333713  0.166856  0.627372  1
  Co  Co19  1  0.833816  0.167129  0.872121  1
  Co  Co20  1  0.833816  0.666688  0.872121  1
  Co  Co21  1  0.333335  0.166667  0.872174  1
  Co  Co22  1  0.165647  0.832603  0.126757  1
  Co  Co23  1  0.165647  0.333045  0.126757  1
