# generated using pymatgen
data_BeNb5Ga2As
_symmetry_space_group_name_H-M   'P 1'
_cell_length_a   7.84993905
_cell_length_b   7.84844856
_cell_length_c   5.38435800
_cell_angle_alpha   90.00000000
_cell_angle_beta   90.00000000
_cell_angle_gamma   119.99372058
_symmetry_Int_Tables_number   1
_chemical_formula_structural   BeNb5Ga2As
_chemical_formula_sum   'Be2 Nb10 Ga4 As2'
_cell_volume   287.30430753
_cell_formula_units_Z   2
loop_
 _symmetry_equiv_pos_site_id
 _symmetry_equiv_pos_as_xyz
  1  'x, y, z'
loop_
 _atom_site_type_symbol
 _atom_site_label
 _atom_site_symmetry_multiplicity
 _atom_site_fract_x
 _atom_site_fract_y
 _atom_site_fract_z
 _atom_site_occupancy
  Be  Be0  1  0.000000  0.996631  0.011850  1
  Be  Be1  1  0.000000  0.996631  0.488150  1
  Nb  Nb2  1  0.665023  0.332030  0.002054  1
  Nb  Nb3  1  0.334977  0.667008  0.002054  1
  Nb  Nb4  1  0.334977  0.667008  0.497946  1
  Nb  Nb5  1  0.665023  0.332030  0.497946  1
  Nb  Nb6  1  0.742782  0.746959  0.750000  1
  Nb  Nb7  1  0.257218  0.004177  0.750000  1
  Nb  Nb8  1  0.000000  0.252195  0.750000  1
  Nb  Nb9  1  0.261831  0.262231  0.250000  1
  Nb  Nb10  1  0.738169  0.000400  0.250000  1
  Nb  Nb11  1  0.000000  0.735814  0.250000  1
  Ga  Ga12  1  0.000000  0.608429  0.750000  1
  Ga  Ga13  1  0.614592  0.613022  0.250000  1
  Ga  Ga14  1  0.385408  0.998430  0.250000  1
  Ga  Ga15  1  0.000000  0.389758  0.250000  1
  As  As16  1  0.395946  0.396595  0.750000  1
  As  As17  1  0.604054  0.000649  0.750000  1
