# generated using pymatgen
data_Dy2Lu4TcBi2
_symmetry_space_group_name_H-M   'P 1'
_cell_length_a   8.18706980
_cell_length_b   8.18707071
_cell_length_c   4.27645000
_cell_angle_alpha   90.00000000
_cell_angle_beta   90.00000000
_cell_angle_gamma   120.11215273
_symmetry_Int_Tables_number   1
_chemical_formula_structural   Dy2Lu4TcBi2
_chemical_formula_sum   'Dy2 Lu4 Tc1 Bi2'
_cell_volume   247.95858382
_cell_formula_units_Z   1
loop_
 _symmetry_equiv_pos_site_id
 _symmetry_equiv_pos_as_xyz
  1  'x, y, z'
loop_
 _atom_site_type_symbol
 _atom_site_label
 _atom_site_symmetry_multiplicity
 _atom_site_fract_x
 _atom_site_fract_y
 _atom_site_fract_z
 _atom_site_occupancy
  Dy  Dy0  1  0.611158  0.999428  0.000000  1
  Dy  Dy1  1  0.999428  0.611158  0.000000  1
  Lu  Lu2  1  0.231297  0.000956  0.500000  1
  Lu  Lu3  1  0.000956  0.231297  0.500000  1
  Lu  Lu4  1  0.770847  0.770847  0.500000  1
  Lu  Lu5  1  0.383926  0.383926  0.000000  1
  Tc  Tc6  1  0.003915  0.003915  0.000000  1
  Bi  Bi7  1  0.333512  0.664961  0.500000  1
  Bi  Bi8  1  0.664961  0.333512  0.500000  1
