# generated using pymatgen
data_CaPrDyGa8Ag3
_symmetry_space_group_name_H-M   'P 1'
_cell_length_a   4.39220579
_cell_length_b   8.43765568
_cell_length_c   8.43765517
_cell_angle_alpha   70.49345415
_cell_angle_beta   74.91366483
_cell_angle_gamma   74.91366499
_symmetry_Int_Tables_number   1
_chemical_formula_structural   CaPrDyGa8Ag3
_chemical_formula_sum   'Ca1 Pr1 Dy1 Ga8 Ag3'
_cell_volume   279.38135197
_cell_formula_units_Z   1
loop_
 _symmetry_equiv_pos_site_id
 _symmetry_equiv_pos_as_xyz
  1  'x, y, z'
loop_
 _atom_site_type_symbol
 _atom_site_label
 _atom_site_symmetry_multiplicity
 _atom_site_fract_x
 _atom_site_fract_y
 _atom_site_fract_z
 _atom_site_occupancy
  Ca  Ca0  1  0.802886  0.197114  0.197114  1
  Pr  Pr1  1  0.499987  0.500013  0.500013  1
  Dy  Dy2  1  0.199122  0.800878  0.800878  1
  Ga  Ga3  1  0.642084  0.074157  0.641676  1
  Ga  Ga4  1  0.355723  0.924704  0.363849  1
  Ga  Ga5  1  0.642084  0.641676  0.074157  1
  Ga  Ga6  1  0.355723  0.363849  0.924704  1
  Ga  Ga7  1  0.838422  0.791333  0.531822  1
  Ga  Ga8  1  0.162907  0.203830  0.470358  1
  Ga  Ga9  1  0.838422  0.531822  0.791333  1
  Ga  Ga10  1  0.162907  0.470358  0.203830  1
  Ag  Ag11  1  0.500688  0.999312  0.999312  1
  Ag  Ag12  1  0.999523  0.803578  0.197376  1
  Ag  Ag13  1  0.999523  0.197376  0.803578  1
