# generated using pymatgen
data_Dy8Tm7Lu(Ga3Co)2
_symmetry_space_group_name_H-M   'P 1'
_cell_length_a   9.90146600
_cell_length_b   9.90146542
_cell_length_c   6.94401600
_cell_angle_alpha   90.00000000
_cell_angle_beta   90.00000000
_cell_angle_gamma   119.99999525
_symmetry_Int_Tables_number   1
_chemical_formula_structural   Dy8Tm7Lu(Ga3Co)2
_chemical_formula_sum   'Dy8 Tm7 Lu1 Ga6 Co2'
_cell_volume   589.57673944
_cell_formula_units_Z   1
loop_
 _symmetry_equiv_pos_site_id
 _symmetry_equiv_pos_as_xyz
  1  'x, y, z'
loop_
 _atom_site_type_symbol
 _atom_site_label
 _atom_site_symmetry_multiplicity
 _atom_site_fract_x
 _atom_site_fract_y
 _atom_site_fract_z
 _atom_site_occupancy
  Dy  Dy0  1  0.464096  0.535904  0.208457  1
  Dy  Dy1  1  0.071808  0.535904  0.208457  1
  Dy  Dy2  1  0.464096  0.928192  0.208457  1
  Dy  Dy3  1  0.536038  0.463962  0.708258  1
  Dy  Dy4  1  0.927924  0.463962  0.708258  1
  Dy  Dy5  1  0.536038  0.072076  0.708258  1
  Dy  Dy6  1  0.000000  0.000000  0.231481  1
  Dy  Dy7  1  0.000000  0.000000  0.731622  1
  Tm  Tm8  1  0.173555  0.826445  0.512586  1
  Tm  Tm9  1  0.652889  0.826445  0.512586  1
  Tm  Tm10  1  0.173555  0.347111  0.512586  1
  Tm  Tm11  1  0.826306  0.173694  0.012868  1
  Tm  Tm12  1  0.347388  0.173694  0.012868  1
  Tm  Tm13  1  0.826306  0.652612  0.012868  1
  Tm  Tm14  1  0.333333  0.666667  0.826382  1
  Lu  Lu15  1  0.666667  0.333333  0.325632  1
  Ga  Ga16  1  0.163705  0.836295  0.956562  1
  Ga  Ga17  1  0.672589  0.836295  0.956562  1
  Ga  Ga18  1  0.163705  0.327411  0.956562  1
  Ga  Ga19  1  0.836119  0.163881  0.456403  1
  Ga  Ga20  1  0.327762  0.163881  0.456403  1
  Ga  Ga21  1  0.836119  0.672238  0.456403  1
  Co  Co22  1  0.333333  0.666667  0.447178  1
  Co  Co23  1  0.666667  0.333333  0.947134  1
