# generated using pymatgen
data_Ho13Er7Ir11Os
_symmetry_space_group_name_H-M   'P 1'
_cell_length_a   10.80585800
_cell_length_b   10.80684000
_cell_length_c   6.36537900
_cell_angle_alpha   90.00208859
_cell_angle_beta   89.99990729
_cell_angle_gamma   89.99768831
_symmetry_Int_Tables_number   1
_chemical_formula_structural   Ho13Er7Ir11Os
_chemical_formula_sum   'Ho13 Er7 Ir11 Os1'
_cell_volume   743.33099895
_cell_formula_units_Z   1
loop_
 _symmetry_equiv_pos_site_id
 _symmetry_equiv_pos_as_xyz
  1  'x, y, z'
loop_
 _atom_site_type_symbol
 _atom_site_label
 _atom_site_symmetry_multiplicity
 _atom_site_fract_x
 _atom_site_fract_y
 _atom_site_fract_z
 _atom_site_occupancy
  Ho  Ho0  1  0.707644  0.912996  0.375950  1
  Ho  Ho1  1  0.586946  0.792830  0.879229  1
  Ho  Ho2  1  0.587024  0.207562  0.375965  1
  Ho  Ho3  1  0.412866  0.792489  0.375973  1
  Ho  Ho4  1  0.412993  0.207133  0.879245  1
  Ho  Ho5  1  0.209148  0.412033  0.622078  1
  Ho  Ho6  1  0.209099  0.587817  0.121888  1
  Ho  Ho7  1  0.790908  0.412164  0.121891  1
  Ho  Ho8  1  0.790859  0.587937  0.622111  1
  Ho  Ho9  1  0.912204  0.709087  0.121909  1
  Ho  Ho10  1  0.912019  0.290816  0.622183  1
  Ho  Ho11  1  0.088001  0.709184  0.622129  1
  Ho  Ho12  1  0.087861  0.290862  0.121986  1
  Er  Er13  1  0.292482  0.086987  0.376079  1
  Er  Er14  1  0.292883  0.913072  0.879326  1
  Er  Er15  1  0.707110  0.086996  0.879303  1
  Er  Er16  1  0.000093  0.000062  0.499605  1
  Er  Er17  1  0.000016  0.000007  0.999534  1
  Er  Er18  1  0.500011  0.500002  0.999567  1
  Er  Er19  1  0.499972  0.499988  0.499663  1
  Ir  Ir20  1  0.847487  0.153552  0.250080  1
  Ir  Ir21  1  0.847579  0.846719  0.750058  1
  Ir  Ir22  1  0.152511  0.153232  0.749767  1
  Ir  Ir23  1  0.152563  0.846534  0.250153  1
  Ir  Ir24  1  0.653441  0.347474  0.750052  1
  Ir  Ir25  1  0.653628  0.652421  0.250373  1
  Ir  Ir26  1  0.346350  0.347415  0.250447  1
  Ir  Ir27  1  0.346543  0.652525  0.750036  1
  Ir  Ir28  1  0.499864  0.000047  0.622108  1
  Ir  Ir29  1  0.000018  0.500004  0.878974  1
  Ir  Ir30  1  0.000002  0.500003  0.379160  1
  Os  Os31  1  0.499874  0.000052  0.123174  1
