# generated using pymatgen
data_ScUB6Ru
_symmetry_space_group_name_H-M   'P 1'
_cell_length_a   3.55116300
_cell_length_b   8.97898000
_cell_length_c   11.35057700
_cell_angle_alpha   90.00000000
_cell_angle_beta   90.00000000
_cell_angle_gamma   90.00000000
_symmetry_Int_Tables_number   1
_chemical_formula_structural   ScUB6Ru
_chemical_formula_sum   'Sc4 U4 B24 Ru4'
_cell_volume   361.92247275
_cell_formula_units_Z   4
loop_
 _symmetry_equiv_pos_site_id
 _symmetry_equiv_pos_as_xyz
  1  'x, y, z'
loop_
 _atom_site_type_symbol
 _atom_site_label
 _atom_site_symmetry_multiplicity
 _atom_site_fract_x
 _atom_site_fract_y
 _atom_site_fract_z
 _atom_site_occupancy
  Sc  Sc0  1  0.000000  0.445617  0.125121  1
  Sc  Sc1  1  0.000000  0.554383  0.874879  1
  Sc  Sc2  1  0.000000  0.945617  0.374879  1
  Sc  Sc3  1  0.000000  0.054383  0.625121  1
  U  U4  1  0.000000  0.823017  0.085892  1
  U  U5  1  0.000000  0.176983  0.914108  1
  U  U6  1  0.000000  0.323017  0.414108  1
  U  U7  1  0.000000  0.676983  0.585892  1
  B  B8  1  0.500000  0.053131  0.065883  1
  B  B9  1  0.500000  0.946869  0.934117  1
  B  B10  1  0.500000  0.553131  0.434117  1
  B  B11  1  0.500000  0.446869  0.565883  1
  B  B12  1  0.500000  0.252650  0.079642  1
  B  B13  1  0.500000  0.747350  0.920358  1
  B  B14  1  0.500000  0.752650  0.420358  1
  B  B15  1  0.500000  0.247350  0.579642  1
  B  B16  1  0.500000  0.296423  0.235205  1
  B  B17  1  0.500000  0.703577  0.764795  1
  B  B18  1  0.500000  0.796423  0.264795  1
  B  B19  1  0.500000  0.203577  0.735205  1
  B  B20  1  0.500000  0.131994  0.318608  1
  B  B21  1  0.500000  0.868006  0.681392  1
  B  B22  1  0.500000  0.631994  0.181392  1
  B  B23  1  0.500000  0.368006  0.818608  1
  B  B24  1  0.500000  0.481388  0.285020  1
  B  B25  1  0.500000  0.518612  0.714980  1
  B  B26  1  0.500000  0.981388  0.214980  1
  B  B27  1  0.500000  0.018612  0.785020  1
  B  B28  1  0.500000  0.101776  0.472686  1
  B  B29  1  0.500000  0.898224  0.527314  1
  B  B30  1  0.500000  0.601776  0.027314  1
  B  B31  1  0.500000  0.398224  0.972686  1
  Ru  Ru32  1  0.000000  0.141429  0.181432  1
  Ru  Ru33  1  0.000000  0.858571  0.818568  1
  Ru  Ru34  1  0.000000  0.641429  0.318568  1
  Ru  Ru35  1  0.000000  0.358571  0.681432  1
