# generated using pymatgen
data_RbEu4Te5
_symmetry_space_group_name_H-M   'P 1'
_cell_length_a   8.16547241
_cell_length_b   8.16547136
_cell_length_c   11.62875682
_cell_angle_alpha   61.32314795
_cell_angle_beta   61.32315120
_cell_angle_gamma   33.28933901
_symmetry_Int_Tables_number   1
_chemical_formula_structural   RbEu4Te5
_chemical_formula_sum   'Rb1 Eu4 Te5'
_cell_volume   368.33747961
_cell_formula_units_Z   1
loop_
 _symmetry_equiv_pos_site_id
 _symmetry_equiv_pos_as_xyz
  1  'x, y, z'
loop_
 _atom_site_type_symbol
 _atom_site_label
 _atom_site_symmetry_multiplicity
 _atom_site_fract_x
 _atom_site_fract_y
 _atom_site_fract_z
 _atom_site_occupancy
  Rb  Rb0  1  0.000000  0.000000  0.000000  1
  Eu  Eu1  1  0.595050  0.595050  0.605418  1
  Eu  Eu2  1  0.206100  0.206100  0.201215  1
  Eu  Eu3  1  0.793900  0.793900  0.798785  1
  Eu  Eu4  1  0.404950  0.404950  0.394582  1
  Te  Te5  1  0.207323  0.207323  0.681149  1
  Te  Te6  1  0.792677  0.792677  0.318851  1
  Te  Te7  1  0.387480  0.387480  0.885550  1
  Te  Te8  1  0.000000  0.000000  0.500000  1
  Te  Te9  1  0.612520  0.612520  0.114450  1
