# generated using pymatgen
data_Si2Tc3Ru7W4
_symmetry_space_group_name_H-M   'P 1'
_cell_length_a   4.12109700
_cell_length_b   5.38688664
_cell_length_c   10.38810775
_cell_angle_alpha   90.18969859
_cell_angle_beta   90.00000000
_cell_angle_gamma   90.00000000
_symmetry_Int_Tables_number   1
_chemical_formula_structural   Si2Tc3Ru7W4
_chemical_formula_sum   'Si2 Tc3 Ru7 W4'
_cell_volume   230.61350591
_cell_formula_units_Z   1
loop_
 _symmetry_equiv_pos_site_id
 _symmetry_equiv_pos_as_xyz
  1  'x, y, z'
loop_
 _atom_site_type_symbol
 _atom_site_label
 _atom_site_symmetry_multiplicity
 _atom_site_fract_x
 _atom_site_fract_y
 _atom_site_fract_z
 _atom_site_occupancy
  Si  Si0  1  0.000000  0.495719  0.502389  1
  Si  Si1  1  0.000000  0.000396  0.999093  1
  Tc  Tc2  1  0.000000  0.499443  0.000006  1
  Tc  Tc3  1  0.000000  0.994880  0.498454  1
  Tc  Tc4  1  0.000000  0.608934  0.261608  1
  Ru  Ru5  1  0.000000  0.392987  0.739633  1
  Ru  Ru6  1  0.000000  0.110416  0.237591  1
  Ru  Ru7  1  0.000000  0.894140  0.760269  1
  Ru  Ru8  1  0.500000  0.834178  0.104609  1
  Ru  Ru9  1  0.500000  0.172242  0.893180  1
  Ru  Ru10  1  0.500000  0.328189  0.395296  1
  Ru  Ru11  1  0.500000  0.669166  0.606760  1
  W  W12  1  0.500000  0.841964  0.359746  1
  W  W13  1  0.500000  0.150820  0.639173  1
  W  W14  1  0.500000  0.352819  0.141308  1
  W  W15  1  0.500000  0.653708  0.860885  1
