# generated using pymatgen
data_Li2Dy2Si2Ge
_symmetry_space_group_name_H-M   'P 1'
_cell_length_a   9.31536413
_cell_length_b   9.31536400
_cell_length_c   6.70465200
_cell_angle_alpha   90.00000000
_cell_angle_beta   90.00000000
_cell_angle_gamma   153.51939062
_symmetry_Int_Tables_number   1
_chemical_formula_structural   Li2Dy2Si2Ge
_chemical_formula_sum   'Li4 Dy4 Si4 Ge2'
_cell_volume   259.42296944
_cell_formula_units_Z   2
loop_
 _symmetry_equiv_pos_site_id
 _symmetry_equiv_pos_as_xyz
  1  'x, y, z'
loop_
 _atom_site_type_symbol
 _atom_site_label
 _atom_site_symmetry_multiplicity
 _atom_site_fract_x
 _atom_site_fract_y
 _atom_site_fract_z
 _atom_site_occupancy
  Li  Li0  1  0.810494  0.189506  0.558724  1
  Li  Li1  1  0.189506  0.810494  0.441276  1
  Li  Li2  1  0.189506  0.810494  0.058724  1
  Li  Li3  1  0.810494  0.189506  0.941276  1
  Dy  Dy4  1  0.551414  0.448586  0.250000  1
  Dy  Dy5  1  0.448586  0.551414  0.750000  1
  Dy  Dy6  1  0.346026  0.653974  0.250000  1
  Dy  Dy7  1  0.653974  0.346026  0.750000  1
  Si  Si8  1  0.940814  0.059186  0.072569  1
  Si  Si9  1  0.059186  0.940814  0.927431  1
  Si  Si10  1  0.059186  0.940814  0.572569  1
  Si  Si11  1  0.940814  0.059186  0.427431  1
  Ge  Ge12  1  0.719608  0.280392  0.250000  1
  Ge  Ge13  1  0.280392  0.719608  0.750000  1
