# generated using pymatgen
data_Tb15Dy4HoSn16
_symmetry_space_group_name_H-M   'P 1'
_cell_length_a   8.05212901
_cell_length_b   8.20208050
_cell_length_c   15.50757001
_cell_angle_alpha   90.00418361
_cell_angle_beta   90.00087371
_cell_angle_gamma   90.02092177
_symmetry_Int_Tables_number   1
_chemical_formula_structural   Tb15Dy4HoSn16
_chemical_formula_sum   'Tb15 Dy4 Ho1 Sn16'
_cell_volume   1024.18514553
_cell_formula_units_Z   1
loop_
 _symmetry_equiv_pos_site_id
 _symmetry_equiv_pos_as_xyz
  1  'x, y, z'
loop_
 _atom_site_type_symbol
 _atom_site_label
 _atom_site_symmetry_multiplicity
 _atom_site_fract_x
 _atom_site_fract_y
 _atom_site_fract_z
 _atom_site_occupancy
  Tb  Tb0  1  0.867443  0.663958  0.621827  1
  Tb  Tb1  1  0.632394  0.163846  0.378289  1
  Tb  Tb2  1  0.132668  0.335965  0.121489  1
  Tb  Tb3  1  0.632420  0.163917  0.121738  1
  Tb  Tb4  1  0.132530  0.336019  0.378290  1
  Tb  Tb5  1  0.367527  0.836074  0.621747  1
  Tb  Tb6  1  0.867601  0.663889  0.878368  1
  Tb  Tb7  1  0.520049  0.319911  0.902268  1
  Tb  Tb8  1  0.020090  0.179973  0.597809  1
  Tb  Tb9  1  0.479907  0.680077  0.402263  1
  Tb  Tb10  1  0.979856  0.819965  0.097783  1
  Tb  Tb11  1  0.479862  0.680125  0.097586  1
  Tb  Tb12  1  0.979983  0.820054  0.402230  1
  Tb  Tb13  1  0.520050  0.320017  0.597857  1
  Tb  Tb14  1  0.020112  0.179934  0.902221  1
  Dy  Dy15  1  0.367437  0.836220  0.878102  1
  Dy  Dy16  1  0.198595  0.502434  0.750111  1
  Dy  Dy17  1  0.698451  0.997571  0.750064  1
  Dy  Dy18  1  0.801586  0.497687  0.250016  1
  Ho  Ho19  1  0.301424  0.002403  0.249915  1
  Sn  Sn20  1  0.292596  0.034463  0.041828  1
  Sn  Sn21  1  0.792583  0.465036  0.457857  1
  Sn  Sn22  1  0.707438  0.964962  0.542179  1
  Sn  Sn23  1  0.207975  0.535665  0.957713  1
  Sn  Sn24  1  0.706623  0.964749  0.957762  1
  Sn  Sn25  1  0.207388  0.535007  0.542186  1
  Sn  Sn26  1  0.292578  0.034975  0.457706  1
  Sn  Sn27  1  0.792551  0.465056  0.042220  1
  Sn  Sn28  1  0.565012  0.618833  0.750199  1
  Sn  Sn29  1  0.065516  0.881364  0.750239  1
  Sn  Sn30  1  0.434737  0.381371  0.249986  1
  Sn  Sn31  1  0.935087  0.118448  0.249989  1
  Sn  Sn32  1  0.328146  0.146275  0.750141  1
  Sn  Sn33  1  0.828107  0.353493  0.750023  1
  Sn  Sn34  1  0.671755  0.853545  0.250000  1
  Sn  Sn35  1  0.171923  0.646720  0.250002  1
