# generated using pymatgen
data_Al12Cr2Re
_symmetry_space_group_name_H-M   'P 1'
_cell_length_a   9.09911110
_cell_length_b   9.10920645
_cell_length_c   5.12998116
_cell_angle_alpha   87.16698490
_cell_angle_beta   86.99073271
_cell_angle_gamma   146.95679624
_symmetry_Int_Tables_number   1
_chemical_formula_structural   Al12Cr2Re
_chemical_formula_sum   'Al12 Cr2 Re1'
_cell_volume   228.09692866
_cell_formula_units_Z   1
loop_
 _symmetry_equiv_pos_site_id
 _symmetry_equiv_pos_as_xyz
  1  'x, y, z'
loop_
 _atom_site_type_symbol
 _atom_site_label
 _atom_site_symmetry_multiplicity
 _atom_site_fract_x
 _atom_site_fract_y
 _atom_site_fract_z
 _atom_site_occupancy
  Al  Al0  1  0.136892  0.139477  0.498199  1
  Al  Al1  1  0.485089  0.489065  0.860552  1
  Al  Al2  1  0.579650  0.734662  0.315890  1
  Al  Al3  1  0.737442  0.587457  0.312085  1
  Al  Al4  1  0.707669  0.941151  0.782265  1
  Al  Al5  1  0.934306  0.701943  0.788275  1
  Al  Al6  1  0.062874  0.306120  0.181280  1
  Al  Al7  1  0.300853  0.056454  0.187414  1
  Al  Al8  1  0.453867  0.920314  0.415551  1
  Al  Al9  1  0.925534  0.453302  0.414801  1
  Al  Al10  1  0.774833  0.273841  0.927377  1
  Al  Al11  1  0.274962  0.769810  0.926975  1
  Cr  Cr12  1  0.981254  0.981135  0.012284  1
  Cr  Cr13  1  0.197373  0.472099  0.664857  1
  Re  Re14  1  0.470402  0.196171  0.666196  1
