# generated using pymatgen
data_Ti8TcMo2
_symmetry_space_group_name_H-M   'P 1'
_cell_length_a   5.27638070
_cell_length_b   5.27638058
_cell_length_c   11.78951676
_cell_angle_alpha   105.77219607
_cell_angle_beta   105.77219540
_cell_angle_gamma   35.17619443
_symmetry_Int_Tables_number   1
_chemical_formula_structural   Ti8TcMo2
_chemical_formula_sum   'Ti8 Tc1 Mo2'
_cell_volume   181.23664232
_cell_formula_units_Z   1
loop_
 _symmetry_equiv_pos_site_id
 _symmetry_equiv_pos_as_xyz
  1  'x, y, z'
loop_
 _atom_site_type_symbol
 _atom_site_label
 _atom_site_symmetry_multiplicity
 _atom_site_fract_x
 _atom_site_fract_y
 _atom_site_fract_z
 _atom_site_occupancy
  Ti  Ti0  1  0.706272  0.706272  0.083129  1
  Ti  Ti1  1  0.457388  0.457388  0.176258  1
  Ti  Ti2  1  0.204803  0.204803  0.282080  1
  Ti  Ti3  1  0.623027  0.623027  0.455588  1
  Ti  Ti4  1  0.376974  0.376974  0.544411  1
  Ti  Ti5  1  0.795197  0.795197  0.717920  1
  Ti  Ti6  1  0.542612  0.542612  0.823742  1
  Ti  Ti7  1  0.293729  0.293729  0.916872  1
  Tc  Tc8  1  0.000000  0.000000  0.000000  1
  Mo  Mo9  1  0.918714  0.918714  0.358226  1
  Mo  Mo10  1  0.081286  0.081286  0.641775  1
