# generated using pymatgen
data_Ti8V2Si6N
_symmetry_space_group_name_H-M   'P 1'
_cell_length_a   7.38527900
_cell_length_b   7.38527955
_cell_length_c   5.03063500
_cell_angle_alpha   90.00000000
_cell_angle_beta   90.00000000
_cell_angle_gamma   120.00001096
_symmetry_Int_Tables_number   1
_chemical_formula_structural   Ti8V2Si6N
_chemical_formula_sum   'Ti8 V2 Si6 N1'
_cell_volume   237.62232319
_cell_formula_units_Z   1
loop_
 _symmetry_equiv_pos_site_id
 _symmetry_equiv_pos_as_xyz
  1  'x, y, z'
loop_
 _atom_site_type_symbol
 _atom_site_label
 _atom_site_symmetry_multiplicity
 _atom_site_fract_x
 _atom_site_fract_y
 _atom_site_fract_z
 _atom_site_occupancy
  Ti  Ti0  1  0.000000  0.762337  0.257006  1
  Ti  Ti1  1  0.237663  0.237663  0.257006  1
  Ti  Ti2  1  0.762337  0.000000  0.257006  1
  Ti  Ti3  1  0.000000  0.237663  0.742994  1
  Ti  Ti4  1  0.762337  0.762337  0.742994  1
  Ti  Ti5  1  0.237663  0.000000  0.742994  1
  Ti  Ti6  1  0.333333  0.666667  0.500000  1
  Ti  Ti7  1  0.666667  0.333333  0.500000  1
  V  V8  1  0.666667  0.333333  0.000000  1
  V  V9  1  0.333333  0.666667  0.000000  1
  Si  Si10  1  0.000000  0.402939  0.230665  1
  Si  Si11  1  0.597061  0.597061  0.230665  1
  Si  Si12  1  0.402939  0.000000  0.230665  1
  Si  Si13  1  0.000000  0.597061  0.769335  1
  Si  Si14  1  0.402939  0.402939  0.769335  1
  Si  Si15  1  0.597061  0.000000  0.769335  1
  N  N16  1  0.000000  0.000000  0.500000  1
