# generated using pymatgen
data_EuPuF6
_symmetry_space_group_name_H-M   'P 1'
_cell_length_a   6.59406852
_cell_length_b   6.59406899
_cell_length_c   6.59406900
_cell_angle_alpha   60.00000496
_cell_angle_beta   60.00000260
_cell_angle_gamma   60.00000120
_symmetry_Int_Tables_number   1
_chemical_formula_structural   EuPuF6
_chemical_formula_sum   'Eu1 Pu1 F6'
_cell_volume   202.74280943
_cell_formula_units_Z   1
loop_
 _symmetry_equiv_pos_site_id
 _symmetry_equiv_pos_as_xyz
  1  'x, y, z'
loop_
 _atom_site_type_symbol
 _atom_site_label
 _atom_site_symmetry_multiplicity
 _atom_site_fract_x
 _atom_site_fract_y
 _atom_site_fract_z
 _atom_site_occupancy
  Eu  Eu0  1  0.000000  0.000000  0.000000  1
  Pu  Pu1  1  0.500000  0.500000  0.500000  1
  F  F2  1  0.740119  0.259881  0.259881  1
  F  F3  1  0.740119  0.740119  0.259881  1
  F  F4  1  0.259881  0.740119  0.259881  1
  F  F5  1  0.259881  0.740119  0.740119  1
  F  F6  1  0.259881  0.259881  0.740119  1
  F  F7  1  0.740119  0.259881  0.740119  1
