# generated using pymatgen
data_Ba5Al3InGa2
_symmetry_space_group_name_H-M   'P 1'
_cell_length_a   6.04634100
_cell_length_b   6.04634120
_cell_length_c   11.30609200
_cell_angle_alpha   90.00000000
_cell_angle_beta   90.00000000
_cell_angle_gamma   119.99998251
_symmetry_Int_Tables_number   1
_chemical_formula_structural   Ba5Al3InGa2
_chemical_formula_sum   'Ba5 Al3 In1 Ga2'
_cell_volume   357.95506422
_cell_formula_units_Z   1
loop_
 _symmetry_equiv_pos_site_id
 _symmetry_equiv_pos_as_xyz
  1  'x, y, z'
loop_
 _atom_site_type_symbol
 _atom_site_label
 _atom_site_symmetry_multiplicity
 _atom_site_fract_x
 _atom_site_fract_y
 _atom_site_fract_z
 _atom_site_occupancy
  Ba  Ba0  1  0.000000  0.000000  0.669982  1
  Ba  Ba1  1  0.666667  0.333333  0.798445  1
  Ba  Ba2  1  0.666667  0.333333  0.201555  1
  Ba  Ba3  1  0.333333  0.666667  0.000000  1
  Ba  Ba4  1  0.000000  0.000000  0.330018  1
  Al  Al5  1  0.509169  0.490831  0.500000  1
  Al  Al6  1  0.981660  0.490831  0.500000  1
  Al  Al7  1  0.509169  0.018340  0.500000  1
  In  In8  1  0.000000  0.000000  0.000000  1
  Ga  Ga9  1  0.333333  0.666667  0.677809  1
  Ga  Ga10  1  0.333333  0.666667  0.322191  1
