# generated using pymatgen
data_Nd10Sb9Te
_symmetry_space_group_name_H-M   'P 1'
_cell_length_a   7.83061083
_cell_length_b   9.10646821
_cell_length_c   10.11484687
_cell_angle_alpha   103.12502603
_cell_angle_beta   97.40888753
_cell_angle_gamma   106.90499773
_symmetry_Int_Tables_number   1
_chemical_formula_structural   Nd10Sb9Te
_chemical_formula_sum   'Nd10 Sb9 Te1'
_cell_volume   657.20707348
_cell_formula_units_Z   1
loop_
 _symmetry_equiv_pos_site_id
 _symmetry_equiv_pos_as_xyz
  1  'x, y, z'
loop_
 _atom_site_type_symbol
 _atom_site_label
 _atom_site_symmetry_multiplicity
 _atom_site_fract_x
 _atom_site_fract_y
 _atom_site_fract_z
 _atom_site_occupancy
  Nd  Nd0  1  0.901322  0.550002  0.800400  1
  Nd  Nd1  1  0.695323  0.152059  0.399003  1
  Nd  Nd2  1  0.500526  0.749907  0.000640  1
  Nd  Nd3  1  0.695511  0.644827  0.398381  1
  Nd  Nd4  1  0.304489  0.355173  0.601619  1
  Nd  Nd5  1  0.101245  0.948264  0.195075  1
  Nd  Nd6  1  0.499474  0.250093  0.999360  1
  Nd  Nd7  1  0.304677  0.847941  0.600997  1
  Nd  Nd8  1  0.098678  0.449998  0.199600  1
  Nd  Nd9  1  0.898755  0.051736  0.804925  1
  Sb  Sb10  1  0.799989  0.601001  0.101406  1
  Sb  Sb11  1  0.599112  0.199071  0.699608  1
  Sb  Sb12  1  0.400888  0.800929  0.300392  1
  Sb  Sb13  1  0.800672  0.099841  0.101687  1
  Sb  Sb14  1  0.200011  0.398999  0.898594  1
  Sb  Sb15  1  0.601388  0.701096  0.699599  1
  Sb  Sb16  1  0.398612  0.298904  0.300401  1
  Sb  Sb17  1  0.199328  0.900159  0.898313  1
  Sb  Sb18  1  0.000000  0.500000  0.500000  1
  Te  Te19  1  0.000000  0.000000  0.500000  1
