# generated using pymatgen
data_Er2(TeO3)3
_symmetry_space_group_name_H-M   'P 1'
_cell_length_a   6.98549250
_cell_length_b   13.35914448
_cell_length_c   14.70222200
_cell_angle_alpha   110.21633607
_cell_angle_beta   90.63314198
_cell_angle_gamma   100.11943165
_symmetry_Int_Tables_number   1
_chemical_formula_structural   Er2(TeO3)3
_chemical_formula_sum   'Er12 Te18 O54'
_cell_volume   1263.63165332
_cell_formula_units_Z   6
loop_
 _symmetry_equiv_pos_site_id
 _symmetry_equiv_pos_as_xyz
  1  'x, y, z'
loop_
 _atom_site_type_symbol
 _atom_site_label
 _atom_site_symmetry_multiplicity
 _atom_site_fract_x
 _atom_site_fract_y
 _atom_site_fract_z
 _atom_site_occupancy
  Er  Er0  1  0.754184  0.539912  0.465696  1
  Er  Er1  1  0.245816  0.460088  0.534304  1
  Er  Er2  1  0.249468  0.940578  0.527257  1
  Er  Er3  1  0.750532  0.059422  0.472743  1
  Er  Er4  1  0.164190  0.728861  0.662095  1
  Er  Er5  1  0.835810  0.271139  0.337905  1
  Er  Er6  1  0.818689  0.775714  0.330910  1
  Er  Er7  1  0.181311  0.224286  0.669090  1
  Er  Er8  1  0.923504  0.663171  0.073744  1
  Er  Er9  1  0.076496  0.336829  0.926256  1
  Er  Er10  1  0.513222  0.761472  0.969480  1
  Er  Er11  1  0.486778  0.238528  0.030520  1
  Te  Te12  1  0.770587  0.826974  0.571200  1
  Te  Te13  1  0.229413  0.173026  0.428800  1
  Te  Te14  1  0.646947  0.152463  0.706828  1
  Te  Te15  1  0.353053  0.847537  0.293172  1
  Te  Te16  1  0.933106  0.970486  0.228868  1
  Te  Te17  1  0.066894  0.029514  0.771132  1
  Te  Te18  1  0.638927  0.644861  0.726304  1
  Te  Te19  1  0.361073  0.355139  0.273696  1
  Te  Te20  1  0.730288  0.352781  0.580309  1
  Te  Te21  1  0.269712  0.647219  0.419691  1
  Te  Te22  1  0.042957  0.811662  0.931755  1
  Te  Te23  1  0.957043  0.188338  0.068245  1
  Te  Te24  1  0.511687  0.964575  0.858207  1
  Te  Te25  1  0.488313  0.035425  0.141793  1
  Te  Te26  1  0.135989  0.525760  0.808161  1
  Te  Te27  1  0.864011  0.474240  0.191839  1
  Te  Te28  1  0.622343  0.419823  0.882002  1
  Te  Te29  1  0.377657  0.580177  0.117998  1
  O  O30  1  0.850477  0.912350  0.490517  1
  O  O31  1  0.149523  0.087650  0.509483  1
  O  O32  1  0.042486  0.850174  0.615862  1
  O  O33  1  0.957514  0.149826  0.384138  1
  O  O34  1  0.795069  0.704291  0.451098  1
  O  O35  1  0.204931  0.295709  0.548902  1
  O  O36  1  0.545256  0.037163  0.587420  1
  O  O37  1  0.454744  0.962837  0.412580  1
  O  O38  1  0.505901  0.257024  0.684727  1
  O  O39  1  0.494099  0.742976  0.315273  1
  O  O40  1  0.857910  0.186783  0.632428  1
  O  O41  1  0.142090  0.813217  0.367572  1
  O  O42  1  0.775005  0.938965  0.323093  1
  O  O43  1  0.224995  0.061035  0.676907  1
  O  O44  1  0.811147  0.995350  0.706029  1
  O  O45  1  0.188853  0.004650  0.293971  1
  O  O46  1  0.938327  0.818247  0.186782  1
  O  O47  1  0.061673  0.181753  0.813218  1
  O  O48  1  0.656254  0.787591  0.821193  1
  O  O49  1  0.343746  0.212409  0.178807  1
  O  O50  1  0.415140  0.640325  0.649398  1
  O  O51  1  0.584860  0.359675  0.350602  1
  O  O52  1  0.813434  0.670496  0.629722  1
  O  O53  1  0.186566  0.329504  0.370278  1
  O  O54  1  0.363031  0.779322  0.523584  1
  O  O55  1  0.636969  0.220678  0.476416  1
  O  O56  1  0.564025  0.447613  0.563230  1
  O  O57  1  0.435975  0.552387  0.436770  1
  O  O58  1  0.100383  0.598578  0.508768  1
  O  O59  1  0.899617  0.401422  0.491232  1
  O  O60  1  0.062692  0.717890  0.803935  1
  O  O61  1  0.937308  0.282110  0.196065  1
  O  O62  1  0.816383  0.254707  0.999073  1
  O  O63  1  0.183617  0.745293  0.000927  1
  O  O64  1  0.815963  0.721230  0.958414  1
  O  O65  1  0.184037  0.278770  0.041586  1
  O  O66  1  0.347207  0.889239  0.744620  1
  O  O67  1  0.652793  0.110761  0.255380  1
  O  O68  1  0.615330  0.912394  0.103448  1
  O  O69  1  0.384670  0.087606  0.896552  1
  O  O70  1  0.374171  0.892324  0.938489  1
  O  O71  1  0.625829  0.107676  0.061511  1
  O  O72  1  0.097398  0.503929  0.674820  1
  O  O73  1  0.902602  0.496071  0.325180  1
  O  O74  1  0.394833  0.606402  0.840276  1
  O  O75  1  0.605167  0.393598  0.159724  1
  O  O76  1  0.799603  0.613563  0.208397  1
  O  O77  1  0.200397  0.386437  0.791603  1
  O  O78  1  0.556448  0.671409  0.071679  1
  O  O79  1  0.443552  0.328591  0.928321  1
  O  O80  1  0.807786  0.330725  0.831535  1
  O  O81  1  0.192214  0.669275  0.168465  1
  O  O82  1  0.787558  0.490600  0.998889  1
  O  O83  1  0.212442  0.509400  0.001111  1
