# generated using pymatgen
data_La7Dy13Si15Ag
_symmetry_space_group_name_H-M   'P 1'
_cell_length_a   7.91254021
_cell_length_b   7.93384737
_cell_length_c   14.62624700
_cell_angle_alpha   89.67974531
_cell_angle_beta   89.77279428
_cell_angle_gamma   90.13799214
_symmetry_Int_Tables_number   1
_chemical_formula_structural   La7Dy13Si15Ag
_chemical_formula_sum   'La7 Dy13 Si15 Ag1'
_cell_volume   918.16597132
_cell_formula_units_Z   1
loop_
 _symmetry_equiv_pos_site_id
 _symmetry_equiv_pos_as_xyz
  1  'x, y, z'
loop_
 _atom_site_type_symbol
 _atom_site_label
 _atom_site_symmetry_multiplicity
 _atom_site_fract_x
 _atom_site_fract_y
 _atom_site_fract_z
 _atom_site_occupancy
  La  La0  1  0.360642  0.006372  0.958243  1
  La  La1  1  0.985102  0.636452  0.538776  1
  La  La2  1  0.491880  0.856293  0.209728  1
  La  La3  1  0.514532  0.150302  0.711345  1
  La  La4  1  0.860455  0.495818  0.793704  1
  La  La5  1  0.139612  0.503925  0.292602  1
  La  La6  1  0.007969  0.358371  0.043394  1
  Dy  Dy7  1  0.490806  0.357844  0.124946  1
  Dy  Dy8  1  0.982394  0.147160  0.629665  1
  Dy  Dy9  1  0.859594  0.007751  0.874904  1
  Dy  Dy10  1  0.136737  0.986865  0.373864  1
  Dy  Dy11  1  0.512034  0.635814  0.622341  1
  Dy  Dy12  1  0.361621  0.492737  0.876593  1
  Dy  Dy13  1  0.642427  0.505113  0.373919  1
  Dy  Dy14  1  0.006517  0.861368  0.125832  1
  Dy  Dy15  1  0.645264  0.997734  0.454745  1
  Dy  Dy16  1  0.313550  0.319114  0.500079  1
  Dy  Dy17  1  0.186819  0.824710  0.750004  1
  Dy  Dy18  1  0.816351  0.179957  0.251496  1
  Dy  Dy19  1  0.681650  0.682484  0.000418  1
  Si  Si20  1  0.710858  0.063378  0.061995  1
  Si  Si21  1  0.934402  0.285143  0.437752  1
  Si  Si22  1  0.438269  0.207652  0.313259  1
  Si  Si23  1  0.564154  0.789510  0.810678  1
  Si  Si24  1  0.211266  0.438778  0.689318  1
  Si  Si25  1  0.787247  0.565100  0.187471  1
  Si  Si26  1  0.065325  0.710615  0.938284  1
  Si  Si27  1  0.795700  0.847953  0.690693  1
  Si  Si28  1  0.204025  0.149839  0.191332  1
  Si  Si29  1  0.843638  0.799586  0.311374  1
  Si  Si30  1  0.356706  0.701322  0.434712  1
  Si  Si31  1  0.653250  0.296090  0.942138  1
  Si  Si32  1  0.698838  0.341980  0.555097  1
  Si  Si33  1  0.295781  0.652260  0.058616  1
  Si  Si34  1  0.152161  0.207794  0.810126  1
  Ag  Ag35  1  0.292422  0.936819  0.560553  1
