# generated using pymatgen
data_EuAg(Se2O7)2
_symmetry_space_group_name_H-M   'P 1'
_cell_length_a   6.75234010
_cell_length_b   6.29128709
_cell_length_c   10.99631800
_cell_angle_alpha   119.48183672
_cell_angle_beta   72.31707944
_cell_angle_gamma   106.17824399
_symmetry_Int_Tables_number   1
_chemical_formula_structural   EuAg(Se2O7)2
_chemical_formula_sum   'Eu1 Ag1 Se4 O14'
_cell_volume   382.70699668
_cell_formula_units_Z   1
loop_
 _symmetry_equiv_pos_site_id
 _symmetry_equiv_pos_as_xyz
  1  'x, y, z'
loop_
 _atom_site_type_symbol
 _atom_site_label
 _atom_site_symmetry_multiplicity
 _atom_site_fract_x
 _atom_site_fract_y
 _atom_site_fract_z
 _atom_site_occupancy
  Eu  Eu0  1  0.500000  0.500000  0.500000  1
  Ag  Ag1  1  0.500000  0.000000  0.000000  1
  Se  Se2  1  0.933420  0.681759  0.723262  1
  Se  Se3  1  0.066580  0.318241  0.276738  1
  Se  Se4  1  0.579008  0.224902  0.726712  1
  Se  Se5  1  0.420992  0.775098  0.273288  1
  O  O6  1  0.838321  0.654370  0.594352  1
  O  O7  1  0.161679  0.345630  0.405648  1
  O  O8  1  0.459513  0.400764  0.706778  1
  O  O9  1  0.540487  0.599236  0.293222  1
  O  O10  1  0.191032  0.702201  0.691995  1
  O  O11  1  0.808968  0.297799  0.308005  1
  O  O12  1  0.840950  0.896376  0.880487  1
  O  O13  1  0.159050  0.103624  0.119513  1
  O  O14  1  0.488606  0.216631  0.881208  1
  O  O15  1  0.511394  0.783369  0.118792  1
  O  O16  1  0.850146  0.384295  0.732458  1
  O  O17  1  0.149854  0.615705  0.267542  1
  O  O18  1  0.607161  0.955559  0.587564  1
  O  O19  1  0.392839  0.044441  0.412436  1
