# generated using pymatgen
data_Ho4Al24Pd7PtRh
_symmetry_space_group_name_H-M   'P 1'
_cell_length_a   7.52134595
_cell_length_b   7.54952664
_cell_length_c   13.17637550
_cell_angle_alpha   84.58971658
_cell_angle_beta   79.12469908
_cell_angle_gamma   59.93274753
_symmetry_Int_Tables_number   1
_chemical_formula_structural   Ho4Al24Pd7PtRh
_chemical_formula_sum   'Ho4 Al24 Pd7 Pt1 Rh1'
_cell_volume   635.88179328
_cell_formula_units_Z   1
loop_
 _symmetry_equiv_pos_site_id
 _symmetry_equiv_pos_as_xyz
  1  'x, y, z'
loop_
 _atom_site_type_symbol
 _atom_site_label
 _atom_site_symmetry_multiplicity
 _atom_site_fract_x
 _atom_site_fract_y
 _atom_site_fract_z
 _atom_site_occupancy
  Ho  Ho0  1  0.393590  0.168451  0.809122  1
  Ho  Ho1  1  0.606466  0.831480  0.190794  1
  Ho  Ho2  1  0.733625  0.497787  0.809088  1
  Ho  Ho3  1  0.266388  0.502131  0.190915  1
  Al  Al4  1  0.687502  0.830493  0.945408  1
  Al  Al5  1  0.312525  0.169483  0.054562  1
  Al  Al6  1  0.146169  0.832632  0.561495  1
  Al  Al7  1  0.853818  0.167284  0.438562  1
  Al  Al8  1  0.479044  0.166822  0.559305  1
  Al  Al9  1  0.520865  0.833263  0.440730  1
  Al  Al10  1  0.217267  0.165187  0.328690  1
  Al  Al11  1  0.782489  0.835039  0.671287  1
  Al  Al12  1  0.436345  0.507212  0.671220  1
  Al  Al13  1  0.563894  0.492741  0.328757  1
  Al  Al14  1  0.108828  0.159871  0.669818  1
  Al  Al15  1  0.891199  0.840054  0.330164  1
  Al  Al16  1  0.349287  0.499742  0.945640  1
  Al  Al17  1  0.650709  0.500259  0.054312  1
  Al  Al18  1  0.015301  0.171450  0.954659  1
  Al  Al19  1  0.984696  0.828540  0.045349  1
  Al  Al20  1  0.186953  0.499514  0.440711  1
  Al  Al21  1  0.813137  0.500489  0.559266  1
  Al  Al22  1  0.733480  0.163569  0.183315  1
  Al  Al23  1  0.266537  0.836481  0.816698  1
  Al  Al24  1  0.061127  0.629356  0.817569  1
  Al  Al25  1  0.938772  0.370818  0.182609  1
  Al  Al26  1  0.855153  0.042276  0.816378  1
  Al  Al27  1  0.144801  0.957847  0.183639  1
  Pd  Pd28  1  0.880305  0.507355  0.361404  1
  Pd  Pd29  1  0.656626  0.171586  0.999719  1
  Pd  Pd30  1  0.343353  0.828361  0.000280  1
  Pd  Pd31  1  0.537761  0.166756  0.362000  1
  Pd  Pd32  1  0.462230  0.833241  0.638036  1
  Pd  Pd33  1  0.778056  0.174942  0.637437  1
  Pd  Pd34  1  0.221927  0.825047  0.362626  1
  Pt  Pt35  1  0.119715  0.492480  0.638551  1
  Rh  Rh36  1  0.000058  0.499962  0.999886  1
