# generated using pymatgen
data_Ba4MnIrO8
_symmetry_space_group_name_H-M   'P 1'
_cell_length_a   7.23823438
_cell_length_b   7.23823311
_cell_length_c   5.84667200
_cell_angle_alpha   90.00000000
_cell_angle_beta   90.00000000
_cell_angle_gamma   132.38312390
_symmetry_Int_Tables_number   1
_chemical_formula_structural   Ba4MnIrO8
_chemical_formula_sum   'Ba4 Mn1 Ir1 O8'
_cell_volume   226.26373127
_cell_formula_units_Z   1
loop_
 _symmetry_equiv_pos_site_id
 _symmetry_equiv_pos_as_xyz
  1  'x, y, z'
loop_
 _atom_site_type_symbol
 _atom_site_label
 _atom_site_symmetry_multiplicity
 _atom_site_fract_x
 _atom_site_fract_y
 _atom_site_fract_z
 _atom_site_occupancy
  Ba  Ba0  1  0.641859  0.358141  0.000000  1
  Ba  Ba1  1  0.143697  0.856303  0.500000  1
  Ba  Ba2  1  0.856303  0.143697  0.500000  1
  Ba  Ba3  1  0.358141  0.641859  0.000000  1
  Mn  Mn4  1  0.500000  0.500000  0.500000  1
  Ir  Ir5  1  0.000000  0.000000  0.000000  1
  O  O6  1  0.757759  0.757759  0.757246  1
  O  O7  1  0.242241  0.242241  0.242754  1
  O  O8  1  0.242241  0.242241  0.757246  1
  O  O9  1  0.757759  0.757759  0.242754  1
  O  O10  1  0.847184  0.152816  0.000000  1
  O  O11  1  0.351180  0.648820  0.500000  1
  O  O12  1  0.648820  0.351180  0.500000  1
  O  O13  1  0.152816  0.847184  0.000000  1
