# generated using pymatgen
data_Tb2MgCo8TcP6
_symmetry_space_group_name_H-M   'P 1'
_cell_length_a   3.70928300
_cell_length_b   10.43722400
_cell_length_c   11.89541700
_cell_angle_alpha   90.00000000
_cell_angle_beta   90.00000000
_cell_angle_gamma   90.00000000
_symmetry_Int_Tables_number   1
_chemical_formula_structural   Tb2MgCo8TcP6
_chemical_formula_sum   'Tb4 Mg2 Co16 Tc2 P12'
_cell_volume   460.52651976
_cell_formula_units_Z   2
loop_
 _symmetry_equiv_pos_site_id
 _symmetry_equiv_pos_as_xyz
  1  'x, y, z'
loop_
 _atom_site_type_symbol
 _atom_site_label
 _atom_site_symmetry_multiplicity
 _atom_site_fract_x
 _atom_site_fract_y
 _atom_site_fract_z
 _atom_site_occupancy
  Tb  Tb0  1  0.250000  0.583785  0.704849  1
  Tb  Tb1  1  0.250000  0.916215  0.204849  1
  Tb  Tb2  1  0.750000  0.418623  0.296930  1
  Tb  Tb3  1  0.750000  0.081377  0.796930  1
  Mg  Mg4  1  0.750000  0.296496  0.010348  1
  Mg  Mg5  1  0.750000  0.203504  0.510348  1
  Co  Co6  1  0.250000  0.411837  0.487719  1
  Co  Co7  1  0.250000  0.088163  0.987719  1
  Co  Co8  1  0.750000  0.596789  0.510057  1
  Co  Co9  1  0.750000  0.903211  0.010057  1
  Co  Co10  1  0.250000  0.219448  0.173172  1
  Co  Co11  1  0.250000  0.280552  0.673172  1
  Co  Co12  1  0.750000  0.776740  0.823294  1
  Co  Co13  1  0.750000  0.723260  0.323294  1
  Co  Co14  1  0.250000  0.883081  0.702223  1
  Co  Co15  1  0.250000  0.616919  0.202223  1
  Co  Co16  1  0.750000  0.113383  0.299576  1
  Co  Co17  1  0.750000  0.386617  0.799576  1
  Co  Co18  1  0.250000  0.465612  0.934530  1
  Co  Co19  1  0.250000  0.034388  0.434530  1
  Co  Co20  1  0.750000  0.537482  0.069894  1
  Co  Co21  1  0.750000  0.962518  0.569894  1
  Tc  Tc22  1  0.250000  0.708631  0.990023  1
  Tc  Tc23  1  0.250000  0.791369  0.490023  1
  P  P24  1  0.250000  0.423561  0.118018  1
  P  P25  1  0.250000  0.076439  0.618018  1
  P  P26  1  0.750000  0.579037  0.888182  1
  P  P27  1  0.750000  0.920963  0.388182  1
  P  P28  1  0.250000  0.273470  0.857223  1
  P  P29  1  0.250000  0.226530  0.357223  1
  P  P30  1  0.750000  0.731440  0.133599  1
  P  P31  1  0.750000  0.768560  0.633599  1
  P  P32  1  0.250000  0.599451  0.391918  1
  P  P33  1  0.250000  0.900549  0.891918  1
  P  P34  1  0.750000  0.408023  0.608443  1
  P  P35  1  0.750000  0.091977  0.108443  1
