# generated using pymatgen
data_Tb16CdIn3(RuRh)2
_symmetry_space_group_name_H-M   'P 1'
_cell_length_a   9.67932225
_cell_length_b   9.70002704
_cell_length_c   9.70002724
_cell_angle_alpha   60.11779425
_cell_angle_beta   60.02286878
_cell_angle_gamma   60.02286811
_symmetry_Int_Tables_number   1
_chemical_formula_structural   Tb16CdIn3(RuRh)2
_chemical_formula_sum   'Tb16 Cd1 In3 Ru2 Rh2'
_cell_volume   644.77958600
_cell_formula_units_Z   1
loop_
 _symmetry_equiv_pos_site_id
 _symmetry_equiv_pos_as_xyz
  1  'x, y, z'
loop_
 _atom_site_type_symbol
 _atom_site_label
 _atom_site_symmetry_multiplicity
 _atom_site_fract_x
 _atom_site_fract_y
 _atom_site_fract_z
 _atom_site_occupancy
  Tb  Tb0  1  0.295046  0.900679  0.900679  1
  Tb  Tb1  1  0.690444  0.312238  0.686304  1
  Tb  Tb2  1  0.310299  0.689044  0.309778  1
  Tb  Tb3  1  0.062583  0.440711  0.440711  1
  Tb  Tb4  1  0.689489  0.311240  0.311240  1
  Tb  Tb5  1  0.439216  0.061513  0.443056  1
  Tb  Tb6  1  0.442228  0.058280  0.058280  1
  Tb  Tb7  1  0.902011  0.900616  0.900616  1
  Tb  Tb8  1  0.058714  0.443932  0.058190  1
  Tb  Tb9  1  0.900742  0.296309  0.899251  1
  Tb  Tb10  1  0.311419  0.689841  0.689841  1
  Tb  Tb11  1  0.900742  0.899251  0.296309  1
  Tb  Tb12  1  0.439216  0.443056  0.061513  1
  Tb  Tb13  1  0.310299  0.309778  0.689044  1
  Tb  Tb14  1  0.690444  0.686304  0.312238  1
  Tb  Tb15  1  0.058714  0.058190  0.443932  1
  Cd  Cd16  1  0.669301  0.668488  0.668488  1
  In  In17  1  0.996634  0.667993  0.667993  1
  In  In18  1  0.668651  0.996092  0.668068  1
  In  In19  1  0.668651  0.668068  0.996092  1
  Ru  Ru20  1  0.108169  0.108727  0.671128  1
  Ru  Ru21  1  0.108169  0.671128  0.108727  1
  Rh  Rh22  1  0.106968  0.109480  0.109480  1
  Rh  Rh23  1  0.671851  0.109045  0.109045  1
