# generated using pymatgen
data_CsTb2HoSe5
_symmetry_space_group_name_H-M   'P 1'
_cell_length_a   4.17319000
_cell_length_b   12.53340100
_cell_length_c   22.35824700
_cell_angle_alpha   90.00000000
_cell_angle_beta   90.00000000
_cell_angle_gamma   90.00000000
_symmetry_Int_Tables_number   1
_chemical_formula_structural   CsTb2HoSe5
_chemical_formula_sum   'Cs4 Tb8 Ho4 Se20'
_cell_volume   1169.43164739
_cell_formula_units_Z   4
loop_
 _symmetry_equiv_pos_site_id
 _symmetry_equiv_pos_as_xyz
  1  'x, y, z'
loop_
 _atom_site_type_symbol
 _atom_site_label
 _atom_site_symmetry_multiplicity
 _atom_site_fract_x
 _atom_site_fract_y
 _atom_site_fract_z
 _atom_site_occupancy
  Cs  Cs0  1  0.250000  0.853349  0.092334  1
  Cs  Cs1  1  0.750000  0.146651  0.907666  1
  Cs  Cs2  1  0.750000  0.353349  0.407666  1
  Cs  Cs3  1  0.250000  0.646651  0.592334  1
  Tb  Tb4  1  0.750000  0.797162  0.825567  1
  Tb  Tb5  1  0.250000  0.202838  0.174433  1
  Tb  Tb6  1  0.250000  0.297162  0.674433  1
  Tb  Tb7  1  0.750000  0.702838  0.325567  1
  Tb  Tb8  1  0.250000  0.957375  0.697743  1
  Tb  Tb9  1  0.750000  0.042625  0.302257  1
  Tb  Tb10  1  0.750000  0.457375  0.802257  1
  Tb  Tb11  1  0.250000  0.542625  0.197743  1
  Ho  Ho12  1  0.750000  0.391855  0.053835  1
  Ho  Ho13  1  0.250000  0.608145  0.946165  1
  Ho  Ho14  1  0.250000  0.891855  0.446165  1
  Ho  Ho15  1  0.750000  0.108145  0.553835  1
  Se  Se16  1  0.250000  0.949007  0.568423  1
  Se  Se17  1  0.750000  0.050993  0.431577  1
  Se  Se18  1  0.750000  0.449007  0.931577  1
  Se  Se19  1  0.250000  0.550993  0.068423  1
  Se  Se20  1  0.750000  0.763266  0.952648  1
  Se  Se21  1  0.250000  0.236734  0.047352  1
  Se  Se22  1  0.250000  0.263266  0.547352  1
  Se  Se23  1  0.750000  0.736734  0.452648  1
  Se  Se24  1  0.250000  0.949862  0.825578  1
  Se  Se25  1  0.750000  0.050138  0.174422  1
  Se  Se26  1  0.750000  0.449862  0.674422  1
  Se  Se27  1  0.250000  0.550138  0.325578  1
  Se  Se28  1  0.750000  0.126323  0.684124  1
  Se  Se29  1  0.250000  0.873677  0.315876  1
  Se  Se30  1  0.250000  0.626323  0.815876  1
  Se  Se31  1  0.750000  0.373677  0.184124  1
  Se  Se32  1  0.750000  0.693804  0.197583  1
  Se  Se33  1  0.250000  0.306196  0.802417  1
  Se  Se34  1  0.250000  0.193804  0.302417  1
  Se  Se35  1  0.750000  0.806196  0.697583  1
