# generated using pymatgen
data_Pr5Ag2Ru
_symmetry_space_group_name_H-M   'P 1'
_cell_length_a   8.63443400
_cell_length_b   8.68530000
_cell_length_c   12.27565600
_cell_angle_alpha   90.00000000
_cell_angle_beta   90.00000000
_cell_angle_gamma   90.00000000
_symmetry_Int_Tables_number   1
_chemical_formula_structural   Pr5Ag2Ru
_chemical_formula_sum   'Pr20 Ag8 Ru4'
_cell_volume   920.58396927
_cell_formula_units_Z   4
loop_
 _symmetry_equiv_pos_site_id
 _symmetry_equiv_pos_as_xyz
  1  'x, y, z'
loop_
 _atom_site_type_symbol
 _atom_site_label
 _atom_site_symmetry_multiplicity
 _atom_site_fract_x
 _atom_site_fract_y
 _atom_site_fract_z
 _atom_site_occupancy
  Pr  Pr0  1  0.851886  0.750000  0.783225  1
  Pr  Pr1  1  0.148114  0.250000  0.216775  1
  Pr  Pr2  1  0.351886  0.250000  0.716775  1
  Pr  Pr3  1  0.648114  0.750000  0.283225  1
  Pr  Pr4  1  0.398315  0.750000  0.704763  1
  Pr  Pr5  1  0.601685  0.250000  0.295237  1
  Pr  Pr6  1  0.898315  0.250000  0.795237  1
  Pr  Pr7  1  0.101685  0.750000  0.204763  1
  Pr  Pr8  1  0.940538  0.750000  0.488771  1
  Pr  Pr9  1  0.059462  0.250000  0.511229  1
  Pr  Pr10  1  0.440538  0.250000  0.011229  1
  Pr  Pr11  1  0.559462  0.750000  0.988771  1
  Pr  Pr12  1  0.678585  0.042799  0.570847  1
  Pr  Pr13  1  0.321415  0.957201  0.429153  1
  Pr  Pr14  1  0.178585  0.957201  0.929153  1
  Pr  Pr15  1  0.321415  0.542799  0.429153  1
  Pr  Pr16  1  0.821415  0.042799  0.070847  1
  Pr  Pr17  1  0.678585  0.457201  0.570847  1
  Pr  Pr18  1  0.821415  0.457201  0.070847  1
  Pr  Pr19  1  0.178585  0.542799  0.929153  1
  Ag  Ag20  1  0.591482  0.467159  0.833931  1
  Ag  Ag21  1  0.408518  0.532841  0.166069  1
  Ag  Ag22  1  0.091482  0.532841  0.666069  1
  Ag  Ag23  1  0.408518  0.967159  0.166069  1
  Ag  Ag24  1  0.908518  0.467159  0.333931  1
  Ag  Ag25  1  0.591482  0.032841  0.833931  1
  Ag  Ag26  1  0.908518  0.032841  0.333931  1
  Ag  Ag27  1  0.091482  0.967159  0.666069  1
  Ru  Ru28  1  0.569541  0.750000  0.510217  1
  Ru  Ru29  1  0.430459  0.250000  0.489783  1
  Ru  Ru30  1  0.069541  0.250000  0.989783  1
  Ru  Ru31  1  0.930459  0.750000  0.010217  1
