# generated using pymatgen
data_Tm7LuSc12Si15Se
_symmetry_space_group_name_H-M   'P 1'
_cell_length_a   7.10698858
_cell_length_b   7.29842557
_cell_length_c   13.87594542
_cell_angle_alpha   89.86113321
_cell_angle_beta   88.09759712
_cell_angle_gamma   90.05731876
_symmetry_Int_Tables_number   1
_chemical_formula_structural   Tm7LuSc12Si15Se
_chemical_formula_sum   'Tm7 Lu1 Sc12 Si15 Se1'
_cell_volume   719.34365329
_cell_formula_units_Z   1
loop_
 _symmetry_equiv_pos_site_id
 _symmetry_equiv_pos_as_xyz
  1  'x, y, z'
loop_
 _atom_site_type_symbol
 _atom_site_label
 _atom_site_symmetry_multiplicity
 _atom_site_fract_x
 _atom_site_fract_y
 _atom_site_fract_z
 _atom_site_occupancy
  Tm  Tm0  1  0.990364  0.824769  0.903023  1
  Tm  Tm1  1  0.490356  0.677007  0.903285  1
  Tm  Tm2  1  0.999800  0.825547  0.596448  1
  Tm  Tm3  1  0.509734  0.323779  0.097049  1
  Tm  Tm4  1  0.994336  0.174093  0.401786  1
  Tm  Tm5  1  0.499753  0.316143  0.400669  1
  Tm  Tm6  1  0.510362  0.683239  0.598827  1
  Lu  Lu7  1  0.010259  0.177050  0.097490  1
  Sc  Sc8  1  0.170077  0.501606  0.752519  1
  Sc  Sc9  1  0.829716  0.497958  0.252947  1
  Sc  Sc10  1  0.328023  0.001271  0.251622  1
  Sc  Sc11  1  0.671688  0.998716  0.748783  1
  Sc  Sc12  1  0.352106  0.165888  0.626230  1
  Sc  Sc13  1  0.649537  0.829668  0.374571  1
  Sc  Sc14  1  0.148211  0.669624  0.377149  1
  Sc  Sc15  1  0.664695  0.823148  0.125209  1
  Sc  Sc16  1  0.846725  0.331973  0.621561  1
  Sc  Sc17  1  0.334534  0.176501  0.874132  1
  Sc  Sc18  1  0.835753  0.323334  0.874204  1
  Sc  Sc19  1  0.164548  0.676844  0.125319  1
  Si  Si20  1  0.043109  0.117123  0.748489  1
  Si  Si21  1  0.956254  0.884302  0.249478  1
  Si  Si22  1  0.454657  0.614312  0.249881  1
  Si  Si23  1  0.543848  0.386090  0.749313  1
  Si  Si24  1  0.293921  0.868342  0.750536  1
  Si  Si25  1  0.706919  0.129024  0.247732  1
  Si  Si26  1  0.205145  0.369904  0.249321  1
  Si  Si27  1  0.797261  0.630592  0.750427  1
  Si  Si28  1  0.799354  0.539208  0.457345  1
  Si  Si29  1  0.313875  0.960490  0.460212  1
  Si  Si30  1  0.841381  0.533857  0.039442  1
  Si  Si31  1  0.683683  0.039909  0.540525  1
  Si  Si32  1  0.157969  0.465795  0.960739  1
  Si  Si33  1  0.658033  0.034950  0.959926  1
  Si  Si34  1  0.340224  0.966734  0.040013  1
  Se  Se35  1  0.203788  0.461207  0.543793  1
