# generated using pymatgen
data_Li4CeNd2Si3Ge
_symmetry_space_group_name_H-M   'P 1'
_cell_length_a   4.40633494
_cell_length_b   6.76107667
_cell_length_c   8.33074736
_cell_angle_alpha   113.94067304
_cell_angle_beta   105.33501109
_cell_angle_gamma   89.99999507
_symmetry_Int_Tables_number   1
_chemical_formula_structural   Li4CeNd2Si3Ge
_chemical_formula_sum   'Li4 Ce1 Nd2 Si3 Ge1'
_cell_volume   217.12997466
_cell_formula_units_Z   1
loop_
 _symmetry_equiv_pos_site_id
 _symmetry_equiv_pos_as_xyz
  1  'x, y, z'
loop_
 _atom_site_type_symbol
 _atom_site_label
 _atom_site_symmetry_multiplicity
 _atom_site_fract_x
 _atom_site_fract_y
 _atom_site_fract_z
 _atom_site_occupancy
  Li  Li0  1  0.669771  0.978406  0.339542  1
  Li  Li1  1  0.330284  0.018658  0.660566  1
  Li  Li2  1  0.330284  0.641909  0.660566  1
  Li  Li3  1  0.669771  0.361136  0.339542  1
  Ce  Ce4  1  0.868455  0.368455  0.736908  1
  Nd  Nd5  1  0.999697  0.999697  0.999396  1
  Nd  Nd6  1  0.131651  0.631651  0.263303  1
  Si  Si7  1  0.497846  0.674350  0.995693  1
  Si  Si8  1  0.497846  0.321343  0.995693  1
  Si  Si9  1  0.788071  0.788071  0.576143  1
  Ge  Ge10  1  0.216323  0.216323  0.432647  1
