# generated using pymatgen
data_Ce4ErFe3(P3Ru4)4
_symmetry_space_group_name_H-M   'P 1'
_cell_length_a   12.54785467
_cell_length_b   12.54785482
_cell_length_c   3.89603300
_cell_angle_alpha   90.00000000
_cell_angle_beta   90.00000000
_cell_angle_gamma   119.90110097
_symmetry_Int_Tables_number   1
_chemical_formula_structural   Ce4ErFe3(P3Ru4)4
_chemical_formula_sum   'Ce4 Er1 Fe3 P12 Ru16'
_cell_volume   531.77040986
_cell_formula_units_Z   1
loop_
 _symmetry_equiv_pos_site_id
 _symmetry_equiv_pos_as_xyz
  1  'x, y, z'
loop_
 _atom_site_type_symbol
 _atom_site_label
 _atom_site_symmetry_multiplicity
 _atom_site_fract_x
 _atom_site_fract_y
 _atom_site_fract_z
 _atom_site_occupancy
  Ce  Ce0  1  0.818575  0.000901  0.500000  1
  Ce  Ce1  1  0.000901  0.818575  0.500000  1
  Ce  Ce2  1  0.332602  0.666436  0.000000  1
  Ce  Ce3  1  0.666436  0.332602  0.000000  1
  Er  Er4  1  0.185527  0.185527  0.500000  1
  Fe  Fe5  1  0.716761  0.716761  0.500000  1
  Fe  Fe6  1  0.282160  0.000847  0.500000  1
  Fe  Fe7  1  0.000847  0.282160  0.500000  1
  P  P8  1  0.811436  0.811436  0.000000  1
  P  P9  1  0.188506  0.003180  0.000000  1
  P  P10  1  0.003180  0.188506  0.000000  1
  P  P11  1  0.161546  0.470447  0.500000  1
  P  P12  1  0.528671  0.690499  0.500000  1
  P  P13  1  0.308080  0.838497  0.500000  1
  P  P14  1  0.690499  0.528671  0.500000  1
  P  P15  1  0.838497  0.308080  0.500000  1
  P  P16  1  0.470447  0.161546  0.500000  1
  P  P17  1  0.373303  0.373303  0.000000  1
  P  P18  1  0.625529  0.999933  0.000000  1
  P  P19  1  0.999933  0.625529  0.000000  1
  Ru  Ru20  1  0.557874  0.557874  0.000000  1
  Ru  Ru21  1  0.441594  0.999814  0.000000  1
  Ru  Ru22  1  0.999814  0.441594  0.000000  1
  Ru  Ru23  1  0.182383  0.374973  0.000000  1
  Ru  Ru24  1  0.625454  0.807017  0.000000  1
  Ru  Ru25  1  0.192671  0.819695  0.000000  1
  Ru  Ru26  1  0.807017  0.625454  0.000000  1
  Ru  Ru27  1  0.819695  0.192671  0.000000  1
  Ru  Ru28  1  0.374973  0.182383  0.000000  1
  Ru  Ru29  1  0.363672  0.490622  0.500000  1
  Ru  Ru30  1  0.507799  0.872056  0.500000  1
  Ru  Ru31  1  0.126099  0.635769  0.500000  1
  Ru  Ru32  1  0.872056  0.507799  0.500000  1
  Ru  Ru33  1  0.635769  0.126099  0.500000  1
  Ru  Ru34  1  0.490622  0.363672  0.500000  1
  Ru  Ru35  1  0.999073  0.999073  0.000000  1
