# generated using pymatgen
data_Hf6Ta3Nb(Si3C)2
_symmetry_space_group_name_H-M   'P 1'
_cell_length_a   7.75692800
_cell_length_b   7.75692789
_cell_length_c   5.43894300
_cell_angle_alpha   90.00000000
_cell_angle_beta   90.00000000
_cell_angle_gamma   120.00000899
_symmetry_Int_Tables_number   1
_chemical_formula_structural   Hf6Ta3Nb(Si3C)2
_chemical_formula_sum   'Hf6 Ta3 Nb1 Si6 C2'
_cell_volume   283.41616316
_cell_formula_units_Z   1
loop_
 _symmetry_equiv_pos_site_id
 _symmetry_equiv_pos_as_xyz
  1  'x, y, z'
loop_
 _atom_site_type_symbol
 _atom_site_label
 _atom_site_symmetry_multiplicity
 _atom_site_fract_x
 _atom_site_fract_y
 _atom_site_fract_z
 _atom_site_occupancy
  Hf  Hf0  1  0.236501  0.000218  0.249827  1
  Hf  Hf1  1  0.763717  0.000218  0.750173  1
  Hf  Hf2  1  0.999782  0.236283  0.249827  1
  Hf  Hf3  1  0.999782  0.763499  0.750173  1
  Hf  Hf4  1  0.763717  0.763499  0.249827  1
  Hf  Hf5  1  0.236501  0.236283  0.750173  1
  Ta  Ta6  1  0.666667  0.333333  0.000000  1
  Ta  Ta7  1  0.666667  0.333333  0.500000  1
  Ta  Ta8  1  0.333333  0.666667  0.500000  1
  Nb  Nb9  1  0.333333  0.666667  0.000000  1
  Si  Si10  1  0.592653  0.000135  0.250262  1
  Si  Si11  1  0.407481  0.000135  0.749738  1
  Si  Si12  1  0.999865  0.592519  0.250262  1
  Si  Si13  1  0.999865  0.407347  0.749738  1
  Si  Si14  1  0.407481  0.407347  0.250262  1
  Si  Si15  1  0.592653  0.592519  0.749738  1
  C  C16  1  0.000000  0.000000  0.000000  1
  C  C17  1  0.000000  0.000000  0.500000  1
