# generated using pymatgen
data_Er3Al2Co7(NiB2)2
_symmetry_space_group_name_H-M   'P 1'
_cell_length_a   5.11102059
_cell_length_b   5.11102134
_cell_length_c   9.54513600
_cell_angle_alpha   90.00000000
_cell_angle_beta   90.00000000
_cell_angle_gamma   119.50549464
_symmetry_Int_Tables_number   1
_chemical_formula_structural   Er3Al2Co7(NiB2)2
_chemical_formula_sum   'Er3 Al2 Co7 Ni2 B4'
_cell_volume   217.00545688
_cell_formula_units_Z   1
loop_
 _symmetry_equiv_pos_site_id
 _symmetry_equiv_pos_as_xyz
  1  'x, y, z'
loop_
 _atom_site_type_symbol
 _atom_site_label
 _atom_site_symmetry_multiplicity
 _atom_site_fract_x
 _atom_site_fract_y
 _atom_site_fract_z
 _atom_site_occupancy
  Er  Er0  1  0.000000  0.000000  0.000000  1
  Er  Er1  1  0.000000  0.000000  0.659762  1
  Er  Er2  1  0.000000  0.000000  0.340238  1
  Al  Al3  1  0.669865  0.330135  0.000000  1
  Al  Al4  1  0.330135  0.669865  0.000000  1
  Co  Co5  1  0.500000  0.500000  0.500000  1
  Co  Co6  1  0.500000  0.000000  0.500000  1
  Co  Co7  1  0.000000  0.500000  0.500000  1
  Co  Co8  1  0.500000  0.000000  0.792388  1
  Co  Co9  1  0.000000  0.500000  0.792388  1
  Co  Co10  1  0.500000  0.000000  0.207612  1
  Co  Co11  1  0.000000  0.500000  0.207612  1
  Ni  Ni12  1  0.500000  0.500000  0.795054  1
  Ni  Ni13  1  0.500000  0.500000  0.204946  1
  B  B14  1  0.670011  0.329989  0.650044  1
  B  B15  1  0.329989  0.670011  0.650044  1
  B  B16  1  0.329989  0.670011  0.349956  1
  B  B17  1  0.670011  0.329989  0.349956  1
