# generated using pymatgen
data_LiCa3As2F
_symmetry_space_group_name_H-M   'P 1'
_cell_length_a   4.28563200
_cell_length_b   11.48108600
_cell_length_c   12.07241700
_cell_angle_alpha   90.00000000
_cell_angle_beta   90.00000000
_cell_angle_gamma   90.00000000
_symmetry_Int_Tables_number   1
_chemical_formula_structural   LiCa3As2F
_chemical_formula_sum   'Li4 Ca12 As8 F4'
_cell_volume   594.00769971
_cell_formula_units_Z   4
loop_
 _symmetry_equiv_pos_site_id
 _symmetry_equiv_pos_as_xyz
  1  'x, y, z'
loop_
 _atom_site_type_symbol
 _atom_site_label
 _atom_site_symmetry_multiplicity
 _atom_site_fract_x
 _atom_site_fract_y
 _atom_site_fract_z
 _atom_site_occupancy
  Li  Li0  1  0.250000  0.131145  0.861093  1
  Li  Li1  1  0.250000  0.631145  0.638907  1
  Li  Li2  1  0.750000  0.868855  0.138907  1
  Li  Li3  1  0.750000  0.368855  0.361093  1
  Ca  Ca4  1  0.250000  0.060888  0.620512  1
  Ca  Ca5  1  0.250000  0.560888  0.879488  1
  Ca  Ca6  1  0.750000  0.939112  0.379488  1
  Ca  Ca7  1  0.750000  0.439112  0.120512  1
  Ca  Ca8  1  0.250000  0.364487  0.561148  1
  Ca  Ca9  1  0.250000  0.864487  0.938852  1
  Ca  Ca10  1  0.750000  0.635513  0.438852  1
  Ca  Ca11  1  0.750000  0.135513  0.061148  1
  Ca  Ca12  1  0.250000  0.207179  0.298570  1
  Ca  Ca13  1  0.250000  0.707179  0.201430  1
  Ca  Ca14  1  0.750000  0.792821  0.701430  1
  Ca  Ca15  1  0.750000  0.292821  0.798570  1
  As  As16  1  0.250000  0.482973  0.326675  1
  As  As17  1  0.250000  0.982973  0.173325  1
  As  As18  1  0.750000  0.517027  0.673325  1
  As  As19  1  0.750000  0.017027  0.826675  1
  As  As20  1  0.250000  0.318248  0.983579  1
  As  As21  1  0.250000  0.818248  0.516421  1
  As  As22  1  0.750000  0.681752  0.016421  1
  As  As23  1  0.750000  0.181752  0.483579  1
  F  F24  1  0.250000  0.239865  0.718464  1
  F  F25  1  0.250000  0.739865  0.781536  1
  F  F26  1  0.750000  0.760135  0.281536  1
  F  F27  1  0.750000  0.260135  0.218464  1
