# generated using pymatgen
data_Ho3TaSn2(B2Ru5)2
_symmetry_space_group_name_H-M   'P 1'
_cell_length_a   9.68287887
_cell_length_b   9.68287945
_cell_length_c   3.10310900
_cell_angle_alpha   90.00000000
_cell_angle_beta   90.00000000
_cell_angle_gamma   90.97232320
_symmetry_Int_Tables_number   1
_chemical_formula_structural   Ho3TaSn2(B2Ru5)2
_chemical_formula_sum   'Ho3 Ta1 Sn2 B4 Ru10'
_cell_volume   290.89986236
_cell_formula_units_Z   1
loop_
 _symmetry_equiv_pos_site_id
 _symmetry_equiv_pos_as_xyz
  1  'x, y, z'
loop_
 _atom_site_type_symbol
 _atom_site_label
 _atom_site_symmetry_multiplicity
 _atom_site_fract_x
 _atom_site_fract_y
 _atom_site_fract_z
 _atom_site_occupancy
  Ho  Ho0  1  0.824062  0.675030  0.000000  1
  Ho  Ho1  1  0.175030  0.324062  0.000000  1
  Ho  Ho2  1  0.325203  0.825203  0.000000  1
  Ta  Ta3  1  0.673864  0.173864  0.000000  1
  Sn  Sn4  1  0.498459  0.505994  0.000000  1
  Sn  Sn5  1  0.005994  0.998459  0.000000  1
  B  B6  1  0.623772  0.882986  0.000000  1
  B  B7  1  0.382986  0.123772  0.000000  1
  B  B8  1  0.118042  0.618042  0.000000  1
  B  B9  1  0.875241  0.375241  0.000000  1
  Ru  Ru10  1  0.571878  0.728030  0.500000  1
  Ru  Ru11  1  0.446291  0.277127  0.500000  1
  Ru  Ru12  1  0.069820  0.774795  0.500000  1
  Ru  Ru13  1  0.911221  0.214110  0.500000  1
  Ru  Ru14  1  0.274795  0.569820  0.500000  1
  Ru  Ru15  1  0.714110  0.411221  0.500000  1
  Ru  Ru16  1  0.228030  0.071878  0.500000  1
  Ru  Ru17  1  0.777127  0.946291  0.500000  1
  Ru  Ru18  1  0.509257  0.009257  0.500000  1
  Ru  Ru19  1  0.994814  0.494814  0.500000  1
