# generated using pymatgen
data_Ho8In2PdPt
_symmetry_space_group_name_H-M   'P 1'
_cell_length_a   9.68561404
_cell_length_b   9.68561742
_cell_length_c   9.68681500
_cell_angle_alpha   59.99590742
_cell_angle_beta   59.99600268
_cell_angle_gamma   59.89519382
_symmetry_Int_Tables_number   1
_chemical_formula_structural   Ho8In2PdPt
_chemical_formula_sum   'Ho16 In4 Pd2 Pt2'
_cell_volume   642.02034498
_cell_formula_units_Z   2
loop_
 _symmetry_equiv_pos_site_id
 _symmetry_equiv_pos_as_xyz
  1  'x, y, z'
loop_
 _atom_site_type_symbol
 _atom_site_label
 _atom_site_symmetry_multiplicity
 _atom_site_fract_x
 _atom_site_fract_y
 _atom_site_fract_z
 _atom_site_occupancy
  Ho  Ho0  1  0.601640  0.601641  0.599793  1
  Ho  Ho1  1  0.601640  0.601640  0.196927  1
  Ho  Ho2  1  0.603456  0.192357  0.602092  1
  Ho  Ho3  1  0.192356  0.603457  0.602091  1
  Ho  Ho4  1  0.059394  0.440851  0.439147  1
  Ho  Ho5  1  0.440848  0.059394  0.060609  1
  Ho  Ho6  1  0.440850  0.059394  0.439147  1
  Ho  Ho7  1  0.059394  0.440849  0.060609  1
  Ho  Ho8  1  0.439659  0.439659  0.060343  1
  Ho  Ho9  1  0.059827  0.059828  0.440171  1
  Ho  Ho10  1  0.186381  0.814342  0.812268  1
  Ho  Ho11  1  0.814344  0.186383  0.187008  1
  Ho  Ho12  1  0.814343  0.186382  0.812266  1
  Ho  Ho13  1  0.186382  0.814343  0.187009  1
  Ho  Ho14  1  0.814230  0.814230  0.185771  1
  Ho  Ho15  1  0.186914  0.186914  0.813086  1
  In  In16  1  0.833276  0.833277  0.834114  1
  In  In17  1  0.833280  0.833273  0.499330  1
  In  In18  1  0.832568  0.501094  0.833177  1
  In  In19  1  0.501096  0.832568  0.833167  1
  Pd  Pd20  1  0.393111  0.393112  0.395429  1
  Pd  Pd21  1  0.393110  0.393111  0.818347  1
  Pt  Pt22  1  0.391348  0.820552  0.394049  1
  Pt  Pt23  1  0.820551  0.391350  0.394049  1
