# generated using pymatgen
data_SrCa(SnPd2)4
_symmetry_space_group_name_H-M   'P 1'
_cell_length_a   7.21341363
_cell_length_b   7.21341280
_cell_length_c   7.21341352
_cell_angle_alpha   110.75038805
_cell_angle_beta   110.75039273
_cell_angle_gamma   106.94209476
_symmetry_Int_Tables_number   1
_chemical_formula_structural   SrCa(SnPd2)4
_chemical_formula_sum   'Sr1 Ca1 Sn4 Pd8'
_cell_volume   288.51539744
_cell_formula_units_Z   1
loop_
 _symmetry_equiv_pos_site_id
 _symmetry_equiv_pos_as_xyz
  1  'x, y, z'
loop_
 _atom_site_type_symbol
 _atom_site_label
 _atom_site_symmetry_multiplicity
 _atom_site_fract_x
 _atom_site_fract_y
 _atom_site_fract_z
 _atom_site_occupancy
  Sr  Sr0  1  0.000000  0.000000  0.000000  1
  Ca  Ca1  1  0.500000  0.500000  0.000000  1
  Sn  Sn2  1  0.598283  0.401717  0.500000  1
  Sn  Sn3  1  0.901717  0.098283  0.500000  1
  Sn  Sn4  1  0.098283  0.598283  0.196565  1
  Sn  Sn5  1  0.401717  0.901717  0.803435  1
  Pd  Pd6  1  0.938794  0.732001  0.494870  1
  Pd  Pd7  1  0.237131  0.443924  0.505130  1
  Pd  Pd8  1  0.443924  0.938794  0.206793  1
  Pd  Pd9  1  0.732001  0.237131  0.793207  1
  Pd  Pd10  1  0.556076  0.762869  0.494870  1
  Pd  Pd11  1  0.267999  0.061206  0.505130  1
  Pd  Pd12  1  0.061206  0.556076  0.793207  1
  Pd  Pd13  1  0.762869  0.267999  0.206793  1
