# generated using pymatgen
data_Na2AlCuAs2
_symmetry_space_group_name_H-M   'P 1'
_cell_length_a   9.21722418
_cell_length_b   9.21722325
_cell_length_c   5.76294600
_cell_angle_alpha   90.00000000
_cell_angle_beta   90.00000000
_cell_angle_gamma   101.35874234
_symmetry_Int_Tables_number   1
_chemical_formula_structural   Na2AlCuAs2
_chemical_formula_sum   'Na8 Al4 Cu4 As8'
_cell_volume   480.01408297
_cell_formula_units_Z   4
loop_
 _symmetry_equiv_pos_site_id
 _symmetry_equiv_pos_as_xyz
  1  'x, y, z'
loop_
 _atom_site_type_symbol
 _atom_site_label
 _atom_site_symmetry_multiplicity
 _atom_site_fract_x
 _atom_site_fract_y
 _atom_site_fract_z
 _atom_site_occupancy
  Na  Na0  1  0.571259  0.928741  0.250000  1
  Na  Na1  1  0.676049  0.323951  0.216984  1
  Na  Na2  1  0.323951  0.676049  0.783016  1
  Na  Na3  1  0.071259  0.428741  0.250000  1
  Na  Na4  1  0.928741  0.571259  0.750000  1
  Na  Na5  1  0.428741  0.071259  0.750000  1
  Na  Na6  1  0.823951  0.176049  0.716984  1
  Na  Na7  1  0.176049  0.823951  0.283016  1
  Al  Al8  1  0.868223  0.868223  0.000000  1
  Al  Al9  1  0.131777  0.131777  0.000000  1
  Al  Al10  1  0.368223  0.368223  0.500000  1
  Al  Al11  1  0.631777  0.631777  0.500000  1
  Cu  Cu12  1  0.882453  0.882453  0.500000  1
  Cu  Cu13  1  0.117547  0.117547  0.500000  1
  Cu  Cu14  1  0.617547  0.617547  0.000000  1
  Cu  Cu15  1  0.382453  0.382453  0.000000  1
  As  As16  1  0.107435  0.892565  0.775292  1
  As  As17  1  0.607435  0.392565  0.724708  1
  As  As18  1  0.892565  0.107435  0.224708  1
  As  As19  1  0.392565  0.607435  0.275292  1
  As  As20  1  0.358158  0.141842  0.250000  1
  As  As21  1  0.141842  0.358158  0.750000  1
  As  As22  1  0.641842  0.858158  0.750000  1
  As  As23  1  0.858158  0.641842  0.250000  1
