# generated using pymatgen
data_Li2Y3Si2AgPb
_symmetry_space_group_name_H-M   'P 1'
_cell_length_a   7.19676900
_cell_length_b   7.14841362
_cell_length_c   4.33425800
_cell_angle_alpha   90.00000000
_cell_angle_beta   90.00000000
_cell_angle_gamma   120.22401632
_symmetry_Int_Tables_number   1
_chemical_formula_structural   Li2Y3Si2AgPb
_chemical_formula_sum   'Li2 Y3 Si2 Ag1 Pb1'
_cell_volume   192.66722687
_cell_formula_units_Z   1
loop_
 _symmetry_equiv_pos_site_id
 _symmetry_equiv_pos_as_xyz
  1  'x, y, z'
loop_
 _atom_site_type_symbol
 _atom_site_label
 _atom_site_symmetry_multiplicity
 _atom_site_fract_x
 _atom_site_fract_y
 _atom_site_fract_z
 _atom_site_occupancy
  Li  Li0  1  0.754851  0.751557  0.500000  1
  Li  Li1  1  0.003294  0.248443  0.500000  1
  Y  Y2  1  0.001117  0.559230  0.000000  1
  Y  Y3  1  0.553719  0.000000  0.000000  1
  Y  Y4  1  0.441887  0.440770  0.000000  1
  Si  Si5  1  0.331037  0.662110  0.500000  1
  Si  Si6  1  0.668928  0.337890  0.500000  1
  Ag  Ag7  1  0.257927  0.000000  0.500000  1
  Pb  Pb8  1  0.987241  0.000000  0.000000  1
