# generated using pymatgen
data_CsRb5Lu4Br18
_symmetry_space_group_name_H-M   'P 1'
_cell_length_a   10.27472209
_cell_length_b   10.27472252
_cell_length_c   10.27904218
_cell_angle_alpha   83.09595343
_cell_angle_beta   83.09595694
_cell_angle_gamma   83.09353504
_symmetry_Int_Tables_number   1
_chemical_formula_structural   CsRb5Lu4Br18
_chemical_formula_sum   'Cs1 Rb5 Lu4 Br18'
_cell_volume   1063.29720125
_cell_formula_units_Z   1
loop_
 _symmetry_equiv_pos_site_id
 _symmetry_equiv_pos_as_xyz
  1  'x, y, z'
loop_
 _atom_site_type_symbol
 _atom_site_label
 _atom_site_symmetry_multiplicity
 _atom_site_fract_x
 _atom_site_fract_y
 _atom_site_fract_z
 _atom_site_occupancy
  Cs  Cs0  1  0.588408  0.911592  0.250000  1
  Rb  Rb1  1  0.250044  0.588157  0.911963  1
  Rb  Rb2  1  0.911843  0.249956  0.588037  1
  Rb  Rb3  1  0.749973  0.411958  0.088076  1
  Rb  Rb4  1  0.088042  0.750027  0.411924  1
  Rb  Rb5  1  0.411974  0.088026  0.750000  1
  Lu  Lu6  1  0.846714  0.846525  0.846445  1
  Lu  Lu7  1  0.346400  0.346561  0.346657  1
  Lu  Lu8  1  0.153439  0.153600  0.153343  1
  Lu  Lu9  1  0.653475  0.653286  0.653555  1
  Br  Br10  1  0.094215  0.405785  0.250000  1
  Br  Br11  1  0.249602  0.094483  0.405895  1
  Br  Br12  1  0.405517  0.250398  0.094105  1
  Br  Br13  1  0.750107  0.905717  0.594546  1
  Br  Br14  1  0.594283  0.749893  0.905454  1
  Br  Br15  1  0.905741  0.594259  0.750000  1
  Br  Br16  1  0.234999  0.415417  0.579558  1
  Br  Br17  1  0.579484  0.235834  0.415777  1
  Br  Br18  1  0.415259  0.579298  0.234956  1
  Br  Br19  1  0.079612  0.915416  0.734976  1
  Br  Br20  1  0.735435  0.079931  0.914511  1
  Br  Br21  1  0.916045  0.734714  0.079168  1
  Br  Br22  1  0.765286  0.583955  0.420832  1
  Br  Br23  1  0.420069  0.764565  0.585489  1
  Br  Br24  1  0.584584  0.420388  0.765024  1
  Br  Br25  1  0.920702  0.084741  0.265044  1
  Br  Br26  1  0.264166  0.920516  0.084223  1
  Br  Br27  1  0.084583  0.265001  0.920442  1
