# generated using pymatgen
data_TbFe4(ReTc3)2
_symmetry_space_group_name_H-M   'P 1'
_cell_length_a   4.78594856
_cell_length_b   6.72768674
_cell_length_c   6.72768778
_cell_angle_alpha   97.09565299
_cell_angle_beta   110.83576517
_cell_angle_gamma   69.16422899
_symmetry_Int_Tables_number   1
_chemical_formula_structural   TbFe4(ReTc3)2
_chemical_formula_sum   'Tb1 Fe4 Re2 Tc6'
_cell_volume   189.21352124
_cell_formula_units_Z   1
loop_
 _symmetry_equiv_pos_site_id
 _symmetry_equiv_pos_as_xyz
  1  'x, y, z'
loop_
 _atom_site_type_symbol
 _atom_site_label
 _atom_site_symmetry_multiplicity
 _atom_site_fract_x
 _atom_site_fract_y
 _atom_site_fract_z
 _atom_site_occupancy
  Tb  Tb0  1  0.000000  0.000000  0.000000  1
  Fe  Fe1  1  0.500000  0.000000  0.500000  1
  Fe  Fe2  1  0.000000  0.000000  0.500000  1
  Fe  Fe3  1  0.500000  0.500000  0.000000  1
  Fe  Fe4  1  0.000000  0.500000  0.000000  1
  Re  Re5  1  0.000000  0.358072  0.358072  1
  Re  Re6  1  0.000000  0.641928  0.641928  1
  Tc  Tc7  1  0.714435  0.785565  0.214435  1
  Tc  Tc8  1  0.285565  0.214435  0.785565  1
  Tc  Tc9  1  0.500000  0.784046  0.784046  1
  Tc  Tc10  1  0.500000  0.215954  0.215954  1
  Tc  Tc11  1  0.642824  0.357176  0.642824  1
  Tc  Tc12  1  0.357176  0.642824  0.357176  1
