# generated using pymatgen
data_Pr4Sb(AsO2)2
_symmetry_space_group_name_H-M   'P 1'
_cell_length_a   7.42775607
_cell_length_b   7.42775623
_cell_length_c   8.30321000
_cell_angle_alpha   87.57550374
_cell_angle_beta   92.42449632
_cell_angle_gamma   147.78411026
_symmetry_Int_Tables_number   1
_chemical_formula_structural   Pr4Sb(AsO2)2
_chemical_formula_sum   'Pr4 Sb1 As2 O4'
_cell_volume   243.98182513
_cell_formula_units_Z   1
loop_
 _symmetry_equiv_pos_site_id
 _symmetry_equiv_pos_as_xyz
  1  'x, y, z'
loop_
 _atom_site_type_symbol
 _atom_site_label
 _atom_site_symmetry_multiplicity
 _atom_site_fract_x
 _atom_site_fract_y
 _atom_site_fract_z
 _atom_site_occupancy
  Pr  Pr0  1  0.317245  0.682755  0.753810  1
  Pr  Pr1  1  0.328462  0.671538  0.228624  1
  Pr  Pr2  1  0.978410  0.021590  0.508203  1
  Pr  Pr3  1  0.996399  0.003601  0.996132  1
  Sb  Sb4  1  0.638920  0.361080  0.306018  1
  As  As5  1  0.625265  0.374735  0.725595  1
  As  As6  1  0.699840  0.300160  0.996564  1
  O  O7  1  0.391729  0.608271  0.499694  1
  O  O8  1  0.415492  0.584508  0.992460  1
  O  O9  1  0.898860  0.101140  0.751881  1
  O  O10  1  0.910588  0.089412  0.241019  1
