# generated using pymatgen
data_Ba4Ga3PdBr2
_symmetry_space_group_name_H-M   'P 1'
_cell_length_a   4.58493800
_cell_length_b   4.58493819
_cell_length_c   18.69375000
_cell_angle_alpha   90.00000000
_cell_angle_beta   90.00000000
_cell_angle_gamma   119.99999864
_symmetry_Int_Tables_number   1
_chemical_formula_structural   Ba4Ga3PdBr2
_chemical_formula_sum   'Ba4 Ga3 Pd1 Br2'
_cell_volume   340.32513103
_cell_formula_units_Z   1
loop_
 _symmetry_equiv_pos_site_id
 _symmetry_equiv_pos_as_xyz
  1  'x, y, z'
loop_
 _atom_site_type_symbol
 _atom_site_label
 _atom_site_symmetry_multiplicity
 _atom_site_fract_x
 _atom_site_fract_y
 _atom_site_fract_z
 _atom_site_occupancy
  Ba  Ba0  1  0.000000  0.000000  0.383386  1
  Ba  Ba1  1  0.000000  0.000000  0.876225  1
  Ba  Ba2  1  0.000000  0.000000  0.617572  1
  Ba  Ba3  1  0.000000  0.000000  0.123554  1
  Ga  Ga4  1  0.333333  0.666667  0.990544  1
  Ga  Ga5  1  0.333333  0.666667  0.500826  1
  Ga  Ga6  1  0.666667  0.333333  0.009161  1
  Pd  Pd7  1  0.666667  0.333333  0.498977  1
  Br  Br8  1  0.333333  0.666667  0.247814  1
  Br  Br9  1  0.666667  0.333333  0.751940  1
