# generated using pymatgen
data_DyYHo2(OsC2)2
_symmetry_space_group_name_H-M   'P 1'
_cell_length_a   5.12765600
_cell_length_b   6.44742938
_cell_length_c   9.76488282
_cell_angle_alpha   89.94608621
_cell_angle_beta   90.00000000
_cell_angle_gamma   90.00000000
_symmetry_Int_Tables_number   1
_chemical_formula_structural   DyYHo2(OsC2)2
_chemical_formula_sum   'Dy2 Y2 Ho4 Os4 C8'
_cell_volume   322.82883539
_cell_formula_units_Z   2
loop_
 _symmetry_equiv_pos_site_id
 _symmetry_equiv_pos_as_xyz
  1  'x, y, z'
loop_
 _atom_site_type_symbol
 _atom_site_label
 _atom_site_symmetry_multiplicity
 _atom_site_fract_x
 _atom_site_fract_y
 _atom_site_fract_z
 _atom_site_occupancy
  Dy  Dy0  1  0.250000  0.526360  0.218422  1
  Dy  Dy1  1  0.750000  0.473640  0.781578  1
  Y  Y2  1  0.750000  0.973129  0.718499  1
  Y  Y3  1  0.250000  0.026871  0.281501  1
  Ho  Ho4  1  0.250000  0.682299  0.552349  1
  Ho  Ho5  1  0.750000  0.317701  0.447651  1
  Ho  Ho6  1  0.750000  0.817358  0.052707  1
  Ho  Ho7  1  0.250000  0.182642  0.947293  1
  Os  Os8  1  0.250000  0.725578  0.865194  1
  Os  Os9  1  0.750000  0.274422  0.134806  1
  Os  Os10  1  0.750000  0.774064  0.365195  1
  Os  Os11  1  0.250000  0.225936  0.634805  1
  C  C12  1  0.250000  0.461438  0.758239  1
  C  C13  1  0.750000  0.538562  0.241761  1
  C  C14  1  0.750000  0.038570  0.258271  1
  C  C15  1  0.250000  0.961430  0.741729  1
  C  C16  1  0.250000  0.826250  0.052729  1
  C  C17  1  0.750000  0.173750  0.947271  1
  C  C18  1  0.750000  0.673257  0.552838  1
  C  C19  1  0.250000  0.326743  0.447162  1
