# generated using pymatgen
data_Zr6Ta4Ga12FeIr6
_symmetry_space_group_name_H-M   'P 1'
_cell_length_a   8.82631437
_cell_length_b   8.82631586
_cell_length_c   8.82631600
_cell_angle_alpha   59.99999946
_cell_angle_beta   59.99999391
_cell_angle_gamma   60.00000366
_symmetry_Int_Tables_number   1
_chemical_formula_structural   Zr6Ta4Ga12FeIr6
_chemical_formula_sum   'Zr6 Ta4 Ga12 Fe1 Ir6'
_cell_volume   486.20936695
_cell_formula_units_Z   1
loop_
 _symmetry_equiv_pos_site_id
 _symmetry_equiv_pos_as_xyz
  1  'x, y, z'
loop_
 _atom_site_type_symbol
 _atom_site_label
 _atom_site_symmetry_multiplicity
 _atom_site_fract_x
 _atom_site_fract_y
 _atom_site_fract_z
 _atom_site_occupancy
  Zr  Zr0  1  0.693003  0.693003  0.306997  1
  Zr  Zr1  1  0.306997  0.693003  0.306997  1
  Zr  Zr2  1  0.693003  0.306997  0.306997  1
  Zr  Zr3  1  0.306997  0.306997  0.693003  1
  Zr  Zr4  1  0.693003  0.306997  0.693003  1
  Zr  Zr5  1  0.306997  0.693003  0.693003  1
  Ta  Ta6  1  0.880572  0.880572  0.358285  1
  Ta  Ta7  1  0.880572  0.358285  0.880572  1
  Ta  Ta8  1  0.358285  0.880572  0.880572  1
  Ta  Ta9  1  0.880572  0.880572  0.880572  1
  Ga  Ga10  1  0.117740  0.117740  0.646779  1
  Ga  Ga11  1  0.117740  0.646779  0.117740  1
  Ga  Ga12  1  0.646779  0.117740  0.117740  1
  Ga  Ga13  1  0.117740  0.117740  0.117740  1
  Ga  Ga14  1  0.656032  0.656032  0.031905  1
  Ga  Ga15  1  0.656032  0.031905  0.656032  1
  Ga  Ga16  1  0.031905  0.656032  0.656032  1
  Ga  Ga17  1  0.656032  0.656032  0.656032  1
  Ga  Ga18  1  0.342156  0.342156  0.973534  1
  Ga  Ga19  1  0.342156  0.973534  0.342156  1
  Ga  Ga20  1  0.973534  0.342156  0.342156  1
  Ga  Ga21  1  0.342156  0.342156  0.342156  1
  Fe  Fe22  1  0.000000  0.000000  0.000000  1
  Ir  Ir23  1  0.995937  0.995937  0.504063  1
  Ir  Ir24  1  0.504063  0.995937  0.504063  1
  Ir  Ir25  1  0.995937  0.504063  0.504063  1
  Ir  Ir26  1  0.504063  0.504063  0.995937  1
  Ir  Ir27  1  0.995937  0.504063  0.995937  1
  Ir  Ir28  1  0.504063  0.995937  0.995937  1
