# generated using pymatgen
data_Dy4Er3Lu5Co5Hg
_symmetry_space_group_name_H-M   'P 1'
_cell_length_a   8.14487481
_cell_length_b   8.14135863
_cell_length_c   8.14135738
_cell_angle_alpha   107.47338918
_cell_angle_beta   110.42752942
_cell_angle_gamma   110.51256574
_symmetry_Int_Tables_number   1
_chemical_formula_structural   Dy4Er3Lu5Co5Hg
_chemical_formula_sum   'Dy4 Er3 Lu5 Co5 Hg1'
_cell_volume   415.30037950
_cell_formula_units_Z   1
loop_
 _symmetry_equiv_pos_site_id
 _symmetry_equiv_pos_as_xyz
  1  'x, y, z'
loop_
 _atom_site_type_symbol
 _atom_site_label
 _atom_site_symmetry_multiplicity
 _atom_site_fract_x
 _atom_site_fract_y
 _atom_site_fract_z
 _atom_site_occupancy
  Dy  Dy0  1  0.193919  0.214937  0.407913  1
  Dy  Dy1  1  0.806925  0.786281  0.594242  1
  Dy  Dy2  1  0.193919  0.786005  0.978980  1
  Dy  Dy3  1  0.806925  0.212683  0.020644  1
  Er  Er4  1  0.473814  0.289225  0.184589  1
  Er  Er5  1  0.105028  0.289556  0.815471  1
  Er  Er6  1  0.894823  0.711284  0.183539  1
  Lu  Lu7  1  0.527526  0.711213  0.816312  1
  Lu  Lu8  1  0.306204  0.622736  0.317761  1
  Lu  Lu9  1  0.306204  0.988444  0.683468  1
  Lu  Lu10  1  0.693997  0.377584  0.683401  1
  Lu  Lu11  1  0.693997  0.010595  0.316414  1
  Co  Co12  1  0.499194  0.614902  0.113003  1
  Co  Co13  1  0.499194  0.386192  0.884292  1
  Co  Co14  1  0.377330  0.000278  0.377051  1
  Co  Co15  1  0.621829  0.999102  0.622728  1
  Co  Co16  1  0.999523  0.998895  0.000627  1
  Hg  Hg17  1  0.999650  0.500085  0.499565  1
