# generated using pymatgen
data_Ac4LaPr(RuBr3)2
_symmetry_space_group_name_H-M   'P 1'
_cell_length_a   4.42563100
_cell_length_b   9.80571623
_cell_length_c   12.38557736
_cell_angle_alpha   88.19914234
_cell_angle_beta   90.00000000
_cell_angle_gamma   90.00000000
_symmetry_Int_Tables_number   1
_chemical_formula_structural   Ac4LaPr(RuBr3)2
_chemical_formula_sum   'Ac4 La1 Pr1 Ru2 Br6'
_cell_volume   537.22500966
_cell_formula_units_Z   1
loop_
 _symmetry_equiv_pos_site_id
 _symmetry_equiv_pos_as_xyz
  1  'x, y, z'
loop_
 _atom_site_type_symbol
 _atom_site_label
 _atom_site_symmetry_multiplicity
 _atom_site_fract_x
 _atom_site_fract_y
 _atom_site_fract_z
 _atom_site_occupancy
  Ac  Ac0  1  0.250000  0.322785  0.373690  1
  Ac  Ac1  1  0.750000  0.672552  0.626459  1
  Ac  Ac2  1  0.250000  0.902265  0.386838  1
  Ac  Ac3  1  0.750000  0.100079  0.609846  1
  La  La4  1  0.250000  0.883623  0.836731  1
  Pr  Pr5  1  0.750000  0.117465  0.158336  1
  Ru  Ru6  1  0.250000  0.883089  0.640492  1
  Ru  Ru7  1  0.750000  0.115391  0.371006  1
  Br  Br8  1  0.250000  0.398978  0.630310  1
  Br  Br9  1  0.750000  0.603166  0.371069  1
  Br  Br10  1  0.250000  0.902785  0.112827  1
  Br  Br11  1  0.750000  0.103859  0.885464  1
  Br  Br12  1  0.250000  0.328826  0.115559  1
  Br  Br13  1  0.750000  0.665136  0.881372  1
