# generated using pymatgen
data_DyBiSb4O13
_symmetry_space_group_name_H-M   'P 1'
_cell_length_a   7.43401300
_cell_length_b   7.35010687
_cell_length_c   10.35012186
_cell_angle_alpha   88.96520197
_cell_angle_beta   90.00000000
_cell_angle_gamma   90.00000000
_symmetry_Int_Tables_number   1
_chemical_formula_structural   DyBiSb4O13
_chemical_formula_sum   'Dy2 Bi2 Sb8 O26'
_cell_volume   565.44660209
_cell_formula_units_Z   2
loop_
 _symmetry_equiv_pos_site_id
 _symmetry_equiv_pos_as_xyz
  1  'x, y, z'
loop_
 _atom_site_type_symbol
 _atom_site_label
 _atom_site_symmetry_multiplicity
 _atom_site_fract_x
 _atom_site_fract_y
 _atom_site_fract_z
 _atom_site_occupancy
  Dy  Dy0  1  0.500000  0.500000  0.000000  1
  Dy  Dy1  1  0.000000  0.500000  0.000000  1
  Bi  Bi2  1  0.250000  0.744059  0.735057  1
  Bi  Bi3  1  0.750000  0.255941  0.264943  1
  Sb  Sb4  1  0.500000  0.000000  0.000000  1
  Sb  Sb5  1  0.750000  0.756265  0.747162  1
  Sb  Sb6  1  0.250000  0.747502  0.252781  1
  Sb  Sb7  1  0.500000  0.500000  0.500000  1
  Sb  Sb8  1  0.000000  0.500000  0.500000  1
  Sb  Sb9  1  0.750000  0.252498  0.747219  1
  Sb  Sb10  1  0.250000  0.243735  0.252838  1
  Sb  Sb11  1  0.000000  0.000000  0.000000  1
  O  O12  1  0.448737  0.690730  0.371519  1
  O  O13  1  0.750000  0.460381  0.120574  1
  O  O14  1  0.250000  0.493368  0.162103  1
  O  O15  1  0.453583  0.306557  0.367539  1
  O  O16  1  0.558113  0.214271  0.885408  1
  O  O17  1  0.941887  0.214271  0.885408  1
  O  O18  1  0.448539  0.206200  0.121721  1
  O  O19  1  0.750000  0.001757  0.075442  1
  O  O20  1  0.250000  0.998243  0.924558  1
  O  O21  1  0.750000  0.003715  0.684983  1
  O  O22  1  0.551461  0.793800  0.878279  1
  O  O23  1  0.948539  0.793800  0.878279  1
  O  O24  1  0.441887  0.785729  0.114592  1
  O  O25  1  0.051263  0.690730  0.371519  1
  O  O26  1  0.546417  0.693443  0.632461  1
  O  O27  1  0.953583  0.693443  0.632461  1
  O  O28  1  0.250000  0.514934  0.576580  1
  O  O29  1  0.750000  0.506632  0.837897  1
  O  O30  1  0.750000  0.485066  0.423420  1
  O  O31  1  0.046417  0.306557  0.367539  1
  O  O32  1  0.551263  0.309270  0.628481  1
  O  O33  1  0.948737  0.309270  0.628481  1
  O  O34  1  0.051461  0.206200  0.121721  1
  O  O35  1  0.250000  0.996285  0.315017  1
  O  O36  1  0.058113  0.785729  0.114592  1
  O  O37  1  0.250000  0.539619  0.879426  1
