# generated using pymatgen
data_Tb10CeTm5(CdCo)4
_symmetry_space_group_name_H-M   'P 1'
_cell_length_a   9.54630124
_cell_length_b   9.55004858
_cell_length_c   9.32377275
_cell_angle_alpha   60.48362667
_cell_angle_beta   60.37721654
_cell_angle_gamma   59.76676039
_symmetry_Int_Tables_number   1
_chemical_formula_structural   Tb10CeTm5(CdCo)4
_chemical_formula_sum   'Tb10 Ce1 Tm5 Cd4 Co4'
_cell_volume   603.85202587
_cell_formula_units_Z   1
loop_
 _symmetry_equiv_pos_site_id
 _symmetry_equiv_pos_as_xyz
  1  'x, y, z'
loop_
 _atom_site_type_symbol
 _atom_site_label
 _atom_site_symmetry_multiplicity
 _atom_site_fract_x
 _atom_site_fract_y
 _atom_site_fract_z
 _atom_site_occupancy
  Tb  Tb0  1  0.435332  0.055021  0.443180  1
  Tb  Tb1  1  0.593375  0.215007  0.596456  1
  Tb  Tb2  1  0.815867  0.816756  0.182575  1
  Tb  Tb3  1  0.215818  0.593933  0.595545  1
  Tb  Tb4  1  0.808195  0.190261  0.188985  1
  Tb  Tb5  1  0.054969  0.435402  0.444495  1
  Tb  Tb6  1  0.190403  0.809391  0.188354  1
  Tb  Tb7  1  0.600001  0.601943  0.207009  1
  Tb  Tb8  1  0.180534  0.179771  0.819109  1
  Tb  Tb9  1  0.058430  0.435107  0.064714  1
  Ce  Ce10  1  0.433291  0.431641  0.067376  1
  Tm  Tm11  1  0.599616  0.600244  0.594430  1
  Tm  Tm12  1  0.189223  0.808500  0.810077  1
  Tm  Tm13  1  0.061486  0.060567  0.440340  1
  Tm  Tm14  1  0.437236  0.056767  0.064087  1
  Tm  Tm15  1  0.807225  0.189017  0.810611  1
  Cd  Cd16  1  0.830877  0.831020  0.509188  1
  Cd  Cd17  1  0.832189  0.833044  0.828553  1
  Cd  Cd18  1  0.508282  0.832836  0.828955  1
  Cd  Cd19  1  0.832265  0.508509  0.828585  1
  Co  Co20  1  0.400998  0.401021  0.350999  1
  Co  Co21  1  0.823980  0.387601  0.396943  1
  Co  Co22  1  0.387290  0.825377  0.395919  1
  Co  Co23  1  0.403119  0.401264  0.843514  1
