# generated using pymatgen
data_Y6Ho(ErIn4)5
_symmetry_space_group_name_H-M   'P 1'
_cell_length_a   6.51541684
_cell_length_b   10.40389952
_cell_length_c   12.24819588
_cell_angle_alpha   90.04112578
_cell_angle_beta   89.97592159
_cell_angle_gamma   90.01614511
_symmetry_Int_Tables_number   1
_chemical_formula_structural   Y6Ho(ErIn4)5
_chemical_formula_sum   'Y6 Ho1 Er5 In20'
_cell_volume   830.25272798
_cell_formula_units_Z   1
loop_
 _symmetry_equiv_pos_site_id
 _symmetry_equiv_pos_as_xyz
  1  'x, y, z'
loop_
 _atom_site_type_symbol
 _atom_site_label
 _atom_site_symmetry_multiplicity
 _atom_site_fract_x
 _atom_site_fract_y
 _atom_site_fract_z
 _atom_site_occupancy
  Y  Y0  1  0.110131  0.992050  0.858125  1
  Y  Y1  1  0.389965  0.507910  0.358208  1
  Y  Y2  1  0.109769  0.507745  0.858811  1
  Y  Y3  1  0.389999  0.992359  0.358237  1
  Y  Y4  1  0.889585  0.007989  0.142169  1
  Y  Y5  1  0.610364  0.492152  0.641808  1
  Ho  Ho6  1  0.609768  0.007609  0.641672  1
  Er  Er7  1  0.350036  0.750217  0.055356  1
  Er  Er8  1  0.149296  0.750060  0.555310  1
  Er  Er9  1  0.649501  0.250438  0.944850  1
  Er  Er10  1  0.850765  0.249405  0.444781  1
  Er  Er11  1  0.890707  0.492158  0.141124  1
  In  In12  1  0.614514  0.750084  0.505472  1
  In  In13  1  0.884635  0.749341  0.006101  1
  In  In14  1  0.385592  0.249944  0.495022  1
  In  In15  1  0.114351  0.250113  0.995028  1
  In  In16  1  0.651915  0.749191  0.244115  1
  In  In17  1  0.848353  0.750334  0.744528  1
  In  In18  1  0.348952  0.249689  0.755367  1
  In  In19  1  0.151297  0.250806  0.255208  1
  In  In20  1  0.124188  0.749840  0.282992  1
  In  In21  1  0.375705  0.749762  0.782820  1
  In  In22  1  0.875042  0.249414  0.716839  1
  In  In23  1  0.625718  0.251294  0.216719  1
  In  In24  1  0.875102  0.543245  0.400098  1
  In  In25  1  0.625207  0.956430  0.900687  1
  In  In26  1  0.125402  0.043651  0.599027  1
  In  In27  1  0.374929  0.456636  0.099162  1
  In  In28  1  0.124958  0.456358  0.599097  1
  In  In29  1  0.374752  0.044000  0.098909  1
  In  In30  1  0.874737  0.956096  0.401294  1
  In  In31  1  0.624766  0.543678  0.901065  1
