# generated using pymatgen
data_YEr3InPt11
_symmetry_space_group_name_H-M   'P 1'
_cell_length_a   4.17894700
_cell_length_b   5.83339123
_cell_length_c   11.65241319
_cell_angle_alpha   87.84786940
_cell_angle_beta   90.00000000
_cell_angle_gamma   90.00000000
_symmetry_Int_Tables_number   1
_chemical_formula_structural   YEr3InPt11
_chemical_formula_sum   'Y1 Er3 In1 Pt11'
_cell_volume   283.85555775
_cell_formula_units_Z   1
loop_
 _symmetry_equiv_pos_site_id
 _symmetry_equiv_pos_as_xyz
  1  'x, y, z'
loop_
 _atom_site_type_symbol
 _atom_site_label
 _atom_site_symmetry_multiplicity
 _atom_site_fract_x
 _atom_site_fract_y
 _atom_site_fract_z
 _atom_site_occupancy
  Y  Y0  1  0.500000  0.752989  0.375794  1
  Er  Er1  1  0.500000  0.720372  0.862182  1
  Er  Er2  1  0.500000  0.279599  0.137712  1
  Er  Er3  1  0.500000  0.246981  0.624268  1
  In  In4  1  0.000000  0.000119  0.999785  1
  Pt  Pt5  1  0.000000  0.013333  0.248558  1
  Pt  Pt6  1  0.000000  0.988074  0.750744  1
  Pt  Pt7  1  0.000000  0.499945  0.999844  1
  Pt  Pt8  1  0.000000  0.498534  0.500880  1
  Pt  Pt9  1  0.000000  0.512748  0.249276  1
  Pt  Pt10  1  0.000000  0.485945  0.750033  1
  Pt  Pt11  1  0.500000  0.251549  0.377699  1
  Pt  Pt12  1  0.500000  0.231728  0.880288  1
  Pt  Pt13  1  0.500000  0.768329  0.118858  1
  Pt  Pt14  1  0.500000  0.748639  0.623301  1
  Pt  Pt15  1  0.000000  0.001116  0.500776  1
