# generated using pymatgen
data_Nd16Cd4NiPt3
_symmetry_space_group_name_H-M   'P 1'
_cell_length_a   9.95709661
_cell_length_b   9.95709624
_cell_length_c   9.95709546
_cell_angle_alpha   60.48230894
_cell_angle_beta   60.48231300
_cell_angle_gamma   60.48231239
_symmetry_Int_Tables_number   1
_chemical_formula_structural   Nd16Cd4NiPt3
_chemical_formula_sum   'Nd16 Cd4 Ni1 Pt3'
_cell_volume   705.65417614
_cell_formula_units_Z   1
loop_
 _symmetry_equiv_pos_site_id
 _symmetry_equiv_pos_as_xyz
  1  'x, y, z'
loop_
 _atom_site_type_symbol
 _atom_site_label
 _atom_site_symmetry_multiplicity
 _atom_site_fract_x
 _atom_site_fract_y
 _atom_site_fract_z
 _atom_site_occupancy
  Nd  Nd0  1  0.349676  0.349676  0.349676  1
  Nd  Nd1  1  0.347049  0.347049  0.950495  1
  Nd  Nd2  1  0.347049  0.950495  0.347049  1
  Nd  Nd3  1  0.950495  0.347049  0.347049  1
  Nd  Nd4  1  0.814588  0.191419  0.191419  1
  Nd  Nd5  1  0.192610  0.808455  0.808455  1
  Nd  Nd6  1  0.191419  0.814588  0.191419  1
  Nd  Nd7  1  0.808455  0.192610  0.808455  1
  Nd  Nd8  1  0.191419  0.191419  0.814588  1
  Nd  Nd9  1  0.808455  0.808455  0.192610  1
  Nd  Nd10  1  0.939457  0.562542  0.562542  1
  Nd  Nd11  1  0.565408  0.934357  0.934357  1
  Nd  Nd12  1  0.562542  0.939457  0.562542  1
  Nd  Nd13  1  0.934357  0.565408  0.934357  1
  Nd  Nd14  1  0.562542  0.562542  0.939457  1
  Nd  Nd15  1  0.934357  0.934357  0.565408  1
  Cd  Cd16  1  0.580070  0.580070  0.580070  1
  Cd  Cd17  1  0.581102  0.581102  0.258045  1
  Cd  Cd18  1  0.581102  0.258045  0.581102  1
  Cd  Cd19  1  0.258045  0.581102  0.581102  1
  Ni  Ni20  1  0.142717  0.142717  0.142717  1
  Pt  Pt21  1  0.142818  0.142818  0.571453  1
  Pt  Pt22  1  0.142818  0.571453  0.142818  1
  Pt  Pt23  1  0.571453  0.142818  0.142818  1
