# generated using pymatgen
data_La4YZn2Sn
_symmetry_space_group_name_H-M   'P 1'
_cell_length_a   8.83176217
_cell_length_b   8.83176145
_cell_length_c   8.83176104
_cell_angle_alpha   121.75542648
_cell_angle_beta   121.75541910
_cell_angle_gamma   86.98549626
_symmetry_Int_Tables_number   1
_chemical_formula_structural   La4YZn2Sn
_chemical_formula_sum   'La8 Y2 Zn4 Sn2'
_cell_volume   473.47263130
_cell_formula_units_Z   2
loop_
 _symmetry_equiv_pos_site_id
 _symmetry_equiv_pos_as_xyz
  1  'x, y, z'
loop_
 _atom_site_type_symbol
 _atom_site_label
 _atom_site_symmetry_multiplicity
 _atom_site_fract_x
 _atom_site_fract_y
 _atom_site_fract_z
 _atom_site_occupancy
  La  La0  1  0.306223  0.806223  0.820289  1
  La  La1  1  0.985933  0.485934  0.179710  1
  La  La2  1  0.193776  0.014066  0.499999  1
  La  La3  1  0.514065  0.693775  0.499999  1
  La  La4  1  0.693775  0.193777  0.179710  1
  La  La5  1  0.014066  0.514066  0.820289  1
  La  La6  1  0.485933  0.306223  0.499999  1
  La  La7  1  0.806223  0.985933  0.499999  1
  Y  Y8  1  0.000000  0.000000  0.000000  1
  Y  Y9  1  0.500000  0.500000  0.000000  1
  Zn  Zn10  1  0.636385  0.136386  0.772772  1
  Zn  Zn11  1  0.363613  0.863615  0.227228  1
  Zn  Zn12  1  0.863615  0.636386  0.500001  1
  Zn  Zn13  1  0.136386  0.363615  0.500001  1
  Sn  Sn14  1  0.250000  0.250000  0.000000  1
  Sn  Sn15  1  0.750000  0.750000  0.000000  1
