# generated using pymatgen
data_Tb2Ho5Pu3(SiB4)4
_symmetry_space_group_name_H-M   'P 1'
_cell_length_a   7.23211094
_cell_length_b   7.23121468
_cell_length_c   8.10509433
_cell_angle_alpha   89.99027197
_cell_angle_beta   89.98795387
_cell_angle_gamma   89.79266259
_symmetry_Int_Tables_number   1
_chemical_formula_structural   Tb2Ho5Pu3(SiB4)4
_chemical_formula_sum   'Tb2 Ho5 Pu3 Si4 B16'
_cell_volume   423.86889613
_cell_formula_units_Z   1
loop_
 _symmetry_equiv_pos_site_id
 _symmetry_equiv_pos_as_xyz
  1  'x, y, z'
loop_
 _atom_site_type_symbol
 _atom_site_label
 _atom_site_symmetry_multiplicity
 _atom_site_fract_x
 _atom_site_fract_y
 _atom_site_fract_z
 _atom_site_occupancy
  Tb  Tb0  1  0.818087  0.681341  0.223836  1
  Tb  Tb1  1  0.818174  0.681455  0.776180  1
  Ho  Ho2  1  0.681677  0.181730  0.776086  1
  Ho  Ho3  1  0.181709  0.318037  0.778255  1
  Ho  Ho4  1  0.181542  0.317916  0.221786  1
  Ho  Ho5  1  0.006962  0.997669  0.498601  1
  Ho  Ho6  1  0.496732  0.506116  0.498569  1
  Pu  Pu7  1  0.683698  0.183788  0.229751  1
  Pu  Pu8  1  0.315961  0.816008  0.770911  1
  Pu  Pu9  1  0.316763  0.816867  0.229296  1
  Si  Si10  1  0.112562  0.611014  0.501458  1
  Si  Si11  1  0.881155  0.379846  0.498122  1
  Si  Si12  1  0.387457  0.118852  0.498686  1
  Si  Si13  1  0.617248  0.889021  0.498768  1
  B  B14  1  0.174078  0.038618  0.999550  1
  B  B15  1  0.827041  0.961731  0.000231  1
  B  B16  1  0.959615  0.172809  0.999882  1
  B  B17  1  0.326702  0.540854  0.999583  1
  B  B18  1  0.041597  0.827354  0.999560  1
  B  B19  1  0.672156  0.458875  0.999870  1
  B  B20  1  0.537822  0.673492  0.999522  1
  B  B21  1  0.460942  0.326439  0.000225  1
  B  B22  1  0.090494  0.590176  0.000044  1
  B  B23  1  0.909357  0.409065  0.001350  1
  B  B24  1  0.410514  0.089633  0.000226  1
  B  B25  1  0.589736  0.910467  0.000187  1
  B  B26  1  0.000316  0.000529  0.161286  1
  B  B27  1  0.001961  0.000019  0.838445  1
  B  B28  1  0.498713  0.500945  0.838452  1
  B  B29  1  0.499228  0.499331  0.161285  1
