# generated using pymatgen
data_PrNd2RuO7
_symmetry_space_group_name_H-M   'P 1'
_cell_length_a   6.64712671
_cell_length_b   6.64712810
_cell_length_c   7.63453100
_cell_angle_alpha   90.00000000
_cell_angle_beta   90.00000000
_cell_angle_gamma   111.50951849
_symmetry_Int_Tables_number   1
_chemical_formula_structural   PrNd2RuO7
_chemical_formula_sum   'Pr2 Nd4 Ru2 O14'
_cell_volume   313.83389251
_cell_formula_units_Z   2
loop_
 _symmetry_equiv_pos_site_id
 _symmetry_equiv_pos_as_xyz
  1  'x, y, z'
loop_
 _atom_site_type_symbol
 _atom_site_label
 _atom_site_symmetry_multiplicity
 _atom_site_fract_x
 _atom_site_fract_y
 _atom_site_fract_z
 _atom_site_occupancy
  Pr  Pr0  1  0.000000  0.000000  0.500000  1
  Pr  Pr1  1  0.000000  0.000000  0.000000  1
  Nd  Nd2  1  0.472347  0.914197  0.750000  1
  Nd  Nd3  1  0.527653  0.085803  0.250000  1
  Nd  Nd4  1  0.914197  0.472347  0.750000  1
  Nd  Nd5  1  0.085803  0.527653  0.250000  1
  Ru  Ru6  1  0.500000  0.500000  0.500000  1
  Ru  Ru7  1  0.500000  0.500000  0.000000  1
  O  O8  1  0.582639  0.582639  0.750000  1
  O  O9  1  0.417361  0.417361  0.250000  1
  O  O10  1  0.840636  0.105599  0.750000  1
  O  O11  1  0.159364  0.894401  0.250000  1
  O  O12  1  0.105599  0.840636  0.750000  1
  O  O13  1  0.894401  0.159364  0.250000  1
  O  O14  1  0.440260  0.188782  0.960642  1
  O  O15  1  0.559740  0.811218  0.460642  1
  O  O16  1  0.188782  0.440260  0.960642  1
  O  O17  1  0.811218  0.559740  0.460642  1
  O  O18  1  0.440260  0.188782  0.539358  1
  O  O19  1  0.559740  0.811218  0.039358  1
  O  O20  1  0.811218  0.559740  0.039358  1
  O  O21  1  0.188782  0.440260  0.539358  1
