# generated using pymatgen
data_Y4MnFeRu6
_symmetry_space_group_name_H-M   'P 1'
_cell_length_a   5.30507036
_cell_length_b   5.16699162
_cell_length_c   8.93150100
_cell_angle_alpha   90.00000000
_cell_angle_beta   90.00000000
_cell_angle_gamma   120.69579964
_symmetry_Int_Tables_number   1
_chemical_formula_structural   Y4MnFeRu6
_chemical_formula_sum   'Y4 Mn1 Fe1 Ru6'
_cell_volume   210.52132863
_cell_formula_units_Z   1
loop_
 _symmetry_equiv_pos_site_id
 _symmetry_equiv_pos_as_xyz
  1  'x, y, z'
loop_
 _atom_site_type_symbol
 _atom_site_label
 _atom_site_symmetry_multiplicity
 _atom_site_fract_x
 _atom_site_fract_y
 _atom_site_fract_z
 _atom_site_occupancy
  Y  Y0  1  0.332150  0.664193  0.433232  1
  Y  Y1  1  0.665448  0.334508  0.564700  1
  Y  Y2  1  0.665448  0.334508  0.935300  1
  Y  Y3  1  0.332150  0.664193  0.066768  1
  Mn  Mn4  1  0.167202  0.335616  0.750000  1
  Fe  Fe5  1  0.331651  0.166416  0.250000  1
  Ru  Ru6  1  0.174601  0.825703  0.750000  1
  Ru  Ru7  1  0.831877  0.662373  0.250000  1
  Ru  Ru8  1  0.662796  0.832586  0.750000  1
  Ru  Ru9  1  0.003276  0.001869  0.998657  1
  Ru  Ru10  1  0.830122  0.176172  0.250000  1
  Ru  Ru11  1  0.003276  0.001869  0.501343  1
