# generated using pymatgen
data_LiCe(ReH9)2
_symmetry_space_group_name_H-M   'P 1'
_cell_length_a   4.86000700
_cell_length_b   4.86000680
_cell_length_c   8.81058200
_cell_angle_alpha   90.00000000
_cell_angle_beta   90.00000000
_cell_angle_gamma   120.00000820
_symmetry_Int_Tables_number   1
_chemical_formula_structural   LiCe(ReH9)2
_chemical_formula_sum   'Li1 Ce1 Re2 H18'
_cell_volume   180.22248126
_cell_formula_units_Z   1
loop_
 _symmetry_equiv_pos_site_id
 _symmetry_equiv_pos_as_xyz
  1  'x, y, z'
loop_
 _atom_site_type_symbol
 _atom_site_label
 _atom_site_symmetry_multiplicity
 _atom_site_fract_x
 _atom_site_fract_y
 _atom_site_fract_z
 _atom_site_occupancy
  Li  Li0  1  0.000000  0.000000  0.000000  1
  Ce  Ce1  1  0.000000  0.000000  0.500000  1
  Re  Re2  1  0.333333  0.666667  0.256089  1
  Re  Re3  1  0.666667  0.333333  0.743911  1
  H  H4  1  0.485635  0.514365  0.389779  1
  H  H5  1  0.485635  0.971270  0.389779  1
  H  H6  1  0.028730  0.514365  0.389779  1
  H  H7  1  0.937326  0.468663  0.884560  1
  H  H8  1  0.134614  0.269228  0.240153  1
  H  H9  1  0.865386  0.134614  0.759847  1
  H  H10  1  0.269228  0.134614  0.759847  1
  H  H11  1  0.730772  0.865386  0.240153  1
  H  H12  1  0.134614  0.865386  0.240153  1
  H  H13  1  0.865386  0.730772  0.759847  1
  H  H14  1  0.468663  0.937326  0.115440  1
  H  H15  1  0.514365  0.485635  0.610221  1
  H  H16  1  0.971270  0.485635  0.610221  1
  H  H17  1  0.062674  0.531337  0.115440  1
  H  H18  1  0.468663  0.531337  0.115440  1
  H  H19  1  0.531337  0.062674  0.884560  1
  H  H20  1  0.531337  0.468663  0.884560  1
  H  H21  1  0.514365  0.028730  0.610221  1
