# generated using pymatgen
data_TmZr4(Re7Tc)3
_symmetry_space_group_name_H-M   'P 1'
_cell_length_a   8.50385897
_cell_length_b   8.49980563
_cell_length_c   8.49980612
_cell_angle_alpha   109.46156658
_cell_angle_beta   109.48088271
_cell_angle_gamma   109.48087719
_symmetry_Int_Tables_number   1
_chemical_formula_structural   TmZr4(Re7Tc)3
_chemical_formula_sum   'Tm1 Zr4 Re21 Tc3'
_cell_volume   472.89023861
_cell_formula_units_Z   1
loop_
 _symmetry_equiv_pos_site_id
 _symmetry_equiv_pos_as_xyz
  1  'x, y, z'
loop_
 _atom_site_type_symbol
 _atom_site_label
 _atom_site_symmetry_multiplicity
 _atom_site_fract_x
 _atom_site_fract_y
 _atom_site_fract_z
 _atom_site_occupancy
  Tm  Tm0  1  0.999813  0.000000  0.000000  1
  Zr  Zr1  1  0.626746  0.000000  0.000000  1
  Zr  Zr2  1  0.000000  0.628462  0.000000  1
  Zr  Zr3  1  0.000000  0.000000  0.628462  1
  Zr  Zr4  1  0.371538  0.371538  0.371538  1
  Re  Re5  1  0.675714  0.396187  0.000000  1
  Re  Re6  1  0.000559  0.396592  0.676280  1
  Re  Re7  1  0.324279  0.720311  0.323720  1
  Re  Re8  1  0.324279  0.323720  0.720311  1
  Re  Re9  1  0.000559  0.676280  0.396592  1
  Re  Re10  1  0.675714  0.000000  0.396187  1
  Re  Re11  1  0.603968  0.603408  0.279689  1
  Re  Re12  1  0.279527  0.603813  0.603813  1
  Re  Re13  1  0.603968  0.279689  0.603408  1
  Re  Re14  1  0.377050  0.195348  0.000000  1
  Re  Re15  1  0.181702  0.804652  0.804652  1
  Re  Re16  1  0.377050  0.000000  0.195348  1
  Re  Re17  1  0.195014  0.378236  0.000000  1
  Re  Re18  1  0.000298  0.377679  0.194473  1
  Re  Re19  1  0.805825  0.183206  0.805527  1
  Re  Re20  1  0.805825  0.805527  0.183206  1
  Re  Re21  1  0.000298  0.194473  0.377679  1
  Re  Re22  1  0.195014  0.000000  0.378236  1
  Re  Re23  1  0.622619  0.622321  0.816794  1
  Re  Re24  1  0.816778  0.621764  0.621764  1
  Re  Re25  1  0.622619  0.816794  0.622321  1
  Tc  Tc26  1  0.396698  0.676852  0.000000  1
  Tc  Tc27  1  0.719846  0.323148  0.323148  1
  Tc  Tc28  1  0.396698  0.000000  0.676852  1
