# generated using pymatgen
data_Ce2NpRu3
_symmetry_space_group_name_H-M   'P 1'
_cell_length_a   5.23097160
_cell_length_b   5.23097174
_cell_length_c   5.23097155
_cell_angle_alpha   67.22022029
_cell_angle_beta   67.22022143
_cell_angle_gamma   67.22022488
_symmetry_Int_Tables_number   1
_chemical_formula_structural   Ce2NpRu3
_chemical_formula_sum   'Ce2 Np1 Ru3'
_cell_volume   116.84124179
_cell_formula_units_Z   1
loop_
 _symmetry_equiv_pos_site_id
 _symmetry_equiv_pos_as_xyz
  1  'x, y, z'
loop_
 _atom_site_type_symbol
 _atom_site_label
 _atom_site_symmetry_multiplicity
 _atom_site_fract_x
 _atom_site_fract_y
 _atom_site_fract_z
 _atom_site_occupancy
  Ce  Ce0  1  0.620898  0.620898  0.620898  1
  Ce  Ce1  1  0.379102  0.379102  0.379102  1
  Np  Np2  1  0.000000  0.000000  0.000000  1
  Ru  Ru3  1  0.000000  0.500000  0.000000  1
  Ru  Ru4  1  0.500000  0.000000  0.000000  1
  Ru  Ru5  1  0.000000  0.000000  0.500000  1
