# generated using pymatgen
data_Rb4Li2TmInAs4
_symmetry_space_group_name_H-M   'P 1'
_cell_length_a   10.56769260
_cell_length_b   10.56769407
_cell_length_c   6.67778800
_cell_angle_alpha   90.00000000
_cell_angle_beta   90.00000000
_cell_angle_gamma   102.15086978
_symmetry_Int_Tables_number   1
_chemical_formula_structural   Rb4Li2TmInAs4
_chemical_formula_sum   'Rb8 Li4 Tm2 In2 As8'
_cell_volume   729.04238323
_cell_formula_units_Z   2
loop_
 _symmetry_equiv_pos_site_id
 _symmetry_equiv_pos_as_xyz
  1  'x, y, z'
loop_
 _atom_site_type_symbol
 _atom_site_label
 _atom_site_symmetry_multiplicity
 _atom_site_fract_x
 _atom_site_fract_y
 _atom_site_fract_z
 _atom_site_occupancy
  Rb  Rb0  1  0.569479  0.930521  0.750000  1
  Rb  Rb1  1  0.930521  0.569479  0.250000  1
  Rb  Rb2  1  0.426006  0.073994  0.250000  1
  Rb  Rb3  1  0.073994  0.426006  0.750000  1
  Rb  Rb4  1  0.672738  0.321666  0.783957  1
  Rb  Rb5  1  0.827262  0.178334  0.283957  1
  Rb  Rb6  1  0.321666  0.672738  0.216043  1
  Rb  Rb7  1  0.178334  0.827262  0.716043  1
  Li  Li8  1  0.618212  0.618212  0.000000  1
  Li  Li9  1  0.881788  0.881788  0.500000  1
  Li  Li10  1  0.377475  0.377475  0.000000  1
  Li  Li11  1  0.122525  0.122525  0.500000  1
  Tm  Tm12  1  0.873015  0.873015  0.000000  1
  Tm  Tm13  1  0.626985  0.626985  0.500000  1
  In  In14  1  0.131438  0.131438  0.000000  1
  In  In15  1  0.368562  0.368562  0.500000  1
  As  As16  1  0.343779  0.156221  0.750000  1
  As  As17  1  0.156221  0.343779  0.250000  1
  As  As18  1  0.658366  0.841634  0.250000  1
  As  As19  1  0.841634  0.658366  0.750000  1
  As  As20  1  0.910058  0.095995  0.767288  1
  As  As21  1  0.589942  0.404005  0.267288  1
  As  As22  1  0.095995  0.910058  0.232712  1
  As  As23  1  0.404005  0.589942  0.732712  1
