# generated using pymatgen
data_Dy3Lu(ZrPt)4
_symmetry_space_group_name_H-M   'P 1'
_cell_length_a   4.67612500
_cell_length_b   7.14188227
_cell_length_c   8.23501620
_cell_angle_alpha   89.83237641
_cell_angle_beta   90.00000000
_cell_angle_gamma   90.00000000
_symmetry_Int_Tables_number   1
_chemical_formula_structural   Dy3Lu(ZrPt)4
_chemical_formula_sum   'Dy3 Lu1 Zr4 Pt4'
_cell_volume   275.01817635
_cell_formula_units_Z   1
loop_
 _symmetry_equiv_pos_site_id
 _symmetry_equiv_pos_as_xyz
  1  'x, y, z'
loop_
 _atom_site_type_symbol
 _atom_site_label
 _atom_site_symmetry_multiplicity
 _atom_site_fract_x
 _atom_site_fract_y
 _atom_site_fract_z
 _atom_site_occupancy
  Dy  Dy0  1  0.250000  0.517567  0.178471  1
  Dy  Dy1  1  0.750000  0.482696  0.823409  1
  Dy  Dy2  1  0.750000  0.982717  0.676189  1
  Lu  Lu3  1  0.250000  0.019497  0.322044  1
  Zr  Zr4  1  0.250000  0.648490  0.578086  1
  Zr  Zr5  1  0.750000  0.351815  0.420938  1
  Zr  Zr6  1  0.750000  0.852431  0.080660  1
  Zr  Zr7  1  0.250000  0.147353  0.921700  1
  Pt  Pt8  1  0.250000  0.770596  0.904001  1
  Pt  Pt9  1  0.750000  0.227342  0.098159  1
  Pt  Pt10  1  0.750000  0.730759  0.403940  1
  Pt  Pt11  1  0.250000  0.268737  0.592404  1
