# generated using pymatgen
data_Er3TmGa2(B2Rh5)2
_symmetry_space_group_name_H-M   'P 1'
_cell_length_a   9.43516864
_cell_length_b   9.43516864
_cell_length_c   3.20052200
_cell_angle_alpha   90.00000000
_cell_angle_beta   90.00000000
_cell_angle_gamma   90.04215582
_symmetry_Int_Tables_number   1
_chemical_formula_structural   Er3TmGa2(B2Rh5)2
_chemical_formula_sum   'Er3 Tm1 Ga2 B4 Rh10'
_cell_volume   284.91809573
_cell_formula_units_Z   1
loop_
 _symmetry_equiv_pos_site_id
 _symmetry_equiv_pos_as_xyz
  1  'x, y, z'
loop_
 _atom_site_type_symbol
 _atom_site_label
 _atom_site_symmetry_multiplicity
 _atom_site_fract_x
 _atom_site_fract_y
 _atom_site_fract_z
 _atom_site_occupancy
  Er  Er0  1  0.825511  0.325511  0.000000  1
  Er  Er1  1  0.325336  0.174632  0.000000  1
  Er  Er2  1  0.674632  0.825336  0.000000  1
  Tm  Tm3  1  0.174560  0.674560  0.000000  1
  Ga  Ga4  1  0.000006  0.999991  0.000000  1
  Ga  Ga5  1  0.499991  0.500006  0.000000  1
  B  B6  1  0.622736  0.122736  0.000000  1
  B  B7  1  0.122730  0.377488  0.000000  1
  B  B8  1  0.877488  0.622730  0.000000  1
  B  B9  1  0.377040  0.877040  0.000000  1
  Rh  Rh10  1  0.070818  0.218458  0.500000  1
  Rh  Rh11  1  0.218356  0.928756  0.500000  1
  Rh  Rh12  1  0.781514  0.070793  0.500000  1
  Rh  Rh13  1  0.929523  0.781504  0.500000  1
  Rh  Rh14  1  0.428756  0.718356  0.500000  1
  Rh  Rh15  1  0.570793  0.281514  0.500000  1
  Rh  Rh16  1  0.718458  0.570818  0.500000  1
  Rh  Rh17  1  0.281504  0.429523  0.500000  1
  Rh  Rh18  1  0.499957  0.999957  0.500000  1
  Rh  Rh19  1  0.000292  0.500292  0.500000  1
