# generated using pymatgen
data_La12HoTmRh6
_symmetry_space_group_name_H-M   'P 1'
_cell_length_a   10.24179500
_cell_length_b   10.24179555
_cell_length_c   6.43697900
_cell_angle_alpha   90.00000000
_cell_angle_beta   90.00000000
_cell_angle_gamma   120.00000144
_symmetry_Int_Tables_number   1
_chemical_formula_structural   La12HoTmRh6
_chemical_formula_sum   'La12 Ho1 Tm1 Rh6'
_cell_volume   584.74282098
_cell_formula_units_Z   1
loop_
 _symmetry_equiv_pos_site_id
 _symmetry_equiv_pos_as_xyz
  1  'x, y, z'
loop_
 _atom_site_type_symbol
 _atom_site_label
 _atom_site_symmetry_multiplicity
 _atom_site_fract_x
 _atom_site_fract_y
 _atom_site_fract_z
 _atom_site_occupancy
  La  La0  1  0.873730  0.747461  0.764460  1
  La  La1  1  0.252539  0.126270  0.764460  1
  La  La2  1  0.873730  0.126270  0.764460  1
  La  La3  1  0.126133  0.252265  0.264590  1
  La  La4  1  0.747735  0.873867  0.264590  1
  La  La5  1  0.126133  0.873867  0.264590  1
  La  La6  1  0.457698  0.915397  0.593957  1
  La  La7  1  0.084603  0.542302  0.593957  1
  La  La8  1  0.457698  0.542302  0.593957  1
  La  La9  1  0.542429  0.084856  0.093982  1
  La  La10  1  0.915144  0.457571  0.093982  1
  La  La11  1  0.542429  0.457571  0.093982  1
  Ho  Ho12  1  0.333333  0.666667  0.067754  1
  Tm  Tm13  1  0.666667  0.333333  0.567198  1
  Rh  Rh14  1  0.190448  0.380895  0.854672  1
  Rh  Rh15  1  0.619105  0.809552  0.854672  1
  Rh  Rh16  1  0.190448  0.809552  0.854672  1
  Rh  Rh17  1  0.809387  0.618774  0.355037  1
  Rh  Rh18  1  0.381226  0.190613  0.355037  1
  Rh  Rh19  1  0.809387  0.190613  0.355037  1
