# generated using pymatgen
data_PrGdY2(SiO5)2
_symmetry_space_group_name_H-M   'P 1'
_cell_length_a   8.11283490
_cell_length_b   8.11283319
_cell_length_c   10.73360101
_cell_angle_alpha   61.17544892
_cell_angle_beta   61.17545673
_cell_angle_gamma   50.26130571
_symmetry_Int_Tables_number   1
_chemical_formula_structural   PrGdY2(SiO5)2
_chemical_formula_sum   'Pr2 Gd2 Y4 Si4 O20'
_cell_volume   459.80914933
_cell_formula_units_Z   2
loop_
 _symmetry_equiv_pos_site_id
 _symmetry_equiv_pos_as_xyz
  1  'x, y, z'
loop_
 _atom_site_type_symbol
 _atom_site_label
 _atom_site_symmetry_multiplicity
 _atom_site_fract_x
 _atom_site_fract_y
 _atom_site_fract_z
 _atom_site_occupancy
  Pr  Pr0  1  0.213852  0.711639  0.964703  1
  Pr  Pr1  1  0.288361  0.786148  0.535297  1
  Gd  Gd2  1  0.779001  0.296171  0.032397  1
  Gd  Gd3  1  0.703829  0.220999  0.467603  1
  Y  Y4  1  0.240282  0.473654  0.337179  1
  Y  Y5  1  0.526346  0.759718  0.162821  1
  Y  Y6  1  0.765807  0.519428  0.663108  1
  Y  Y7  1  0.480572  0.234193  0.836892  1
  Si  Si8  1  0.729264  0.907259  0.306951  1
  Si  Si9  1  0.092741  0.270736  0.193049  1
  Si  Si10  1  0.272226  0.096992  0.693310  1
  Si  Si11  1  0.903008  0.727774  0.806690  1
  O  O12  1  0.427251  0.605240  0.107541  1
  O  O13  1  0.394760  0.572749  0.392459  1
  O  O14  1  0.582803  0.382881  0.893128  1
  O  O15  1  0.617119  0.417197  0.606872  1
  O  O16  1  0.870688  0.721438  0.432142  1
  O  O17  1  0.278562  0.129312  0.067858  1
  O  O18  1  0.133626  0.271342  0.566139  1
  O  O19  1  0.728658  0.866374  0.933861  1
  O  O20  1  0.563555  0.849416  0.316117  1
  O  O21  1  0.150584  0.436445  0.183883  1
  O  O22  1  0.437224  0.159679  0.677939  1
  O  O23  1  0.840321  0.562776  0.822061  1
  O  O24  1  0.161231  0.589029  0.818955  1
  O  O25  1  0.410971  0.838769  0.681045  1
  O  O26  1  0.840971  0.409315  0.171026  1
  O  O27  1  0.590685  0.159029  0.328974  1
  O  O28  1  0.902170  0.907881  0.644572  1
  O  O29  1  0.092119  0.097830  0.855428  1
  O  O30  1  0.078837  0.097427  0.356995  1
  O  O31  1  0.902573  0.921163  0.143005  1
