# generated using pymatgen
data_Tm4Co5P12(Ru3Rh2)3
_symmetry_space_group_name_H-M   'P 1'
_cell_length_a   3.81916700
_cell_length_b   10.69641301
_cell_length_c   12.26547700
_cell_angle_alpha   90.02528744
_cell_angle_beta   90.00000000
_cell_angle_gamma   90.00000000
_symmetry_Int_Tables_number   1
_chemical_formula_structural   Tm4Co5P12(Ru3Rh2)3
_chemical_formula_sum   'Tm4 Co5 P12 Ru9 Rh6'
_cell_volume   501.06170612
_cell_formula_units_Z   1
loop_
 _symmetry_equiv_pos_site_id
 _symmetry_equiv_pos_as_xyz
  1  'x, y, z'
loop_
 _atom_site_type_symbol
 _atom_site_label
 _atom_site_symmetry_multiplicity
 _atom_site_fract_x
 _atom_site_fract_y
 _atom_site_fract_z
 _atom_site_occupancy
  Tm  Tm0  1  0.250000  0.582158  0.708710  1
  Tm  Tm1  1  0.250000  0.915709  0.206385  1
  Tm  Tm2  1  0.750000  0.413506  0.293339  1
  Tm  Tm3  1  0.750000  0.087313  0.792888  1
  Co  Co4  1  0.750000  0.387666  0.801655  1
  Co  Co5  1  0.250000  0.461498  0.930976  1
  Co  Co6  1  0.250000  0.038511  0.436737  1
  Co  Co7  1  0.750000  0.536966  0.062746  1
  Co  Co8  1  0.750000  0.964702  0.564081  1
  P  P9  1  0.250000  0.420941  0.105987  1
  P  P10  1  0.250000  0.078874  0.611216  1
  P  P11  1  0.750000  0.567673  0.887471  1
  P  P12  1  0.750000  0.923230  0.392729  1
  P  P13  1  0.250000  0.269962  0.869881  1
  P  P14  1  0.250000  0.232887  0.372670  1
  P  P15  1  0.750000  0.728851  0.124736  1
  P  P16  1  0.750000  0.774066  0.630152  1
  P  P17  1  0.250000  0.594861  0.391222  1
  P  P18  1  0.250000  0.904814  0.887546  1
  P  P19  1  0.750000  0.397184  0.616278  1
  P  P20  1  0.750000  0.104636  0.107833  1
  Ru  Ru21  1  0.250000  0.715029  0.988175  1
  Ru  Ru22  1  0.250000  0.786781  0.485411  1
  Ru  Ru23  1  0.750000  0.290882  0.008190  1
  Ru  Ru24  1  0.750000  0.211797  0.514389  1
  Ru  Ru25  1  0.250000  0.406724  0.487590  1
  Ru  Ru26  1  0.250000  0.094709  0.985555  1
  Ru  Ru27  1  0.250000  0.227875  0.177929  1
  Ru  Ru28  1  0.250000  0.277412  0.681064  1
  Ru  Ru29  1  0.250000  0.886926  0.698351  1
  Rh  Rh30  1  0.750000  0.594584  0.519956  1
  Rh  Rh31  1  0.750000  0.907226  0.016796  1
  Rh  Rh32  1  0.750000  0.766350  0.822092  1
  Rh  Rh33  1  0.750000  0.728551  0.319607  1
  Rh  Rh34  1  0.250000  0.609808  0.199565  1
  Rh  Rh35  1  0.750000  0.109338  0.300094  1
