# generated using pymatgen
data_LiHoH6PtRh
_symmetry_space_group_name_H-M   'P 1'
_cell_length_a   5.10832227
_cell_length_b   5.10829245
_cell_length_c   5.10839400
_cell_angle_alpha   119.99958999
_cell_angle_beta   119.99982844
_cell_angle_gamma   90.00114764
_symmetry_Int_Tables_number   1
_chemical_formula_structural   LiHoH6PtRh
_chemical_formula_sum   'Li1 Ho1 H6 Pt1 Rh1'
_cell_volume   94.25901483
_cell_formula_units_Z   1
loop_
 _symmetry_equiv_pos_site_id
 _symmetry_equiv_pos_as_xyz
  1  'x, y, z'
loop_
 _atom_site_type_symbol
 _atom_site_label
 _atom_site_symmetry_multiplicity
 _atom_site_fract_x
 _atom_site_fract_y
 _atom_site_fract_z
 _atom_site_occupancy
  Li  Li0  1  0.249986  0.750007  0.499980  1
  Ho  Ho1  1  0.749986  0.249986  0.499987  1
  H  H2  1  0.245844  0.245847  0.000004  1
  H  H3  1  0.754158  0.245845  0.000002  1
  H  H4  1  0.754156  0.754153  0.000001  1
  H  H5  1  0.245845  0.754152  0.999996  1
  H  H6  1  0.245848  0.245841  0.491688  1
  H  H7  1  0.754160  0.754162  0.508318  1
  Pt  Pt8  1  0.500008  0.500007  0.000007  1
  Rh  Rh9  1  0.000004  0.999995  0.000014  1
