# generated using pymatgen
data_Tm4Al4OsPdPt2
_symmetry_space_group_name_H-M   'P 1'
_cell_length_a   4.30313100
_cell_length_b   6.81142397
_cell_length_c   7.87486818
_cell_angle_alpha   89.81486991
_cell_angle_beta   90.00000000
_cell_angle_gamma   90.00000000
_symmetry_Int_Tables_number   1
_chemical_formula_structural   Tm4Al4OsPdPt2
_chemical_formula_sum   'Tm4 Al4 Os1 Pd1 Pt2'
_cell_volume   230.81472230
_cell_formula_units_Z   1
loop_
 _symmetry_equiv_pos_site_id
 _symmetry_equiv_pos_as_xyz
  1  'x, y, z'
loop_
 _atom_site_type_symbol
 _atom_site_label
 _atom_site_symmetry_multiplicity
 _atom_site_fract_x
 _atom_site_fract_y
 _atom_site_fract_z
 _atom_site_occupancy
  Tm  Tm0  1  0.250000  0.471989  0.181046  1
  Tm  Tm1  1  0.750000  0.537208  0.816138  1
  Tm  Tm2  1  0.750000  0.020645  0.675942  1
  Tm  Tm3  1  0.250000  0.967142  0.323159  1
  Al  Al4  1  0.250000  0.855799  0.938115  1
  Al  Al5  1  0.750000  0.140795  0.061289  1
  Al  Al6  1  0.750000  0.643792  0.441276  1
  Al  Al7  1  0.250000  0.362218  0.559501  1
  Os  Os8  1  0.250000  0.734258  0.624248  1
  Pd  Pd9  1  0.250000  0.231232  0.879938  1
  Pt  Pt10  1  0.750000  0.267559  0.376193  1
  Pt  Pt11  1  0.750000  0.767362  0.123154  1
