# generated using pymatgen
data_Mg6Ni(B3Ir5)2
_symmetry_space_group_name_H-M   'P 1'
_cell_length_a   2.93937800
_cell_length_b   8.61602800
_cell_length_c   11.63210000
_cell_angle_alpha   90.00000000
_cell_angle_beta   90.00000000
_cell_angle_gamma   90.00000000
_symmetry_Int_Tables_number   1
_chemical_formula_structural   Mg6Ni(B3Ir5)2
_chemical_formula_sum   'Mg6 Ni1 B6 Ir10'
_cell_volume   294.59180954
_cell_formula_units_Z   1
loop_
 _symmetry_equiv_pos_site_id
 _symmetry_equiv_pos_as_xyz
  1  'x, y, z'
loop_
 _atom_site_type_symbol
 _atom_site_label
 _atom_site_symmetry_multiplicity
 _atom_site_fract_x
 _atom_site_fract_y
 _atom_site_fract_z
 _atom_site_occupancy
  Mg  Mg0  1  0.500000  0.000000  0.500000  1
  Mg  Mg1  1  0.500000  0.500000  0.000000  1
  Mg  Mg2  1  0.500000  0.655467  0.500000  1
  Mg  Mg3  1  0.500000  0.344533  0.500000  1
  Mg  Mg4  1  0.500000  0.000000  0.197611  1
  Mg  Mg5  1  0.500000  0.000000  0.802389  1
  Ni  Ni6  1  0.000000  0.000000  0.000000  1
  B  B7  1  0.500000  0.823984  0.000000  1
  B  B8  1  0.500000  0.176016  0.000000  1
  B  B9  1  0.500000  0.687467  0.267430  1
  B  B10  1  0.500000  0.312533  0.267430  1
  B  B11  1  0.500000  0.312533  0.732570  1
  B  B12  1  0.500000  0.687467  0.732570  1
  Ir  Ir13  1  0.000000  0.500000  0.306011  1
  Ir  Ir14  1  0.000000  0.500000  0.693989  1
  Ir  Ir15  1  0.000000  0.729256  0.120765  1
  Ir  Ir16  1  0.000000  0.270744  0.120765  1
  Ir  Ir17  1  0.000000  0.270744  0.879235  1
  Ir  Ir18  1  0.000000  0.729256  0.879235  1
  Ir  Ir19  1  0.000000  0.827099  0.351695  1
  Ir  Ir20  1  0.000000  0.172901  0.351695  1
  Ir  Ir21  1  0.000000  0.172901  0.648305  1
  Ir  Ir22  1  0.000000  0.827099  0.648305  1
