# generated using pymatgen
data_CaPr2Ni9
_symmetry_space_group_name_H-M   'P 1'
_cell_length_a   8.72352080
_cell_length_b   8.72352091
_cell_length_c   8.72352103
_cell_angle_alpha   33.56207333
_cell_angle_beta   33.56207154
_cell_angle_gamma   33.56207501
_symmetry_Int_Tables_number   1
_chemical_formula_structural   CaPr2Ni9
_chemical_formula_sum   'Ca1 Pr2 Ni9'
_cell_volume   180.72606592
_cell_formula_units_Z   1
loop_
 _symmetry_equiv_pos_site_id
 _symmetry_equiv_pos_as_xyz
  1  'x, y, z'
loop_
 _atom_site_type_symbol
 _atom_site_label
 _atom_site_symmetry_multiplicity
 _atom_site_fract_x
 _atom_site_fract_y
 _atom_site_fract_z
 _atom_site_occupancy
  Ca  Ca0  1  0.860641  0.860641  0.860641  1
  Pr  Pr1  1  0.141273  0.141273  0.141273  1
  Pr  Pr2  1  0.998286  0.998286  0.998286  1
  Ni  Ni3  1  0.419979  0.916793  0.419979  1
  Ni  Ni4  1  0.419979  0.419979  0.916793  1
  Ni  Ni5  1  0.916793  0.419979  0.419979  1
  Ni  Ni6  1  0.579966  0.082550  0.579966  1
  Ni  Ni7  1  0.579966  0.579966  0.082550  1
  Ni  Ni8  1  0.082550  0.579966  0.579966  1
  Ni  Ni9  1  0.667610  0.667610  0.667610  1
  Ni  Ni10  1  0.332322  0.332322  0.332322  1
  Ni  Ni11  1  0.500633  0.500633  0.500633  1
