# generated using pymatgen
data_Ac4Zn7Ga
_symmetry_space_group_name_H-M   'P 1'
_cell_length_a   4.78726300
_cell_length_b   7.91404437
_cell_length_c   7.85517517
_cell_angle_alpha   90.33053862
_cell_angle_beta   90.00000000
_cell_angle_gamma   90.00000000
_symmetry_Int_Tables_number   1
_chemical_formula_structural   Ac4Zn7Ga
_chemical_formula_sum   'Ac4 Zn7 Ga1'
_cell_volume   297.60102008
_cell_formula_units_Z   1
loop_
 _symmetry_equiv_pos_site_id
 _symmetry_equiv_pos_as_xyz
  1  'x, y, z'
loop_
 _atom_site_type_symbol
 _atom_site_label
 _atom_site_symmetry_multiplicity
 _atom_site_fract_x
 _atom_site_fract_y
 _atom_site_fract_z
 _atom_site_occupancy
  Ac  Ac0  1  0.250000  0.997226  0.293094  1
  Ac  Ac1  1  0.250000  0.504681  0.207187  1
  Ac  Ac2  1  0.750000  0.999860  0.711910  1
  Ac  Ac3  1  0.750000  0.501105  0.788436  1
  Zn  Zn4  1  0.250000  0.192862  0.916344  1
  Zn  Zn5  1  0.250000  0.690190  0.585691  1
  Zn  Zn6  1  0.750000  0.808807  0.084805  1
  Zn  Zn7  1  0.250000  0.307693  0.585369  1
  Zn  Zn8  1  0.250000  0.810152  0.915208  1
  Zn  Zn9  1  0.750000  0.688000  0.414638  1
  Zn  Zn10  1  0.750000  0.192600  0.085640  1
  Ga  Ga11  1  0.750000  0.306824  0.411676  1
