# generated using pymatgen
data_Lu4Al4Ni3Ru
_symmetry_space_group_name_H-M   'P 1'
_cell_length_a   4.10936300
_cell_length_b   6.66092784
_cell_length_c   7.75968799
_cell_angle_alpha   89.53759521
_cell_angle_beta   90.00000000
_cell_angle_gamma   90.00000000
_symmetry_Int_Tables_number   1
_chemical_formula_structural   Lu4Al4Ni3Ru
_chemical_formula_sum   'Lu4 Al4 Ni3 Ru1'
_cell_volume   212.39258498
_cell_formula_units_Z   1
loop_
 _symmetry_equiv_pos_site_id
 _symmetry_equiv_pos_as_xyz
  1  'x, y, z'
loop_
 _atom_site_type_symbol
 _atom_site_label
 _atom_site_symmetry_multiplicity
 _atom_site_fract_x
 _atom_site_fract_y
 _atom_site_fract_z
 _atom_site_occupancy
  Lu  Lu0  1  0.250000  0.030932  0.677498  1
  Lu  Lu1  1  0.250000  0.534586  0.822357  1
  Lu  Lu2  1  0.750000  0.966606  0.323830  1
  Lu  Lu3  1  0.750000  0.465103  0.176638  1
  Al  Al4  1  0.250000  0.136390  0.052569  1
  Al  Al5  1  0.250000  0.640889  0.443616  1
  Al  Al6  1  0.750000  0.863017  0.940973  1
  Al  Al7  1  0.750000  0.365114  0.561282  1
  Ni  Ni8  1  0.250000  0.770476  0.122392  1
  Ni  Ni9  1  0.750000  0.733638  0.633458  1
  Ni  Ni10  1  0.750000  0.232836  0.873409  1
  Ru  Ru11  1  0.250000  0.260415  0.371977  1
