# generated using pymatgen
data_Tb15Th(CdNi)4
_symmetry_space_group_name_H-M   'P 1'
_cell_length_a   9.60336191
_cell_length_b   9.60336199
_cell_length_c   9.60336203
_cell_angle_alpha   59.99228450
_cell_angle_beta   59.99228142
_cell_angle_gamma   59.99228589
_symmetry_Int_Tables_number   1
_chemical_formula_structural   Tb15Th(CdNi)4
_chemical_formula_sum   'Tb15 Th1 Cd4 Ni4'
_cell_volume   626.15076060
_cell_formula_units_Z   1
loop_
 _symmetry_equiv_pos_site_id
 _symmetry_equiv_pos_as_xyz
  1  'x, y, z'
loop_
 _atom_site_type_symbol
 _atom_site_label
 _atom_site_symmetry_multiplicity
 _atom_site_fract_x
 _atom_site_fract_y
 _atom_site_fract_z
 _atom_site_occupancy
  Tb  Tb0  1  0.348072  0.348072  0.952405  1
  Tb  Tb1  1  0.348072  0.952405  0.348072  1
  Tb  Tb2  1  0.952405  0.348072  0.348072  1
  Tb  Tb3  1  0.812651  0.189393  0.189393  1
  Tb  Tb4  1  0.189362  0.811471  0.811471  1
  Tb  Tb5  1  0.189393  0.812651  0.189393  1
  Tb  Tb6  1  0.811471  0.189362  0.811471  1
  Tb  Tb7  1  0.189393  0.189393  0.812651  1
  Tb  Tb8  1  0.811471  0.811471  0.189362  1
  Tb  Tb9  1  0.938464  0.564372  0.564372  1
  Tb  Tb10  1  0.562577  0.935990  0.935990  1
  Tb  Tb11  1  0.564372  0.938464  0.564372  1
  Tb  Tb12  1  0.935990  0.562577  0.935990  1
  Tb  Tb13  1  0.564372  0.564372  0.938464  1
  Tb  Tb14  1  0.935990  0.935990  0.562577  1
  Th  Th15  1  0.344336  0.344336  0.344336  1
  Cd  Cd16  1  0.580469  0.580469  0.580469  1
  Cd  Cd17  1  0.581985  0.581985  0.256154  1
  Cd  Cd18  1  0.581985  0.256154  0.581985  1
  Cd  Cd19  1  0.256154  0.581985  0.581985  1
  Ni  Ni20  1  0.142663  0.142663  0.142663  1
  Ni  Ni21  1  0.143929  0.143929  0.570494  1
  Ni  Ni22  1  0.143929  0.570494  0.143929  1
  Ni  Ni23  1  0.570494  0.143929  0.143929  1
