# generated using pymatgen
data_Zr16Nb3Si16Tc
_symmetry_space_group_name_H-M   'P 1'
_cell_length_a   7.05777780
_cell_length_b   7.05777780
_cell_length_c   12.92180396
_cell_angle_alpha   89.86502031
_cell_angle_beta   90.13497969
_cell_angle_gamma   89.94187266
_symmetry_Int_Tables_number   1
_chemical_formula_structural   Zr16Nb3Si16Tc
_chemical_formula_sum   'Zr16 Nb3 Si16 Tc1'
_cell_volume   643.65993165
_cell_formula_units_Z   1
loop_
 _symmetry_equiv_pos_site_id
 _symmetry_equiv_pos_as_xyz
  1  'x, y, z'
loop_
 _atom_site_type_symbol
 _atom_site_label
 _atom_site_symmetry_multiplicity
 _atom_site_fract_x
 _atom_site_fract_y
 _atom_site_fract_z
 _atom_site_occupancy
  Zr  Zr0  1  0.354680  0.504223  0.377780  1
  Zr  Zr1  1  0.856381  0.998069  0.374799  1
  Zr  Zr2  1  0.003238  0.143933  0.126259  1
  Zr  Zr3  1  0.998069  0.856381  0.625201  1
  Zr  Zr4  1  0.644308  0.498890  0.874639  1
  Zr  Zr5  1  0.504223  0.354680  0.622220  1
  Zr  Zr6  1  0.498890  0.644308  0.125361  1
  Zr  Zr7  1  0.143933  0.003238  0.873741  1
  Zr  Zr8  1  0.998370  0.650586  0.034622  1
  Zr  Zr9  1  0.003766  0.348267  0.532248  1
  Zr  Zr10  1  0.650586  0.998370  0.965378  1
  Zr  Zr11  1  0.150286  0.502140  0.782825  1
  Zr  Zr12  1  0.849425  0.499635  0.283825  1
  Zr  Zr13  1  0.502140  0.150286  0.217175  1
  Zr  Zr14  1  0.499635  0.849425  0.716175  1
  Zr  Zr15  1  0.348267  0.003766  0.467752  1
  Nb  Nb16  1  0.823435  0.174580  0.748496  1
  Nb  Nb17  1  0.174580  0.823435  0.251504  1
  Nb  Nb18  1  0.325292  0.325292  0.000000  1
  Si  Si19  1  0.044193  0.698227  0.436867  1
  Si  Si20  1  0.949711  0.300859  0.935207  1
  Si  Si21  1  0.698227  0.044193  0.563133  1
  Si  Si22  1  0.199028  0.451273  0.186010  1
  Si  Si23  1  0.798073  0.553547  0.682524  1
  Si  Si24  1  0.451273  0.199028  0.813990  1
  Si  Si25  1  0.553547  0.798073  0.317476  1
  Si  Si26  1  0.300859  0.949711  0.064793  1
  Si  Si27  1  0.853323  0.796080  0.820753  1
  Si  Si28  1  0.147960  0.203319  0.321551  1
  Si  Si29  1  0.796080  0.853323  0.179247  1
  Si  Si30  1  0.297760  0.647867  0.572115  1
  Si  Si31  1  0.703542  0.352244  0.071072  1
  Si  Si32  1  0.647867  0.297760  0.427885  1
  Si  Si33  1  0.352244  0.703542  0.928928  1
  Si  Si34  1  0.203319  0.147960  0.678449  1
  Tc  Tc35  1  0.673487  0.673487  0.500000  1
