# generated using pymatgen
data_Dy5Mg3(Ni4P3)4
_symmetry_space_group_name_H-M   'P 1'
_cell_length_a   12.23136900
_cell_length_b   12.23136951
_cell_length_c   3.79235400
_cell_angle_alpha   90.00000000
_cell_angle_beta   90.00000000
_cell_angle_gamma   120.00000673
_symmetry_Int_Tables_number   1
_chemical_formula_structural   Dy5Mg3(Ni4P3)4
_chemical_formula_sum   'Dy5 Mg3 Ni16 P12'
_cell_volume   491.34849149
_cell_formula_units_Z   1
loop_
 _symmetry_equiv_pos_site_id
 _symmetry_equiv_pos_as_xyz
  1  'x, y, z'
loop_
 _atom_site_type_symbol
 _atom_site_label
 _atom_site_symmetry_multiplicity
 _atom_site_fract_x
 _atom_site_fract_y
 _atom_site_fract_z
 _atom_site_occupancy
  Dy  Dy0  1  0.186093  0.186093  0.500000  1
  Dy  Dy1  1  0.813907  0.000000  0.500000  1
  Dy  Dy2  1  0.000000  0.813907  0.500000  1
  Dy  Dy3  1  0.333333  0.666667  0.000000  1
  Dy  Dy4  1  0.666667  0.333333  0.000000  1
  Mg  Mg5  1  0.562998  0.562998  0.000000  1
  Mg  Mg6  1  0.437002  0.000000  0.000000  1
  Mg  Mg7  1  0.000000  0.437002  0.000000  1
  Ni  Ni8  1  0.719318  0.719318  0.500000  1
  Ni  Ni9  1  0.280682  0.000000  0.500000  1
  Ni  Ni10  1  0.000000  0.280682  0.500000  1
  Ni  Ni11  1  0.183689  0.379189  0.000000  1
  Ni  Ni12  1  0.620811  0.804500  0.000000  1
  Ni  Ni13  1  0.195500  0.816311  0.000000  1
  Ni  Ni14  1  0.804500  0.620811  0.000000  1
  Ni  Ni15  1  0.816311  0.195500  0.000000  1
  Ni  Ni16  1  0.379189  0.183689  0.000000  1
  Ni  Ni17  1  0.363928  0.485350  0.500000  1
  Ni  Ni18  1  0.514650  0.878579  0.500000  1
  Ni  Ni19  1  0.121421  0.636072  0.500000  1
  Ni  Ni20  1  0.878579  0.514650  0.500000  1
  Ni  Ni21  1  0.636072  0.121421  0.500000  1
  Ni  Ni22  1  0.485350  0.363928  0.500000  1
  Ni  Ni23  1  0.000000  0.000000  0.000000  1
  P  P24  1  0.822628  0.822628  0.000000  1
  P  P25  1  0.177372  0.000000  0.000000  1
  P  P26  1  0.000000  0.177372  0.000000  1
  P  P27  1  0.172934  0.477132  0.500000  1
  P  P28  1  0.522868  0.695801  0.500000  1
  P  P29  1  0.304199  0.827066  0.500000  1
  P  P30  1  0.695801  0.522868  0.500000  1
  P  P31  1  0.827066  0.304199  0.500000  1
  P  P32  1  0.477132  0.172934  0.500000  1
  P  P33  1  0.358176  0.358176  0.000000  1
  P  P34  1  0.641824  0.000000  0.000000  1
  P  P35  1  0.000000  0.641824  0.000000  1
