# generated using pymatgen
data_Er3Al2GaNi3
_symmetry_space_group_name_H-M   'P 1'
_cell_length_a   6.99698900
_cell_length_b   6.95146809
_cell_length_c   3.78266200
_cell_angle_alpha   90.00000000
_cell_angle_beta   90.00000000
_cell_angle_gamma   120.21685163
_symmetry_Int_Tables_number   1
_chemical_formula_structural   Er3Al2GaNi3
_chemical_formula_sum   'Er3 Al2 Ga1 Ni3'
_cell_volume   158.98741378
_cell_formula_units_Z   1
loop_
 _symmetry_equiv_pos_site_id
 _symmetry_equiv_pos_as_xyz
  1  'x, y, z'
loop_
 _atom_site_type_symbol
 _atom_site_label
 _atom_site_symmetry_multiplicity
 _atom_site_fract_x
 _atom_site_fract_y
 _atom_site_fract_z
 _atom_site_occupancy
  Er  Er0  1  0.417931  0.000000  0.500000  1
  Er  Er1  1  0.999151  0.412919  0.500000  1
  Er  Er2  1  0.586232  0.587081  0.500000  1
  Al  Al3  1  0.000951  0.761805  0.000000  1
  Al  Al4  1  0.239146  0.238195  0.000000  1
  Ga  Ga5  1  0.756201  0.000000  0.000000  1
  Ni  Ni6  1  0.330808  0.664494  0.000000  1
  Ni  Ni7  1  0.666315  0.335506  0.000000  1
  Ni  Ni8  1  0.003263  0.000000  0.500000  1
