# generated using pymatgen
data_La2Nd3(Sn5Rh2)2
_symmetry_space_group_name_H-M   'P 1'
_cell_length_a   14.30347300
_cell_length_b   14.30347300
_cell_length_c   4.63289100
_cell_angle_alpha   90.00000000
_cell_angle_beta   90.00000000
_cell_angle_gamma   90.00000000
_symmetry_Int_Tables_number   1
_chemical_formula_structural   La2Nd3(Sn5Rh2)2
_chemical_formula_sum   'La4 Nd6 Sn20 Rh8'
_cell_volume   947.84011134
_cell_formula_units_Z   2
loop_
 _symmetry_equiv_pos_site_id
 _symmetry_equiv_pos_as_xyz
  1  'x, y, z'
loop_
 _atom_site_type_symbol
 _atom_site_label
 _atom_site_symmetry_multiplicity
 _atom_site_fract_x
 _atom_site_fract_y
 _atom_site_fract_z
 _atom_site_occupancy
  La  La0  1  0.888456  0.388456  0.500000  1
  La  La1  1  0.111544  0.611544  0.500000  1
  La  La2  1  0.388456  0.111544  0.500000  1
  La  La3  1  0.611544  0.888456  0.500000  1
  Nd  Nd4  1  0.500000  0.500000  0.000000  1
  Nd  Nd5  1  0.000000  0.000000  0.000000  1
  Nd  Nd6  1  0.678073  0.178073  0.500000  1
  Nd  Nd7  1  0.321927  0.821927  0.500000  1
  Nd  Nd8  1  0.178073  0.321927  0.500000  1
  Nd  Nd9  1  0.821927  0.678073  0.500000  1
  Sn  Sn10  1  0.570109  0.070109  0.000000  1
  Sn  Sn11  1  0.429891  0.929891  0.000000  1
  Sn  Sn12  1  0.070109  0.429891  0.000000  1
  Sn  Sn13  1  0.929891  0.570109  0.000000  1
  Sn  Sn14  1  0.653822  0.697632  0.000000  1
  Sn  Sn15  1  0.346178  0.302368  0.000000  1
  Sn  Sn16  1  0.153822  0.802368  0.000000  1
  Sn  Sn17  1  0.846178  0.197632  0.000000  1
  Sn  Sn18  1  0.302368  0.653822  0.000000  1
  Sn  Sn19  1  0.697632  0.346178  0.000000  1
  Sn  Sn20  1  0.197632  0.153822  0.000000  1
  Sn  Sn21  1  0.802368  0.846178  0.000000  1
  Sn  Sn22  1  0.663525  0.504871  0.500000  1
  Sn  Sn23  1  0.336475  0.495129  0.500000  1
  Sn  Sn24  1  0.163525  0.995129  0.500000  1
  Sn  Sn25  1  0.836475  0.004871  0.500000  1
  Sn  Sn26  1  0.495129  0.663525  0.500000  1
  Sn  Sn27  1  0.504871  0.336475  0.500000  1
  Sn  Sn28  1  0.004871  0.163525  0.500000  1
  Sn  Sn29  1  0.995129  0.836475  0.500000  1
  Rh  Rh30  1  0.745745  0.528207  0.000000  1
  Rh  Rh31  1  0.254255  0.471793  0.000000  1
  Rh  Rh32  1  0.245745  0.971793  0.000000  1
  Rh  Rh33  1  0.754255  0.028207  0.000000  1
  Rh  Rh34  1  0.471793  0.745745  0.000000  1
  Rh  Rh35  1  0.528207  0.254255  0.000000  1
  Rh  Rh36  1  0.028207  0.245745  0.000000  1
  Rh  Rh37  1  0.971793  0.754255  0.000000  1
