# generated using pymatgen
data_DyPaCo3Si5
_symmetry_space_group_name_H-M   'P 1'
_cell_length_a   5.59150637
_cell_length_b   7.82306176
_cell_length_c   7.88094582
_cell_angle_alpha   75.30321090
_cell_angle_beta   69.22196804
_cell_angle_gamma   69.06103686
_symmetry_Int_Tables_number   1
_chemical_formula_structural   DyPaCo3Si5
_chemical_formula_sum   'Dy2 Pa2 Co6 Si10'
_cell_volume   297.83093140
_cell_formula_units_Z   2
loop_
 _symmetry_equiv_pos_site_id
 _symmetry_equiv_pos_as_xyz
  1  'x, y, z'
loop_
 _atom_site_type_symbol
 _atom_site_label
 _atom_site_symmetry_multiplicity
 _atom_site_fract_x
 _atom_site_fract_y
 _atom_site_fract_z
 _atom_site_occupancy
  Dy  Dy0  1  0.366642  0.399994  0.866723  1
  Dy  Dy1  1  0.633358  0.600006  0.133277  1
  Pa  Pa2  1  0.867122  0.868428  0.397328  1
  Pa  Pa3  1  0.132878  0.131572  0.602672  1
  Co  Co4  1  0.244392  0.000000  0.000000  1
  Co  Co5  1  0.755608  0.000000  0.000000  1
  Co  Co6  1  0.641650  0.239084  0.477616  1
  Co  Co7  1  0.358350  0.760916  0.522384  1
  Co  Co8  1  0.133260  0.478881  0.254598  1
  Co  Co9  1  0.866740  0.521119  0.745402  1
  Si  Si10  1  0.255527  0.500000  0.500000  1
  Si  Si11  1  0.744473  0.500000  0.500000  1
  Si  Si12  1  0.021233  0.233850  0.230249  1
  Si  Si13  1  0.485332  0.766150  0.769751  1
  Si  Si14  1  0.978767  0.766150  0.769751  1
  Si  Si15  1  0.514668  0.233850  0.230249  1
  Si  Si16  1  0.601009  0.048996  0.748988  1
  Si  Si17  1  0.398991  0.951004  0.251012  1
  Si  Si18  1  0.105865  0.738901  0.049369  1
  Si  Si19  1  0.894135  0.261099  0.950631  1
