# generated using pymatgen
data_Tb3Sm(WN3)4
_symmetry_space_group_name_H-M   'P 1'
_cell_length_a   7.38699193
_cell_length_b   7.38699220
_cell_length_c   6.32848846
_cell_angle_alpha   73.84138210
_cell_angle_beta   73.84137533
_cell_angle_gamma   82.11970284
_symmetry_Int_Tables_number   1
_chemical_formula_structural   Tb3Sm(WN3)4
_chemical_formula_sum   'Tb3 Sm1 W4 N12'
_cell_volume   317.91831997
_cell_formula_units_Z   1
loop_
 _symmetry_equiv_pos_site_id
 _symmetry_equiv_pos_as_xyz
  1  'x, y, z'
loop_
 _atom_site_type_symbol
 _atom_site_label
 _atom_site_symmetry_multiplicity
 _atom_site_fract_x
 _atom_site_fract_y
 _atom_site_fract_z
 _atom_site_occupancy
  Tb  Tb0  1  0.091644  0.908356  0.750000  1
  Tb  Tb1  1  0.290170  0.709830  0.250000  1
  Tb  Tb2  1  0.910461  0.089539  0.250000  1
  Sm  Sm3  1  0.707793  0.292207  0.750000  1
  W  W4  1  0.378831  0.201157  0.231074  1
  W  W5  1  0.620014  0.798690  0.770762  1
  W  W6  1  0.798843  0.621169  0.268926  1
  W  W7  1  0.201310  0.379986  0.729238  1
  N  N8  1  0.622401  0.113160  0.163758  1
  N  N9  1  0.346933  0.363855  0.435706  1
  N  N10  1  0.004528  0.216968  0.847243  1
  N  N11  1  0.376706  0.887747  0.840886  1
  N  N12  1  0.783032  0.995472  0.652757  1
  N  N13  1  0.112253  0.623294  0.659114  1
  N  N14  1  0.886840  0.377599  0.336242  1
  N  N15  1  0.653110  0.639583  0.561651  1
  N  N16  1  0.636145  0.653067  0.064294  1
  N  N17  1  0.360417  0.346890  0.938349  1
  N  N18  1  0.999189  0.780625  0.152988  1
  N  N19  1  0.219375  0.000811  0.347012  1
