# generated using pymatgen
data_Rb2EuReN4
_symmetry_space_group_name_H-M   'P 1'
_cell_length_a   11.12908028
_cell_length_b   10.78521386
_cell_length_c   8.25347300
_cell_angle_alpha   70.10473582
_cell_angle_beta   65.68038789
_cell_angle_gamma   44.21486691
_symmetry_Int_Tables_number   1
_chemical_formula_structural   Rb2EuReN4
_chemical_formula_sum   'Rb8 Eu4 Re4 N16'
_cell_volume   627.94490356
_cell_formula_units_Z   4
loop_
 _symmetry_equiv_pos_site_id
 _symmetry_equiv_pos_as_xyz
  1  'x, y, z'
loop_
 _atom_site_type_symbol
 _atom_site_label
 _atom_site_symmetry_multiplicity
 _atom_site_fract_x
 _atom_site_fract_y
 _atom_site_fract_z
 _atom_site_occupancy
  Rb  Rb0  1  0.561526  0.938474  0.938474  1
  Rb  Rb1  1  0.938474  0.561526  0.561526  1
  Rb  Rb2  1  0.311526  0.688474  0.688474  1
  Rb  Rb3  1  0.109096  0.109096  0.890904  1
  Rb  Rb4  1  0.140904  0.140904  0.359096  1
  Rb  Rb5  1  0.359096  0.359096  0.140904  1
  Rb  Rb6  1  0.688474  0.311526  0.311526  1
  Rb  Rb7  1  0.890904  0.890904  0.109096  1
  Eu  Eu8  1  0.341961  0.341961  0.658039  1
  Eu  Eu9  1  0.908039  0.908039  0.591961  1
  Eu  Eu10  1  0.658039  0.658039  0.341961  1
  Eu  Eu11  1  0.591961  0.591961  0.908039  1
  Re  Re12  1  0.504205  0.995795  0.504205  1
  Re  Re13  1  0.995795  0.504205  0.995795  1
  Re  Re14  1  0.745795  0.254205  0.745795  1
  Re  Re15  1  0.254205  0.745795  0.254205  1
  N  N16  1  0.009001  0.654000  0.813153  1
  N  N17  1  0.693082  0.300567  0.970004  1
  N  N18  1  0.654000  0.009001  0.523846  1
  N  N19  1  0.523846  0.813153  0.654000  1
  N  N20  1  0.240999  0.596000  0.436847  1
  N  N21  1  0.726154  0.436847  0.596000  1
  N  N22  1  0.970004  0.036347  0.693082  1
  N  N23  1  0.556918  0.949433  0.279996  1
  N  N24  1  0.436847  0.726154  0.240999  1
  N  N25  1  0.949433  0.556918  0.213653  1
  N  N26  1  0.300567  0.693082  0.036347  1
  N  N27  1  0.813153  0.523846  0.009001  1
  N  N28  1  0.213653  0.279996  0.949433  1
  N  N29  1  0.596000  0.240999  0.726154  1
  N  N30  1  0.279996  0.213653  0.556918  1
  N  N31  1  0.036347  0.970004  0.300567  1
