# generated using pymatgen
data_CePr3Re4F28
_symmetry_space_group_name_H-M   'P 1'
_cell_length_a   5.79329240
_cell_length_b   9.28975691
_cell_length_c   12.44092109
_cell_angle_alpha   62.00631433
_cell_angle_beta   89.95970102
_cell_angle_gamma   89.98838679
_symmetry_Int_Tables_number   1
_chemical_formula_structural   CePr3Re4F28
_chemical_formula_sum   'Ce1 Pr3 Re4 F28'
_cell_volume   591.21111994
_cell_formula_units_Z   1
loop_
 _symmetry_equiv_pos_site_id
 _symmetry_equiv_pos_as_xyz
  1  'x, y, z'
loop_
 _atom_site_type_symbol
 _atom_site_label
 _atom_site_symmetry_multiplicity
 _atom_site_fract_x
 _atom_site_fract_y
 _atom_site_fract_z
 _atom_site_occupancy
  Ce  Ce0  1  0.757971  0.812747  0.764415  1
  Pr  Pr1  1  0.257638  0.189276  0.735398  1
  Pr  Pr2  1  0.241796  0.188554  0.235158  1
  Pr  Pr3  1  0.741757  0.811514  0.264667  1
  Re  Re4  1  0.755747  0.274253  0.957200  1
  Re  Re5  1  0.255766  0.725568  0.542918  1
  Re  Re6  1  0.244190  0.725887  0.042967  1
  Re  Re7  1  0.744181  0.274534  0.457007  1
  F  F8  1  0.446022  0.708522  0.921003  1
  F  F9  1  0.946522  0.290963  0.579423  1
  F  F10  1  0.553583  0.291037  0.079259  1
  F  F11  1  0.053595  0.708908  0.420695  1
  F  F12  1  0.462718  0.284999  0.544883  1
  F  F13  1  0.962442  0.714910  0.955852  1
  F  F14  1  0.537298  0.714664  0.455417  1
  F  F15  1  0.037420  0.285410  0.044301  1
  F  F16  1  0.763962  0.514862  0.860112  1
  F  F17  1  0.262954  0.484497  0.639959  1
  F  F18  1  0.236978  0.485059  0.139878  1
  F  F19  1  0.737019  0.515021  0.360274  1
  F  F20  1  0.760985  0.033417  0.051844  1
  F  F21  1  0.260876  0.966314  0.448105  1
  F  F22  1  0.239203  0.967156  0.947551  1
  F  F23  1  0.739130  0.033757  0.551462  1
  F  F24  1  0.981549  0.731649  0.635946  1
  F  F25  1  0.481624  0.268182  0.863892  1
  F  F26  1  0.017995  0.268406  0.364002  1
  F  F27  1  0.518709  0.731417  0.136066  1
  F  F28  1  0.046124  0.742143  0.167321  1
  F  F29  1  0.546506  0.257867  0.332900  1
  F  F30  1  0.953727  0.257596  0.832906  1
  F  F31  1  0.454000  0.742550  0.667203  1
  F  F32  1  0.412240  0.968504  0.230737  1
  F  F33  1  0.912345  0.031850  0.268986  1
  F  F34  1  0.588870  0.030406  0.769020  1
  F  F35  1  0.086557  0.967602  0.731275  1
