# generated using pymatgen
data_TbDy2(In2Ru)2
_symmetry_space_group_name_H-M   'P 1'
_cell_length_a   8.04658401
_cell_length_b   8.04782255
_cell_length_c   3.65763800
_cell_angle_alpha   90.00000000
_cell_angle_beta   90.00000000
_cell_angle_gamma   120.00092274
_symmetry_Int_Tables_number   1
_chemical_formula_structural   TbDy2(In2Ru)2
_chemical_formula_sum   'Tb1 Dy2 In4 Ru2'
_cell_volume   205.12436811
_cell_formula_units_Z   1
loop_
 _symmetry_equiv_pos_site_id
 _symmetry_equiv_pos_as_xyz
  1  'x, y, z'
loop_
 _atom_site_type_symbol
 _atom_site_label
 _atom_site_symmetry_multiplicity
 _atom_site_fract_x
 _atom_site_fract_y
 _atom_site_fract_z
 _atom_site_occupancy
  Tb  Tb0  1  0.040825  0.294293  0.500000  1
  Dy  Dy1  1  0.705828  0.746532  0.500000  1
  Dy  Dy2  1  0.253447  0.959266  0.500000  1
  In  In3  1  0.664739  0.067768  0.000000  1
  In  In4  1  0.932134  0.597073  0.000000  1
  In  In5  1  0.403059  0.335126  0.000000  1
  In  In6  1  0.333398  0.666770  0.000000  1
  Ru  Ru7  1  0.666600  0.333326  0.500000  1
  Ru  Ru8  1  0.999971  0.999845  0.000000  1
