# generated using pymatgen
data_Sr6Sn8BiI
_symmetry_space_group_name_H-M   'P 1'
_cell_length_a   9.11134645
_cell_length_b   9.11134638
_cell_length_c   9.11134728
_cell_angle_alpha   120.49617724
_cell_angle_beta   120.49617499
_cell_angle_gamma   89.14272613
_symmetry_Int_Tables_number   1
_chemical_formula_structural   Sr6Sn8BiI
_chemical_formula_sum   'Sr6 Sn8 Bi1 I1'
_cell_volume   530.77524134
_cell_formula_units_Z   1
loop_
 _symmetry_equiv_pos_site_id
 _symmetry_equiv_pos_as_xyz
  1  'x, y, z'
loop_
 _atom_site_type_symbol
 _atom_site_label
 _atom_site_symmetry_multiplicity
 _atom_site_fract_x
 _atom_site_fract_y
 _atom_site_fract_z
 _atom_site_occupancy
  Sr  Sr0  1  0.252768  0.252768  0.000000  1
  Sr  Sr1  1  0.747232  0.747232  0.000000  1
  Sr  Sr2  1  0.166411  0.656250  0.822662  1
  Sr  Sr3  1  0.833589  0.343750  0.177338  1
  Sr  Sr4  1  0.656250  0.833589  0.489838  1
  Sr  Sr5  1  0.343750  0.166411  0.510162  1
  Sn  Sn6  1  0.831525  0.332287  0.784510  1
  Sn  Sn7  1  0.168475  0.667713  0.215490  1
  Sn  Sn8  1  0.547777  0.047016  0.215490  1
  Sn  Sn9  1  0.332287  0.547777  0.500761  1
  Sn  Sn10  1  0.952984  0.168475  0.500761  1
  Sn  Sn11  1  0.452223  0.952984  0.784510  1
  Sn  Sn12  1  0.667713  0.452223  0.499239  1
  Sn  Sn13  1  0.047016  0.831525  0.499239  1
  Bi  Bi14  1  0.500000  0.500000  0.000000  1
  I  I15  1  0.000000  0.000000  0.000000  1
