# generated using pymatgen
data_SmTh2Ga2PdPt3
_symmetry_space_group_name_H-M   'P 1'
_cell_length_a   7.37130815
_cell_length_b   7.37130861
_cell_length_c   3.91643100
_cell_angle_alpha   90.00000000
_cell_angle_beta   90.00000000
_cell_angle_gamma   116.44467048
_symmetry_Int_Tables_number   1
_chemical_formula_structural   SmTh2Ga2PdPt3
_chemical_formula_sum   'Sm1 Th2 Ga2 Pd1 Pt3'
_cell_volume   190.53715292
_cell_formula_units_Z   1
loop_
 _symmetry_equiv_pos_site_id
 _symmetry_equiv_pos_as_xyz
  1  'x, y, z'
loop_
 _atom_site_type_symbol
 _atom_site_label
 _atom_site_symmetry_multiplicity
 _atom_site_fract_x
 _atom_site_fract_y
 _atom_site_fract_z
 _atom_site_occupancy
  Sm  Sm0  1  0.409554  0.409554  0.500000  1
  Th  Th1  1  0.600039  0.983159  0.500000  1
  Th  Th2  1  0.983159  0.600039  0.500000  1
  Ga  Ga3  1  0.252726  0.007270  0.000000  1
  Ga  Ga4  1  0.007270  0.252726  0.000000  1
  Pd  Pd5  1  0.744017  0.744017  0.000000  1
  Pt  Pt6  1  0.665330  0.309360  0.000000  1
  Pt  Pt7  1  0.309360  0.665330  0.000000  1
  Pt  Pt8  1  0.028544  0.028544  0.500000  1
