# generated using pymatgen
data_Tb2Y4LuCo17P12
_symmetry_space_group_name_H-M   'P 1'
_cell_length_a   3.72679400
_cell_length_b   10.62744300
_cell_length_c   12.36618700
_cell_angle_alpha   90.00000000
_cell_angle_beta   90.00000000
_cell_angle_gamma   90.00000000
_symmetry_Int_Tables_number   1
_chemical_formula_structural   Tb2Y4LuCo17P12
_chemical_formula_sum   'Tb2 Y4 Lu1 Co17 P12'
_cell_volume   489.77879850
_cell_formula_units_Z   1
loop_
 _symmetry_equiv_pos_site_id
 _symmetry_equiv_pos_as_xyz
  1  'x, y, z'
loop_
 _atom_site_type_symbol
 _atom_site_label
 _atom_site_symmetry_multiplicity
 _atom_site_fract_x
 _atom_site_fract_y
 _atom_site_fract_z
 _atom_site_occupancy
  Tb  Tb0  1  0.000000  0.500000  0.530848  1
  Tb  Tb1  1  0.500000  0.000000  0.477843  1
  Y  Y2  1  0.500000  0.821998  0.207646  1
  Y  Y3  1  0.500000  0.178002  0.207646  1
  Y  Y4  1  0.000000  0.683497  0.795257  1
  Y  Y5  1  0.000000  0.316503  0.795257  1
  Lu  Lu6  1  0.500000  0.500000  0.154360  1
  Co  Co7  1  0.000000  0.000000  0.835325  1
  Co  Co8  1  0.500000  0.500000  0.703290  1
  Co  Co9  1  0.000000  0.000000  0.295494  1
  Co  Co10  1  0.000000  0.500000  0.982224  1
  Co  Co11  1  0.500000  0.000000  0.013154  1
  Co  Co12  1  0.500000  0.324742  0.987013  1
  Co  Co13  1  0.500000  0.675258  0.987013  1
  Co  Co14  1  0.000000  0.159847  0.999378  1
  Co  Co15  1  0.000000  0.840153  0.999378  1
  Co  Co16  1  0.500000  0.293310  0.436007  1
  Co  Co17  1  0.500000  0.706690  0.436007  1
  Co  Co18  1  0.000000  0.201163  0.571082  1
  Co  Co19  1  0.000000  0.798837  0.571082  1
  Co  Co20  1  0.500000  0.880967  0.707459  1
  Co  Co21  1  0.500000  0.119033  0.707459  1
  Co  Co22  1  0.000000  0.622533  0.302231  1
  Co  Co23  1  0.000000  0.377467  0.302231  1
  P  P24  1  0.500000  0.500000  0.882046  1
  P  P25  1  0.000000  0.000000  0.115766  1
  P  P26  1  0.500000  0.500000  0.363207  1
  P  P27  1  0.000000  0.000000  0.654769  1
  P  P28  1  0.500000  0.307815  0.618374  1
  P  P29  1  0.500000  0.692185  0.618374  1
  P  P30  1  0.000000  0.188498  0.387336  1
  P  P31  1  0.000000  0.811502  0.387336  1
  P  P32  1  0.500000  0.853848  0.887549  1
  P  P33  1  0.500000  0.146152  0.887549  1
  P  P34  1  0.000000  0.667224  0.096504  1
  P  P35  1  0.000000  0.332776  0.096504  1
