# generated using pymatgen
data_Nd6Zn4Pd9Pt4
_symmetry_space_group_name_H-M   'P 1'
_cell_length_a   8.40336365
_cell_length_b   8.40336323
_cell_length_c   8.38283900
_cell_angle_alpha   109.42174772
_cell_angle_beta   109.42174670
_cell_angle_gamma   109.52065366
_symmetry_Int_Tables_number   1
_chemical_formula_structural   Nd6Zn4Pd9Pt4
_chemical_formula_sum   'Nd6 Zn4 Pd9 Pt4'
_cell_volume   455.97423604
_cell_formula_units_Z   1
loop_
 _symmetry_equiv_pos_site_id
 _symmetry_equiv_pos_as_xyz
  1  'x, y, z'
loop_
 _atom_site_type_symbol
 _atom_site_label
 _atom_site_symmetry_multiplicity
 _atom_site_fract_x
 _atom_site_fract_y
 _atom_site_fract_z
 _atom_site_occupancy
  Nd  Nd0  1  0.699920  0.699920  0.000981  1
  Nd  Nd1  1  0.300080  0.000000  0.301061  1
  Nd  Nd2  1  0.000000  0.300080  0.301061  1
  Nd  Nd3  1  0.300725  0.300725  0.999668  1
  Nd  Nd4  1  0.699275  0.000000  0.698943  1
  Nd  Nd5  1  0.000000  0.699275  0.698943  1
  Zn  Zn6  1  0.000000  0.000000  0.499744  1
  Zn  Zn7  1  0.000000  0.500117  0.000074  1
  Zn  Zn8  1  0.500117  0.000000  0.000074  1
  Zn  Zn9  1  0.499883  0.499883  0.499957  1
  Pd  Pd10  1  0.668629  0.330956  0.999909  1
  Pd  Pd11  1  0.331371  0.662327  0.331281  1
  Pd  Pd12  1  0.000000  0.331739  0.669431  1
  Pd  Pd13  1  0.330956  0.668629  0.999909  1
  Pd  Pd14  1  0.331739  0.000000  0.669431  1
  Pd  Pd15  1  0.662327  0.331371  0.331281  1
  Pd  Pd16  1  0.668261  0.668261  0.337693  1
  Pd  Pd17  1  0.669044  0.337673  0.668953  1
  Pd  Pd18  1  0.337673  0.669044  0.668953  1
  Pt  Pt19  1  0.331311  0.331311  0.661957  1
  Pt  Pt20  1  0.668689  0.000000  0.330646  1
  Pt  Pt21  1  0.000000  0.668689  0.330646  1
  Pt  Pt22  1  0.000000  0.000000  0.999402  1
