# generated using pymatgen
data_Ho4ZnGa23Pt9
_symmetry_space_group_name_H-M   'P 1'
_cell_length_a   7.48607037
_cell_length_b   7.58777691
_cell_length_c   13.34373340
_cell_angle_alpha   84.63947536
_cell_angle_beta   79.23827252
_cell_angle_gamma   60.46619166
_symmetry_Int_Tables_number   1
_chemical_formula_structural   Ho4ZnGa23Pt9
_chemical_formula_sum   'Ho4 Zn1 Ga23 Pt9'
_cell_volume   647.87420103
_cell_formula_units_Z   1
loop_
 _symmetry_equiv_pos_site_id
 _symmetry_equiv_pos_as_xyz
  1  'x, y, z'
loop_
 _atom_site_type_symbol
 _atom_site_label
 _atom_site_symmetry_multiplicity
 _atom_site_fract_x
 _atom_site_fract_y
 _atom_site_fract_z
 _atom_site_occupancy
  Ho  Ho0  1  0.393264  0.169153  0.809352  1
  Ho  Ho1  1  0.605353  0.831872  0.190425  1
  Ho  Ho2  1  0.731837  0.497676  0.809953  1
  Ho  Ho3  1  0.269108  0.501029  0.188908  1
  Zn  Zn4  1  0.686042  0.833969  0.938927  1
  Ga  Ga5  1  0.320849  0.160362  0.059263  1
  Ga  Ga6  1  0.146647  0.832106  0.559842  1
  Ga  Ga7  1  0.853092  0.168039  0.440644  1
  Ga  Ga8  1  0.479329  0.166169  0.556807  1
  Ga  Ga9  1  0.521582  0.833592  0.443180  1
  Ga  Ga10  1  0.219532  0.165286  0.323582  1
  Ga  Ga11  1  0.780408  0.834519  0.676633  1
  Ga  Ga12  1  0.436670  0.504313  0.676977  1
  Ga  Ga13  1  0.562445  0.496412  0.323772  1
  Ga  Ga14  1  0.107187  0.161815  0.675432  1
  Ga  Ga15  1  0.892651  0.837618  0.325441  1
  Ga  Ga16  1  0.360001  0.497674  0.937775  1
  Ga  Ga17  1  0.642689  0.508365  0.059364  1
  Ga  Ga18  1  0.021442  0.169001  0.944608  1
  Ga  Ga19  1  0.976077  0.830746  0.052974  1
  Ga  Ga20  1  0.186620  0.498567  0.442967  1
  Ga  Ga21  1  0.813502  0.502059  0.557360  1
  Ga  Ga22  1  0.734948  0.165372  0.182418  1
  Ga  Ga23  1  0.264245  0.836048  0.817500  1
  Ga  Ga24  1  0.052897  0.634157  0.818639  1
  Ga  Ga25  1  0.941740  0.367327  0.182928  1
  Ga  Ga26  1  0.851273  0.037675  0.818798  1
  Ga  Ga27  1  0.143277  0.958668  0.183027  1
  Pt  Pt28  1  0.119410  0.493335  0.639705  1
  Pt  Pt29  1  0.881879  0.506364  0.360369  1
  Pt  Pt30  1  0.660618  0.176319  0.000590  1
  Pt  Pt31  1  0.335549  0.829680  0.000994  1
  Pt  Pt32  1  0.539137  0.167181  0.360276  1
  Pt  Pt33  1  0.460819  0.832878  0.639278  1
  Pt  Pt34  1  0.779636  0.173865  0.637673  1
  Pt  Pt35  1  0.220719  0.826710  0.362921  1
  Pt  Pt36  1  0.007527  0.494083  0.000701  1
