# generated using pymatgen
data_K2RbSb2Au3
_symmetry_space_group_name_H-M   'P 1'
_cell_length_a   8.15403714
_cell_length_b   8.15403669
_cell_length_c   8.15403641
_cell_angle_alpha   46.78409751
_cell_angle_beta   46.78410057
_cell_angle_gamma   46.78408897
_symmetry_Int_Tables_number   1
_chemical_formula_structural   K2RbSb2Au3
_chemical_formula_sum   'K2 Rb1 Sb2 Au3'
_cell_volume   263.08865873
_cell_formula_units_Z   1
loop_
 _symmetry_equiv_pos_site_id
 _symmetry_equiv_pos_as_xyz
  1  'x, y, z'
loop_
 _atom_site_type_symbol
 _atom_site_label
 _atom_site_symmetry_multiplicity
 _atom_site_fract_x
 _atom_site_fract_y
 _atom_site_fract_z
 _atom_site_occupancy
  K  K0  1  0.919266  0.919266  0.919266  1
  K  K1  1  0.080734  0.080734  0.080734  1
  Rb  Rb2  1  0.500000  0.500000  0.500000  1
  Sb  Sb3  1  0.244202  0.244202  0.244202  1
  Sb  Sb4  1  0.755798  0.755798  0.755798  1
  Au  Au5  1  0.000000  0.500000  0.500000  1
  Au  Au6  1  0.500000  0.000000  0.500000  1
  Au  Au7  1  0.500000  0.500000  0.000000  1
