# generated using pymatgen
data_Dy4TlPd4Au
_symmetry_space_group_name_H-M   'P 1'
_cell_length_a   7.75441500
_cell_length_b   7.75441500
_cell_length_c   3.62375300
_cell_angle_alpha   90.00000000
_cell_angle_beta   90.00000000
_cell_angle_gamma   90.00000000
_symmetry_Int_Tables_number   1
_chemical_formula_structural   Dy4TlPd4Au
_chemical_formula_sum   'Dy4 Tl1 Pd4 Au1'
_cell_volume   217.89971767
_cell_formula_units_Z   1
loop_
 _symmetry_equiv_pos_site_id
 _symmetry_equiv_pos_as_xyz
  1  'x, y, z'
loop_
 _atom_site_type_symbol
 _atom_site_label
 _atom_site_symmetry_multiplicity
 _atom_site_fract_x
 _atom_site_fract_y
 _atom_site_fract_z
 _atom_site_occupancy
  Dy  Dy0  1  0.307657  0.848425  0.500000  1
  Dy  Dy1  1  0.848425  0.692343  0.500000  1
  Dy  Dy2  1  0.151575  0.307657  0.500000  1
  Dy  Dy3  1  0.692343  0.151575  0.500000  1
  Tl  Tl4  1  0.500000  0.500000  0.000000  1
  Pd  Pd5  1  0.383411  0.138749  0.000000  1
  Pd  Pd6  1  0.861251  0.383411  0.000000  1
  Pd  Pd7  1  0.138749  0.616589  0.000000  1
  Pd  Pd8  1  0.616589  0.861251  0.000000  1
  Au  Au9  1  0.000000  0.000000  0.000000  1
