# generated using pymatgen
data_Y7Ho12TmPt16
_symmetry_space_group_name_H-M   'P 1'
_cell_length_a   7.47103803
_cell_length_b   7.55271624
_cell_length_c   14.72532300
_cell_angle_alpha   90.00243256
_cell_angle_beta   90.00427287
_cell_angle_gamma   89.98271660
_symmetry_Int_Tables_number   1
_chemical_formula_structural   Y7Ho12TmPt16
_chemical_formula_sum   'Y7 Ho12 Tm1 Pt16'
_cell_volume   830.90031525
_cell_formula_units_Z   1
loop_
 _symmetry_equiv_pos_site_id
 _symmetry_equiv_pos_as_xyz
  1  'x, y, z'
loop_
 _atom_site_type_symbol
 _atom_site_label
 _atom_site_symmetry_multiplicity
 _atom_site_fract_x
 _atom_site_fract_y
 _atom_site_fract_z
 _atom_site_occupancy
  Y  Y0  1  0.498250  0.680136  0.093153  1
  Y  Y1  1  0.501960  0.320043  0.592932  1
  Y  Y2  1  0.001958  0.179998  0.907049  1
  Y  Y3  1  0.001837  0.179735  0.592882  1
  Y  Y4  1  0.501894  0.320086  0.907053  1
  Y  Y5  1  0.498217  0.680200  0.406852  1
  Y  Y6  1  0.997893  0.820113  0.093079  1
  Ho  Ho7  1  0.181251  0.511641  0.250102  1
  Ho  Ho8  1  0.818749  0.488340  0.749970  1
  Ho  Ho9  1  0.318747  0.011604  0.750023  1
  Ho  Ho10  1  0.656306  0.832507  0.622173  1
  Ho  Ho11  1  0.156331  0.667456  0.877781  1
  Ho  Ho12  1  0.843518  0.332246  0.377649  1
  Ho  Ho13  1  0.343899  0.167414  0.122350  1
  Ho  Ho14  1  0.343778  0.167293  0.377709  1
  Ho  Ho15  1  0.843504  0.332219  0.122393  1
  Ho  Ho16  1  0.156196  0.667590  0.622134  1
  Ho  Ho17  1  0.656339  0.832443  0.877836  1
  Ho  Ho18  1  0.997307  0.819720  0.406710  1
  Tm  Tm19  1  0.681436  0.988373  0.250105  1
  Pt  Pt20  1  0.816153  0.643179  0.250535  1
  Pt  Pt21  1  0.316399  0.858458  0.250164  1
  Pt  Pt22  1  0.684138  0.141805  0.749952  1
  Pt  Pt23  1  0.184095  0.358168  0.749953  1
  Pt  Pt24  1  0.546979  0.385963  0.250032  1
  Pt  Pt25  1  0.045825  0.112901  0.250259  1
  Pt  Pt26  1  0.953269  0.886344  0.749980  1
  Pt  Pt27  1  0.453257  0.613612  0.749970  1
  Pt  Pt28  1  0.817419  0.533354  0.541767  1
  Pt  Pt29  1  0.317233  0.967038  0.958001  1
  Pt  Pt30  1  0.683852  0.032147  0.457552  1
  Pt  Pt31  1  0.182701  0.467173  0.042068  1
  Pt  Pt32  1  0.182402  0.467934  0.457745  1
  Pt  Pt33  1  0.682735  0.032922  0.042236  1
  Pt  Pt34  1  0.316961  0.966901  0.541836  1
  Pt  Pt35  1  0.817211  0.532945  0.958010  1
