# generated using pymatgen
data_LiCuPtO4
_symmetry_space_group_name_H-M   'P 1'
_cell_length_a   6.18921117
_cell_length_b   6.18921096
_cell_length_c   6.18921054
_cell_angle_alpha   125.44873054
_cell_angle_beta   120.20204609
_cell_angle_gamma   85.23753533
_symmetry_Int_Tables_number   1
_chemical_formula_structural   LiCuPtO4
_chemical_formula_sum   'Li2 Cu2 Pt2 O8'
_cell_volume   159.41678369
_cell_formula_units_Z   2
loop_
 _symmetry_equiv_pos_site_id
 _symmetry_equiv_pos_as_xyz
  1  'x, y, z'
loop_
 _atom_site_type_symbol
 _atom_site_label
 _atom_site_symmetry_multiplicity
 _atom_site_fract_x
 _atom_site_fract_y
 _atom_site_fract_z
 _atom_site_occupancy
  Li  Li0  1  0.901102  0.151102  0.750000  1
  Li  Li1  1  0.098899  0.848899  0.250000  1
  Cu  Cu2  1  0.500000  0.000000  0.000000  1
  Cu  Cu3  1  0.500000  0.500000  0.500000  1
  Pt  Pt4  1  0.000000  0.500000  0.500000  1
  Pt  Pt5  1  0.500000  0.500000  0.000000  1
  O  O6  1  0.736897  0.279978  0.456919  1
  O  O7  1  0.770095  0.291346  0.021252  1
  O  O8  1  0.770095  0.748844  0.478748  1
  O  O9  1  0.323059  0.279978  0.043081  1
  O  O10  1  0.676941  0.720022  0.956919  1
  O  O11  1  0.229905  0.708654  0.978748  1
  O  O12  1  0.229905  0.251156  0.521252  1
  O  O13  1  0.263103  0.720022  0.543081  1
