# generated using pymatgen
data_Pr16Cd2AgHgIr4
_symmetry_space_group_name_H-M   'P 1'
_cell_length_a   10.01587074
_cell_length_b   10.01587026
_cell_length_c   10.04741177
_cell_angle_alpha   59.93888375
_cell_angle_beta   59.93889154
_cell_angle_gamma   59.95386642
_symmetry_Int_Tables_number   1
_chemical_formula_structural   Pr16Cd2AgHgIr4
_chemical_formula_sum   'Pr16 Cd2 Ag1 Hg1 Ir4'
_cell_volume   711.80896878
_cell_formula_units_Z   1
loop_
 _symmetry_equiv_pos_site_id
 _symmetry_equiv_pos_as_xyz
  1  'x, y, z'
loop_
 _atom_site_type_symbol
 _atom_site_label
 _atom_site_symmetry_multiplicity
 _atom_site_fract_x
 _atom_site_fract_y
 _atom_site_fract_z
 _atom_site_occupancy
  Pr  Pr0  1  0.348159  0.348159  0.347622  1
  Pr  Pr1  1  0.348494  0.348494  0.954573  1
  Pr  Pr2  1  0.349088  0.952630  0.348958  1
  Pr  Pr3  1  0.952630  0.349088  0.348958  1
  Pr  Pr4  1  0.808940  0.190911  0.191116  1
  Pr  Pr5  1  0.189761  0.808780  0.809070  1
  Pr  Pr6  1  0.190911  0.808940  0.191116  1
  Pr  Pr7  1  0.808780  0.189761  0.809070  1
  Pr  Pr8  1  0.190461  0.190461  0.809399  1
  Pr  Pr9  1  0.807790  0.807790  0.191418  1
  Pr  Pr10  1  0.936967  0.561177  0.561827  1
  Pr  Pr11  1  0.560417  0.937936  0.939343  1
  Pr  Pr12  1  0.561177  0.936967  0.561827  1
  Pr  Pr13  1  0.937936  0.560417  0.939343  1
  Pr  Pr14  1  0.560993  0.560993  0.937957  1
  Pr  Pr15  1  0.938181  0.938181  0.560877  1
  Cd  Cd16  1  0.579324  0.263215  0.580196  1
  Cd  Cd17  1  0.263215  0.579324  0.580196  1
  Ag  Ag18  1  0.581472  0.581472  0.583539  1
  Hg  Hg19  1  0.583386  0.583386  0.252278  1
  Ir  Ir20  1  0.141569  0.141569  0.141274  1
  Ir  Ir21  1  0.142331  0.142331  0.575672  1
  Ir  Ir22  1  0.142217  0.575799  0.142184  1
  Ir  Ir23  1  0.575799  0.142217  0.142184  1
