# generated using pymatgen
data_Pr2Sc3Si3Ge
_symmetry_space_group_name_H-M   'P 1'
_cell_length_a   7.29089160
_cell_length_b   7.56503311
_cell_length_c   14.30567975
_cell_angle_alpha   90.00451640
_cell_angle_beta   90.18543660
_cell_angle_gamma   90.06197321
_symmetry_Int_Tables_number   1
_chemical_formula_structural   Pr2Sc3Si3Ge
_chemical_formula_sum   'Pr8 Sc12 Si12 Ge4'
_cell_volume   789.03713573
_cell_formula_units_Z   4
loop_
 _symmetry_equiv_pos_site_id
 _symmetry_equiv_pos_as_xyz
  1  'x, y, z'
loop_
 _atom_site_type_symbol
 _atom_site_label
 _atom_site_symmetry_multiplicity
 _atom_site_fract_x
 _atom_site_fract_y
 _atom_site_fract_z
 _atom_site_occupancy
  Pr  Pr0  1  0.011381  0.171832  0.401734  1
  Pr  Pr1  1  0.512202  0.327002  0.401519  1
  Pr  Pr2  1  0.490777  0.673948  0.900541  1
  Pr  Pr3  1  0.490129  0.673693  0.598218  1
  Pr  Pr4  1  0.987200  0.828555  0.597861  1
  Pr  Pr5  1  0.988033  0.828315  0.900927  1
  Pr  Pr6  1  0.510529  0.326472  0.099101  1
  Pr  Pr7  1  0.009726  0.172366  0.098791  1
  Sc  Sc8  1  0.331840  0.173382  0.625978  1
  Sc  Sc9  1  0.669340  0.824828  0.374415  1
  Sc  Sc10  1  0.659949  0.002110  0.749852  1
  Sc  Sc11  1  0.169261  0.676201  0.374223  1
  Sc  Sc12  1  0.830228  0.324084  0.873820  1
  Sc  Sc13  1  0.828714  0.324216  0.625213  1
  Sc  Sc14  1  0.840118  0.501942  0.251645  1
  Sc  Sc15  1  0.340216  0.997985  0.251616  1
  Sc  Sc16  1  0.333439  0.173507  0.873021  1
  Sc  Sc17  1  0.168535  0.674071  0.126650  1
  Sc  Sc18  1  0.668633  0.826980  0.126451  1
  Sc  Sc19  1  0.159772  0.498251  0.749840  1
  Si  Si20  1  0.288055  0.882723  0.749732  1
  Si  Si21  1  0.465364  0.625972  0.250121  1
  Si  Si22  1  0.034760  0.126152  0.749551  1
  Si  Si23  1  0.534322  0.374751  0.749583  1
  Si  Si24  1  0.965628  0.874491  0.250135  1
  Si  Si25  1  0.711295  0.116803  0.250216  1
  Si  Si26  1  0.651261  0.037455  0.539712  1
  Si  Si27  1  0.348604  0.962815  0.460226  1
  Si  Si28  1  0.844450  0.538170  0.459204  1
  Si  Si29  1  0.789434  0.616317  0.749726  1
  Si  Si30  1  0.211062  0.383125  0.250221  1
  Si  Si31  1  0.656248  0.039161  0.959166  1
  Ge  Ge32  1  0.156289  0.461510  0.540434  1
  Ge  Ge33  1  0.839422  0.540267  0.041418  1
  Ge  Ge34  1  0.343012  0.960548  0.040525  1
  Ge  Ge35  1  0.160773  0.460000  0.958616  1
