# generated using pymatgen
data_Cs3Pr(AsS4)2
_symmetry_space_group_name_H-M   'P 1'
_cell_length_a   16.31116799
_cell_length_b   7.32499600
_cell_length_c   16.40629000
_cell_angle_alpha   90.00000000
_cell_angle_beta   99.64320936
_cell_angle_gamma   90.00000000
_symmetry_Int_Tables_number   1
_chemical_formula_structural   Cs3Pr(AsS4)2
_chemical_formula_sum   'Cs12 Pr4 As8 S32'
_cell_volume   1932.51326031
_cell_formula_units_Z   4
loop_
 _symmetry_equiv_pos_site_id
 _symmetry_equiv_pos_as_xyz
  1  'x, y, z'
loop_
 _atom_site_type_symbol
 _atom_site_label
 _atom_site_symmetry_multiplicity
 _atom_site_fract_x
 _atom_site_fract_y
 _atom_site_fract_z
 _atom_site_occupancy
  Cs  Cs0  1  0.612599  0.758983  0.025726  1
  Cs  Cs1  1  0.040095  0.245525  0.117401  1
  Cs  Cs2  1  0.275549  0.743355  0.122934  1
  Cs  Cs3  1  0.224451  0.243354  0.377066  1
  Cs  Cs4  1  0.459905  0.745525  0.382599  1
  Cs  Cs5  1  0.887402  0.258983  0.474274  1
  Cs  Cs6  1  0.112599  0.741017  0.525727  1
  Cs  Cs7  1  0.540094  0.254475  0.617400  1
  Cs  Cs8  1  0.775549  0.756645  0.622934  1
  Cs  Cs9  1  0.724451  0.256645  0.877066  1
  Cs  Cs10  1  0.959905  0.754476  0.882600  1
  Cs  Cs11  1  0.387401  0.241018  0.974273  1
  Pr  Pr12  1  0.877554  0.767625  0.230954  1
  Pr  Pr13  1  0.622446  0.267624  0.269046  1
  Pr  Pr14  1  0.377554  0.732376  0.730954  1
  Pr  Pr15  1  0.122446  0.232375  0.769046  1
  As  As16  1  0.782912  0.225413  0.133912  1
  As  As17  1  0.416742  0.246189  0.224903  1
  As  As18  1  0.083258  0.746189  0.275097  1
  As  As19  1  0.717088  0.725412  0.366088  1
  As  As20  1  0.282912  0.274587  0.633911  1
  As  As21  1  0.916742  0.253810  0.724903  1
  As  As22  1  0.583258  0.753811  0.775097  1
  As  As23  1  0.217088  0.774588  0.866088  1
  S  S24  1  0.833154  0.988395  0.076521  1
  S  S25  1  0.648264  0.254008  0.094703  1
  S  S26  1  0.846692  0.472701  0.102365  1
  S  S27  1  0.048028  0.748646  0.140198  1
  S  S28  1  0.286111  0.239620  0.171845  1
  S  S29  1  0.480010  0.490591  0.186216  1
  S  S30  1  0.486363  0.013321  0.186513  1
  S  S31  1  0.702735  0.647523  0.234459  1
  S  S32  1  0.797265  0.147524  0.265541  1
  S  S33  1  0.013638  0.513322  0.313487  1
  S  S34  1  0.019990  0.990590  0.313783  1
  S  S35  1  0.213890  0.739621  0.328156  1
  S  S36  1  0.451972  0.248646  0.359802  1
  S  S37  1  0.653308  0.972701  0.397635  1
  S  S38  1  0.851735  0.754007  0.405298  1
  S  S39  1  0.666846  0.488394  0.423478  1
  S  S40  1  0.333154  0.511605  0.576521  1
  S  S41  1  0.148265  0.245993  0.594703  1
  S  S42  1  0.346692  0.027298  0.602365  1
  S  S43  1  0.548028  0.751354  0.640198  1
  S  S44  1  0.786111  0.260379  0.671844  1
  S  S45  1  0.980010  0.009409  0.686216  1
  S  S46  1  0.986362  0.486679  0.686513  1
  S  S47  1  0.202735  0.852477  0.734459  1
  S  S48  1  0.297265  0.352476  0.765542  1
  S  S49  1  0.513638  0.986680  0.813487  1
  S  S50  1  0.519990  0.509410  0.813784  1
  S  S51  1  0.713889  0.760379  0.828156  1
  S  S52  1  0.951972  0.251354  0.859802  1
  S  S53  1  0.153308  0.527299  0.897636  1
  S  S54  1  0.351736  0.745993  0.905297  1
  S  S55  1  0.166846  0.011605  0.923478  1
