# generated using pymatgen
data_Ac3Y2(Sn5Ir2)2
_symmetry_space_group_name_H-M   'P 1'
_cell_length_a   14.31777400
_cell_length_b   14.31777400
_cell_length_c   4.72159500
_cell_angle_alpha   90.00000000
_cell_angle_beta   90.00000000
_cell_angle_gamma   90.00000000
_symmetry_Int_Tables_number   1
_chemical_formula_structural   Ac3Y2(Sn5Ir2)2
_chemical_formula_sum   'Ac6 Y4 Sn20 Ir8'
_cell_volume   967.92061178
_cell_formula_units_Z   2
loop_
 _symmetry_equiv_pos_site_id
 _symmetry_equiv_pos_as_xyz
  1  'x, y, z'
loop_
 _atom_site_type_symbol
 _atom_site_label
 _atom_site_symmetry_multiplicity
 _atom_site_fract_x
 _atom_site_fract_y
 _atom_site_fract_z
 _atom_site_occupancy
  Ac  Ac0  1  0.500000  0.500000  0.000000  1
  Ac  Ac1  1  0.000000  0.000000  0.000000  1
  Ac  Ac2  1  0.886998  0.386998  0.500000  1
  Ac  Ac3  1  0.113002  0.613002  0.500000  1
  Ac  Ac4  1  0.386998  0.113002  0.500000  1
  Ac  Ac5  1  0.613002  0.886998  0.500000  1
  Y  Y6  1  0.675344  0.175344  0.500000  1
  Y  Y7  1  0.324656  0.824656  0.500000  1
  Y  Y8  1  0.175344  0.324656  0.500000  1
  Y  Y9  1  0.824656  0.675344  0.500000  1
  Sn  Sn10  1  0.571109  0.071109  0.000000  1
  Sn  Sn11  1  0.428891  0.928891  0.000000  1
  Sn  Sn12  1  0.071109  0.428891  0.000000  1
  Sn  Sn13  1  0.928891  0.571109  0.000000  1
  Sn  Sn14  1  0.656096  0.697612  0.000000  1
  Sn  Sn15  1  0.343904  0.302388  0.000000  1
  Sn  Sn16  1  0.156096  0.802388  0.000000  1
  Sn  Sn17  1  0.843904  0.197612  0.000000  1
  Sn  Sn18  1  0.302388  0.656096  0.000000  1
  Sn  Sn19  1  0.697612  0.343904  0.000000  1
  Sn  Sn20  1  0.197612  0.156096  0.000000  1
  Sn  Sn21  1  0.802388  0.843904  0.000000  1
  Sn  Sn22  1  0.665459  0.507868  0.500000  1
  Sn  Sn23  1  0.334541  0.492132  0.500000  1
  Sn  Sn24  1  0.165459  0.992132  0.500000  1
  Sn  Sn25  1  0.834541  0.007868  0.500000  1
  Sn  Sn26  1  0.492132  0.665459  0.500000  1
  Sn  Sn27  1  0.507868  0.334541  0.500000  1
  Sn  Sn28  1  0.007868  0.165459  0.500000  1
  Sn  Sn29  1  0.992132  0.834541  0.500000  1
  Ir  Ir30  1  0.746810  0.529383  0.000000  1
  Ir  Ir31  1  0.253190  0.470617  0.000000  1
  Ir  Ir32  1  0.246810  0.970617  0.000000  1
  Ir  Ir33  1  0.753190  0.029383  0.000000  1
  Ir  Ir34  1  0.470617  0.746810  0.000000  1
  Ir  Ir35  1  0.529383  0.253190  0.000000  1
  Ir  Ir36  1  0.029383  0.246810  0.000000  1
  Ir  Ir37  1  0.970617  0.753190  0.000000  1
