# generated using pymatgen
data_Dy4U4Re3B24Ru
_symmetry_space_group_name_H-M   'P 1'
_cell_length_a   3.63014300
_cell_length_b   9.30986229
_cell_length_c   11.42853536
_cell_angle_alpha   90.02858464
_cell_angle_beta   90.00000000
_cell_angle_gamma   90.00000000
_symmetry_Int_Tables_number   1
_chemical_formula_structural   Dy4U4Re3B24Ru
_chemical_formula_sum   'Dy4 U4 Re3 B24 Ru1'
_cell_volume   386.24023477
_cell_formula_units_Z   1
loop_
 _symmetry_equiv_pos_site_id
 _symmetry_equiv_pos_as_xyz
  1  'x, y, z'
loop_
 _atom_site_type_symbol
 _atom_site_label
 _atom_site_symmetry_multiplicity
 _atom_site_fract_x
 _atom_site_fract_y
 _atom_site_fract_z
 _atom_site_occupancy
  Dy  Dy0  1  0.000000  0.335828  0.408109  1
  Dy  Dy1  1  0.000000  0.663706  0.594109  1
  Dy  Dy2  1  0.000000  0.838037  0.090958  1
  Dy  Dy3  1  0.000000  0.163578  0.906986  1
  U  U4  1  0.000000  0.958229  0.396799  1
  U  U5  1  0.000000  0.042570  0.602943  1
  U  U6  1  0.000000  0.455261  0.102279  1
  U  U7  1  0.000000  0.543180  0.897235  1
  Re  Re8  1  0.000000  0.354739  0.681240  1
  Re  Re9  1  0.000000  0.145856  0.181493  1
  Re  Re10  1  0.000000  0.854646  0.818776  1
  B  B11  1  0.500000  0.552010  0.430452  1
  B  B12  1  0.500000  0.448428  0.569029  1
  B  B13  1  0.500000  0.052047  0.069127  1
  B  B14  1  0.500000  0.948144  0.930824  1
  B  B15  1  0.500000  0.742855  0.422580  1
  B  B16  1  0.500000  0.257001  0.576869  1
  B  B17  1  0.500000  0.243169  0.077098  1
  B  B18  1  0.500000  0.756999  0.923232  1
  B  B19  1  0.500000  0.801763  0.274645  1
  B  B20  1  0.500000  0.198010  0.724656  1
  B  B21  1  0.500000  0.302143  0.225279  1
  B  B22  1  0.500000  0.697951  0.775370  1
  B  B23  1  0.500000  0.644348  0.188747  1
  B  B24  1  0.500000  0.355751  0.811397  1
  B  B25  1  0.500000  0.144009  0.311597  1
  B  B26  1  0.500000  0.855511  0.688445  1
  B  B27  1  0.500000  0.988550  0.219278  1
  B  B28  1  0.500000  0.010736  0.780048  1
  B  B29  1  0.500000  0.489592  0.280995  1
  B  B30  1  0.500000  0.510983  0.719789  1
  B  B31  1  0.500000  0.640704  0.039611  1
  B  B32  1  0.500000  0.360016  0.961197  1
  B  B33  1  0.500000  0.140161  0.461278  1
  B  B34  1  0.500000  0.858563  0.538458  1
  Ru  Ru35  1  0.000000  0.644921  0.319073  1
