# generated using pymatgen
data_CaAlGaAs2O7
_symmetry_space_group_name_H-M   'P 1'
_cell_length_a   8.44899791
_cell_length_b   8.44899770
_cell_length_c   8.44899795
_cell_angle_alpha   35.90691161
_cell_angle_beta   35.90690248
_cell_angle_gamma   35.90690455
_symmetry_Int_Tables_number   1
_chemical_formula_structural   CaAlGaAs2O7
_chemical_formula_sum   'Ca1 Al1 Ga1 As2 O7'
_cell_volume   185.51601876
_cell_formula_units_Z   1
loop_
 _symmetry_equiv_pos_site_id
 _symmetry_equiv_pos_as_xyz
  1  'x, y, z'
loop_
 _atom_site_type_symbol
 _atom_site_label
 _atom_site_symmetry_multiplicity
 _atom_site_fract_x
 _atom_site_fract_y
 _atom_site_fract_z
 _atom_site_occupancy
  Ca  Ca0  1  0.500845  0.500845  0.500845  1
  Al  Al1  1  0.925188  0.925188  0.925188  1
  Ga  Ga2  1  0.073013  0.073013  0.073013  1
  As  As3  1  0.269607  0.269607  0.269607  1
  As  As4  1  0.730918  0.730918  0.730918  1
  O  O5  1  0.997572  0.997572  0.997572  1
  O  O6  1  0.457300  0.793394  0.058789  1
  O  O7  1  0.553119  0.950160  0.190096  1
  O  O8  1  0.793394  0.058790  0.457299  1
  O  O9  1  0.950159  0.190097  0.553119  1
  O  O10  1  0.058789  0.457299  0.793395  1
  O  O11  1  0.190097  0.553118  0.950160  1
