# generated using pymatgen
data_Er3CuSn3Ir2
_symmetry_space_group_name_H-M   'P 1'
_cell_length_a   7.47305000
_cell_length_b   7.47304988
_cell_length_c   3.91058900
_cell_angle_alpha   90.00000000
_cell_angle_beta   90.00000000
_cell_angle_gamma   120.00000055
_symmetry_Int_Tables_number   1
_chemical_formula_structural   Er3CuSn3Ir2
_chemical_formula_sum   'Er3 Cu1 Sn3 Ir2'
_cell_volume   189.13354918
_cell_formula_units_Z   1
loop_
 _symmetry_equiv_pos_site_id
 _symmetry_equiv_pos_as_xyz
  1  'x, y, z'
loop_
 _atom_site_type_symbol
 _atom_site_label
 _atom_site_symmetry_multiplicity
 _atom_site_fract_x
 _atom_site_fract_y
 _atom_site_fract_z
 _atom_site_occupancy
  Er  Er0  1  0.395920  0.408836  0.500000  1
  Er  Er1  1  0.591164  0.987083  0.500000  1
  Er  Er2  1  0.012917  0.604080  0.500000  1
  Cu  Cu3  1  0.666667  0.333333  0.000000  1
  Sn  Sn4  1  0.740264  0.734919  0.000000  1
  Sn  Sn5  1  0.265081  0.005344  0.000000  1
  Sn  Sn6  1  0.994656  0.259736  0.000000  1
  Ir  Ir7  1  0.333333  0.666667  0.000000  1
  Ir  Ir8  1  0.000000  0.000000  0.500000  1
