# generated using pymatgen
data_Cr2Ru5Rh
_symmetry_space_group_name_H-M   'P 1'
_cell_length_a   5.40717700
_cell_length_b   5.40739703
_cell_length_c   4.24900300
_cell_angle_alpha   90.00000000
_cell_angle_beta   90.00000000
_cell_angle_gamma   119.99864786
_symmetry_Int_Tables_number   1
_chemical_formula_structural   Cr2Ru5Rh
_chemical_formula_sum   'Cr2 Ru5 Rh1'
_cell_volume   107.59260702
_cell_formula_units_Z   1
loop_
 _symmetry_equiv_pos_site_id
 _symmetry_equiv_pos_as_xyz
  1  'x, y, z'
loop_
 _atom_site_type_symbol
 _atom_site_label
 _atom_site_symmetry_multiplicity
 _atom_site_fract_x
 _atom_site_fract_y
 _atom_site_fract_z
 _atom_site_occupancy
  Cr  Cr0  1  0.335891  0.671784  0.750000  1
  Cr  Cr1  1  0.661822  0.323642  0.250000  1
  Ru  Ru2  1  0.659887  0.835810  0.250000  1
  Ru  Ru3  1  0.175922  0.835810  0.250000  1
  Ru  Ru4  1  0.830357  0.660713  0.750000  1
  Ru  Ru5  1  0.340265  0.167204  0.750000  1
  Ru  Ru6  1  0.826940  0.167204  0.750000  1
  Rh  Rh7  1  0.168917  0.337835  0.250000  1
