# generated using pymatgen
data_Dy2Tm10InCo5
_symmetry_space_group_name_H-M   'P 1'
_cell_length_a   8.19045570
_cell_length_b   8.19045614
_cell_length_c   8.18430831
_cell_angle_alpha   111.03783592
_cell_angle_beta   110.77307043
_cell_angle_gamma   106.67148325
_symmetry_Int_Tables_number   1
_chemical_formula_structural   Dy2Tm10InCo5
_chemical_formula_sum   'Dy2 Tm10 In1 Co5'
_cell_volume   421.71519696
_cell_formula_units_Z   1
loop_
 _symmetry_equiv_pos_site_id
 _symmetry_equiv_pos_as_xyz
  1  'x, y, z'
loop_
 _atom_site_type_symbol
 _atom_site_label
 _atom_site_symmetry_multiplicity
 _atom_site_fract_x
 _atom_site_fract_y
 _atom_site_fract_z
 _atom_site_occupancy
  Dy  Dy0  1  0.288211  0.185529  0.473739  1
  Dy  Dy1  1  0.711789  0.814471  0.526261  1
  Tm  Tm2  1  0.287729  0.814177  0.101906  1
  Tm  Tm3  1  0.712271  0.185823  0.898094  1
  Tm  Tm4  1  0.619970  0.313989  0.304944  1
  Tm  Tm5  1  0.380030  0.686011  0.695056  1
  Tm  Tm6  1  0.009044  0.315026  0.695056  1
  Tm  Tm7  1  0.990956  0.684974  0.304944  1
  Tm  Tm8  1  0.212224  0.405139  0.191556  1
  Tm  Tm9  1  0.787776  0.594861  0.808444  1
  Tm  Tm10  1  0.213584  0.020669  0.808444  1
  Tm  Tm11  1  0.786416  0.979331  0.191556  1
  In  In12  1  0.500000  0.500000  0.000000  1
  Co  Co13  1  0.999684  0.377086  0.376771  1
  Co  Co14  1  0.000316  0.622914  0.623229  1
  Co  Co15  1  0.386988  0.886988  0.500000  1
  Co  Co16  1  0.613012  0.113012  0.500000  1
  Co  Co17  1  0.000000  0.000000  0.000000  1
