# generated using pymatgen
data_Tm4Mg2B4IrRh9
_symmetry_space_group_name_H-M   'P 1'
_cell_length_a   9.60388082
_cell_length_b   9.60388082
_cell_length_c   3.16586400
_cell_angle_alpha   90.00000000
_cell_angle_beta   90.00000000
_cell_angle_gamma   89.79867468
_symmetry_Int_Tables_number   1
_chemical_formula_structural   Tm4Mg2B4IrRh9
_chemical_formula_sum   'Tm4 Mg2 B4 Ir1 Rh9'
_cell_volume   292.00016546
_cell_formula_units_Z   1
loop_
 _symmetry_equiv_pos_site_id
 _symmetry_equiv_pos_as_xyz
  1  'x, y, z'
loop_
 _atom_site_type_symbol
 _atom_site_label
 _atom_site_symmetry_multiplicity
 _atom_site_fract_x
 _atom_site_fract_y
 _atom_site_fract_z
 _atom_site_occupancy
  Tm  Tm0  1  0.677316  0.177316  0.000000  1
  Tm  Tm1  1  0.322684  0.822684  0.000000  1
  Tm  Tm2  1  0.175531  0.324469  0.000000  1
  Tm  Tm3  1  0.824469  0.675531  0.000000  1
  Mg  Mg4  1  0.000000  0.000000  0.000000  1
  Mg  Mg5  1  0.500000  0.500000  0.000000  1
  B  B6  1  0.122928  0.622928  0.000000  1
  B  B7  1  0.877072  0.377072  0.000000  1
  B  B8  1  0.622259  0.877741  0.000000  1
  B  B9  1  0.377741  0.122259  0.000000  1
  Ir  Ir10  1  0.500000  0.000000  0.500000  1
  Rh  Rh11  1  0.000000  0.500000  0.500000  1
  Rh  Rh12  1  0.222909  0.071108  0.500000  1
  Rh  Rh13  1  0.777091  0.928892  0.500000  1
  Rh  Rh14  1  0.069794  0.775995  0.500000  1
  Rh  Rh15  1  0.724005  0.430206  0.500000  1
  Rh  Rh16  1  0.930206  0.224005  0.500000  1
  Rh  Rh17  1  0.275995  0.569794  0.500000  1
  Rh  Rh18  1  0.571108  0.722909  0.500000  1
  Rh  Rh19  1  0.428892  0.277091  0.500000  1
