# generated using pymatgen
data_LaPr3HgPd
_symmetry_space_group_name_H-M   'P 1'
_cell_length_a   10.09509103
_cell_length_b   10.09509162
_cell_length_c   10.09509100
_cell_angle_alpha   59.99999874
_cell_angle_beta   59.99999681
_cell_angle_gamma   60.00000359
_symmetry_Int_Tables_number   1
_chemical_formula_structural   LaPr3HgPd
_chemical_formula_sum   'La4 Pr12 Hg4 Pd4'
_cell_volume   727.47109403
_cell_formula_units_Z   4
loop_
 _symmetry_equiv_pos_site_id
 _symmetry_equiv_pos_as_xyz
  1  'x, y, z'
loop_
 _atom_site_type_symbol
 _atom_site_label
 _atom_site_symmetry_multiplicity
 _atom_site_fract_x
 _atom_site_fract_y
 _atom_site_fract_z
 _atom_site_occupancy
  La  La0  1  0.353162  0.353162  0.353162  1
  La  La1  1  0.353162  0.353162  0.940517  1
  La  La2  1  0.353162  0.940517  0.353162  1
  La  La3  1  0.940517  0.353162  0.353162  1
  Pr  Pr4  1  0.807847  0.192153  0.192153  1
  Pr  Pr5  1  0.192153  0.807847  0.807847  1
  Pr  Pr6  1  0.192153  0.807847  0.192153  1
  Pr  Pr7  1  0.807847  0.192153  0.807847  1
  Pr  Pr8  1  0.192153  0.192153  0.807847  1
  Pr  Pr9  1  0.807847  0.807847  0.192153  1
  Pr  Pr10  1  0.934843  0.565157  0.565157  1
  Pr  Pr11  1  0.565157  0.934843  0.934843  1
  Pr  Pr12  1  0.565157  0.934843  0.565157  1
  Pr  Pr13  1  0.934843  0.565157  0.934843  1
  Pr  Pr14  1  0.565157  0.565157  0.934843  1
  Pr  Pr15  1  0.934843  0.934843  0.565157  1
  Hg  Hg16  1  0.584488  0.584488  0.584488  1
  Hg  Hg17  1  0.584488  0.584488  0.246534  1
  Hg  Hg18  1  0.584488  0.246534  0.584488  1
  Hg  Hg19  1  0.246534  0.584488  0.584488  1
  Pd  Pd20  1  0.143994  0.143994  0.143994  1
  Pd  Pd21  1  0.143994  0.143994  0.568019  1
  Pd  Pd22  1  0.143994  0.568019  0.143994  1
  Pd  Pd23  1  0.568019  0.143994  0.143994  1
