# generated using pymatgen
data_LiHf6Al15Pd7
_symmetry_space_group_name_H-M   'P 1'
_cell_length_a   8.77566900
_cell_length_b   8.77566963
_cell_length_c   8.76265184
_cell_angle_alpha   59.95083907
_cell_angle_beta   59.95083832
_cell_angle_gamma   59.99999552
_symmetry_Int_Tables_number   1
_chemical_formula_structural   LiHf6Al15Pd7
_chemical_formula_sum   'Li1 Hf6 Al15 Pd7'
_cell_volume   476.82380736
_cell_formula_units_Z   1
loop_
 _symmetry_equiv_pos_site_id
 _symmetry_equiv_pos_as_xyz
  1  'x, y, z'
loop_
 _atom_site_type_symbol
 _atom_site_label
 _atom_site_symmetry_multiplicity
 _atom_site_fract_x
 _atom_site_fract_y
 _atom_site_fract_z
 _atom_site_occupancy
  Li  Li0  1  0.880703  0.880703  0.357893  1
  Hf  Hf1  1  0.680190  0.680190  0.318908  1
  Hf  Hf2  1  0.320711  0.680190  0.318908  1
  Hf  Hf3  1  0.680190  0.320711  0.318908  1
  Hf  Hf4  1  0.319224  0.319224  0.680790  1
  Hf  Hf5  1  0.680762  0.319224  0.680790  1
  Hf  Hf6  1  0.319224  0.680762  0.680790  1
  Al  Al7  1  0.879257  0.360336  0.881151  1
  Al  Al8  1  0.360336  0.879257  0.881151  1
  Al  Al9  1  0.879257  0.879257  0.881151  1
  Al  Al10  1  0.120014  0.120014  0.639957  1
  Al  Al11  1  0.115453  0.642497  0.126596  1
  Al  Al12  1  0.642497  0.115453  0.126596  1
  Al  Al13  1  0.115453  0.115453  0.126596  1
  Al  Al14  1  0.664387  0.664387  0.006840  1
  Al  Al15  1  0.669326  0.002404  0.658945  1
  Al  Al16  1  0.002404  0.669326  0.658945  1
  Al  Al17  1  0.669326  0.669326  0.658945  1
  Al  Al18  1  0.334357  0.334357  0.996929  1
  Al  Al19  1  0.336224  0.994474  0.333077  1
  Al  Al20  1  0.994474  0.336224  0.333077  1
  Al  Al21  1  0.336224  0.336224  0.333077  1
  Pd  Pd22  1  0.001846  0.001846  0.994461  1
  Pd  Pd23  1  0.001733  0.001733  0.505313  1
  Pd  Pd24  1  0.491220  0.001733  0.505313  1
  Pd  Pd25  1  0.001733  0.491220  0.505313  1
  Pd  Pd26  1  0.501391  0.501391  0.996525  1
  Pd  Pd27  1  0.000692  0.501391  0.996525  1
  Pd  Pd28  1  0.501391  0.000692  0.996525  1
