# generated using pymatgen
data_Ho(HfH5)3
_symmetry_space_group_name_H-M   'P 1'
_cell_length_a   7.02739564
_cell_length_b   7.04119225
_cell_length_c   7.07017521
_cell_angle_alpha   109.52466575
_cell_angle_beta   109.44584462
_cell_angle_gamma   109.23651530
_symmetry_Int_Tables_number   1
_chemical_formula_structural   Ho(HfH5)3
_chemical_formula_sum   'Ho2 Hf6 H30'
_cell_volume   269.99100323
_cell_formula_units_Z   2
loop_
 _symmetry_equiv_pos_site_id
 _symmetry_equiv_pos_as_xyz
  1  'x, y, z'
loop_
 _atom_site_type_symbol
 _atom_site_label
 _atom_site_symmetry_multiplicity
 _atom_site_fract_x
 _atom_site_fract_y
 _atom_site_fract_z
 _atom_site_occupancy
  Ho  Ho0  1  0.908904  0.907676  0.907202  1
  Ho  Ho1  1  0.501700  0.000473  0.092798  1
  Hf  Hf2  1  0.004722  0.109896  0.504773  1
  Hf  Hf3  1  0.106618  0.498087  0.000756  1
  Hf  Hf4  1  0.999951  0.605124  0.495227  1
  Hf  Hf5  1  0.605863  0.497331  0.999244  1
  Hf  Hf6  1  0.498086  0.000475  0.594876  1
  Hf  Hf7  1  0.403210  0.405599  0.405124  1
  H  H8  1  0.666056  0.976247  0.399884  1
  H  H9  1  0.223693  0.304773  0.845602  1
  H  H10  1  0.193503  0.422370  0.538666  1
  H  H11  1  0.090444  0.287814  0.126513  1
  H  H12  1  0.280847  0.137141  0.104023  1
  H  H13  1  0.127795  0.100590  0.291789  1
  H  H14  1  0.463932  0.161301  0.873487  1
  H  H15  1  0.723717  0.340843  0.810480  1
  H  H16  1  0.625800  0.383008  0.252652  1
  H  H17  1  0.240254  0.622336  0.368379  1
  H  H18  1  0.759349  0.870991  0.140255  1
  H  H19  1  0.119095  0.730737  0.859745  1
  H  H20  1  0.371875  0.253958  0.631621  1
  H  H21  1  0.873148  0.130355  0.747348  1
  H  H22  1  0.766172  0.576363  0.600116  1
  H  H23  1  0.304893  0.833220  0.228191  1
  H  H24  1  0.380366  0.638728  0.968645  1
  H  H25  1  0.974239  0.382823  0.659810  1
  H  H26  1  0.528227  0.195299  0.429430  1
  H  H27  1  0.413238  0.530364  0.189520  1
  H  H28  1  0.861371  0.236571  0.325854  1
  H  H29  1  0.911722  0.670084  0.031355  1
  H  H30  1  0.814429  0.723014  0.340190  1
  H  H31  1  0.154838  0.883704  0.461334  1
  H  H32  1  0.676824  0.033118  0.895977  1
  H  H33  1  0.336007  0.808801  0.708211  1
  H  H34  1  0.878090  0.459171  0.154398  1
  H  H35  1  0.598798  0.765869  0.570570  1
  H  H36  1  0.576702  0.605029  0.771809  1
  H  H37  1  0.035518  0.910718  0.674146  1
