# generated using pymatgen
data_Cs4Th6FeBr18
_symmetry_space_group_name_H-M   'P 1'
_cell_length_a   11.51841462
_cell_length_b   11.77939585
_cell_length_c   11.89592319
_cell_angle_alpha   118.19631042
_cell_angle_beta   100.67586171
_cell_angle_gamma   104.02339864
_symmetry_Int_Tables_number   1
_chemical_formula_structural   Cs4Th6FeBr18
_chemical_formula_sum   'Cs4 Th6 Fe1 Br18'
_cell_volume   1292.53365472
_cell_formula_units_Z   1
loop_
 _symmetry_equiv_pos_site_id
 _symmetry_equiv_pos_as_xyz
  1  'x, y, z'
loop_
 _atom_site_type_symbol
 _atom_site_label
 _atom_site_symmetry_multiplicity
 _atom_site_fract_x
 _atom_site_fract_y
 _atom_site_fract_z
 _atom_site_occupancy
  Cs  Cs0  1  0.658690  0.537368  0.229274  1
  Cs  Cs1  1  0.341310  0.462632  0.770726  1
  Cs  Cs2  1  0.693950  0.228312  0.565257  1
  Cs  Cs3  1  0.306050  0.771688  0.434743  1
  Th  Th4  1  0.158893  0.060090  0.240259  1
  Th  Th5  1  0.841107  0.939910  0.759741  1
  Th  Th6  1  0.854249  0.128890  0.135467  1
  Th  Th7  1  0.145751  0.871110  0.864533  1
  Th  Th8  1  0.150752  0.247774  0.046241  1
  Th  Th9  1  0.849248  0.752226  0.953759  1
  Fe  Fe10  1  0.000000  0.000000  0.000000  1
  Br  Br11  1  0.008471  0.408975  0.197009  1
  Br  Br12  1  0.991529  0.591025  0.802991  1
  Br  Br13  1  0.331826  0.335902  0.312601  1
  Br  Br14  1  0.668174  0.664098  0.687399  1
  Br  Br15  1  0.329408  0.519215  0.103934  1
  Br  Br16  1  0.670592  0.480785  0.896066  1
  Br  Br17  1  0.006279  0.796728  0.211328  1
  Br  Br18  1  0.993721  0.203272  0.788672  1
  Br  Br19  1  0.704065  0.273732  0.287189  1
  Br  Br20  1  0.295935  0.726268  0.712811  1
  Br  Br21  1  0.318536  0.129700  0.904211  1
  Br  Br22  1  0.681464  0.870300  0.095789  1
  Br  Br23  1  0.016207  0.203795  0.407094  1
  Br  Br24  1  0.983793  0.796205  0.592906  1
  Br  Br25  1  0.323502  0.922653  0.112778  1
  Br  Br26  1  0.676498  0.077347  0.887222  1
  Br  Br27  1  0.340879  0.123284  0.500430  1
  Br  Br28  1  0.659121  0.876716  0.499570  1
