# generated using pymatgen
data_YTm7Re(TcB8)3
_symmetry_space_group_name_H-M   'P 1'
_cell_length_a   3.64717100
_cell_length_b   9.10335977
_cell_length_c   11.47062504
_cell_angle_alpha   90.01878810
_cell_angle_beta   90.00000000
_cell_angle_gamma   90.00000000
_symmetry_Int_Tables_number   1
_chemical_formula_structural   YTm7Re(TcB8)3
_chemical_formula_sum   'Y1 Tm7 Re1 Tc3 B24'
_cell_volume   380.84204875
_cell_formula_units_Z   1
loop_
 _symmetry_equiv_pos_site_id
 _symmetry_equiv_pos_as_xyz
  1  'x, y, z'
loop_
 _atom_site_type_symbol
 _atom_site_label
 _atom_site_symmetry_multiplicity
 _atom_site_fract_x
 _atom_site_fract_y
 _atom_site_fract_z
 _atom_site_occupancy
  Y  Y0  1  0.000000  0.323221  0.414192  1
  Tm  Tm1  1  0.000000  0.676628  0.585923  1
  Tm  Tm2  1  0.000000  0.823512  0.085871  1
  Tm  Tm3  1  0.000000  0.176760  0.914310  1
  Tm  Tm4  1  0.000000  0.942600  0.369198  1
  Tm  Tm5  1  0.000000  0.057703  0.630027  1
  Tm  Tm6  1  0.000000  0.442692  0.130366  1
  Tm  Tm7  1  0.000000  0.556290  0.870114  1
  Re  Re8  1  0.000000  0.861434  0.820668  1
  Tc  Tc9  1  0.000000  0.639479  0.319981  1
  Tc  Tc10  1  0.000000  0.361164  0.680317  1
  Tc  Tc11  1  0.000000  0.138452  0.179008  1
  B  B12  1  0.500000  0.554099  0.433296  1
  B  B13  1  0.500000  0.447473  0.567568  1
  B  B14  1  0.500000  0.053008  0.066473  1
  B  B15  1  0.500000  0.946929  0.933497  1
  B  B16  1  0.500000  0.750035  0.418970  1
  B  B17  1  0.500000  0.250486  0.582084  1
  B  B18  1  0.500000  0.249510  0.080577  1
  B  B19  1  0.500000  0.749949  0.919246  1
  B  B20  1  0.500000  0.792563  0.264475  1
  B  B21  1  0.500000  0.207560  0.735640  1
  B  B22  1  0.500000  0.292008  0.234425  1
  B  B23  1  0.500000  0.707268  0.764978  1
  B  B24  1  0.500000  0.630662  0.184508  1
  B  B25  1  0.500000  0.369465  0.815539  1
  B  B26  1  0.500000  0.129713  0.314473  1
  B  B27  1  0.500000  0.869688  0.684677  1
  B  B28  1  0.500000  0.980976  0.211305  1
  B  B29  1  0.500000  0.018991  0.788223  1
  B  B30  1  0.500000  0.482041  0.287732  1
  B  B31  1  0.500000  0.518869  0.712275  1
  B  B32  1  0.500000  0.599467  0.027778  1
  B  B33  1  0.500000  0.400119  0.972390  1
  B  B34  1  0.500000  0.098571  0.472291  1
  B  B35  1  0.500000  0.900616  0.527601  1
