# generated using pymatgen
data_Ho2ErTaIn2Ir3
_symmetry_space_group_name_H-M   'P 1'
_cell_length_a   7.33915853
_cell_length_b   7.08853676
_cell_length_c   4.21240000
_cell_angle_alpha   90.00000000
_cell_angle_beta   90.00000000
_cell_angle_gamma   118.85779607
_symmetry_Int_Tables_number   1
_chemical_formula_structural   Ho2ErTaIn2Ir3
_chemical_formula_sum   'Ho2 Er1 Ta1 In2 Ir3'
_cell_volume   191.93203292
_cell_formula_units_Z   1
loop_
 _symmetry_equiv_pos_site_id
 _symmetry_equiv_pos_as_xyz
  1  'x, y, z'
loop_
 _atom_site_type_symbol
 _atom_site_label
 _atom_site_symmetry_multiplicity
 _atom_site_fract_x
 _atom_site_fract_y
 _atom_site_fract_z
 _atom_site_occupancy
  Ho  Ho0  1  0.410570  0.996964  0.000000  1
  Ho  Ho1  1  0.999901  0.402097  0.000000  1
  Er  Er2  1  0.590456  0.586728  0.000000  1
  Ta  Ta3  1  0.999803  0.751475  0.500000  1
  In  In4  1  0.251178  0.253124  0.500000  1
  In  In5  1  0.748953  0.001581  0.500000  1
  Ir  Ir6  1  0.999403  0.962053  0.000000  1
  Ir  Ir7  1  0.687191  0.367146  0.500000  1
  Ir  Ir8  1  0.312546  0.678832  0.500000  1
