# generated using pymatgen
data_LaDyErRh9
_symmetry_space_group_name_H-M   'P 1'
_cell_length_a   5.26939100
_cell_length_b   5.27193102
_cell_length_c   17.53958900
_cell_angle_alpha   89.99986958
_cell_angle_beta   89.99991301
_cell_angle_gamma   119.99706963
_symmetry_Int_Tables_number   1
_chemical_formula_structural   LaDyErRh9
_chemical_formula_sum   'La2 Dy2 Er2 Rh18'
_cell_volume   421.98111167
_cell_formula_units_Z   2
loop_
 _symmetry_equiv_pos_site_id
 _symmetry_equiv_pos_as_xyz
  1  'x, y, z'
loop_
 _atom_site_type_symbol
 _atom_site_label
 _atom_site_symmetry_multiplicity
 _atom_site_fract_x
 _atom_site_fract_y
 _atom_site_fract_z
 _atom_site_occupancy
  La  La0  1  0.333347  0.666670  0.750056  1
  La  La1  1  0.666653  0.333330  0.249944  1
  Dy  Dy2  1  0.333359  0.666702  0.958613  1
  Dy  Dy3  1  0.666641  0.333298  0.041387  1
  Er  Er4  1  0.666642  0.333314  0.458651  1
  Er  Er5  1  0.333358  0.666686  0.541349  1
  Rh  Rh6  1  0.167342  0.832632  0.375763  1
  Rh  Rh7  1  0.167334  0.334681  0.375760  1
  Rh  Rh8  1  0.665287  0.832638  0.375776  1
  Rh  Rh9  1  0.832658  0.167368  0.624237  1
  Rh  Rh10  1  0.832666  0.665319  0.624240  1
  Rh  Rh11  1  0.334713  0.167362  0.624224  1
  Rh  Rh12  1  0.832672  0.167352  0.875473  1
  Rh  Rh13  1  0.832687  0.665356  0.875456  1
  Rh  Rh14  1  0.334702  0.167357  0.875477  1
  Rh  Rh15  1  0.167328  0.832648  0.124527  1
  Rh  Rh16  1  0.167313  0.334644  0.124544  1
  Rh  Rh17  1  0.665298  0.832643  0.124523  1
  Rh  Rh18  1  0.333274  0.666603  0.250138  1
  Rh  Rh19  1  0.666726  0.333397  0.749862  1
  Rh  Rh20  1  0.000055  0.000066  0.250086  1
  Rh  Rh21  1  0.999945  0.999934  0.749914  1
  Rh  Rh22  1  0.000000  0.000000  0.500000  1
  Rh  Rh23  1  0.000000  0.000000  0.000000  1
