# generated using pymatgen
data_YS23
_symmetry_space_group_name_H-M   'P 1'
_cell_length_a   5.59544724
_cell_length_b   9.59366166
_cell_length_c   16.29899502
_cell_angle_alpha   82.42592281
_cell_angle_beta   85.98404554
_cell_angle_gamma   91.36398531
_symmetry_Int_Tables_number   1
_chemical_formula_structural   YS23
_chemical_formula_sum   'Y1 S23'
_cell_volume   864.69736225
_cell_formula_units_Z   1
loop_
 _symmetry_equiv_pos_site_id
 _symmetry_equiv_pos_as_xyz
  1  'x, y, z'
loop_
 _atom_site_type_symbol
 _atom_site_label
 _atom_site_symmetry_multiplicity
 _atom_site_fract_x
 _atom_site_fract_y
 _atom_site_fract_z
 _atom_site_occupancy
  Y  Y0  1  0.622670  0.172040  0.430595  1
  S  S1  1  0.736842  0.919974  0.395514  1
  S  S2  1  0.018150  0.302545  0.100064  1
  S  S3  1  0.784356  0.226518  0.570185  1
  S  S4  1  0.468227  0.888898  0.489021  1
  S  S5  1  0.172456  0.279980  0.984009  1
  S  S6  1  0.815129  0.742484  0.026635  1
  S  S7  1  0.139506  0.198203  0.382483  1
  S  S8  1  0.599736  0.408275  0.310215  1
  S  S9  1  0.853838  0.112755  0.152168  1
  S  S10  1  0.266698  0.875319  0.119182  1
  S  S11  1  0.701015  0.648541  0.629162  1
  S  S12  1  0.304192  0.436786  0.564902  1
  S  S13  1  0.148998  0.901919  0.860486  1
  S  S14  1  0.733932  0.139394  0.887416  1
  S  S15  1  0.061995  0.694903  0.113692  1
  S  S16  1  0.610434  0.854390  0.606518  1
  S  S17  1  0.418887  0.227728  0.588618  1
  S  S18  1  0.967357  0.716597  0.910695  1
  S  S19  1  0.924193  0.323315  0.896985  1
  S  S20  1  0.245087  0.379930  0.307986  1
  S  S21  1  0.107613  0.986345  0.207389  1
  S  S22  1  0.386652  0.529187  0.665928  1
  S  S23  1  0.912036  0.033972  0.800154  1
