# generated using pymatgen
data_LaTmCdCu9
_symmetry_space_group_name_H-M   'P 1'
_cell_length_a   5.12328500
_cell_length_b   5.12328442
_cell_length_c   16.41381200
_cell_angle_alpha   90.00000000
_cell_angle_beta   90.00000000
_cell_angle_gamma   120.00001022
_symmetry_Int_Tables_number   1
_chemical_formula_structural   LaTmCdCu9
_chemical_formula_sum   'La2 Tm2 Cd2 Cu18'
_cell_volume   373.11011572
_cell_formula_units_Z   2
loop_
 _symmetry_equiv_pos_site_id
 _symmetry_equiv_pos_as_xyz
  1  'x, y, z'
loop_
 _atom_site_type_symbol
 _atom_site_label
 _atom_site_symmetry_multiplicity
 _atom_site_fract_x
 _atom_site_fract_y
 _atom_site_fract_z
 _atom_site_occupancy
  La  La0  1  0.666667  0.333333  0.237042  1
  La  La1  1  0.333333  0.666667  0.737042  1
  Tm  Tm2  1  0.666667  0.333333  0.471178  1
  Tm  Tm3  1  0.333333  0.666667  0.971178  1
  Cd  Cd4  1  0.666667  0.333333  0.034379  1
  Cd  Cd5  1  0.333333  0.666667  0.534379  1
  Cu  Cu6  1  0.333333  0.666667  0.250917  1
  Cu  Cu7  1  0.666667  0.333333  0.750917  1
  Cu  Cu8  1  0.168375  0.831625  0.377028  1
  Cu  Cu9  1  0.168375  0.336751  0.377028  1
  Cu  Cu10  1  0.000000  0.000000  0.753272  1
  Cu  Cu11  1  0.000000  0.000000  0.253272  1
  Cu  Cu12  1  0.000000  0.000000  0.000773  1
  Cu  Cu13  1  0.000000  0.000000  0.500773  1
  Cu  Cu14  1  0.166530  0.333064  0.123785  1
  Cu  Cu15  1  0.833470  0.166530  0.623785  1
  Cu  Cu16  1  0.333064  0.166530  0.623785  1
  Cu  Cu17  1  0.666936  0.833470  0.123785  1
  Cu  Cu18  1  0.166530  0.833470  0.123785  1
  Cu  Cu19  1  0.831625  0.663249  0.877028  1
  Cu  Cu20  1  0.831625  0.168375  0.877028  1
  Cu  Cu21  1  0.833470  0.666936  0.623785  1
  Cu  Cu22  1  0.336751  0.168375  0.877028  1
  Cu  Cu23  1  0.663249  0.831625  0.377028  1
