# generated using pymatgen
data_YTh(HgRh)2
_symmetry_space_group_name_H-M   'P 1'
_cell_length_a   3.90632900
_cell_length_b   7.45682737
_cell_length_c   9.18315617
_cell_angle_alpha   92.95976880
_cell_angle_beta   90.00000000
_cell_angle_gamma   90.00000000
_symmetry_Int_Tables_number   1
_chemical_formula_structural   YTh(HgRh)2
_chemical_formula_sum   'Y2 Th2 Hg4 Rh4'
_cell_volume   267.13768441
_cell_formula_units_Z   2
loop_
 _symmetry_equiv_pos_site_id
 _symmetry_equiv_pos_as_xyz
  1  'x, y, z'
loop_
 _atom_site_type_symbol
 _atom_site_label
 _atom_site_symmetry_multiplicity
 _atom_site_fract_x
 _atom_site_fract_y
 _atom_site_fract_z
 _atom_site_occupancy
  Y  Y0  1  0.750000  0.949423  0.687039  1
  Y  Y1  1  0.250000  0.050577  0.312961  1
  Th  Th2  1  0.250000  0.545476  0.193983  1
  Th  Th3  1  0.750000  0.454524  0.806017  1
  Hg  Hg4  1  0.250000  0.651537  0.555732  1
  Hg  Hg5  1  0.750000  0.348463  0.444268  1
  Hg  Hg6  1  0.750000  0.868343  0.061205  1
  Hg  Hg7  1  0.250000  0.131657  0.938795  1
  Rh  Rh8  1  0.250000  0.715285  0.861121  1
  Rh  Rh9  1  0.750000  0.284715  0.138879  1
  Rh  Rh10  1  0.750000  0.761197  0.349006  1
  Rh  Rh11  1  0.250000  0.238803  0.650994  1
