# generated using pymatgen
data_Pr8Dy12Si15Rh
_symmetry_space_group_name_H-M   'P 1'
_cell_length_a   7.58356177
_cell_length_b   7.81091360
_cell_length_c   14.86185654
_cell_angle_alpha   89.82973905
_cell_angle_beta   89.80739750
_cell_angle_gamma   90.31711402
_symmetry_Int_Tables_number   1
_chemical_formula_structural   Pr8Dy12Si15Rh
_chemical_formula_sum   'Pr8 Dy12 Si15 Rh1'
_cell_volume   880.31292799
_cell_formula_units_Z   1
loop_
 _symmetry_equiv_pos_site_id
 _symmetry_equiv_pos_as_xyz
  1  'x, y, z'
loop_
 _atom_site_type_symbol
 _atom_site_label
 _atom_site_symmetry_multiplicity
 _atom_site_fract_x
 _atom_site_fract_y
 _atom_site_fract_z
 _atom_site_occupancy
  Pr  Pr0  1  0.975365  0.817261  0.096527  1
  Pr  Pr1  1  0.474004  0.678038  0.401757  1
  Pr  Pr2  1  0.527601  0.324864  0.899959  1
  Pr  Pr3  1  0.027286  0.180928  0.599528  1
  Pr  Pr4  1  0.025444  0.182324  0.902143  1
  Pr  Pr5  1  0.527810  0.320952  0.599300  1
  Pr  Pr6  1  0.474929  0.679617  0.100454  1
  Pr  Pr7  1  0.973354  0.821112  0.400832  1
  Dy  Dy8  1  0.650239  0.993667  0.248999  1
  Dy  Dy9  1  0.148480  0.509308  0.247454  1
  Dy  Dy10  1  0.847539  0.492268  0.757314  1
  Dy  Dy11  1  0.349790  0.009011  0.752410  1
  Dy  Dy12  1  0.682001  0.813673  0.882058  1
  Dy  Dy13  1  0.178571  0.681535  0.622222  1
  Dy  Dy14  1  0.820746  0.333743  0.118632  1
  Dy  Dy15  1  0.316031  0.177076  0.376210  1
  Dy  Dy16  1  0.320997  0.177641  0.123562  1
  Dy  Dy17  1  0.819634  0.319326  0.377133  1
  Dy  Dy18  1  0.175601  0.673787  0.879111  1
  Dy  Dy19  1  0.682574  0.819682  0.622475  1
  Si  Si20  1  0.765488  0.621483  0.251158  1
  Si  Si21  1  0.267205  0.878802  0.250719  1
  Si  Si22  1  0.731953  0.117054  0.749362  1
  Si  Si23  1  0.233915  0.380674  0.747357  1
  Si  Si24  1  0.022106  0.114829  0.248175  1
  Si  Si25  1  0.525834  0.387551  0.251477  1
  Si  Si26  1  0.469994  0.614690  0.746873  1
  Si  Si27  1  0.973924  0.888512  0.749289  1
  Si  Si28  1  0.356984  0.969763  0.539434  1
  Si  Si29  1  0.641913  0.031496  0.040814  1
  Si  Si30  1  0.143846  0.468544  0.460050  1
  Si  Si31  1  0.153113  0.467401  0.041847  1
  Si  Si32  1  0.641971  0.030660  0.460093  1
  Si  Si33  1  0.355475  0.967693  0.961148  1
  Si  Si34  1  0.858023  0.530768  0.538371  1
  Rh  Rh35  1  0.860258  0.524271  0.955754  1
