# generated using pymatgen
data_Lu15ThIn4PtRh3
_symmetry_space_group_name_H-M   'P 1'
_cell_length_a   9.48472795
_cell_length_b   9.48472939
_cell_length_c   9.48472919
_cell_angle_alpha   60.39200017
_cell_angle_beta   60.39200182
_cell_angle_gamma   60.39200189
_symmetry_Int_Tables_number   1
_chemical_formula_structural   Lu15ThIn4PtRh3
_chemical_formula_sum   'Lu15 Th1 In4 Pt1 Rh3'
_cell_volume   608.68555321
_cell_formula_units_Z   1
loop_
 _symmetry_equiv_pos_site_id
 _symmetry_equiv_pos_as_xyz
  1  'x, y, z'
loop_
 _atom_site_type_symbol
 _atom_site_label
 _atom_site_symmetry_multiplicity
 _atom_site_fract_x
 _atom_site_fract_y
 _atom_site_fract_z
 _atom_site_occupancy
  Lu  Lu0  1  0.604124  0.604124  0.191845  1
  Lu  Lu1  1  0.604124  0.191845  0.604124  1
  Lu  Lu2  1  0.191845  0.604124  0.604124  1
  Lu  Lu3  1  0.059700  0.439204  0.439204  1
  Lu  Lu4  1  0.441803  0.060059  0.060059  1
  Lu  Lu5  1  0.439204  0.059700  0.439204  1
  Lu  Lu6  1  0.060059  0.441803  0.060059  1
  Lu  Lu7  1  0.439204  0.439204  0.059700  1
  Lu  Lu8  1  0.060059  0.060059  0.441803  1
  Lu  Lu9  1  0.183969  0.816636  0.816636  1
  Lu  Lu10  1  0.814302  0.190684  0.190684  1
  Lu  Lu11  1  0.816636  0.183969  0.816636  1
  Lu  Lu12  1  0.190684  0.814302  0.190684  1
  Lu  Lu13  1  0.816636  0.816636  0.183969  1
  Lu  Lu14  1  0.190684  0.190684  0.814302  1
  Th  Th15  1  0.594127  0.594127  0.594127  1
  In  In16  1  0.834699  0.834699  0.834699  1
  In  In17  1  0.833664  0.833664  0.497889  1
  In  In18  1  0.833664  0.497889  0.833664  1
  In  In19  1  0.497889  0.833664  0.833664  1
  Pt  Pt20  1  0.393498  0.393498  0.393498  1
  Rh  Rh21  1  0.387622  0.387622  0.824182  1
  Rh  Rh22  1  0.387622  0.824182  0.387622  1
  Rh  Rh23  1  0.824182  0.387622  0.387622  1
