# generated using pymatgen
data_GdNpReB6
_symmetry_space_group_name_H-M   'P 1'
_cell_length_a   3.64260800
_cell_length_b   9.28614900
_cell_length_c   11.37139300
_cell_angle_alpha   90.00000000
_cell_angle_beta   90.00000000
_cell_angle_gamma   90.00000000
_symmetry_Int_Tables_number   1
_chemical_formula_structural   GdNpReB6
_chemical_formula_sum   'Gd4 Np4 Re4 B24'
_cell_volume   384.64647258
_cell_formula_units_Z   4
loop_
 _symmetry_equiv_pos_site_id
 _symmetry_equiv_pos_as_xyz
  1  'x, y, z'
loop_
 _atom_site_type_symbol
 _atom_site_label
 _atom_site_symmetry_multiplicity
 _atom_site_fract_x
 _atom_site_fract_y
 _atom_site_fract_z
 _atom_site_occupancy
  Gd  Gd0  1  0.000000  0.336867  0.407016  1
  Gd  Gd1  1  0.000000  0.663133  0.592984  1
  Gd  Gd2  1  0.000000  0.836867  0.092984  1
  Gd  Gd3  1  0.000000  0.163133  0.907016  1
  Np  Np4  1  0.000000  0.959087  0.400884  1
  Np  Np5  1  0.000000  0.040913  0.599116  1
  Np  Np6  1  0.000000  0.459087  0.099116  1
  Np  Np7  1  0.000000  0.540913  0.900884  1
  Re  Re8  1  0.000000  0.646473  0.317997  1
  Re  Re9  1  0.000000  0.353527  0.682003  1
  Re  Re10  1  0.000000  0.146473  0.182003  1
  Re  Re11  1  0.000000  0.853527  0.817997  1
  B  B12  1  0.500000  0.552690  0.430718  1
  B  B13  1  0.500000  0.447310  0.569282  1
  B  B14  1  0.500000  0.052690  0.069282  1
  B  B15  1  0.500000  0.947310  0.930718  1
  B  B16  1  0.500000  0.744472  0.422506  1
  B  B17  1  0.500000  0.255528  0.577494  1
  B  B18  1  0.500000  0.244472  0.077494  1
  B  B19  1  0.500000  0.755528  0.922506  1
  B  B20  1  0.500000  0.803556  0.274965  1
  B  B21  1  0.500000  0.196444  0.725035  1
  B  B22  1  0.500000  0.303556  0.225035  1
  B  B23  1  0.500000  0.696444  0.774965  1
  B  B24  1  0.500000  0.643351  0.188145  1
  B  B25  1  0.500000  0.356649  0.811855  1
  B  B26  1  0.500000  0.143351  0.311855  1
  B  B27  1  0.500000  0.856649  0.688145  1
  B  B28  1  0.500000  0.988739  0.220610  1
  B  B29  1  0.500000  0.011261  0.779390  1
  B  B30  1  0.500000  0.488739  0.279390  1
  B  B31  1  0.500000  0.511261  0.720610  1
  B  B32  1  0.500000  0.638220  0.038095  1
  B  B33  1  0.500000  0.361780  0.961905  1
  B  B34  1  0.500000  0.138220  0.461905  1
  B  B35  1  0.500000  0.861780  0.538095  1
