# generated using pymatgen
data_Th10Tl2BiPb5
_symmetry_space_group_name_H-M   'P 1'
_cell_length_a   9.80105300
_cell_length_b   9.80105276
_cell_length_c   6.65866500
_cell_angle_alpha   90.00000000
_cell_angle_beta   90.00000000
_cell_angle_gamma   120.06735397
_symmetry_Int_Tables_number   1
_chemical_formula_structural   Th10Tl2BiPb5
_chemical_formula_sum   'Th10 Tl2 Bi1 Pb5'
_cell_volume   553.56433898
_cell_formula_units_Z   1
loop_
 _symmetry_equiv_pos_site_id
 _symmetry_equiv_pos_as_xyz
  1  'x, y, z'
loop_
 _atom_site_type_symbol
 _atom_site_label
 _atom_site_symmetry_multiplicity
 _atom_site_fract_x
 _atom_site_fract_y
 _atom_site_fract_z
 _atom_site_occupancy
  Th  Th0  1  0.667736  0.333637  0.500568  1
  Th  Th1  1  0.333637  0.667736  0.500568  1
  Th  Th2  1  0.333637  0.667736  0.999432  1
  Th  Th3  1  0.667736  0.333637  0.999432  1
  Th  Th4  1  0.721400  0.721400  0.250000  1
  Th  Th5  1  0.277659  0.998892  0.250000  1
  Th  Th6  1  0.998892  0.277659  0.250000  1
  Th  Th7  1  0.278545  0.278545  0.750000  1
  Th  Th8  1  0.721108  0.000100  0.750000  1
  Th  Th9  1  0.000100  0.721108  0.750000  1
  Tl  Tl10  1  0.999495  0.999495  0.500638  1
  Tl  Tl11  1  0.999495  0.999495  0.999362  1
  Bi  Bi12  1  0.379341  0.379341  0.250000  1
  Pb  Pb13  1  0.621651  0.999628  0.250000  1
  Pb  Pb14  1  0.999628  0.621651  0.250000  1
  Pb  Pb15  1  0.621933  0.621933  0.750000  1
  Pb  Pb16  1  0.378040  0.999966  0.750000  1
  Pb  Pb17  1  0.999966  0.378040  0.750000  1
