# generated using pymatgen
data_Y4GaCo9Si4
_symmetry_space_group_name_H-M   'P 1'
_cell_length_a   11.44541086
_cell_length_b   11.44541097
_cell_length_c   11.44541096
_cell_angle_alpha   26.36896906
_cell_angle_beta   26.36897053
_cell_angle_gamma   26.36896496
_symmetry_Int_Tables_number   1
_chemical_formula_structural   Y4GaCo9Si4
_chemical_formula_sum   'Y4 Ga1 Co9 Si4'
_cell_volume   260.66117731
_cell_formula_units_Z   1
loop_
 _symmetry_equiv_pos_site_id
 _symmetry_equiv_pos_as_xyz
  1  'x, y, z'
loop_
 _atom_site_type_symbol
 _atom_site_label
 _atom_site_symmetry_multiplicity
 _atom_site_fract_x
 _atom_site_fract_y
 _atom_site_fract_z
 _atom_site_occupancy
  Y  Y0  1  0.949793  0.949793  0.949793  1
  Y  Y1  1  0.852474  0.852474  0.852474  1
  Y  Y2  1  0.147526  0.147526  0.147526  1
  Y  Y3  1  0.050207  0.050207  0.050207  1
  Ga  Ga4  1  0.500000  0.500000  0.500000  1
  Co  Co5  1  0.607196  0.607196  0.103283  1
  Co  Co6  1  0.896717  0.392804  0.392804  1
  Co  Co7  1  0.500000  0.000000  0.500000  1
  Co  Co8  1  0.392804  0.896717  0.392804  1
  Co  Co9  1  0.500000  0.500000  0.000000  1
  Co  Co10  1  0.103283  0.607196  0.607196  1
  Co  Co11  1  0.000000  0.500000  0.500000  1
  Co  Co12  1  0.392804  0.392804  0.896717  1
  Co  Co13  1  0.607196  0.103283  0.607196  1
  Si  Si14  1  0.279758  0.279758  0.279758  1
  Si  Si15  1  0.386974  0.386974  0.386974  1
  Si  Si16  1  0.720242  0.720242  0.720242  1
  Si  Si17  1  0.613026  0.613026  0.613026  1
