# generated using pymatgen
data_Zr8Ti11Si16Ir
_symmetry_space_group_name_H-M   'P 1'
_cell_length_a   6.83337465
_cell_length_b   6.83337539
_cell_length_c   12.50251629
_cell_angle_alpha   90.18641954
_cell_angle_beta   89.81357748
_cell_angle_gamma   89.89537865
_symmetry_Int_Tables_number   1
_chemical_formula_structural   Zr8Ti11Si16Ir
_chemical_formula_sum   'Zr8 Ti11 Si16 Ir1'
_cell_volume   583.79801016
_cell_formula_units_Z   1
loop_
 _symmetry_equiv_pos_site_id
 _symmetry_equiv_pos_as_xyz
  1  'x, y, z'
loop_
 _atom_site_type_symbol
 _atom_site_label
 _atom_site_symmetry_multiplicity
 _atom_site_fract_x
 _atom_site_fract_y
 _atom_site_fract_z
 _atom_site_occupancy
  Zr  Zr0  1  0.343561  0.000024  0.467945  1
  Zr  Zr1  1  0.499725  0.843262  0.719794  1
  Zr  Zr2  1  0.499701  0.155207  0.218808  1
  Zr  Zr3  1  0.843262  0.499725  0.280206  1
  Zr  Zr4  1  0.155207  0.499701  0.781192  1
  Zr  Zr5  1  0.658795  0.998689  0.969000  1
  Zr  Zr6  1  0.000024  0.343561  0.532055  1
  Zr  Zr7  1  0.998689  0.658795  0.031000  1
  Ti  Ti8  1  0.172645  0.828902  0.247563  1
  Ti  Ti9  1  0.828902  0.172645  0.752437  1
  Ti  Ti10  1  0.671830  0.671830  0.500000  1
  Ti  Ti11  1  0.149485  0.000563  0.871757  1
  Ti  Ti12  1  0.496563  0.654549  0.122266  1
  Ti  Ti13  1  0.503861  0.349441  0.625333  1
  Ti  Ti14  1  0.654549  0.496563  0.877734  1
  Ti  Ti15  1  0.349441  0.503861  0.374667  1
  Ti  Ti16  1  0.847851  0.995860  0.372131  1
  Ti  Ti17  1  0.000563  0.149485  0.128243  1
  Ti  Ti18  1  0.995860  0.847851  0.627869  1
  Si  Si19  1  0.206224  0.135559  0.678016  1
  Si  Si20  1  0.366082  0.707211  0.926960  1
  Si  Si21  1  0.634925  0.294661  0.428234  1
  Si  Si22  1  0.707211  0.366082  0.073040  1
  Si  Si23  1  0.294661  0.634925  0.571766  1
  Si  Si24  1  0.794253  0.863067  0.178063  1
  Si  Si25  1  0.135559  0.206224  0.321984  1
  Si  Si26  1  0.863067  0.794253  0.821937  1
  Si  Si27  1  0.291608  0.955667  0.062321  1
  Si  Si28  1  0.545768  0.794204  0.314351  1
  Si  Si29  1  0.451053  0.208292  0.816772  1
  Si  Si30  1  0.794204  0.545768  0.685649  1
  Si  Si31  1  0.208292  0.451053  0.183228  1
  Si  Si32  1  0.706881  0.046692  0.564402  1
  Si  Si33  1  0.955667  0.291608  0.937679  1
  Si  Si34  1  0.046692  0.706881  0.435598  1
  Ir  Ir35  1  0.327344  0.327344  0.000000  1
