# generated using pymatgen
data_Tm2AlZnRh2
_symmetry_space_group_name_H-M   'P 1'
_cell_length_a   4.04308500
_cell_length_b   6.89580005
_cell_length_c   8.04993105
_cell_angle_alpha   90.01308723
_cell_angle_beta   90.00000000
_cell_angle_gamma   90.00000000
_symmetry_Int_Tables_number   1
_chemical_formula_structural   Tm2AlZnRh2
_chemical_formula_sum   'Tm4 Al2 Zn2 Rh4'
_cell_volume   224.43453295
_cell_formula_units_Z   2
loop_
 _symmetry_equiv_pos_site_id
 _symmetry_equiv_pos_as_xyz
  1  'x, y, z'
loop_
 _atom_site_type_symbol
 _atom_site_label
 _atom_site_symmetry_multiplicity
 _atom_site_fract_x
 _atom_site_fract_y
 _atom_site_fract_z
 _atom_site_occupancy
  Tm  Tm0  1  0.250000  0.537542  0.178801  1
  Tm  Tm1  1  0.750000  0.462458  0.821199  1
  Tm  Tm2  1  0.750000  0.961728  0.685771  1
  Tm  Tm3  1  0.250000  0.038272  0.314229  1
  Al  Al4  1  0.250000  0.638010  0.561931  1
  Al  Al5  1  0.750000  0.361990  0.438069  1
  Zn  Zn6  1  0.750000  0.860751  0.064943  1
  Zn  Zn7  1  0.250000  0.139249  0.935057  1
  Rh  Rh8  1  0.250000  0.752976  0.870919  1
  Rh  Rh9  1  0.750000  0.247024  0.129081  1
  Rh  Rh10  1  0.750000  0.735688  0.387880  1
  Rh  Rh11  1  0.250000  0.264312  0.612120  1
