# generated using pymatgen
data_SmTh(Al5Os)4
_symmetry_space_group_name_H-M   'P 1'
_cell_length_a   6.88170600
_cell_length_b   6.88170420
_cell_length_c   9.16690000
_cell_angle_alpha   90.00000000
_cell_angle_beta   90.00000000
_cell_angle_gamma   96.85943439
_symmetry_Int_Tables_number   1
_chemical_formula_structural   SmTh(Al5Os)4
_chemical_formula_sum   'Sm1 Th1 Al20 Os4'
_cell_volume   431.01741354
_cell_formula_units_Z   1
loop_
 _symmetry_equiv_pos_site_id
 _symmetry_equiv_pos_as_xyz
  1  'x, y, z'
loop_
 _atom_site_type_symbol
 _atom_site_label
 _atom_site_symmetry_multiplicity
 _atom_site_fract_x
 _atom_site_fract_y
 _atom_site_fract_z
 _atom_site_occupancy
  Sm  Sm0  1  0.370863  0.629137  0.250000  1
  Th  Th1  1  0.628107  0.371893  0.750000  1
  Al  Al2  1  0.279795  0.016049  0.750000  1
  Al  Al3  1  0.016840  0.281790  0.250000  1
  Al  Al4  1  0.718210  0.983160  0.250000  1
  Al  Al5  1  0.983951  0.720205  0.750000  1
  Al  Al6  1  0.878575  0.121425  0.950023  1
  Al  Al7  1  0.123341  0.876659  0.047008  1
  Al  Al8  1  0.878575  0.121425  0.549977  1
  Al  Al9  1  0.123341  0.876659  0.452992  1
  Al  Al10  1  0.643471  0.909030  0.750000  1
  Al  Al11  1  0.916381  0.646455  0.250000  1
  Al  Al12  1  0.353545  0.083619  0.250000  1
  Al  Al13  1  0.090970  0.356529  0.750000  1
  Al  Al14  1  0.341599  0.658401  0.898364  1
  Al  Al15  1  0.659566  0.340434  0.104146  1
  Al  Al16  1  0.341599  0.658401  0.601636  1
  Al  Al17  1  0.659566  0.340434  0.395854  1
  Al  Al18  1  0.724117  0.726201  0.001900  1
  Al  Al19  1  0.724117  0.726201  0.498100  1
  Al  Al20  1  0.273799  0.275883  0.001900  1
  Al  Al21  1  0.273799  0.275883  0.498100  1
  Os  Os22  1  0.500325  0.002390  0.998954  1
  Os  Os23  1  0.997610  0.499675  0.998954  1
  Os  Os24  1  0.500325  0.002390  0.501046  1
  Os  Os25  1  0.997610  0.499675  0.501046  1
