# generated using pymatgen
data_Ta4MoAs4
_symmetry_space_group_name_H-M   'P 1'
_cell_length_a   7.14369679
_cell_length_b   7.14369726
_cell_length_c   7.14363205
_cell_angle_alpha   93.39307602
_cell_angle_beta   93.39190839
_cell_angle_gamma   151.84203614
_symmetry_Int_Tables_number   1
_chemical_formula_structural   Ta4MoAs4
_chemical_formula_sum   'Ta4 Mo1 As4'
_cell_volume   166.86798087
_cell_formula_units_Z   1
loop_
 _symmetry_equiv_pos_site_id
 _symmetry_equiv_pos_as_xyz
  1  'x, y, z'
loop_
 _atom_site_type_symbol
 _atom_site_label
 _atom_site_symmetry_multiplicity
 _atom_site_fract_x
 _atom_site_fract_y
 _atom_site_fract_z
 _atom_site_occupancy
  Ta  Ta0  1  0.626912  0.307382  0.934294  1
  Ta  Ta1  1  0.692617  0.626913  0.319531  1
  Ta  Ta2  1  0.307383  0.373087  0.680469  1
  Ta  Ta3  1  0.373088  0.692618  0.065706  1
  Mo  Mo4  1  0.000000  0.000000  0.000000  1
  As  As5  1  0.715535  0.053337  0.768874  1
  As  As6  1  0.946662  0.715536  0.662197  1
  As  As7  1  0.053338  0.284464  0.337803  1
  As  As8  1  0.284465  0.946663  0.231126  1
