# generated using pymatgen
data_AlInFeF6
_symmetry_space_group_name_H-M   'P 1'
_cell_length_a   7.21157300
_cell_length_b   7.16009100
_cell_length_c   10.08640700
_cell_angle_alpha   90.00000000
_cell_angle_beta   90.00000000
_cell_angle_gamma   90.00000000
_symmetry_Int_Tables_number   1
_chemical_formula_structural   AlInFeF6
_chemical_formula_sum   'Al4 In4 Fe4 F24'
_cell_volume   520.81685962
_cell_formula_units_Z   4
loop_
 _symmetry_equiv_pos_site_id
 _symmetry_equiv_pos_as_xyz
  1  'x, y, z'
loop_
 _atom_site_type_symbol
 _atom_site_label
 _atom_site_symmetry_multiplicity
 _atom_site_fract_x
 _atom_site_fract_y
 _atom_site_fract_z
 _atom_site_occupancy
  Al  Al0  1  0.000000  0.500000  0.500000  1
  Al  Al1  1  0.000000  0.000000  0.000000  1
  Al  Al2  1  0.500000  0.500000  0.500000  1
  Al  Al3  1  0.500000  0.000000  0.000000  1
  In  In4  1  0.250000  0.503276  0.115289  1
  In  In5  1  0.750000  0.496724  0.884711  1
  In  In6  1  0.750000  0.996724  0.615289  1
  In  In7  1  0.250000  0.003276  0.384711  1
  Fe  Fe8  1  0.250000  0.720069  0.760892  1
  Fe  Fe9  1  0.750000  0.279931  0.239108  1
  Fe  Fe10  1  0.750000  0.779931  0.260892  1
  Fe  Fe11  1  0.250000  0.220069  0.739108  1
  F  F12  1  0.047818  0.787189  0.907009  1
  F  F13  1  0.952182  0.212811  0.092991  1
  F  F14  1  0.952182  0.712811  0.407009  1
  F  F15  1  0.547818  0.212811  0.092991  1
  F  F16  1  0.047818  0.287189  0.592991  1
  F  F17  1  0.452182  0.787189  0.907009  1
  F  F18  1  0.452182  0.287189  0.592991  1
  F  F19  1  0.547818  0.712811  0.407009  1
  F  F20  1  0.250000  0.040590  0.027336  1
  F  F21  1  0.750000  0.959410  0.972664  1
  F  F22  1  0.750000  0.459410  0.527336  1
  F  F23  1  0.250000  0.540590  0.472664  1
  F  F24  1  0.488758  0.635468  0.651508  1
  F  F25  1  0.511242  0.364532  0.348492  1
  F  F26  1  0.511242  0.864532  0.151508  1
  F  F27  1  0.988758  0.364532  0.348492  1
  F  F28  1  0.488758  0.135468  0.848492  1
  F  F29  1  0.011242  0.635468  0.651508  1
  F  F30  1  0.011242  0.135468  0.848492  1
  F  F31  1  0.988758  0.864532  0.151508  1
  F  F32  1  0.250000  0.957491  0.649158  1
  F  F33  1  0.750000  0.042509  0.350842  1
  F  F34  1  0.750000  0.542509  0.149158  1
  F  F35  1  0.250000  0.457491  0.850842  1
