# generated using pymatgen
data_Er5ZnIn4Os
_symmetry_space_group_name_H-M   'P 1'
_cell_length_a   3.54783200
_cell_length_b   8.21366049
_cell_length_c   18.25959233
_cell_angle_alpha   89.21285950
_cell_angle_beta   90.00000000
_cell_angle_gamma   90.00000000
_symmetry_Int_Tables_number   1
_chemical_formula_structural   Er5ZnIn4Os
_chemical_formula_sum   'Er10 Zn2 In8 Os2'
_cell_volume   532.04686215
_cell_formula_units_Z   2
loop_
 _symmetry_equiv_pos_site_id
 _symmetry_equiv_pos_as_xyz
  1  'x, y, z'
loop_
 _atom_site_type_symbol
 _atom_site_label
 _atom_site_symmetry_multiplicity
 _atom_site_fract_x
 _atom_site_fract_y
 _atom_site_fract_z
 _atom_site_occupancy
  Er  Er0  1  0.000000  0.121023  0.420162  1
  Er  Er1  1  0.000000  0.878977  0.579838  1
  Er  Er2  1  0.000000  0.382335  0.915452  1
  Er  Er3  1  0.000000  0.617665  0.084548  1
  Er  Er4  1  0.000000  0.257199  0.219584  1
  Er  Er5  1  0.000000  0.742801  0.780416  1
  Er  Er6  1  0.000000  0.285857  0.723279  1
  Er  Er7  1  0.000000  0.714143  0.276721  1
  Er  Er8  1  0.000000  0.000000  0.000000  1
  Er  Er9  1  0.000000  0.500000  0.500000  1
  Zn  Zn10  1  0.500000  0.014227  0.301993  1
  Zn  Zn11  1  0.500000  0.985773  0.698007  1
  In  In12  1  0.500000  0.421232  0.352005  1
  In  In13  1  0.500000  0.578768  0.647995  1
  In  In14  1  0.500000  0.079774  0.849877  1
  In  In15  1  0.500000  0.920226  0.150123  1
  In  In16  1  0.500000  0.291492  0.069112  1
  In  In17  1  0.500000  0.708508  0.930888  1
  In  In18  1  0.500000  0.208527  0.570020  1
  In  In19  1  0.500000  0.791473  0.429980  1
  Os  Os20  1  0.500000  0.482995  0.805167  1
  Os  Os21  1  0.500000  0.517005  0.194833  1
