# generated using pymatgen
data_Hf2SiIr5
_symmetry_space_group_name_H-M   'P 1'
_cell_length_a   4.02921100
_cell_length_b   5.58521700
_cell_length_c   10.98219900
_cell_angle_alpha   90.00000000
_cell_angle_beta   90.00000000
_cell_angle_gamma   90.00000000
_symmetry_Int_Tables_number   1
_chemical_formula_structural   Hf2SiIr5
_chemical_formula_sum   'Hf4 Si2 Ir10'
_cell_volume   247.14360149
_cell_formula_units_Z   2
loop_
 _symmetry_equiv_pos_site_id
 _symmetry_equiv_pos_as_xyz
  1  'x, y, z'
loop_
 _atom_site_type_symbol
 _atom_site_label
 _atom_site_symmetry_multiplicity
 _atom_site_fract_x
 _atom_site_fract_y
 _atom_site_fract_z
 _atom_site_occupancy
  Hf  Hf0  1  0.500000  0.181758  0.639610  1
  Hf  Hf1  1  0.500000  0.818242  0.360390  1
  Hf  Hf2  1  0.500000  0.681758  0.860390  1
  Hf  Hf3  1  0.500000  0.318242  0.139610  1
  Si  Si4  1  0.000000  0.500000  0.500000  1
  Si  Si5  1  0.000000  0.000000  0.000000  1
  Ir  Ir6  1  0.500000  0.182484  0.894823  1
  Ir  Ir7  1  0.500000  0.817516  0.105177  1
  Ir  Ir8  1  0.500000  0.682484  0.605177  1
  Ir  Ir9  1  0.500000  0.317516  0.394823  1
  Ir  Ir10  1  0.000000  0.436530  0.746503  1
  Ir  Ir11  1  0.000000  0.563470  0.253497  1
  Ir  Ir12  1  0.000000  0.000000  0.500000  1
  Ir  Ir13  1  0.000000  0.500000  0.000000  1
  Ir  Ir14  1  0.000000  0.063470  0.246503  1
  Ir  Ir15  1  0.000000  0.936530  0.753497  1
