# generated using pymatgen
data_TbTmCo3P7Ru9
_symmetry_space_group_name_H-M   'P 1'
_cell_length_a   9.33041300
_cell_length_b   9.33041302
_cell_length_c   3.82546900
_cell_angle_alpha   90.00000000
_cell_angle_beta   90.00000000
_cell_angle_gamma   119.99999638
_symmetry_Int_Tables_number   1
_chemical_formula_structural   TbTmCo3P7Ru9
_chemical_formula_sum   'Tb1 Tm1 Co3 P7 Ru9'
_cell_volume   288.41448692
_cell_formula_units_Z   1
loop_
 _symmetry_equiv_pos_site_id
 _symmetry_equiv_pos_as_xyz
  1  'x, y, z'
loop_
 _atom_site_type_symbol
 _atom_site_label
 _atom_site_symmetry_multiplicity
 _atom_site_fract_x
 _atom_site_fract_y
 _atom_site_fract_z
 _atom_site_occupancy
  Tb  Tb0  1  0.666667  0.333333  0.000000  1
  Tm  Tm1  1  0.000000  0.000000  0.500000  1
  Co  Co2  1  0.491488  0.936197  0.000000  1
  Co  Co3  1  0.063803  0.555291  0.000000  1
  Co  Co4  1  0.444709  0.508512  0.000000  1
  P  P5  1  0.333333  0.666667  0.000000  1
  P  P6  1  0.448557  0.066919  0.500000  1
  P  P7  1  0.933081  0.381638  0.500000  1
  P  P8  1  0.618362  0.551443  0.500000  1
  P  P9  1  0.745366  0.968212  0.000000  1
  P  P10  1  0.031788  0.777153  0.000000  1
  P  P11  1  0.222847  0.254634  0.000000  1
  Ru  Ru12  1  0.759620  0.729671  0.000000  1
  Ru  Ru13  1  0.270329  0.029948  0.000000  1
  Ru  Ru14  1  0.970052  0.240380  0.000000  1
  Ru  Ru15  1  0.716494  0.101627  0.500000  1
  Ru  Ru16  1  0.898373  0.614866  0.500000  1
  Ru  Ru17  1  0.385134  0.283506  0.500000  1
  Ru  Ru18  1  0.539205  0.752206  0.500000  1
  Ru  Ru19  1  0.247794  0.787000  0.500000  1
  Ru  Ru20  1  0.213000  0.460795  0.500000  1
