# generated using pymatgen
data_TbTh7(Si3Ni)4
_symmetry_space_group_name_H-M   'P 1'
_cell_length_a   8.03361400
_cell_length_b   8.03359938
_cell_length_c   8.47661200
_cell_angle_alpha   90.00000000
_cell_angle_beta   90.00000000
_cell_angle_gamma   120.00025887
_symmetry_Int_Tables_number   1
_chemical_formula_structural   TbTh7(Si3Ni)4
_chemical_formula_sum   'Tb1 Th7 Si12 Ni4'
_cell_volume   473.77586689
_cell_formula_units_Z   1
loop_
 _symmetry_equiv_pos_site_id
 _symmetry_equiv_pos_as_xyz
  1  'x, y, z'
loop_
 _atom_site_type_symbol
 _atom_site_label
 _atom_site_symmetry_multiplicity
 _atom_site_fract_x
 _atom_site_fract_y
 _atom_site_fract_z
 _atom_site_occupancy
  Tb  Tb0  1  0.000001  0.000000  0.750000  1
  Th  Th1  1  0.500091  0.000184  0.250000  1
  Th  Th2  1  0.499915  0.999831  0.750000  1
  Th  Th3  1  0.999815  0.499907  0.250000  1
  Th  Th4  1  0.000168  0.500084  0.750000  1
  Th  Th5  1  0.500093  0.499908  0.250000  1
  Th  Th6  1  0.499917  0.500084  0.750000  1
  Th  Th7  1  0.000001  0.000002  0.250000  1
  Si  Si8  1  0.170365  0.340730  0.998402  1
  Si  Si9  1  0.829641  0.659282  0.998077  1
  Si  Si10  1  0.659271  0.829635  0.998402  1
  Si  Si11  1  0.829641  0.659282  0.501923  1
  Si  Si12  1  0.340718  0.170359  0.998077  1
  Si  Si13  1  0.170365  0.340730  0.501598  1
  Si  Si14  1  0.170364  0.829635  0.998402  1
  Si  Si15  1  0.340718  0.170359  0.501923  1
  Si  Si16  1  0.829641  0.170359  0.998077  1
  Si  Si17  1  0.659271  0.829635  0.501598  1
  Si  Si18  1  0.829641  0.170359  0.501923  1
  Si  Si19  1  0.170364  0.829635  0.501598  1
  Ni  Ni20  1  0.333334  0.666668  0.001037  1
  Ni  Ni21  1  0.666666  0.333331  0.999952  1
  Ni  Ni22  1  0.666666  0.333331  0.500048  1
  Ni  Ni23  1  0.333334  0.666668  0.498963  1
