# generated using pymatgen
data_Rb2Cd(ClF)2
_symmetry_space_group_name_H-M   'P 1'
_cell_length_a   8.75369759
_cell_length_b   8.75369710
_cell_length_c   6.62031100
_cell_angle_alpha   90.00000000
_cell_angle_beta   90.00000000
_cell_angle_gamma   135.57210501
_symmetry_Int_Tables_number   1
_chemical_formula_structural   Rb2Cd(ClF)2
_chemical_formula_sum   'Rb4 Cd2 Cl4 F4'
_cell_volume   355.11283992
_cell_formula_units_Z   2
loop_
 _symmetry_equiv_pos_site_id
 _symmetry_equiv_pos_as_xyz
  1  'x, y, z'
loop_
 _atom_site_type_symbol
 _atom_site_label
 _atom_site_symmetry_multiplicity
 _atom_site_fract_x
 _atom_site_fract_y
 _atom_site_fract_z
 _atom_site_occupancy
  Rb  Rb0  1  0.126577  0.873423  0.500000  1
  Rb  Rb1  1  0.626577  0.373423  0.000000  1
  Rb  Rb2  1  0.873423  0.126577  0.500000  1
  Rb  Rb3  1  0.373423  0.626577  0.000000  1
  Cd  Cd4  1  0.000000  0.000000  0.000000  1
  Cd  Cd5  1  0.500000  0.500000  0.500000  1
  Cl  Cl6  1  0.159240  0.840760  0.000000  1
  Cl  Cl7  1  0.840760  0.159240  0.000000  1
  Cl  Cl8  1  0.659240  0.340760  0.500000  1
  Cl  Cl9  1  0.340760  0.659240  0.500000  1
  F  F10  1  0.248710  0.248710  0.248697  1
  F  F11  1  0.751290  0.751290  0.751303  1
  F  F12  1  0.748710  0.748710  0.251303  1
  F  F13  1  0.251290  0.251290  0.748697  1
