# generated using pymatgen
data_Mg2TaIrRh2
_symmetry_space_group_name_H-M   'P 1'
_cell_length_a   3.22290100
_cell_length_b   4.42844129
_cell_length_c   6.96550900
_cell_angle_alpha   71.68937250
_cell_angle_beta   90.00000000
_cell_angle_gamma   90.00000000
_symmetry_Int_Tables_number   1
_chemical_formula_structural   Mg2TaIrRh2
_chemical_formula_sum   'Mg2 Ta1 Ir1 Rh2'
_cell_volume   94.38108092
_cell_formula_units_Z   1
loop_
 _symmetry_equiv_pos_site_id
 _symmetry_equiv_pos_as_xyz
  1  'x, y, z'
loop_
 _atom_site_type_symbol
 _atom_site_label
 _atom_site_symmetry_multiplicity
 _atom_site_fract_x
 _atom_site_fract_y
 _atom_site_fract_z
 _atom_site_occupancy
  Mg  Mg0  1  0.000000  0.334937  0.325239  1
  Mg  Mg1  1  0.000000  0.998543  0.008059  1
  Ta  Ta2  1  0.000000  0.666535  0.666674  1
  Ir  Ir3  1  0.500000  0.166589  0.666659  1
  Rh  Rh4  1  0.500000  0.509762  0.985056  1
  Rh  Rh5  1  0.500000  0.823633  0.348311  1
