# generated using pymatgen
data_Dy6Al13MoOs7W2
_symmetry_space_group_name_H-M   'P 1'
_cell_length_a   9.03771847
_cell_length_b   9.04252320
_cell_length_c   9.04250200
_cell_angle_alpha   59.75139272
_cell_angle_beta   59.74953309
_cell_angle_gamma   59.74929050
_symmetry_Int_Tables_number   1
_chemical_formula_structural   Dy6Al13MoOs7W2
_chemical_formula_sum   'Dy6 Al13 Mo1 Os7 W2'
_cell_volume   519.57742056
_cell_formula_units_Z   1
loop_
 _symmetry_equiv_pos_site_id
 _symmetry_equiv_pos_as_xyz
  1  'x, y, z'
loop_
 _atom_site_type_symbol
 _atom_site_label
 _atom_site_symmetry_multiplicity
 _atom_site_fract_x
 _atom_site_fract_y
 _atom_site_fract_z
 _atom_site_occupancy
  Dy  Dy0  1  0.708368  0.709585  0.284132  1
  Dy  Dy1  1  0.293922  0.708893  0.292511  1
  Dy  Dy2  1  0.707519  0.294015  0.294015  1
  Dy  Dy3  1  0.293923  0.292511  0.708893  1
  Dy  Dy4  1  0.708368  0.284132  0.709585  1
  Dy  Dy5  1  0.283918  0.709845  0.709844  1
  Al  Al6  1  0.879568  0.880079  0.880080  1
  Al  Al7  1  0.121532  0.122095  0.639334  1
  Al  Al8  1  0.121531  0.639335  0.122095  1
  Al  Al9  1  0.639792  0.121601  0.121602  1
  Al  Al10  1  0.121745  0.122113  0.122113  1
  Al  Al11  1  0.668439  0.669396  0.995462  1
  Al  Al12  1  0.668439  0.995463  0.669395  1
  Al  Al13  1  0.997178  0.668375  0.668375  1
  Al  Al14  1  0.662825  0.663743  0.663744  1
  Al  Al15  1  0.330750  0.330691  0.010046  1
  Al  Al16  1  0.330750  0.010046  0.330691  1
  Al  Al17  1  0.009378  0.330925  0.330925  1
  Al  Al18  1  0.331625  0.331527  0.331526  1
  Mo  Mo19  1  0.363364  0.877494  0.877494  1
  Os  Os20  1  0.004405  0.005655  0.005654  1
  Os  Os21  1  0.996586  0.996246  0.495803  1
  Os  Os22  1  0.507343  0.994180  0.502532  1
  Os  Os23  1  0.993727  0.505408  0.505408  1
  Os  Os24  1  0.507345  0.502528  0.994179  1
  Os  Os25  1  0.996586  0.495803  0.996246  1
  Os  Os26  1  0.496835  0.997253  0.997253  1
  W  W27  1  0.877121  0.877472  0.363588  1
  W  W28  1  0.877121  0.363589  0.877473  1
