# generated using pymatgen
data_La2InHgPt
_symmetry_space_group_name_H-M   'P 1'
_cell_length_a   8.28742400
_cell_length_b   8.28742454
_cell_length_c   4.00378400
_cell_angle_alpha   90.00000000
_cell_angle_beta   90.00000000
_cell_angle_gamma   92.52879942
_symmetry_Int_Tables_number   1
_chemical_formula_structural   La2InHgPt
_chemical_formula_sum   'La4 In2 Hg2 Pt2'
_cell_volume   274.71770551
_cell_formula_units_Z   2
loop_
 _symmetry_equiv_pos_site_id
 _symmetry_equiv_pos_as_xyz
  1  'x, y, z'
loop_
 _atom_site_type_symbol
 _atom_site_label
 _atom_site_symmetry_multiplicity
 _atom_site_fract_x
 _atom_site_fract_y
 _atom_site_fract_z
 _atom_site_occupancy
  La  La0  1  0.689982  0.189982  0.500000  1
  La  La1  1  0.310018  0.810018  0.500000  1
  La  La2  1  0.158726  0.341274  0.500000  1
  La  La3  1  0.841274  0.658726  0.500000  1
  In  In4  1  0.000000  0.000000  0.000000  1
  In  In5  1  0.500000  0.500000  0.000000  1
  Hg  Hg6  1  0.628390  0.871610  0.000000  1
  Hg  Hg7  1  0.371610  0.128390  0.000000  1
  Pt  Pt8  1  0.127736  0.627736  0.000000  1
  Pt  Pt9  1  0.872264  0.372264  0.000000  1
