# generated using pymatgen
data_Tb2PaGa3FeRu2
_symmetry_space_group_name_H-M   'P 1'
_cell_length_a   6.84766741
_cell_length_b   6.84766807
_cell_length_c   4.05061200
_cell_angle_alpha   90.00000000
_cell_angle_beta   90.00000000
_cell_angle_gamma   117.43928588
_symmetry_Int_Tables_number   1
_chemical_formula_structural   Tb2PaGa3FeRu2
_chemical_formula_sum   'Tb2 Pa1 Ga3 Fe1 Ru2'
_cell_volume   168.56763191
_cell_formula_units_Z   1
loop_
 _symmetry_equiv_pos_site_id
 _symmetry_equiv_pos_as_xyz
  1  'x, y, z'
loop_
 _atom_site_type_symbol
 _atom_site_label
 _atom_site_symmetry_multiplicity
 _atom_site_fract_x
 _atom_site_fract_y
 _atom_site_fract_z
 _atom_site_occupancy
  Tb  Tb0  1  0.411940  0.012018  0.500000  1
  Tb  Tb1  1  0.012018  0.411940  0.500000  1
  Pa  Pa2  1  0.639004  0.639004  0.500000  1
  Ga  Ga3  1  0.750863  0.036474  0.000000  1
  Ga  Ga4  1  0.036474  0.750863  0.000000  1
  Ga  Ga5  1  0.192877  0.192877  0.000000  1
  Fe  Fe6  1  0.953297  0.953297  0.500000  1
  Ru  Ru7  1  0.374114  0.629413  0.000000  1
  Ru  Ru8  1  0.629413  0.374114  0.000000  1
