# generated using pymatgen
data_ZrSc5(AsRu)6
_symmetry_space_group_name_H-M   'P 1'
_cell_length_a   7.70502082
_cell_length_b   7.70928102
_cell_length_c   7.70502013
_cell_angle_alpha   128.09125519
_cell_angle_beta   121.08469566
_cell_angle_gamma   82.32882448
_symmetry_Int_Tables_number   1
_chemical_formula_structural   ZrSc5(AsRu)6
_chemical_formula_sum   'Zr1 Sc5 As6 Ru6'
_cell_volume   296.63196424
_cell_formula_units_Z   1
loop_
 _symmetry_equiv_pos_site_id
 _symmetry_equiv_pos_as_xyz
  1  'x, y, z'
loop_
 _atom_site_type_symbol
 _atom_site_label
 _atom_site_symmetry_multiplicity
 _atom_site_fract_x
 _atom_site_fract_y
 _atom_site_fract_z
 _atom_site_occupancy
  Zr  Zr0  1  0.948296  0.651806  0.203510  1
  Sc  Sc1  1  0.469205  0.696627  0.727423  1
  Sc  Sc2  1  0.530917  0.258311  0.227395  1
  Sc  Sc3  1  0.749623  0.835242  0.585620  1
  Sc  Sc4  1  0.250594  0.836829  0.086234  1
  Sc  Sc5  1  0.050895  0.254876  0.703981  1
  As  As6  1  0.273825  0.272339  0.498514  1
  As  As7  1  0.723841  0.215781  0.991940  1
  As  As8  1  0.331980  0.586618  0.250196  1
  As  As9  1  0.668993  0.922767  0.258516  1
  As  As10  1  0.164251  0.922767  0.753772  1
  As  As11  1  0.836422  0.586618  0.754638  1
  Ru  Ru12  1  0.503399  0.496298  0.998167  1
  Ru  Ru13  1  0.998131  0.496298  0.492899  1
  Ru  Ru14  1  0.097261  0.254237  0.107409  1
  Ru  Ru15  1  0.906126  0.008975  0.159561  1
  Ru  Ru16  1  0.349414  0.008975  0.602849  1
  Ru  Ru17  1  0.646829  0.254237  0.656976  1
