# generated using pymatgen
data_Li9Co3N4
_symmetry_space_group_name_H-M   'P 1'
_cell_length_a   5.17475832
_cell_length_b   5.17475937
_cell_length_c   9.72948536
_cell_angle_alpha   84.02200272
_cell_angle_beta   84.02200058
_cell_angle_gamma   42.59792991
_symmetry_Int_Tables_number   1
_chemical_formula_structural   Li9Co3N4
_chemical_formula_sum   'Li9 Co3 N4'
_cell_volume   175.23940183
_cell_formula_units_Z   1
loop_
 _symmetry_equiv_pos_site_id
 _symmetry_equiv_pos_as_xyz
  1  'x, y, z'
loop_
 _atom_site_type_symbol
 _atom_site_label
 _atom_site_symmetry_multiplicity
 _atom_site_fract_x
 _atom_site_fract_y
 _atom_site_fract_z
 _atom_site_occupancy
  Li  Li0  1  0.409941  0.409941  0.248286  1
  Li  Li1  1  0.176793  0.176793  0.008264  1
  Li  Li2  1  0.953369  0.953369  0.772380  1
  Li  Li3  1  0.714357  0.714357  0.549276  1
  Li  Li4  1  0.823207  0.823207  0.991736  1
  Li  Li5  1  0.590059  0.590059  0.751714  1
  Li  Li6  1  0.285643  0.285643  0.450724  1
  Li  Li7  1  0.046631  0.046631  0.227620  1
  Li  Li8  1  0.000000  0.000000  0.500000  1
  Co  Co9  1  0.730640  0.730640  0.255903  1
  Co  Co10  1  0.500000  0.500000  0.000000  1
  Co  Co11  1  0.269360  0.269360  0.744097  1
  N  N12  1  0.614331  0.614331  0.127645  1
  N  N13  1  0.385669  0.385669  0.872355  1
  N  N14  1  0.139766  0.139766  0.628855  1
  N  N15  1  0.860234  0.860234  0.371145  1
