# generated using pymatgen
data_La2Pr4PaO12
_symmetry_space_group_name_H-M   'P 1'
_cell_length_a   6.90156824
_cell_length_b   6.92834676
_cell_length_c   6.91288572
_cell_angle_alpha   99.19826611
_cell_angle_beta   99.02943035
_cell_angle_gamma   98.87534775
_symmetry_Int_Tables_number   1
_chemical_formula_structural   La2Pr4PaO12
_chemical_formula_sum   'La2 Pr4 Pa1 O12'
_cell_volume   316.75419243
_cell_formula_units_Z   1
loop_
 _symmetry_equiv_pos_site_id
 _symmetry_equiv_pos_as_xyz
  1  'x, y, z'
loop_
 _atom_site_type_symbol
 _atom_site_label
 _atom_site_symmetry_multiplicity
 _atom_site_fract_x
 _atom_site_fract_y
 _atom_site_fract_z
 _atom_site_occupancy
  La  La0  1  0.858622  0.694630  0.393251  1
  La  La1  1  0.141378  0.305370  0.606749  1
  Pr  Pr2  1  0.304175  0.610415  0.140154  1
  Pr  Pr3  1  0.608397  0.139895  0.304366  1
  Pr  Pr4  1  0.391603  0.860105  0.695634  1
  Pr  Pr5  1  0.695825  0.389585  0.859846  1
  Pa  Pa6  1  0.000000  0.000000  0.000000  1
  O  O7  1  0.437467  0.177668  0.588730  1
  O  O8  1  0.931653  0.693407  0.047206  1
  O  O9  1  0.177452  0.590931  0.437109  1
  O  O10  1  0.822548  0.409069  0.562891  1
  O  O11  1  0.562533  0.822332  0.411270  1
  O  O12  1  0.585274  0.435439  0.176851  1
  O  O13  1  0.414726  0.564561  0.823149  1
  O  O14  1  0.945184  0.067779  0.305646  1
  O  O15  1  0.054816  0.932221  0.694354  1
  O  O16  1  0.692658  0.051880  0.929877  1
  O  O17  1  0.068347  0.306593  0.952794  1
  O  O18  1  0.307342  0.948120  0.070123  1
