# generated using pymatgen
data_Zn8Pd7Pt
_symmetry_space_group_name_H-M   'P 1'
_cell_length_a   4.14349400
_cell_length_b   13.50357400
_cell_length_c   4.14171900
_cell_angle_alpha   90.00000000
_cell_angle_beta   90.00000000
_cell_angle_gamma   89.99987491
_symmetry_Int_Tables_number   1
_chemical_formula_structural   Zn8Pd7Pt
_chemical_formula_sum   'Zn8 Pd7 Pt1'
_cell_volume   231.73736974
_cell_formula_units_Z   1
loop_
 _symmetry_equiv_pos_site_id
 _symmetry_equiv_pos_as_xyz
  1  'x, y, z'
loop_
 _atom_site_type_symbol
 _atom_site_label
 _atom_site_symmetry_multiplicity
 _atom_site_fract_x
 _atom_site_fract_y
 _atom_site_fract_z
 _atom_site_occupancy
  Zn  Zn0  1  0.918913  0.999846  0.000000  1
  Zn  Zn1  1  0.917182  0.250364  0.000000  1
  Zn  Zn2  1  0.917016  0.499629  0.000000  1
  Zn  Zn3  1  0.918813  0.750118  0.000000  1
  Zn  Zn4  1  0.414401  0.250117  0.500001  1
  Zn  Zn5  1  0.414454  0.499889  0.500001  1
  Zn  Zn6  1  0.415975  0.000033  0.500003  1
  Zn  Zn7  1  0.416030  0.749937  0.500003  1
  Pd  Pd8  1  0.417292  0.124858  0.000000  1
  Pd  Pd9  1  0.416749  0.375015  0.000000  1
  Pd  Pd10  1  0.417058  0.625125  0.000000  1
  Pd  Pd11  1  0.419368  0.874981  0.000000  1
  Pd  Pd12  1  0.916234  0.125328  0.500001  1
  Pd  Pd13  1  0.914141  0.375023  0.500001  1
  Pd  Pd14  1  0.916211  0.624615  0.500001  1
  Pt  Pt15  1  0.916749  0.874992  0.500001  1
