# generated using pymatgen
data_Ho5Lu5Sn5Sb
_symmetry_space_group_name_H-M   'P 1'
_cell_length_a   8.84033688
_cell_length_b   8.85661697
_cell_length_c   6.40382800
_cell_angle_alpha   90.00000000
_cell_angle_beta   90.00000000
_cell_angle_gamma   119.85126288
_symmetry_Int_Tables_number   1
_chemical_formula_structural   Ho5Lu5Sn5Sb
_chemical_formula_sum   'Ho5 Lu5 Sn5 Sb1'
_cell_volume   434.86647544
_cell_formula_units_Z   1
loop_
 _symmetry_equiv_pos_site_id
 _symmetry_equiv_pos_as_xyz
  1  'x, y, z'
loop_
 _atom_site_type_symbol
 _atom_site_label
 _atom_site_symmetry_multiplicity
 _atom_site_fract_x
 _atom_site_fract_y
 _atom_site_fract_z
 _atom_site_occupancy
  Ho  Ho0  1  0.762076  0.761751  0.750000  1
  Ho  Ho1  1  0.237985  0.998012  0.750000  1
  Ho  Ho2  1  0.998206  0.238647  0.750000  1
  Ho  Ho3  1  0.238835  0.238640  0.250000  1
  Ho  Ho4  1  0.761475  0.000340  0.250000  1
  Lu  Lu5  1  0.667704  0.333086  0.000576  1
  Lu  Lu6  1  0.333066  0.667838  0.000585  1
  Lu  Lu7  1  0.333066  0.667838  0.499415  1
  Lu  Lu8  1  0.667704  0.333086  0.499424  1
  Lu  Lu9  1  0.000515  0.761359  0.250000  1
  Sn  Sn10  1  0.604149  0.999875  0.750000  1
  Sn  Sn11  1  0.999858  0.604166  0.750000  1
  Sn  Sn12  1  0.607091  0.606067  0.250000  1
  Sn  Sn13  1  0.394388  0.000058  0.250000  1
  Sn  Sn14  1  0.001000  0.396357  0.250000  1
  Sb  Sb15  1  0.392881  0.392877  0.750000  1
