# generated using pymatgen
data_Dy8Tc3B24Ru
_symmetry_space_group_name_H-M   'P 1'
_cell_length_a   3.68154100
_cell_length_b   9.15865581
_cell_length_c   11.54245250
_cell_angle_alpha   89.91048083
_cell_angle_beta   90.00000000
_cell_angle_gamma   90.00000000
_symmetry_Int_Tables_number   1
_chemical_formula_structural   Dy8Tc3B24Ru
_chemical_formula_sum   'Dy8 Tc3 B24 Ru1'
_cell_volume   389.18755605
_cell_formula_units_Z   1
loop_
 _symmetry_equiv_pos_site_id
 _symmetry_equiv_pos_as_xyz
  1  'x, y, z'
loop_
 _atom_site_type_symbol
 _atom_site_label
 _atom_site_symmetry_multiplicity
 _atom_site_fract_x
 _atom_site_fract_y
 _atom_site_fract_z
 _atom_site_occupancy
  Dy  Dy0  1  0.000000  0.323903  0.413976  1
  Dy  Dy1  1  0.000000  0.675027  0.584035  1
  Dy  Dy2  1  0.000000  0.823417  0.087279  1
  Dy  Dy3  1  0.000000  0.177728  0.914580  1
  Dy  Dy4  1  0.000000  0.942568  0.370087  1
  Dy  Dy5  1  0.000000  0.057706  0.630822  1
  Dy  Dy6  1  0.000000  0.442906  0.130246  1
  Dy  Dy7  1  0.000000  0.557956  0.869040  1
  Tc  Tc8  1  0.000000  0.638368  0.320521  1
  Tc  Tc9  1  0.000000  0.361759  0.679913  1
  Tc  Tc10  1  0.000000  0.137915  0.178225  1
  B  B11  1  0.500000  0.553036  0.432774  1
  B  B12  1  0.500000  0.446683  0.566736  1
  B  B13  1  0.500000  0.053103  0.066929  1
  B  B14  1  0.500000  0.946069  0.932757  1
  B  B15  1  0.500000  0.748119  0.418587  1
  B  B16  1  0.500000  0.251101  0.581479  1
  B  B17  1  0.500000  0.248748  0.081396  1
  B  B18  1  0.500000  0.751818  0.918295  1
  B  B19  1  0.500000  0.791599  0.265640  1
  B  B20  1  0.500000  0.208584  0.735069  1
  B  B21  1  0.500000  0.291484  0.234510  1
  B  B22  1  0.500000  0.709452  0.765353  1
  B  B23  1  0.500000  0.631244  0.185668  1
  B  B24  1  0.500000  0.368925  0.814833  1
  B  B25  1  0.500000  0.130662  0.313918  1
  B  B26  1  0.500000  0.868677  0.685926  1
  B  B27  1  0.500000  0.982214  0.211770  1
  B  B28  1  0.500000  0.016318  0.788474  1
  B  B29  1  0.500000  0.482577  0.288007  1
  B  B30  1  0.500000  0.517318  0.711525  1
  B  B31  1  0.500000  0.602611  0.028230  1
  B  B32  1  0.500000  0.399033  0.971442  1
  B  B33  1  0.500000  0.102017  0.471933  1
  B  B34  1  0.500000  0.897658  0.528922  1
  Ru  Ru35  1  0.000000  0.861697  0.821104  1
