# generated using pymatgen
data_Na2Ti4VSe10
_symmetry_space_group_name_H-M   'P 1'
_cell_length_a   6.16417462
_cell_length_b   10.34719425
_cell_length_c   8.27640185
_cell_angle_alpha   59.99571858
_cell_angle_beta   67.99269171
_cell_angle_gamma   90.00996955
_symmetry_Int_Tables_number   1
_chemical_formula_structural   Na2Ti4VSe10
_chemical_formula_sum   'Na2 Ti4 V1 Se10'
_cell_volume   412.10569553
_cell_formula_units_Z   1
loop_
 _symmetry_equiv_pos_site_id
 _symmetry_equiv_pos_as_xyz
  1  'x, y, z'
loop_
 _atom_site_type_symbol
 _atom_site_label
 _atom_site_symmetry_multiplicity
 _atom_site_fract_x
 _atom_site_fract_y
 _atom_site_fract_z
 _atom_site_occupancy
  Na  Na0  1  0.792512  0.084976  0.415702  1
  Na  Na1  1  0.007488  0.515024  0.984298  1
  Ti  Ti2  1  0.804924  0.605731  0.392904  1
  Ti  Ti3  1  0.201836  0.412630  0.586752  1
  Ti  Ti4  1  0.598164  0.187370  0.813248  1
  Ti  Ti5  1  0.995076  0.994269  0.007096  1
  V  V6  1  0.400000  0.800000  0.200000  1
  Se  Se7  1  0.983702  0.838548  0.368747  1
  Se  Se8  1  0.576513  0.039659  0.170893  1
  Se  Se9  1  0.184823  0.241058  0.962559  1
  Se  Se10  1  0.781664  0.441323  0.761190  1
  Se  Se11  1  0.386624  0.645138  0.561429  1
  Se  Se12  1  0.413376  0.954862  0.838571  1
  Se  Se13  1  0.018336  0.158677  0.638810  1
  Se  Se14  1  0.615177  0.358942  0.437441  1
  Se  Se15  1  0.223487  0.560341  0.229107  1
  Se  Se16  1  0.816298  0.761452  0.031253  1
