# generated using pymatgen
data_Dy15Y5(Cd3Tc)2
_symmetry_space_group_name_H-M   'P 1'
_cell_length_a   9.57185902
_cell_length_b   9.57185746
_cell_length_c   9.96449800
_cell_angle_alpha   90.00000000
_cell_angle_beta   90.00000000
_cell_angle_gamma   120.00662886
_symmetry_Int_Tables_number   1
_chemical_formula_structural   Dy15Y5(Cd3Tc)2
_chemical_formula_sum   'Dy15 Y5 Cd6 Tc2'
_cell_volume   790.58679968
_cell_formula_units_Z   1
loop_
 _symmetry_equiv_pos_site_id
 _symmetry_equiv_pos_as_xyz
  1  'x, y, z'
loop_
 _atom_site_type_symbol
 _atom_site_label
 _atom_site_symmetry_multiplicity
 _atom_site_fract_x
 _atom_site_fract_y
 _atom_site_fract_z
 _atom_site_occupancy
  Dy  Dy0  1  0.000007  0.999993  0.500022  1
  Dy  Dy1  1  0.000007  0.999993  0.999978  1
  Dy  Dy2  1  0.210046  0.789954  0.440767  1
  Dy  Dy3  1  0.210089  0.420119  0.440757  1
  Dy  Dy4  1  0.579881  0.789911  0.440757  1
  Dy  Dy5  1  0.789978  0.210022  0.559229  1
  Dy  Dy6  1  0.789936  0.579906  0.559196  1
  Dy  Dy7  1  0.420094  0.210064  0.559196  1
  Dy  Dy8  1  0.789978  0.210022  0.940771  1
  Dy  Dy9  1  0.789936  0.579906  0.940804  1
  Dy  Dy10  1  0.420094  0.210064  0.940804  1
  Dy  Dy11  1  0.210046  0.789954  0.059233  1
  Dy  Dy12  1  0.210089  0.420119  0.059243  1
  Dy  Dy13  1  0.579881  0.789911  0.059243  1
  Dy  Dy14  1  0.539644  0.460356  0.250000  1
  Y  Y15  1  0.539684  0.079400  0.250000  1
  Y  Y16  1  0.920600  0.460316  0.250000  1
  Y  Y17  1  0.460320  0.539680  0.750000  1
  Y  Y18  1  0.460318  0.920634  0.750000  1
  Y  Y19  1  0.079366  0.539682  0.750000  1
  Cd  Cd20  1  0.885434  0.114566  0.250000  1
  Cd  Cd21  1  0.885405  0.770844  0.250000  1
  Cd  Cd22  1  0.229156  0.114595  0.250000  1
  Cd  Cd23  1  0.114572  0.885428  0.750000  1
  Cd  Cd24  1  0.114540  0.229128  0.750000  1
  Cd  Cd25  1  0.770872  0.885460  0.750000  1
  Tc  Tc26  1  0.333381  0.666619  0.250000  1
  Tc  Tc27  1  0.666642  0.333358  0.750000  1
