# generated using pymatgen
data_TbZrAgS4
_symmetry_space_group_name_H-M   'P 1'
_cell_length_a   7.82962551
_cell_length_b   7.82962541
_cell_length_c   11.06254415
_cell_angle_alpha   91.63308489
_cell_angle_beta   91.63308462
_cell_angle_gamma   89.86305233
_symmetry_Int_Tables_number   1
_chemical_formula_structural   TbZrAgS4
_chemical_formula_sum   'Tb4 Zr4 Ag4 S16'
_cell_volume   677.61588730
_cell_formula_units_Z   4
loop_
 _symmetry_equiv_pos_site_id
 _symmetry_equiv_pos_as_xyz
  1  'x, y, z'
loop_
 _atom_site_type_symbol
 _atom_site_label
 _atom_site_symmetry_multiplicity
 _atom_site_fract_x
 _atom_site_fract_y
 _atom_site_fract_z
 _atom_site_occupancy
  Tb  Tb0  1  0.002041  0.748749  0.623833  1
  Tb  Tb1  1  0.748749  0.502041  0.873833  1
  Tb  Tb2  1  0.248749  0.002041  0.373833  1
  Tb  Tb3  1  0.502041  0.248749  0.123833  1
  Zr  Zr4  1  0.999576  0.248830  0.625562  1
  Zr  Zr5  1  0.748830  0.999576  0.375562  1
  Zr  Zr6  1  0.499576  0.748830  0.125562  1
  Zr  Zr7  1  0.248830  0.499576  0.875562  1
  Ag  Ag8  1  0.999000  0.001847  0.000925  1
  Ag  Ag9  1  0.499000  0.501847  0.500925  1
  Ag  Ag10  1  0.501847  0.999000  0.750925  1
  Ag  Ag11  1  0.001847  0.499000  0.250925  1
  S  S12  1  0.985314  0.236684  0.388544  1
  S  S13  1  0.764188  0.011776  0.612402  1
  S  S14  1  0.986080  0.773335  0.378217  1
  S  S15  1  0.728691  0.513888  0.120516  1
  S  S16  1  0.511776  0.764188  0.362402  1
  S  S17  1  0.273335  0.986080  0.128217  1
  S  S18  1  0.513888  0.228691  0.370516  1
  S  S19  1  0.736684  0.985314  0.138544  1
  S  S20  1  0.485314  0.736684  0.888544  1
  S  S21  1  0.264188  0.511776  0.112402  1
  S  S22  1  0.486080  0.273335  0.878217  1
  S  S23  1  0.228691  0.013888  0.620516  1
  S  S24  1  0.011776  0.264188  0.862402  1
  S  S25  1  0.773335  0.486080  0.628217  1
  S  S26  1  0.013888  0.728691  0.870516  1
  S  S27  1  0.236684  0.485314  0.638544  1
