# generated using pymatgen
data_Nd5Y3(ErBi)12
_symmetry_space_group_name_H-M   'P 1'
_cell_length_a   8.32143431
_cell_length_b   9.50600900
_cell_length_c   12.19515245
_cell_angle_alpha   90.00000000
_cell_angle_beta   89.96872711
_cell_angle_gamma   90.00000000
_symmetry_Int_Tables_number   1
_chemical_formula_structural   Nd5Y3(ErBi)12
_chemical_formula_sum   'Nd5 Y3 Er12 Bi12'
_cell_volume   964.68067703
_cell_formula_units_Z   1
loop_
 _symmetry_equiv_pos_site_id
 _symmetry_equiv_pos_as_xyz
  1  'x, y, z'
loop_
 _atom_site_type_symbol
 _atom_site_label
 _atom_site_symmetry_multiplicity
 _atom_site_fract_x
 _atom_site_fract_y
 _atom_site_fract_z
 _atom_site_occupancy
  Nd  Nd0  1  0.184597  0.750000  0.719548  1
  Nd  Nd1  1  0.685680  0.750000  0.779342  1
  Nd  Nd2  1  0.816121  0.250000  0.280109  1
  Nd  Nd3  1  0.315313  0.250000  0.220057  1
  Nd  Nd4  1  0.353451  0.750000  0.216218  1
  Y  Y5  1  0.852099  0.750000  0.283356  1
  Y  Y6  1  0.647349  0.250000  0.783479  1
  Y  Y7  1  0.146886  0.250000  0.716902  1
  Er  Er8  1  0.025045  0.750000  0.988604  1
  Er  Er9  1  0.525531  0.750000  0.512279  1
  Er  Er10  1  0.974449  0.250000  0.010832  1
  Er  Er11  1  0.475035  0.250000  0.489323  1
  Er  Er12  1  0.306915  0.435519  0.939866  1
  Er  Er13  1  0.806986  0.064722  0.560189  1
  Er  Er14  1  0.692946  0.935317  0.059627  1
  Er  Er15  1  0.192818  0.564409  0.440623  1
  Er  Er16  1  0.692946  0.564683  0.059627  1
  Er  Er17  1  0.192818  0.935591  0.440623  1
  Er  Er18  1  0.306915  0.064481  0.939866  1
  Er  Er19  1  0.806986  0.435278  0.560189  1
  Bi  Bi20  1  0.434499  0.007933  0.671123  1
  Bi  Bi21  1  0.934401  0.492250  0.828831  1
  Bi  Bi22  1  0.567766  0.505535  0.331245  1
  Bi  Bi23  1  0.063023  0.993703  0.170679  1
  Bi  Bi24  1  0.567766  0.994465  0.331245  1
  Bi  Bi25  1  0.063023  0.506297  0.170679  1
  Bi  Bi26  1  0.434499  0.492067  0.671123  1
  Bi  Bi27  1  0.934401  0.007750  0.828831  1
  Bi  Bi28  1  0.406386  0.750000  0.957391  1
  Bi  Bi29  1  0.906043  0.750000  0.537932  1
  Bi  Bi30  1  0.593458  0.250000  0.038177  1
  Bi  Bi31  1  0.093850  0.250000  0.462089  1
