# generated using pymatgen
data_SmDy2TiAl11Ru4
_symmetry_space_group_name_H-M   'P 1'
_cell_length_a   8.86431468
_cell_length_b   8.86431455
_cell_length_c   9.57343352
_cell_angle_alpha   90.06788497
_cell_angle_beta   89.93211205
_cell_angle_gamma   119.66091013
_symmetry_Int_Tables_number   1
_chemical_formula_structural   SmDy2TiAl11Ru4
_chemical_formula_sum   'Sm2 Dy4 Ti2 Al22 Ru8'
_cell_volume   653.67532812
_cell_formula_units_Z   2
loop_
 _symmetry_equiv_pos_site_id
 _symmetry_equiv_pos_as_xyz
  1  'x, y, z'
loop_
 _atom_site_type_symbol
 _atom_site_label
 _atom_site_symmetry_multiplicity
 _atom_site_fract_x
 _atom_site_fract_y
 _atom_site_fract_z
 _atom_site_occupancy
  Sm  Sm0  1  0.192959  0.807041  0.251178  1
  Sm  Sm1  1  0.807041  0.192959  0.748822  1
  Dy  Dy2  1  0.192827  0.386313  0.251482  1
  Dy  Dy3  1  0.807173  0.613687  0.748518  1
  Dy  Dy4  1  0.613687  0.807173  0.251482  1
  Dy  Dy5  1  0.386313  0.192827  0.748518  1
  Ti  Ti6  1  0.333649  0.666351  0.994990  1
  Ti  Ti7  1  0.666351  0.333649  0.005010  1
  Al  Al8  1  0.666710  0.333290  0.516352  1
  Al  Al9  1  0.333290  0.666710  0.483648  1
  Al  Al10  1  0.162859  0.323292  0.576649  1
  Al  Al11  1  0.837141  0.676708  0.423351  1
  Al  Al12  1  0.676708  0.837141  0.576649  1
  Al  Al13  1  0.840077  0.681591  0.076597  1
  Al  Al14  1  0.323292  0.162859  0.423351  1
  Al  Al15  1  0.159923  0.318409  0.923403  1
  Al  Al16  1  0.161877  0.838123  0.577467  1
  Al  Al17  1  0.318409  0.159923  0.076597  1
  Al  Al18  1  0.838123  0.161877  0.422533  1
  Al  Al19  1  0.681591  0.840077  0.923403  1
  Al  Al20  1  0.840878  0.159122  0.077535  1
  Al  Al21  1  0.159122  0.840878  0.922465  1
  Al  Al22  1  0.561977  0.122518  0.252707  1
  Al  Al23  1  0.438023  0.877482  0.747293  1
  Al  Al24  1  0.877482  0.438023  0.252707  1
  Al  Al25  1  0.122518  0.561977  0.747293  1
  Al  Al26  1  0.560471  0.439529  0.252674  1
  Al  Al27  1  0.439529  0.560471  0.747326  1
  Al  Al28  1  0.999340  0.000660  0.250626  1
  Al  Al29  1  0.000660  0.999340  0.749374  1
  Ru  Ru30  1  0.500000  0.000000  0.000000  1
  Ru  Ru31  1  0.000000  0.500000  0.000000  1
  Ru  Ru32  1  0.500000  0.000000  0.500000  1
  Ru  Ru33  1  0.500000  0.500000  0.000000  1
  Ru  Ru34  1  0.000000  0.500000  0.500000  1
  Ru  Ru35  1  0.500000  0.500000  0.500000  1
  Ru  Ru36  1  0.000000  0.000000  0.000000  1
  Ru  Ru37  1  0.000000  0.000000  0.500000  1
