# generated using pymatgen
data_InIrBr6
_symmetry_space_group_name_H-M   'P 1'
_cell_length_a   6.74858220
_cell_length_b   6.74858195
_cell_length_c   7.25135791
_cell_angle_alpha   81.09579058
_cell_angle_beta   81.09579157
_cell_angle_gamma   119.71526319
_symmetry_Int_Tables_number   1
_chemical_formula_structural   InIrBr6
_chemical_formula_sum   'In1 Ir1 Br6'
_cell_volume   272.85717324
_cell_formula_units_Z   1
loop_
 _symmetry_equiv_pos_site_id
 _symmetry_equiv_pos_as_xyz
  1  'x, y, z'
loop_
 _atom_site_type_symbol
 _atom_site_label
 _atom_site_symmetry_multiplicity
 _atom_site_fract_x
 _atom_site_fract_y
 _atom_site_fract_z
 _atom_site_occupancy
  In  In0  1  0.167854  0.832146  0.000000  1
  Ir  Ir1  1  0.833082  0.166918  0.000000  1
  Br  Br2  1  0.910444  0.542728  0.789056  1
  Br  Br3  1  0.457272  0.089556  0.210944  1
  Br  Br4  1  0.772977  0.799617  0.211346  1
  Br  Br5  1  0.200383  0.227023  0.788654  1
  Br  Br6  1  0.597942  0.939953  0.787831  1
  Br  Br7  1  0.060047  0.402058  0.212169  1
