# generated using pymatgen
data_Ba4TbTl(ClO3)2
_symmetry_space_group_name_H-M   'P 1'
_cell_length_a   4.42492600
_cell_length_b   4.42492600
_cell_length_c   15.21460400
_cell_angle_alpha   90.00000000
_cell_angle_beta   90.00000000
_cell_angle_gamma   90.00000000
_symmetry_Int_Tables_number   1
_chemical_formula_structural   Ba4TbTl(ClO3)2
_chemical_formula_sum   'Ba4 Tb1 Tl1 Cl2 O6'
_cell_volume   297.90149149
_cell_formula_units_Z   1
loop_
 _symmetry_equiv_pos_site_id
 _symmetry_equiv_pos_as_xyz
  1  'x, y, z'
loop_
 _atom_site_type_symbol
 _atom_site_label
 _atom_site_symmetry_multiplicity
 _atom_site_fract_x
 _atom_site_fract_y
 _atom_site_fract_z
 _atom_site_occupancy
  Ba  Ba0  1  0.500000  0.000000  0.094656  1
  Ba  Ba1  1  0.500000  0.000000  0.351954  1
  Ba  Ba2  1  0.000000  0.500000  0.646677  1
  Ba  Ba3  1  0.000000  0.500000  0.903740  1
  Tb  Tb4  1  0.000000  0.500000  0.216163  1
  Tl  Tl5  1  0.500000  0.000000  0.785159  1
  Cl  Cl6  1  0.500000  0.000000  0.574586  1
  Cl  Cl7  1  0.000000  0.500000  0.423990  1
  O  O8  1  0.000000  0.500000  0.073100  1
  O  O9  1  0.000000  0.000000  0.240933  1
  O  O10  1  0.500000  0.500000  0.759068  1
  O  O11  1  0.500000  0.000000  0.929972  1
  O  O12  1  0.000000  0.000000  0.759068  1
  O  O13  1  0.500000  0.500000  0.240933  1
