# generated using pymatgen
data_Nb12Al8RuAu3C4
_symmetry_space_group_name_H-M   'P 1'
_cell_length_a   8.45478858
_cell_length_b   8.45484584
_cell_length_c   8.45479200
_cell_angle_alpha   59.67744965
_cell_angle_beta   59.67676708
_cell_angle_gamma   59.68008229
_symmetry_Int_Tables_number   1
_chemical_formula_structural   Nb12Al8RuAu3C4
_chemical_formula_sum   'Nb12 Al8 Ru1 Au3 C4'
_cell_volume   424.23719752
_cell_formula_units_Z   1
loop_
 _symmetry_equiv_pos_site_id
 _symmetry_equiv_pos_as_xyz
  1  'x, y, z'
loop_
 _atom_site_type_symbol
 _atom_site_label
 _atom_site_symmetry_multiplicity
 _atom_site_fract_x
 _atom_site_fract_y
 _atom_site_fract_z
 _atom_site_occupancy
  Nb  Nb0  1  0.569613  0.931125  0.569622  1
  Nb  Nb1  1  0.318878  0.680384  0.680369  1
  Nb  Nb2  1  0.686035  0.316642  0.316658  1
  Nb  Nb3  1  0.316646  0.686022  0.316663  1
  Nb  Nb4  1  0.680369  0.680374  0.318888  1
  Nb  Nb5  1  0.316661  0.316663  0.686019  1
  Nb  Nb6  1  0.569631  0.569626  0.931112  1
  Nb  Nb7  1  0.931122  0.569616  0.569631  1
  Nb  Nb8  1  0.563965  0.933358  0.933342  1
  Nb  Nb9  1  0.933339  0.933337  0.563981  1
  Nb  Nb10  1  0.680387  0.318875  0.680378  1
  Nb  Nb11  1  0.933354  0.563978  0.933337  1
  Al  Al12  1  0.913116  0.913111  0.913115  1
  Al  Al13  1  0.995953  0.329772  0.329773  1
  Al  Al14  1  0.329768  0.995954  0.329772  1
  Al  Al15  1  0.329773  0.329775  0.995954  1
  Al  Al16  1  0.920232  0.254046  0.920228  1
  Al  Al17  1  0.920227  0.920225  0.254046  1
  Al  Al18  1  0.254047  0.920228  0.920227  1
  Al  Al19  1  0.336884  0.336889  0.336885  1
  Ru  Ru20  1  0.125000  0.125000  0.125000  1
  Au  Au21  1  0.625000  0.125000  0.125000  1
  Au  Au22  1  0.125000  0.625000  0.125000  1
  Au  Au23  1  0.125000  0.125000  0.625000  1
  C  C24  1  0.625000  0.625000  0.625000  1
  C  C25  1  0.125000  0.625000  0.625000  1
  C  C26  1  0.625000  0.125000  0.625000  1
  C  C27  1  0.625000  0.625000  0.125000  1
