# generated using pymatgen
data_DyHo4Co2Ag
_symmetry_space_group_name_H-M   'P 1'
_cell_length_a   8.48486819
_cell_length_b   8.47588842
_cell_length_c   8.48486875
_cell_angle_alpha   127.37167967
_cell_angle_beta   127.39870219
_cell_angle_gamma   77.64753869
_symmetry_Int_Tables_number   1
_chemical_formula_structural   DyHo4Co2Ag
_chemical_formula_sum   'Dy2 Ho8 Co4 Ag2'
_cell_volume   373.49977334
_cell_formula_units_Z   2
loop_
 _symmetry_equiv_pos_site_id
 _symmetry_equiv_pos_as_xyz
  1  'x, y, z'
loop_
 _atom_site_type_symbol
 _atom_site_label
 _atom_site_symmetry_multiplicity
 _atom_site_fract_x
 _atom_site_fract_y
 _atom_site_fract_z
 _atom_site_occupancy
  Dy  Dy0  1  0.706365  0.527987  0.500078  1
  Dy  Dy1  1  0.472091  0.972013  0.178378  1
  Ho  Ho2  1  0.793712  0.293619  0.822382  1
  Ho  Ho3  1  0.528210  0.028143  0.821126  1
  Ho  Ho4  1  0.999900  0.000326  0.000255  1
  Ho  Ho5  1  0.028763  0.206381  0.500093  1
  Ho  Ho6  1  0.292983  0.471857  0.500066  1
  Ho  Ho7  1  0.206501  0.706436  0.178402  1
  Ho  Ho8  1  0.971966  0.793564  0.500065  1
  Ho  Ho9  1  0.499929  0.499674  0.999574  1
  Co  Co10  1  0.136022  0.635804  0.771663  1
  Co  Co11  1  0.864183  0.363970  0.227980  1
  Co  Co12  1  0.635860  0.864196  0.500218  1
  Co  Co13  1  0.364009  0.136030  0.500213  1
  Ag  Ag14  1  0.249143  0.250000  0.999143  1
  Ag  Ag15  1  0.750365  0.750000  0.000365  1
