# generated using pymatgen
data_YbHo7(Si4Mo3)4
_symmetry_space_group_name_H-M   'P 1'
_cell_length_a   6.75589351
_cell_length_b   6.94200102
_cell_length_c   12.92168045
_cell_angle_alpha   90.07283923
_cell_angle_beta   89.97358589
_cell_angle_gamma   90.09428499
_symmetry_Int_Tables_number   1
_chemical_formula_structural   YbHo7(Si4Mo3)4
_chemical_formula_sum   'Yb1 Ho7 Si16 Mo12'
_cell_volume   606.01794024
_cell_formula_units_Z   1
loop_
 _symmetry_equiv_pos_site_id
 _symmetry_equiv_pos_as_xyz
  1  'x, y, z'
loop_
 _atom_site_type_symbol
 _atom_site_label
 _atom_site_symmetry_multiplicity
 _atom_site_fract_x
 _atom_site_fract_y
 _atom_site_fract_z
 _atom_site_occupancy
  Yb  Yb0  1  0.996992  0.165432  0.091198  1
  Ho  Ho1  1  0.498238  0.331692  0.094384  1
  Ho  Ho2  1  0.997557  0.168292  0.405599  1
  Ho  Ho3  1  0.503433  0.667844  0.593967  1
  Ho  Ho4  1  0.002871  0.834017  0.907368  1
  Ho  Ho5  1  0.502816  0.667359  0.906484  1
  Ho  Ho6  1  0.003229  0.832614  0.594134  1
  Ho  Ho7  1  0.497076  0.331925  0.405328  1
  Si  Si8  1  0.660733  0.042738  0.546410  1
  Si  Si9  1  0.159083  0.457624  0.952985  1
  Si  Si10  1  0.341071  0.958282  0.047410  1
  Si  Si11  1  0.839458  0.542723  0.453542  1
  Si  Si12  1  0.338929  0.957371  0.453370  1
  Si  Si13  1  0.841075  0.540779  0.047545  1
  Si  Si14  1  0.658536  0.042592  0.953093  1
  Si  Si15  1  0.160487  0.457119  0.546394  1
  Si  Si16  1  0.533919  0.366542  0.750054  1
  Si  Si17  1  0.034350  0.134725  0.750625  1
  Si  Si18  1  0.465418  0.632962  0.250298  1
  Si  Si19  1  0.965681  0.867110  0.250002  1
  Si  Si20  1  0.803638  0.631301  0.750445  1
  Si  Si21  1  0.302972  0.870075  0.750253  1
  Si  Si22  1  0.195264  0.368408  0.248535  1
  Si  Si23  1  0.698690  0.129070  0.248727  1
  Mo  Mo24  1  0.829599  0.336481  0.625228  1
  Mo  Mo25  1  0.330949  0.164294  0.874522  1
  Mo  Mo26  1  0.170108  0.666085  0.126179  1
  Mo  Mo27  1  0.668962  0.835760  0.374435  1
  Mo  Mo28  1  0.170145  0.663138  0.375311  1
  Mo  Mo29  1  0.669057  0.832686  0.125298  1
  Mo  Mo30  1  0.828523  0.337164  0.874003  1
  Mo  Mo31  1  0.330511  0.164459  0.625389  1
  Mo  Mo32  1  0.666194  0.999498  0.749569  1
  Mo  Mo33  1  0.166009  0.500880  0.749980  1
  Mo  Mo34  1  0.334322  0.999654  0.250984  1
  Mo  Mo35  1  0.834107  0.501309  0.250958  1
