# generated using pymatgen
data_La4PrBi3As
_symmetry_space_group_name_H-M   'P 1'
_cell_length_a   9.74971400
_cell_length_b   9.74971276
_cell_length_c   7.03671500
_cell_angle_alpha   90.00000000
_cell_angle_beta   90.00000000
_cell_angle_gamma   120.00001098
_symmetry_Int_Tables_number   1
_chemical_formula_structural   La4PrBi3As
_chemical_formula_sum   'La8 Pr2 Bi6 As2'
_cell_volume   579.27427549
_cell_formula_units_Z   2
loop_
 _symmetry_equiv_pos_site_id
 _symmetry_equiv_pos_as_xyz
  1  'x, y, z'
loop_
 _atom_site_type_symbol
 _atom_site_label
 _atom_site_symmetry_multiplicity
 _atom_site_fract_x
 _atom_site_fract_y
 _atom_site_fract_z
 _atom_site_occupancy
  La  La0  1  0.753761  0.753761  0.750566  1
  La  La1  1  0.246239  0.000000  0.750566  1
  La  La2  1  0.000000  0.246239  0.750566  1
  La  La3  1  0.246239  0.246239  0.249434  1
  La  La4  1  0.753761  0.000000  0.249434  1
  La  La5  1  0.000000  0.753761  0.249434  1
  La  La6  1  0.333333  0.666667  0.500000  1
  La  La7  1  0.666667  0.333333  0.500000  1
  Pr  Pr8  1  0.666667  0.333333  0.000000  1
  Pr  Pr9  1  0.333333  0.666667  0.000000  1
  Bi  Bi10  1  0.393996  0.393996  0.752886  1
  Bi  Bi11  1  0.606004  0.000000  0.752886  1
  Bi  Bi12  1  0.000000  0.606004  0.752886  1
  Bi  Bi13  1  0.606004  0.606004  0.247114  1
  Bi  Bi14  1  0.393996  0.000000  0.247114  1
  Bi  Bi15  1  0.000000  0.393996  0.247114  1
  As  As16  1  0.000000  0.000000  0.000000  1
  As  As17  1  0.000000  0.000000  0.500000  1
