# generated using pymatgen
data_Pr2Zn(AsRh2)6
_symmetry_space_group_name_H-M   'P 1'
_cell_length_a   10.00405100
_cell_length_b   10.00405198
_cell_length_c   4.02201900
_cell_angle_alpha   90.00000000
_cell_angle_beta   90.00000000
_cell_angle_gamma   120.00001328
_symmetry_Int_Tables_number   1
_chemical_formula_structural   Pr2Zn(AsRh2)6
_chemical_formula_sum   'Pr2 Zn1 As6 Rh12'
_cell_volume   348.59931415
_cell_formula_units_Z   1
loop_
 _symmetry_equiv_pos_site_id
 _symmetry_equiv_pos_as_xyz
  1  'x, y, z'
loop_
 _atom_site_type_symbol
 _atom_site_label
 _atom_site_symmetry_multiplicity
 _atom_site_fract_x
 _atom_site_fract_y
 _atom_site_fract_z
 _atom_site_occupancy
  Pr  Pr0  1  0.333333  0.666667  0.753281  1
  Pr  Pr1  1  0.666667  0.333333  0.246719  1
  Zn  Zn2  1  0.000000  0.000000  0.500000  1
  As  As3  1  0.885711  0.600316  0.749359  1
  As  As4  1  0.399684  0.285395  0.749359  1
  As  As5  1  0.714605  0.114289  0.749359  1
  As  As6  1  0.114289  0.399684  0.250641  1
  As  As7  1  0.600316  0.714605  0.250641  1
  As  As8  1  0.285395  0.885711  0.250641  1
  Rh  Rh9  1  0.615464  0.554412  0.750390  1
  Rh  Rh10  1  0.445588  0.061053  0.750390  1
  Rh  Rh11  1  0.938947  0.384536  0.750390  1
  Rh  Rh12  1  0.384536  0.445588  0.249610  1
  Rh  Rh13  1  0.554412  0.938947  0.249610  1
  Rh  Rh14  1  0.061053  0.615464  0.249610  1
  Rh  Rh15  1  0.123283  0.846675  0.751550  1
  Rh  Rh16  1  0.153325  0.276608  0.751550  1
  Rh  Rh17  1  0.723392  0.876717  0.751550  1
  Rh  Rh18  1  0.876717  0.153325  0.248450  1
  Rh  Rh19  1  0.846675  0.723392  0.248450  1
  Rh  Rh20  1  0.276608  0.123283  0.248450  1
