# generated using pymatgen
data_Ho3In2GaRuPt2
_symmetry_space_group_name_H-M   'P 1'
_cell_length_a   7.71029334
_cell_length_b   7.71029330
_cell_length_c   3.62484100
_cell_angle_alpha   90.00000000
_cell_angle_beta   90.00000000
_cell_angle_gamma   119.58589142
_symmetry_Int_Tables_number   1
_chemical_formula_structural   Ho3In2GaRuPt2
_chemical_formula_sum   'Ho3 In2 Ga1 Ru1 Pt2'
_cell_volume   187.39523733
_cell_formula_units_Z   1
loop_
 _symmetry_equiv_pos_site_id
 _symmetry_equiv_pos_as_xyz
  1  'x, y, z'
loop_
 _atom_site_type_symbol
 _atom_site_label
 _atom_site_symmetry_multiplicity
 _atom_site_fract_x
 _atom_site_fract_y
 _atom_site_fract_z
 _atom_site_occupancy
  Ho  Ho0  1  0.605129  0.991823  0.500000  1
  Ho  Ho1  1  0.418244  0.418244  0.500000  1
  Ho  Ho2  1  0.991823  0.605129  0.500000  1
  In  In3  1  0.007004  0.265111  0.000000  1
  In  In4  1  0.265111  0.007004  0.000000  1
  Ga  Ga5  1  0.732492  0.732492  0.000000  1
  Ru  Ru6  1  0.971342  0.971342  0.500000  1
  Pt  Pt7  1  0.338721  0.670135  0.000000  1
  Pt  Pt8  1  0.670135  0.338721  0.000000  1
