# generated using pymatgen
data_Sn2Rh3
_symmetry_space_group_name_H-M   'P 1'
_cell_length_a   5.65069100
_cell_length_b   7.36290300
_cell_length_c   8.59989500
_cell_angle_alpha   90.00000000
_cell_angle_beta   90.00000000
_cell_angle_gamma   90.00000000
_symmetry_Int_Tables_number   1
_chemical_formula_structural   Sn2Rh3
_chemical_formula_sum   'Sn8 Rh12'
_cell_volume   357.80284298
_cell_formula_units_Z   4
loop_
 _symmetry_equiv_pos_site_id
 _symmetry_equiv_pos_as_xyz
  1  'x, y, z'
loop_
 _atom_site_type_symbol
 _atom_site_label
 _atom_site_symmetry_multiplicity
 _atom_site_fract_x
 _atom_site_fract_y
 _atom_site_fract_z
 _atom_site_occupancy
  Sn  Sn0  1  0.750000  0.902572  0.855454  1
  Sn  Sn1  1  0.750000  0.402572  0.644546  1
  Sn  Sn2  1  0.250000  0.097428  0.144546  1
  Sn  Sn3  1  0.250000  0.597428  0.355454  1
  Sn  Sn4  1  0.750000  0.939806  0.411138  1
  Sn  Sn5  1  0.750000  0.439806  0.088862  1
  Sn  Sn6  1  0.250000  0.060194  0.588862  1
  Sn  Sn7  1  0.250000  0.560194  0.911138  1
  Rh  Rh8  1  0.750000  0.585204  0.370414  1
  Rh  Rh9  1  0.750000  0.085204  0.129586  1
  Rh  Rh10  1  0.250000  0.414796  0.629586  1
  Rh  Rh11  1  0.250000  0.914796  0.870414  1
  Rh  Rh12  1  0.996540  0.254412  0.378872  1
  Rh  Rh13  1  0.503460  0.754412  0.121128  1
  Rh  Rh14  1  0.496540  0.745588  0.621128  1
  Rh  Rh15  1  0.003460  0.245588  0.878872  1
  Rh  Rh16  1  0.003460  0.745588  0.621128  1
  Rh  Rh17  1  0.496540  0.245588  0.878872  1
  Rh  Rh18  1  0.503460  0.254412  0.378872  1
  Rh  Rh19  1  0.996540  0.754412  0.121128  1
