# generated using pymatgen
data_Ti9V3Sn9Au
_symmetry_space_group_name_H-M   'P 1'
_cell_length_a   9.20046000
_cell_length_b   9.20046043
_cell_length_c   5.60833600
_cell_angle_alpha   90.00000000
_cell_angle_beta   90.00000000
_cell_angle_gamma   120.00000566
_symmetry_Int_Tables_number   1
_chemical_formula_structural   Ti9V3Sn9Au
_chemical_formula_sum   'Ti9 V3 Sn9 Au1'
_cell_volume   411.13432293
_cell_formula_units_Z   1
loop_
 _symmetry_equiv_pos_site_id
 _symmetry_equiv_pos_as_xyz
  1  'x, y, z'
loop_
 _atom_site_type_symbol
 _atom_site_label
 _atom_site_symmetry_multiplicity
 _atom_site_fract_x
 _atom_site_fract_y
 _atom_site_fract_z
 _atom_site_occupancy
  Ti  Ti0  1  0.843066  0.686131  0.753243  1
  Ti  Ti1  1  0.156934  0.843066  0.246757  1
  Ti  Ti2  1  0.686131  0.843066  0.246757  1
  Ti  Ti3  1  0.313869  0.156934  0.753243  1
  Ti  Ti4  1  0.843066  0.156934  0.753243  1
  Ti  Ti5  1  0.156934  0.313869  0.246757  1
  Ti  Ti6  1  0.500000  0.000000  0.500000  1
  Ti  Ti7  1  0.000000  0.500000  0.500000  1
  Ti  Ti8  1  0.500000  0.500000  0.500000  1
  V  V9  1  0.500000  0.500000  0.000000  1
  V  V10  1  0.000000  0.500000  0.000000  1
  V  V11  1  0.500000  0.000000  0.000000  1
  Sn  Sn12  1  0.202906  0.405812  0.752865  1
  Sn  Sn13  1  0.797094  0.202906  0.247135  1
  Sn  Sn14  1  0.405812  0.202906  0.247135  1
  Sn  Sn15  1  0.594188  0.797094  0.752865  1
  Sn  Sn16  1  0.202906  0.797094  0.752865  1
  Sn  Sn17  1  0.797094  0.594188  0.247135  1
  Sn  Sn18  1  0.666667  0.333333  0.761081  1
  Sn  Sn19  1  0.333333  0.666667  0.238919  1
  Sn  Sn20  1  0.000000  0.000000  0.000000  1
  Au  Au21  1  0.000000  0.000000  0.500000  1
