# generated using pymatgen
data_Rb5MoAsSe8
_symmetry_space_group_name_H-M   'P 1'
_cell_length_a   12.35120759
_cell_length_b   12.39066536
_cell_length_c   12.35125100
_cell_angle_alpha   132.73784851
_cell_angle_beta   127.64376999
_cell_angle_gamma   73.10433498
_symmetry_Int_Tables_number   1
_chemical_formula_structural   Rb5MoAsSe8
_chemical_formula_sum   'Rb10 Mo2 As2 Se16'
_cell_volume   1074.07974376
_cell_formula_units_Z   2
loop_
 _symmetry_equiv_pos_site_id
 _symmetry_equiv_pos_as_xyz
  1  'x, y, z'
loop_
 _atom_site_type_symbol
 _atom_site_label
 _atom_site_symmetry_multiplicity
 _atom_site_fract_x
 _atom_site_fract_y
 _atom_site_fract_z
 _atom_site_occupancy
  Rb  Rb0  1  0.505292  0.257386  0.268570  1
  Rb  Rb1  1  0.011152  0.742573  0.247843  1
  Rb  Rb2  1  0.571555  0.708423  0.136871  1
  Rb  Rb3  1  0.428451  0.291600  0.863147  1
  Rb  Rb4  1  0.494722  0.742576  0.731421  1
  Rb  Rb5  1  0.077535  0.431707  0.354183  1
  Rb  Rb6  1  0.922473  0.568354  0.645878  1
  Rb  Rb7  1  0.988819  0.257395  0.752102  1
  Rb  Rb8  1  0.264724  0.999981  0.264707  1
  Rb  Rb9  1  0.735273  0.000003  0.735284  1
  Mo  Mo10  1  0.133483  0.911999  0.778613  1
  Mo  Mo11  1  0.866497  0.087873  0.221305  1
  As  As12  1  0.364011  0.636855  0.272843  1
  As  As13  1  0.635989  0.363166  0.727190  1
  Se  Se14  1  0.588845  0.592807  0.348433  1
  Se  Se15  1  0.749352  0.984976  0.235617  1
  Se  Se16  1  0.893797  0.886090  0.992280  1
  Se  Se17  1  0.755621  0.407213  0.996023  1
  Se  Se18  1  0.736032  0.236957  0.151859  1
  Se  Se19  1  0.752194  0.528253  0.776044  1
  Se  Se20  1  0.250606  0.015025  0.764414  1
  Se  Se21  1  0.244383  0.592800  0.003954  1
  Se  Se22  1  0.247787  0.471720  0.223924  1
  Se  Se23  1  0.263902  0.763173  0.848189  1
  Se  Se24  1  0.106241  0.113819  0.007543  1
  Se  Se25  1  0.915019  0.763188  0.499319  1
  Se  Se26  1  0.085054  0.236940  0.500871  1
  Se  Se27  1  0.624302  0.115475  0.491200  1
  Se  Se28  1  0.411194  0.407176  0.651577  1
  Se  Se29  1  0.375694  0.884498  0.508801  1
