# generated using pymatgen
data_Tm4Al2Ga2IrPt3
_symmetry_space_group_name_H-M   'P 1'
_cell_length_a   4.38275400
_cell_length_b   6.75051005
_cell_length_c   7.74710753
_cell_angle_alpha   89.79794315
_cell_angle_beta   90.00000000
_cell_angle_gamma   90.00000000
_symmetry_Int_Tables_number   1
_chemical_formula_structural   Tm4Al2Ga2IrPt3
_chemical_formula_sum   'Tm4 Al2 Ga2 Ir1 Pt3'
_cell_volume   229.20314200
_cell_formula_units_Z   1
loop_
 _symmetry_equiv_pos_site_id
 _symmetry_equiv_pos_as_xyz
  1  'x, y, z'
loop_
 _atom_site_type_symbol
 _atom_site_label
 _atom_site_symmetry_multiplicity
 _atom_site_fract_x
 _atom_site_fract_y
 _atom_site_fract_z
 _atom_site_occupancy
  Tm  Tm0  1  0.250000  0.031931  0.681867  1
  Tm  Tm1  1  0.250000  0.528503  0.820841  1
  Tm  Tm2  1  0.750000  0.975156  0.316534  1
  Tm  Tm3  1  0.750000  0.470376  0.180947  1
  Al  Al4  1  0.250000  0.639240  0.438641  1
  Al  Al5  1  0.750000  0.355345  0.559652  1
  Ga  Ga6  1  0.250000  0.152747  0.064201  1
  Ga  Ga7  1  0.750000  0.848930  0.938364  1
  Ir  Ir8  1  0.250000  0.265812  0.383727  1
  Pt  Pt9  1  0.250000  0.766215  0.123440  1
  Pt  Pt10  1  0.750000  0.730963  0.615952  1
  Pt  Pt11  1  0.750000  0.234784  0.875831  1
