# generated using pymatgen
data_Ho16Al4Fe3Ni
_symmetry_space_group_name_H-M   'P 1'
_cell_length_a   9.36619260
_cell_length_b   9.38644557
_cell_length_c   9.38644500
_cell_angle_alpha   60.00000554
_cell_angle_beta   59.92844983
_cell_angle_gamma   59.92844961
_symmetry_Int_Tables_number   1
_chemical_formula_structural   Ho16Al4Fe3Ni
_chemical_formula_sum   'Ho16 Al4 Fe3 Ni1'
_cell_volume   582.88097603
_cell_formula_units_Z   1
loop_
 _symmetry_equiv_pos_site_id
 _symmetry_equiv_pos_as_xyz
  1  'x, y, z'
loop_
 _atom_site_type_symbol
 _atom_site_label
 _atom_site_symmetry_multiplicity
 _atom_site_fract_x
 _atom_site_fract_y
 _atom_site_fract_z
 _atom_site_occupancy
  Ho  Ho0  1  0.346597  0.351347  0.351347  1
  Ho  Ho1  1  0.346597  0.351347  0.950709  1
  Ho  Ho2  1  0.346597  0.950709  0.351347  1
  Ho  Ho3  1  0.955985  0.348005  0.348005  1
  Ho  Ho4  1  0.811442  0.192620  0.192620  1
  Ho  Ho5  1  0.192050  0.807333  0.807333  1
  Ho  Ho6  1  0.192050  0.807333  0.193284  1
  Ho  Ho7  1  0.811442  0.192620  0.803318  1
  Ho  Ho8  1  0.192050  0.193284  0.807333  1
  Ho  Ho9  1  0.811442  0.803318  0.192620  1
  Ho  Ho10  1  0.938422  0.560204  0.560203  1
  Ho  Ho11  1  0.558637  0.938991  0.938990  1
  Ho  Ho12  1  0.558638  0.938991  0.563381  1
  Ho  Ho13  1  0.938422  0.560204  0.941170  1
  Ho  Ho14  1  0.558637  0.563382  0.938990  1
  Ho  Ho15  1  0.938422  0.941171  0.560203  1
  Al  Al16  1  0.577650  0.576409  0.576409  1
  Al  Al17  1  0.577650  0.576409  0.269531  1
  Al  Al18  1  0.577650  0.269531  0.576409  1
  Al  Al19  1  0.267579  0.577473  0.577473  1
  Fe  Fe20  1  0.141455  0.137915  0.137915  1
  Fe  Fe21  1  0.141455  0.137915  0.582715  1
  Fe  Fe22  1  0.141455  0.582715  0.137915  1
  Ni  Ni23  1  0.577678  0.140774  0.140774  1
