# generated using pymatgen
data_La4Nd12Cd4TcPt3
_symmetry_space_group_name_H-M   'P 1'
_cell_length_a   10.10273205
_cell_length_b   10.10273255
_cell_length_c   10.10273134
_cell_angle_alpha   59.43181045
_cell_angle_beta   59.43180019
_cell_angle_gamma   59.43181632
_symmetry_Int_Tables_number   1
_chemical_formula_structural   La4Nd12Cd4TcPt3
_chemical_formula_sum   'La4 Nd12 Cd4 Tc1 Pt3'
_cell_volume   719.69840457
_cell_formula_units_Z   1
loop_
 _symmetry_equiv_pos_site_id
 _symmetry_equiv_pos_as_xyz
  1  'x, y, z'
loop_
 _atom_site_type_symbol
 _atom_site_label
 _atom_site_symmetry_multiplicity
 _atom_site_fract_x
 _atom_site_fract_y
 _atom_site_fract_z
 _atom_site_occupancy
  La  La0  1  0.351463  0.351463  0.351463  1
  La  La1  1  0.345788  0.345788  0.954467  1
  La  La2  1  0.345788  0.954467  0.345788  1
  La  La3  1  0.954467  0.345788  0.345788  1
  Nd  Nd4  1  0.817124  0.187794  0.187794  1
  Nd  Nd5  1  0.189004  0.808657  0.808657  1
  Nd  Nd6  1  0.187794  0.817124  0.187794  1
  Nd  Nd7  1  0.808657  0.189004  0.808657  1
  Nd  Nd8  1  0.187794  0.187794  0.817124  1
  Nd  Nd9  1  0.808657  0.808657  0.189004  1
  Nd  Nd10  1  0.935291  0.565046  0.565046  1
  Nd  Nd11  1  0.557543  0.937144  0.937144  1
  Nd  Nd12  1  0.565046  0.935291  0.565046  1
  Nd  Nd13  1  0.937144  0.557543  0.937144  1
  Nd  Nd14  1  0.565046  0.565046  0.935291  1
  Nd  Nd15  1  0.937144  0.937144  0.557543  1
  Cd  Cd16  1  0.579970  0.579970  0.579970  1
  Cd  Cd17  1  0.580580  0.580580  0.256778  1
  Cd  Cd18  1  0.580580  0.256778  0.580580  1
  Cd  Cd19  1  0.256778  0.580580  0.580580  1
  Tc  Tc20  1  0.143674  0.143674  0.143674  1
  Pt  Pt21  1  0.144862  0.144862  0.574944  1
  Pt  Pt22  1  0.144862  0.574944  0.144862  1
  Pt  Pt23  1  0.574944  0.144862  0.144862  1
