# generated using pymatgen
data_Zr2TlNi2Bi
_symmetry_space_group_name_H-M   'P 1'
_cell_length_a   7.65979261
_cell_length_b   7.65979245
_cell_length_c   6.26738400
_cell_angle_alpha   114.14889200
_cell_angle_beta   114.14889146
_cell_angle_gamma   109.30024917
_symmetry_Int_Tables_number   1
_chemical_formula_structural   Zr2TlNi2Bi
_chemical_formula_sum   'Zr4 Tl2 Ni4 Bi2'
_cell_volume   245.40593589
_cell_formula_units_Z   2
loop_
 _symmetry_equiv_pos_site_id
 _symmetry_equiv_pos_as_xyz
  1  'x, y, z'
loop_
 _atom_site_type_symbol
 _atom_site_label
 _atom_site_symmetry_multiplicity
 _atom_site_fract_x
 _atom_site_fract_y
 _atom_site_fract_z
 _atom_site_occupancy
  Zr  Zr0  1  0.754886  0.245114  0.000000  1
  Zr  Zr1  1  0.245115  0.754885  0.000000  1
  Zr  Zr2  1  0.495115  0.504885  0.500000  1
  Zr  Zr3  1  0.004885  0.995115  0.500000  1
  Tl  Tl4  1  0.000000  0.000000  0.000000  1
  Tl  Tl5  1  0.250000  0.750000  0.500000  1
  Ni  Ni6  1  0.869296  0.619295  0.994296  1
  Ni  Ni7  1  0.125000  0.375000  0.505705  1
  Ni  Ni8  1  0.625000  0.875000  0.494296  1
  Ni  Ni9  1  0.380705  0.130704  0.005705  1
  Bi  Bi10  1  0.500000  0.500000  0.000000  1
  Bi  Bi11  1  0.750001  0.250000  0.500000  1
