# generated using pymatgen
data_Pr10Ge2(BiPb)3
_symmetry_space_group_name_H-M   'P 1'
_cell_length_a   9.77047500
_cell_length_b   9.77047427
_cell_length_c   6.79939000
_cell_angle_alpha   90.00000000
_cell_angle_beta   90.00000000
_cell_angle_gamma   119.99999909
_symmetry_Int_Tables_number   1
_chemical_formula_structural   Pr10Ge2(BiPb)3
_chemical_formula_sum   'Pr10 Ge2 Bi3 Pb3'
_cell_volume   562.12371909
_cell_formula_units_Z   1
loop_
 _symmetry_equiv_pos_site_id
 _symmetry_equiv_pos_as_xyz
  1  'x, y, z'
loop_
 _atom_site_type_symbol
 _atom_site_label
 _atom_site_symmetry_multiplicity
 _atom_site_fract_x
 _atom_site_fract_y
 _atom_site_fract_z
 _atom_site_occupancy
  Pr  Pr0  1  0.666667  0.333333  0.997283  1
  Pr  Pr1  1  0.333333  0.666667  0.997283  1
  Pr  Pr2  1  0.333333  0.666667  0.502717  1
  Pr  Pr3  1  0.666667  0.333333  0.502717  1
  Pr  Pr4  1  0.748616  0.748616  0.750000  1
  Pr  Pr5  1  0.251384  0.000000  0.750000  1
  Pr  Pr6  1  0.000000  0.251384  0.750000  1
  Pr  Pr7  1  0.249989  0.249989  0.250000  1
  Pr  Pr8  1  0.750011  0.000000  0.250000  1
  Pr  Pr9  1  0.000000  0.750011  0.250000  1
  Ge  Ge10  1  0.000000  0.000000  0.999699  1
  Ge  Ge11  1  0.000000  0.000000  0.500301  1
  Bi  Bi12  1  0.608173  0.608173  0.250000  1
  Bi  Bi13  1  0.391827  0.000000  0.250000  1
  Bi  Bi14  1  0.000000  0.391827  0.250000  1
  Pb  Pb15  1  0.390531  0.390531  0.750000  1
  Pb  Pb16  1  0.609469  0.000000  0.750000  1
  Pb  Pb17  1  0.000000  0.609469  0.750000  1
