# generated using pymatgen
data_Dy5InBiOs
_symmetry_space_group_name_H-M   'P 1'
_cell_length_a   7.85825356
_cell_length_b   9.04657963
_cell_length_c   12.34114400
_cell_angle_alpha   90.45007005
_cell_angle_beta   90.68984055
_cell_angle_gamma   90.06848067
_symmetry_Int_Tables_number   1
_chemical_formula_structural   Dy5InBiOs
_chemical_formula_sum   'Dy20 In4 Bi4 Os4'
_cell_volume   877.24445004
_cell_formula_units_Z   4
loop_
 _symmetry_equiv_pos_site_id
 _symmetry_equiv_pos_as_xyz
  1  'x, y, z'
loop_
 _atom_site_type_symbol
 _atom_site_label
 _atom_site_symmetry_multiplicity
 _atom_site_fract_x
 _atom_site_fract_y
 _atom_site_fract_z
 _atom_site_occupancy
  Dy  Dy0  1  0.845884  0.745592  0.784237  1
  Dy  Dy1  1  0.160711  0.248458  0.216999  1
  Dy  Dy2  1  0.347566  0.255307  0.714582  1
  Dy  Dy3  1  0.646176  0.747521  0.287528  1
  Dy  Dy4  1  0.379648  0.745851  0.694552  1
  Dy  Dy5  1  0.609635  0.251486  0.305790  1
  Dy  Dy6  1  0.885837  0.253425  0.807053  1
  Dy  Dy7  1  0.122724  0.749930  0.192909  1
  Dy  Dy8  1  0.949340  0.746375  0.503939  1
  Dy  Dy9  1  0.048496  0.253517  0.499748  1
  Dy  Dy10  1  0.454234  0.249966  0.997900  1
  Dy  Dy11  1  0.550942  0.749978  0.004302  1
  Dy  Dy12  1  0.672523  0.040400  0.566674  1
  Dy  Dy13  1  0.321634  0.961715  0.429504  1
  Dy  Dy14  1  0.176084  0.960261  0.933689  1
  Dy  Dy15  1  0.323532  0.541565  0.429868  1
  Dy  Dy16  1  0.825804  0.037404  0.068150  1
  Dy  Dy17  1  0.674057  0.463413  0.572415  1
  Dy  Dy18  1  0.828628  0.461683  0.067564  1
  Dy  Dy19  1  0.179608  0.537548  0.926396  1
  In  In20  1  0.581560  0.493544  0.835268  1
  In  In21  1  0.420687  0.505235  0.166371  1
  In  In22  1  0.077339  0.505418  0.667754  1
  In  In23  1  0.423449  0.993368  0.166176  1
  Bi  Bi24  1  0.922914  0.491806  0.327424  1
  Bi  Bi25  1  0.577075  0.006897  0.828820  1
  Bi  Bi26  1  0.920206  0.006448  0.330742  1
  Bi  Bi27  1  0.074652  0.993522  0.670885  1
  Os  Os28  1  0.574917  0.752331  0.508605  1
  Os  Os29  1  0.418986  0.251361  0.492988  1
  Os  Os30  1  0.081409  0.248958  0.995564  1
  Os  Os31  1  0.923746  0.749712  0.005605  1
