# generated using pymatgen
data_Zr12Al4Ir7RhCN3
_symmetry_space_group_name_H-M   'P 1'
_cell_length_a   8.57478484
_cell_length_b   8.58012743
_cell_length_c   8.58012800
_cell_angle_alpha   60.00000552
_cell_angle_beta   59.97939277
_cell_angle_gamma   59.97939004
_symmetry_Int_Tables_number   1
_chemical_formula_structural   Zr12Al4Ir7RhCN3
_chemical_formula_sum   'Zr12 Al4 Ir7 Rh1 C1 N3'
_cell_volume   446.23168450
_cell_formula_units_Z   1
loop_
 _symmetry_equiv_pos_site_id
 _symmetry_equiv_pos_as_xyz
  1  'x, y, z'
loop_
 _atom_site_type_symbol
 _atom_site_label
 _atom_site_symmetry_multiplicity
 _atom_site_fract_x
 _atom_site_fract_y
 _atom_site_fract_z
 _atom_site_occupancy
  Zr  Zr0  1  0.806843  0.807971  0.192593  1
  Zr  Zr1  1  0.191782  0.191489  0.808364  1
  Zr  Zr2  1  0.806843  0.192593  0.807971  1
  Zr  Zr3  1  0.191782  0.808364  0.191489  1
  Zr  Zr4  1  0.191782  0.808364  0.808364  1
  Zr  Zr5  1  0.806843  0.192593  0.192593  1
  Zr  Zr6  1  0.443036  0.442853  0.057056  1
  Zr  Zr7  1  0.059957  0.056495  0.441774  1
  Zr  Zr8  1  0.443036  0.057056  0.442853  1
  Zr  Zr9  1  0.059957  0.441774  0.056495  1
  Zr  Zr10  1  0.059957  0.441774  0.441774  1
  Zr  Zr11  1  0.443036  0.057056  0.057056  1
  Al  Al12  1  0.124646  0.625118  0.625118  1
  Al  Al13  1  0.624425  0.125734  0.624920  1
  Al  Al14  1  0.624425  0.624920  0.125734  1
  Al  Al15  1  0.624425  0.624920  0.624920  1
  Ir  Ir16  1  0.415071  0.751249  0.416841  1
  Ir  Ir17  1  0.415071  0.416841  0.751249  1
  Ir  Ir18  1  0.415071  0.416841  0.416841  1
  Ir  Ir19  1  0.498658  0.833780  0.833780  1
  Ir  Ir20  1  0.834441  0.498581  0.833488  1
  Ir  Ir21  1  0.834441  0.833488  0.498581  1
  Ir  Ir22  1  0.834441  0.833488  0.833488  1
  Rh  Rh23  1  0.751491  0.416170  0.416170  1
  C  C24  1  0.624968  0.125011  0.125011  1
  N  N25  1  0.124525  0.624645  0.125416  1
  N  N26  1  0.124525  0.125416  0.624645  1
  N  N27  1  0.124525  0.125416  0.125416  1
