# generated using pymatgen
data_Y5Ho5InSb5
_symmetry_space_group_name_H-M   'P 1'
_cell_length_a   6.40177200
_cell_length_b   8.96587437
_cell_length_c   8.95810128
_cell_angle_alpha   120.02870962
_cell_angle_beta   90.00092059
_cell_angle_gamma   89.99815589
_symmetry_Int_Tables_number   1
_chemical_formula_structural   Y5Ho5InSb5
_chemical_formula_sum   'Y5 Ho5 In1 Sb5'
_cell_volume   445.15754521
_cell_formula_units_Z   1
loop_
 _symmetry_equiv_pos_site_id
 _symmetry_equiv_pos_as_xyz
  1  'x, y, z'
loop_
 _atom_site_type_symbol
 _atom_site_label
 _atom_site_symmetry_multiplicity
 _atom_site_fract_x
 _atom_site_fract_y
 _atom_site_fract_z
 _atom_site_occupancy
  Y  Y0  1  0.750012  0.244364  0.000000  1
  Y  Y1  1  0.750010  0.753894  0.757558  1
  Y  Y2  1  0.750010  0.996335  0.242442  1
  Y  Y3  1  0.249992  0.246922  0.245107  1
  Y  Y4  1  0.249992  0.001814  0.754893  1
  Ho  Ho5  1  0.498851  0.334821  0.668558  1
  Ho  Ho6  1  0.498851  0.666263  0.331442  1
  Ho  Ho7  1  0.001154  0.666263  0.331442  1
  Ho  Ho8  1  0.001154  0.334822  0.668558  1
  Ho  Ho9  1  0.249998  0.756644  0.000000  1
  In  In10  1  0.749968  0.605292  0.000000  1
  Sb  Sb11  1  0.750007  0.389194  0.389968  1
  Sb  Sb12  1  0.750007  0.999226  0.610032  1
  Sb  Sb13  1  0.249998  0.391680  0.000000  1
  Sb  Sb14  1  0.250001  0.611576  0.610689  1
  Sb  Sb15  1  0.250001  0.000889  0.389311  1
