# generated using pymatgen
data_TbYEr(Al3Ni2)3
_symmetry_space_group_name_H-M   'P 1'
_cell_length_a   9.06730439
_cell_length_b   9.05867330
_cell_length_c   4.05461600
_cell_angle_alpha   90.00000000
_cell_angle_beta   90.00000000
_cell_angle_gamma   119.99766254
_symmetry_Int_Tables_number   1
_chemical_formula_structural   TbYEr(Al3Ni2)3
_chemical_formula_sum   'Tb1 Y1 Er1 Al9 Ni6'
_cell_volume   288.42531979
_cell_formula_units_Z   1
loop_
 _symmetry_equiv_pos_site_id
 _symmetry_equiv_pos_as_xyz
  1  'x, y, z'
loop_
 _atom_site_type_symbol
 _atom_site_label
 _atom_site_symmetry_multiplicity
 _atom_site_fract_x
 _atom_site_fract_y
 _atom_site_fract_z
 _atom_site_occupancy
  Tb  Tb0  1  0.333214  0.666690  0.500000  1
  Y  Y1  1  0.666785  0.333347  0.500000  1
  Er  Er2  1  0.000163  0.999957  0.000000  1
  Al  Al3  1  0.999816  0.296261  0.500000  1
  Al  Al4  1  0.999809  0.499936  0.000000  1
  Al  Al5  1  0.500118  0.499996  0.000000  1
  Al  Al6  1  0.500027  0.000077  0.000000  1
  Al  Al7  1  0.703660  0.000127  0.500000  1
  Al  Al8  1  0.703898  0.703857  0.500000  1
  Al  Al9  1  0.296442  0.000153  0.500000  1
  Al  Al10  1  0.999801  0.703635  0.500000  1
  Al  Al11  1  0.296341  0.296023  0.500000  1
  Ni  Ni12  1  0.819037  0.180489  0.000000  1
  Ni  Ni13  1  0.818907  0.638480  0.000000  1
  Ni  Ni14  1  0.180909  0.819516  0.000000  1
  Ni  Ni15  1  0.638629  0.819565  0.000000  1
  Ni  Ni16  1  0.361520  0.180547  0.000000  1
  Ni  Ni17  1  0.180925  0.361342  0.000000  1
