# generated using pymatgen
data_Pr2Dy3Ho(IrO7)2
_symmetry_space_group_name_H-M   'P 1'
_cell_length_a   6.47874250
_cell_length_b   6.47523868
_cell_length_c   7.51244000
_cell_angle_alpha   90.00000000
_cell_angle_beta   90.00000000
_cell_angle_gamma   109.81932151
_symmetry_Int_Tables_number   1
_chemical_formula_structural   Pr2Dy3Ho(IrO7)2
_chemical_formula_sum   'Pr2 Dy3 Ho1 Ir2 O14'
_cell_volume   296.48952505
_cell_formula_units_Z   1
loop_
 _symmetry_equiv_pos_site_id
 _symmetry_equiv_pos_as_xyz
  1  'x, y, z'
loop_
 _atom_site_type_symbol
 _atom_site_label
 _atom_site_symmetry_multiplicity
 _atom_site_fract_x
 _atom_site_fract_y
 _atom_site_fract_z
 _atom_site_occupancy
  Pr  Pr0  1  0.000068  0.000006  0.000128  1
  Pr  Pr1  1  0.000068  0.000006  0.499872  1
  Dy  Dy2  1  0.483768  0.935146  0.750000  1
  Dy  Dy3  1  0.516148  0.064739  0.250000  1
  Dy  Dy4  1  0.935384  0.483864  0.750000  1
  Ho  Ho5  1  0.063699  0.515766  0.250000  1
  Ir  Ir6  1  0.500193  0.500093  0.000197  1
  Ir  Ir7  1  0.500193  0.500093  0.499803  1
  O  O8  1  0.591572  0.591614  0.750000  1
  O  O9  1  0.407730  0.408369  0.250000  1
  O  O10  1  0.838646  0.120568  0.750000  1
  O  O11  1  0.161228  0.877923  0.250000  1
  O  O12  1  0.120780  0.838862  0.750000  1
  O  O13  1  0.879825  0.162447  0.250000  1
  O  O14  1  0.440074  0.180793  0.965089  1
  O  O15  1  0.560061  0.819288  0.465079  1
  O  O16  1  0.180590  0.440324  0.965843  1
  O  O17  1  0.819624  0.559848  0.464729  1
  O  O18  1  0.440074  0.180793  0.534911  1
  O  O19  1  0.560061  0.819288  0.034921  1
  O  O20  1  0.819624  0.559848  0.035271  1
  O  O21  1  0.180590  0.440324  0.534157  1
