# generated using pymatgen
data_TbHfTcB6
_symmetry_space_group_name_H-M   'P 1'
_cell_length_a   3.60295300
_cell_length_b   9.01354700
_cell_length_c   11.40823800
_cell_angle_alpha   90.00000000
_cell_angle_beta   90.00000000
_cell_angle_gamma   90.00000000
_symmetry_Int_Tables_number   1
_chemical_formula_structural   TbHfTcB6
_chemical_formula_sum   'Tb4 Hf4 Tc4 B24'
_cell_volume   370.48693496
_cell_formula_units_Z   4
loop_
 _symmetry_equiv_pos_site_id
 _symmetry_equiv_pos_as_xyz
  1  'x, y, z'
loop_
 _atom_site_type_symbol
 _atom_site_label
 _atom_site_symmetry_multiplicity
 _atom_site_fract_x
 _atom_site_fract_y
 _atom_site_fract_z
 _atom_site_occupancy
  Tb  Tb0  1  0.000000  0.322281  0.414153  1
  Tb  Tb1  1  0.000000  0.677719  0.585847  1
  Tb  Tb2  1  0.000000  0.822281  0.085847  1
  Tb  Tb3  1  0.000000  0.177719  0.914153  1
  Hf  Hf4  1  0.000000  0.944911  0.372098  1
  Hf  Hf5  1  0.000000  0.055089  0.627902  1
  Hf  Hf6  1  0.000000  0.444911  0.127902  1
  Hf  Hf7  1  0.000000  0.555089  0.872098  1
  Tc  Tc8  1  0.000000  0.640842  0.317456  1
  Tc  Tc9  1  0.000000  0.359158  0.682544  1
  Tc  Tc10  1  0.000000  0.140842  0.182544  1
  Tc  Tc11  1  0.000000  0.859158  0.817456  1
  B  B12  1  0.500000  0.554670  0.432764  1
  B  B13  1  0.500000  0.445330  0.567236  1
  B  B14  1  0.500000  0.054670  0.067236  1
  B  B15  1  0.500000  0.945330  0.932764  1
  B  B16  1  0.500000  0.752687  0.417672  1
  B  B17  1  0.500000  0.247313  0.582328  1
  B  B18  1  0.500000  0.252687  0.082328  1
  B  B19  1  0.500000  0.747313  0.917672  1
  B  B20  1  0.500000  0.794881  0.264626  1
  B  B21  1  0.500000  0.205119  0.735374  1
  B  B22  1  0.500000  0.294881  0.235374  1
  B  B23  1  0.500000  0.705119  0.764626  1
  B  B24  1  0.500000  0.629745  0.183127  1
  B  B25  1  0.500000  0.370255  0.816873  1
  B  B26  1  0.500000  0.129745  0.316873  1
  B  B27  1  0.500000  0.870255  0.683127  1
  B  B28  1  0.500000  0.982341  0.214028  1
  B  B29  1  0.500000  0.017659  0.785972  1
  B  B30  1  0.500000  0.482341  0.285972  1
  B  B31  1  0.500000  0.517659  0.714028  1
  B  B32  1  0.500000  0.599584  0.026579  1
  B  B33  1  0.500000  0.400416  0.973421  1
  B  B34  1  0.500000  0.099584  0.473421  1
  B  B35  1  0.500000  0.900416  0.526579  1
