# generated using pymatgen
data_Ti12CdSn8Sb
_symmetry_space_group_name_H-M   'P 1'
_cell_length_a   9.23442000
_cell_length_b   9.28241622
_cell_length_c   5.71888623
_cell_angle_alpha   90.02795805
_cell_angle_beta   90.00000000
_cell_angle_gamma   119.82910996
_symmetry_Int_Tables_number   1
_chemical_formula_structural   Ti12CdSn8Sb
_chemical_formula_sum   'Ti12 Cd1 Sn8 Sb1'
_cell_volume   425.26335788
_cell_formula_units_Z   1
loop_
 _symmetry_equiv_pos_site_id
 _symmetry_equiv_pos_as_xyz
  1  'x, y, z'
loop_
 _atom_site_type_symbol
 _atom_site_label
 _atom_site_symmetry_multiplicity
 _atom_site_fract_x
 _atom_site_fract_y
 _atom_site_fract_z
 _atom_site_occupancy
  Ti  Ti0  1  0.841700  0.683401  0.755915  1
  Ti  Ti1  1  0.157250  0.842955  0.243677  1
  Ti  Ti2  1  0.685705  0.842955  0.243677  1
  Ti  Ti3  1  0.310972  0.158859  0.756776  1
  Ti  Ti4  1  0.847887  0.158859  0.756776  1
  Ti  Ti5  1  0.156858  0.313715  0.243184  1
  Ti  Ti6  1  0.499801  0.999602  0.499858  1
  Ti  Ti7  1  0.498377  0.500020  0.999359  1
  Ti  Ti8  1  0.001643  0.500020  0.999359  1
  Ti  Ti9  1  0.001459  0.500523  0.500593  1
  Ti  Ti10  1  0.499733  0.999465  0.000164  1
  Ti  Ti11  1  0.499064  0.500523  0.500593  1
  Cd  Cd12  1  0.998241  0.996481  0.499194  1
  Sn  Sn13  1  0.799705  0.201523  0.254002  1
  Sn  Sn14  1  0.401818  0.201523  0.254002  1
  Sn  Sn15  1  0.600353  0.801025  0.746120  1
  Sn  Sn16  1  0.200672  0.801025  0.746120  1
  Sn  Sn17  1  0.798269  0.596537  0.253863  1
  Sn  Sn18  1  0.666057  0.332114  0.752425  1
  Sn  Sn19  1  0.334655  0.669311  0.247644  1
  Sn  Sn20  1  0.998325  0.996649  0.001375  1
  Sb  Sb21  1  0.201457  0.402915  0.745324  1
