# generated using pymatgen
data_La2BeB3Rh5
_symmetry_space_group_name_H-M   'P 1'
_cell_length_a   7.69982008
_cell_length_b   6.46528903
_cell_length_c   5.71582282
_cell_angle_alpha   77.25417483
_cell_angle_beta   55.26118828
_cell_angle_gamma   46.59368455
_symmetry_Int_Tables_number   1
_chemical_formula_structural   La2BeB3Rh5
_chemical_formula_sum   'La2 Be1 B3 Rh5'
_cell_volume   162.76083983
_cell_formula_units_Z   1
loop_
 _symmetry_equiv_pos_site_id
 _symmetry_equiv_pos_as_xyz
  1  'x, y, z'
loop_
 _atom_site_type_symbol
 _atom_site_label
 _atom_site_symmetry_multiplicity
 _atom_site_fract_x
 _atom_site_fract_y
 _atom_site_fract_z
 _atom_site_occupancy
  La  La0  1  0.863424  0.861980  0.138020  1
  La  La1  1  0.144533  0.144613  0.855387  1
  Be  Be2  1  0.785081  0.476698  0.523302  1
  B  B3  1  0.203189  0.535298  0.464702  1
  B  B4  1  0.539804  0.208111  0.791889  1
  B  B5  1  0.466653  0.789004  0.210996  1
  Rh  Rh6  1  0.750332  0.753854  0.757246  1
  Rh  Rh7  1  0.496320  0.499611  0.006228  1
  Rh  Rh8  1  0.487072  0.494304  0.505696  1
  Rh  Rh9  1  0.002159  0.993772  0.500389  1
  Rh  Rh10  1  0.261432  0.242754  0.246146  1
