# generated using pymatgen
data_Dy4HoEr(Si2Ni)2
_symmetry_space_group_name_H-M   'P 1'
_cell_length_a   4.11874200
_cell_length_b   11.22493600
_cell_length_c   11.26574700
_cell_angle_alpha   90.00000000
_cell_angle_beta   90.00000000
_cell_angle_gamma   90.00000000
_symmetry_Int_Tables_number   1
_chemical_formula_structural   Dy4HoEr(Si2Ni)2
_chemical_formula_sum   'Dy8 Ho2 Er2 Si8 Ni4'
_cell_volume   520.84494769
_cell_formula_units_Z   2
loop_
 _symmetry_equiv_pos_site_id
 _symmetry_equiv_pos_as_xyz
  1  'x, y, z'
loop_
 _atom_site_type_symbol
 _atom_site_label
 _atom_site_symmetry_multiplicity
 _atom_site_fract_x
 _atom_site_fract_y
 _atom_site_fract_z
 _atom_site_occupancy
  Dy  Dy0  1  0.250000  0.125026  0.557733  1
  Dy  Dy1  1  0.250000  0.374974  0.057733  1
  Dy  Dy2  1  0.750000  0.874920  0.442209  1
  Dy  Dy3  1  0.750000  0.625080  0.942209  1
  Dy  Dy4  1  0.250000  0.803864  0.714618  1
  Dy  Dy5  1  0.250000  0.696136  0.214618  1
  Dy  Dy6  1  0.750000  0.196100  0.285313  1
  Dy  Dy7  1  0.750000  0.303900  0.785313  1
  Ho  Ho8  1  0.250000  0.059130  0.882808  1
  Ho  Ho9  1  0.250000  0.440870  0.382808  1
  Er  Er10  1  0.750000  0.941007  0.117155  1
  Er  Er11  1  0.750000  0.558993  0.617155  1
  Si  Si12  1  0.250000  0.814193  0.975514  1
  Si  Si13  1  0.250000  0.685807  0.475514  1
  Si  Si14  1  0.750000  0.185825  0.024772  1
  Si  Si15  1  0.750000  0.314175  0.524772  1
  Si  Si16  1  0.250000  0.495914  0.802713  1
  Si  Si17  1  0.250000  0.004086  0.302713  1
  Si  Si18  1  0.750000  0.504097  0.197086  1
  Si  Si19  1  0.750000  0.995903  0.697086  1
  Ni  Ni20  1  0.250000  0.366927  0.629430  1
  Ni  Ni21  1  0.250000  0.133073  0.129430  1
  Ni  Ni22  1  0.750000  0.633268  0.370653  1
  Ni  Ni23  1  0.750000  0.866732  0.870653  1
