# generated using pymatgen
data_TbDy5(CI3)2
_symmetry_space_group_name_H-M   'P 1'
_cell_length_a   3.90786500
_cell_length_b   8.72240258
_cell_length_c   11.89199566
_cell_angle_alpha   92.23902970
_cell_angle_beta   90.00000000
_cell_angle_gamma   90.00000000
_symmetry_Int_Tables_number   1
_chemical_formula_structural   TbDy5(CI3)2
_chemical_formula_sum   'Tb1 Dy5 C2 I6'
_cell_volume   405.04075730
_cell_formula_units_Z   1
loop_
 _symmetry_equiv_pos_site_id
 _symmetry_equiv_pos_as_xyz
  1  'x, y, z'
loop_
 _atom_site_type_symbol
 _atom_site_label
 _atom_site_symmetry_multiplicity
 _atom_site_fract_x
 _atom_site_fract_y
 _atom_site_fract_z
 _atom_site_occupancy
  Tb  Tb0  1  0.250000  0.918276  0.599640  1
  Dy  Dy1  1  0.750000  0.081038  0.400791  1
  Dy  Dy2  1  0.250000  0.886953  0.187158  1
  Dy  Dy3  1  0.750000  0.113110  0.812737  1
  Dy  Dy4  1  0.250000  0.291696  0.615067  1
  Dy  Dy5  1  0.750000  0.708552  0.384895  1
  C  C6  1  0.250000  0.883002  0.386326  1
  C  C7  1  0.750000  0.117717  0.613179  1
  I  I8  1  0.250000  0.859716  0.873182  1
  I  I9  1  0.750000  0.140306  0.127034  1
  I  I10  1  0.250000  0.375025  0.871191  1
  I  I11  1  0.750000  0.624961  0.128829  1
  I  I12  1  0.250000  0.382250  0.367595  1
  I  I13  1  0.750000  0.617397  0.632376  1
