# generated using pymatgen
data_Lu10GaBi5C2
_symmetry_space_group_name_H-M   'P 1'
_cell_length_a   8.91196198
_cell_length_b   8.91196253
_cell_length_c   6.39061600
_cell_angle_alpha   90.00000000
_cell_angle_beta   90.00000000
_cell_angle_gamma   120.52903468
_symmetry_Int_Tables_number   1
_chemical_formula_structural   Lu10GaBi5C2
_chemical_formula_sum   'Lu10 Ga1 Bi5 C2'
_cell_volume   437.19992207
_cell_formula_units_Z   1
loop_
 _symmetry_equiv_pos_site_id
 _symmetry_equiv_pos_as_xyz
  1  'x, y, z'
loop_
 _atom_site_type_symbol
 _atom_site_label
 _atom_site_symmetry_multiplicity
 _atom_site_fract_x
 _atom_site_fract_y
 _atom_site_fract_z
 _atom_site_occupancy
  Lu  Lu0  1  0.654363  0.335949  0.494384  1
  Lu  Lu1  1  0.335949  0.654363  0.494384  1
  Lu  Lu2  1  0.335949  0.654363  0.005616  1
  Lu  Lu3  1  0.654363  0.335949  0.005616  1
  Lu  Lu4  1  0.793640  0.793640  0.250000  1
  Lu  Lu5  1  0.215241  0.014376  0.250000  1
  Lu  Lu6  1  0.014376  0.215241  0.250000  1
  Lu  Lu7  1  0.209232  0.209232  0.750000  1
  Lu  Lu8  1  0.794262  0.999818  0.750000  1
  Lu  Lu9  1  0.999818  0.794262  0.750000  1
  Ga  Ga10  1  0.402292  0.402292  0.250000  1
  Bi  Bi11  1  0.601923  0.001282  0.250000  1
  Bi  Bi12  1  0.001282  0.601923  0.250000  1
  Bi  Bi13  1  0.595457  0.595457  0.750000  1
  Bi  Bi14  1  0.399415  0.994173  0.750000  1
  Bi  Bi15  1  0.994173  0.399415  0.750000  1
  C  C16  1  0.999133  0.999133  0.501149  1
  C  C17  1  0.999133  0.999133  0.998851  1
