# generated using pymatgen
data_KB5(H2S5)2
_symmetry_space_group_name_H-M   'P 1'
_cell_length_a   11.54125925
_cell_length_b   10.64781000
_cell_length_c   17.25735600
_cell_angle_alpha   90.00000000
_cell_angle_beta   105.80461809
_cell_angle_gamma   90.00000000
_symmetry_Int_Tables_number   1
_chemical_formula_structural   KB5(H2S5)2
_chemical_formula_sum   'K4 B20 H16 S40'
_cell_volume   2040.56914307
_cell_formula_units_Z   4
loop_
 _symmetry_equiv_pos_site_id
 _symmetry_equiv_pos_as_xyz
  1  'x, y, z'
loop_
 _atom_site_type_symbol
 _atom_site_label
 _atom_site_symmetry_multiplicity
 _atom_site_fract_x
 _atom_site_fract_y
 _atom_site_fract_z
 _atom_site_occupancy
  K  K0  1  0.066954  0.731187  0.724581  1
  K  K1  1  0.933046  0.231187  0.775419  1
  K  K2  1  0.933046  0.268813  0.275419  1
  K  K3  1  0.066954  0.768813  0.224581  1
  B  B4  1  0.277702  0.089826  0.821284  1
  B  B5  1  0.722298  0.589826  0.678716  1
  B  B6  1  0.722298  0.910174  0.178716  1
  B  B7  1  0.277702  0.410174  0.321284  1
  B  B8  1  0.439665  0.296712  0.897635  1
  B  B9  1  0.560335  0.796712  0.602365  1
  B  B10  1  0.560335  0.703288  0.102365  1
  B  B11  1  0.439665  0.203288  0.397635  1
  B  B12  1  0.238242  0.215815  0.973820  1
  B  B13  1  0.761758  0.715815  0.526180  1
  B  B14  1  0.761758  0.784185  0.026180  1
  B  B15  1  0.238242  0.284185  0.473820  1
  B  B16  1  0.230969  0.071695  0.126630  1
  B  B17  1  0.769031  0.571695  0.373370  1
  B  B18  1  0.769031  0.928305  0.873370  1
  B  B19  1  0.230969  0.428305  0.626630  1
  B  B20  1  0.041450  0.263831  0.064198  1
  B  B21  1  0.958550  0.763831  0.435802  1
  B  B22  1  0.958550  0.736169  0.935802  1
  B  B23  1  0.041450  0.236169  0.564198  1
  H  H24  1  0.379124  0.910793  0.182009  1
  H  H25  1  0.620876  0.410793  0.317990  1
  H  H26  1  0.620876  0.089207  0.817991  1
  H  H27  1  0.379124  0.589207  0.682009  1
  H  H28  1  0.908266  0.448611  0.037519  1
  H  H29  1  0.091734  0.948611  0.462481  1
  H  H30  1  0.091734  0.551389  0.962481  1
  H  H31  1  0.908266  0.051389  0.537519  1
  H  H32  1  0.325041  0.982247  0.708585  1
  H  H33  1  0.674959  0.482247  0.791415  1
  H  H34  1  0.674959  0.017753  0.291415  1
  H  H35  1  0.325041  0.517753  0.208585  1
  H  H36  1  0.568827  0.477169  0.948658  1
  H  H37  1  0.431173  0.977169  0.551342  1
  H  H38  1  0.431173  0.522831  0.051342  1
  H  H39  1  0.568827  0.022831  0.448658  1
  S  S40  1  0.421405  0.163441  0.829201  1
  S  S41  1  0.578595  0.663441  0.670799  1
  S  S42  1  0.578595  0.836559  0.170799  1
  S  S43  1  0.421405  0.336559  0.329201  1
  S  S44  1  0.346981  0.345835  0.959613  1
  S  S45  1  0.653019  0.845835  0.540387  1
  S  S46  1  0.653019  0.654165  0.040387  1
  S  S47  1  0.346981  0.154165  0.459613  1
  S  S48  1  0.173539  0.110262  0.880222  1
  S  S49  1  0.826461  0.610262  0.619778  1
  S  S50  1  0.826461  0.889738  0.119778  1
  S  S51  1  0.173539  0.389738  0.380222  1
  S  S52  1  0.101306  0.313796  0.984045  1
  S  S53  1  0.898694  0.813796  0.515955  1
  S  S54  1  0.898694  0.686204  0.015955  1
  S  S55  1  0.101306  0.186204  0.484045  1
  S  S56  1  0.321610  0.111126  0.061986  1
  S  S57  1  0.678390  0.611126  0.438014  1
  S  S58  1  0.678390  0.888874  0.938014  1
  S  S59  1  0.321610  0.388874  0.561986  1
  S  S60  1  0.087825  0.135442  0.134813  1
  S  S61  1  0.912175  0.635442  0.365187  1
  S  S62  1  0.912175  0.864558  0.865187  1
  S  S63  1  0.087825  0.364558  0.634813  1
  S  S64  1  0.284874  0.955803  0.206388  1
  S  S65  1  0.715126  0.455803  0.293612  1
  S  S66  1  0.715126  0.044197  0.793612  1
  S  S67  1  0.284874  0.544197  0.706388  1
  S  S68  1  0.910336  0.342244  0.081342  1
  S  S69  1  0.089664  0.842244  0.418658  1
  S  S70  1  0.089664  0.657756  0.918658  1
  S  S71  1  0.910336  0.157756  0.581342  1
  S  S72  1  0.227622  0.978999  0.738209  1
  S  S73  1  0.772378  0.478999  0.761791  1
  S  S74  1  0.772378  0.021001  0.261791  1
  S  S75  1  0.227622  0.521001  0.238209  1
  S  S76  1  0.570161  0.388066  0.892692  1
  S  S77  1  0.429839  0.888066  0.607308  1
  S  S78  1  0.429839  0.611934  0.107308  1
  S  S79  1  0.570161  0.111934  0.392692  1
