# generated using pymatgen
data_La4TcOsO10
_symmetry_space_group_name_H-M   'P 1'
_cell_length_a   7.04491727
_cell_length_b   7.04491717
_cell_length_c   7.04491658
_cell_angle_alpha   100.46557865
_cell_angle_beta   100.46558061
_cell_angle_gamma   129.54694502
_symmetry_Int_Tables_number   1
_chemical_formula_structural   La4TcOsO10
_chemical_formula_sum   'La4 Tc1 Os1 O10'
_cell_volume   243.89958895
_cell_formula_units_Z   1
loop_
 _symmetry_equiv_pos_site_id
 _symmetry_equiv_pos_as_xyz
  1  'x, y, z'
loop_
 _atom_site_type_symbol
 _atom_site_label
 _atom_site_symmetry_multiplicity
 _atom_site_fract_x
 _atom_site_fract_y
 _atom_site_fract_z
 _atom_site_occupancy
  La  La0  1  0.817593  0.397512  0.213943  1
  La  La1  1  0.397512  0.183568  0.579920  1
  La  La2  1  0.603649  0.817593  0.420080  1
  La  La3  1  0.183568  0.603649  0.786057  1
  Tc  Tc4  1  0.815870  0.815870  0.000000  1
  Os  Os5  1  0.185892  0.185892  0.000000  1
  O  O6  1  0.350960  0.067536  0.907518  1
  O  O7  1  0.067536  0.160017  0.716575  1
  O  O8  1  0.443442  0.350960  0.283425  1
  O  O9  1  0.160017  0.443442  0.092482  1
  O  O10  1  0.648279  0.930486  0.092191  1
  O  O11  1  0.930486  0.838294  0.282207  1
  O  O12  1  0.250407  0.750407  0.500000  1
  O  O13  1  0.750407  0.250407  0.500000  1
  O  O14  1  0.838294  0.556087  0.907809  1
  O  O15  1  0.556087  0.648279  0.717793  1
