# generated using pymatgen
data_Sm8Y8Sc4Si15Os
_symmetry_space_group_name_H-M   'P 1'
_cell_length_a   7.31170905
_cell_length_b   7.77835599
_cell_length_c   14.55474300
_cell_angle_alpha   90.00000000
_cell_angle_beta   90.00000000
_cell_angle_gamma   90.14435652
_symmetry_Int_Tables_number   1
_chemical_formula_structural   Sm8Y8Sc4Si15Os
_chemical_formula_sum   'Sm8 Y8 Sc4 Si15 Os1'
_cell_volume   827.77037511
_cell_formula_units_Z   1
loop_
 _symmetry_equiv_pos_site_id
 _symmetry_equiv_pos_as_xyz
  1  'x, y, z'
loop_
 _atom_site_type_symbol
 _atom_site_label
 _atom_site_symmetry_multiplicity
 _atom_site_fract_x
 _atom_site_fract_y
 _atom_site_fract_z
 _atom_site_occupancy
  Sm  Sm0  1  0.017614  0.183848  0.096806  1
  Sm  Sm1  1  0.984823  0.824586  0.901890  1
  Sm  Sm2  1  0.482211  0.681696  0.903325  1
  Sm  Sm3  1  0.984823  0.824586  0.598110  1
  Sm  Sm4  1  0.517302  0.319132  0.097163  1
  Sm  Sm5  1  0.017614  0.183848  0.403194  1
  Sm  Sm6  1  0.517302  0.319132  0.402837  1
  Sm  Sm7  1  0.482211  0.681696  0.596675  1
  Y  Y8  1  0.312626  0.173293  0.628104  1
  Y  Y9  1  0.678201  0.824000  0.373539  1
  Y  Y10  1  0.177473  0.679872  0.374019  1
  Y  Y11  1  0.678201  0.824000  0.126461  1
  Y  Y12  1  0.829433  0.316247  0.627468  1
  Y  Y13  1  0.312626  0.173293  0.871896  1
  Y  Y14  1  0.829433  0.316247  0.872532  1
  Y  Y15  1  0.177473  0.679872  0.125981  1
  Sc  Sc16  1  0.153574  0.511227  0.750000  1
  Sc  Sc17  1  0.842677  0.483411  0.250000  1
  Sc  Sc18  1  0.342757  0.018899  0.250000  1
  Sc  Sc19  1  0.671068  0.985499  0.750000  1
  Si  Si20  1  0.980091  0.904899  0.250000  1
  Si  Si21  1  0.480477  0.596164  0.250000  1
  Si  Si22  1  0.518622  0.405326  0.750000  1
  Si  Si23  1  0.278756  0.862483  0.750000  1
  Si  Si24  1  0.718722  0.133359  0.250000  1
  Si  Si25  1  0.219674  0.368446  0.250000  1
  Si  Si26  1  0.772952  0.626926  0.750000  1
  Si  Si27  1  0.153673  0.472663  0.538589  1
  Si  Si28  1  0.850003  0.531125  0.460436  1
  Si  Si29  1  0.349794  0.970471  0.459495  1
  Si  Si30  1  0.850003  0.531125  0.039564  1
  Si  Si31  1  0.648559  0.030315  0.538701  1
  Si  Si32  1  0.153673  0.472663  0.961411  1
  Si  Si33  1  0.648559  0.030315  0.961299  1
  Si  Si34  1  0.349794  0.970471  0.040505  1
  Os  Os35  1  0.017208  0.088866  0.750000  1
