# generated using pymatgen
data_Co3Br4O
_symmetry_space_group_name_H-M   'P 1'
_cell_length_a   9.39232500
_cell_length_b   9.39232500
_cell_length_c   9.39232500
_cell_angle_alpha   90.00000000
_cell_angle_beta   90.00000000
_cell_angle_gamma   90.00000000
_symmetry_Int_Tables_number   1
_chemical_formula_structural   Co3Br4O
_chemical_formula_sum   'Co12 Br16 O4'
_cell_volume   828.55117169
_cell_formula_units_Z   4
loop_
 _symmetry_equiv_pos_site_id
 _symmetry_equiv_pos_as_xyz
  1  'x, y, z'
loop_
 _atom_site_type_symbol
 _atom_site_label
 _atom_site_symmetry_multiplicity
 _atom_site_fract_x
 _atom_site_fract_y
 _atom_site_fract_z
 _atom_site_occupancy
  Co  Co0  1  0.849660  0.733114  0.011748  1
  Co  Co1  1  0.233114  0.488252  0.150340  1
  Co  Co2  1  0.488252  0.150340  0.233114  1
  Co  Co3  1  0.511748  0.650341  0.266886  1
  Co  Co4  1  0.766886  0.988252  0.349660  1
  Co  Co5  1  0.150340  0.233114  0.488252  1
  Co  Co6  1  0.650341  0.266886  0.511748  1
  Co  Co7  1  0.266886  0.511748  0.650341  1
  Co  Co8  1  0.011748  0.849660  0.733114  1
  Co  Co9  1  0.988252  0.349660  0.766886  1
  Co  Co10  1  0.733114  0.011748  0.849660  1
  Co  Co11  1  0.349660  0.766886  0.988252  1
  Br  Br12  1  0.382100  0.298366  0.049714  1
  Br  Br13  1  0.561061  0.938940  0.061061  1
  Br  Br14  1  0.701634  0.549714  0.117900  1
  Br  Br15  1  0.950286  0.882100  0.201634  1
  Br  Br16  1  0.049714  0.382100  0.298366  1
  Br  Br17  1  0.298366  0.049714  0.382100  1
  Br  Br18  1  0.438940  0.438940  0.438940  1
  Br  Br19  1  0.617900  0.798366  0.450286  1
  Br  Br20  1  0.117900  0.701634  0.549714  1
  Br  Br21  1  0.938940  0.061061  0.561061  1
  Br  Br22  1  0.798366  0.450286  0.617900  1
  Br  Br23  1  0.549714  0.117900  0.701634  1
  Br  Br24  1  0.450286  0.617900  0.798366  1
  Br  Br25  1  0.201634  0.950286  0.882100  1
  Br  Br26  1  0.061061  0.561061  0.938940  1
  Br  Br27  1  0.882100  0.201634  0.950286  1
  O  O28  1  0.338916  0.661085  0.161085  1
  O  O29  1  0.661085  0.161085  0.338916  1
  O  O30  1  0.161085  0.338916  0.661085  1
  O  O31  1  0.838915  0.838915  0.838915  1
