# generated using pymatgen
data_PrTh3ZnCu3Sn4
_symmetry_space_group_name_H-M   'P 1'
_cell_length_a   4.53350100
_cell_length_b   4.53350035
_cell_length_c   16.43768100
_cell_angle_alpha   90.00000000
_cell_angle_beta   90.00000000
_cell_angle_gamma   120.00001201
_symmetry_Int_Tables_number   1
_chemical_formula_structural   PrTh3ZnCu3Sn4
_chemical_formula_sum   'Pr1 Th3 Zn1 Cu3 Sn4'
_cell_volume   292.57586455
_cell_formula_units_Z   1
loop_
 _symmetry_equiv_pos_site_id
 _symmetry_equiv_pos_as_xyz
  1  'x, y, z'
loop_
 _atom_site_type_symbol
 _atom_site_label
 _atom_site_symmetry_multiplicity
 _atom_site_fract_x
 _atom_site_fract_y
 _atom_site_fract_z
 _atom_site_occupancy
  Pr  Pr0  1  0.000000  0.000000  0.994833  1
  Th  Th1  1  0.000000  0.000000  0.501857  1
  Th  Th2  1  0.000000  0.000000  0.255829  1
  Th  Th3  1  0.000000  0.000000  0.748638  1
  Zn  Zn4  1  0.333333  0.666667  0.158729  1
  Cu  Cu5  1  0.333333  0.666667  0.351422  1
  Cu  Cu6  1  0.666667  0.333333  0.655885  1
  Cu  Cu7  1  0.666667  0.333333  0.836198  1
  Sn  Sn8  1  0.333333  0.666667  0.879086  1
  Sn  Sn9  1  0.666667  0.333333  0.118140  1
  Sn  Sn10  1  0.666667  0.333333  0.383610  1
  Sn  Sn11  1  0.333333  0.666667  0.615774  1
