# generated using pymatgen
data_Rb3TlBr16
_symmetry_space_group_name_H-M   'P 1'
_cell_length_a   8.16749746
_cell_length_b   9.70638995
_cell_length_c   10.47912127
_cell_angle_alpha   68.07415742
_cell_angle_beta   89.70622710
_cell_angle_gamma   90.44874400
_symmetry_Int_Tables_number   1
_chemical_formula_structural   Rb3TlBr16
_chemical_formula_sum   'Rb3 Tl1 Br16'
_cell_volume   770.60969825
_cell_formula_units_Z   1
loop_
 _symmetry_equiv_pos_site_id
 _symmetry_equiv_pos_as_xyz
  1  'x, y, z'
loop_
 _atom_site_type_symbol
 _atom_site_label
 _atom_site_symmetry_multiplicity
 _atom_site_fract_x
 _atom_site_fract_y
 _atom_site_fract_z
 _atom_site_occupancy
  Rb  Rb0  1  0.623171  0.732974  0.699534  1
  Rb  Rb1  1  0.121912  0.269007  0.799212  1
  Rb  Rb2  1  0.377891  0.267224  0.299473  1
  Tl  Tl3  1  0.883282  0.745756  0.200292  1
  Br  Br4  1  0.364315  0.544778  0.512203  1
  Br  Br5  1  0.863746  0.456922  0.985301  1
  Br  Br6  1  0.637941  0.458283  0.483009  1
  Br  Br7  1  0.137636  0.543507  0.015315  1
  Br  Br8  1  0.034954  0.665626  0.552470  1
  Br  Br9  1  0.535676  0.336609  0.939942  1
  Br  Br10  1  0.959871  0.338978  0.440531  1
  Br  Br11  1  0.464384  0.663803  0.060178  1
  Br  Br12  1  0.203338  0.869652  0.607590  1
  Br  Br13  1  0.702832  0.128886  0.893912  1
  Br  Br14  1  0.797478  0.130614  0.388450  1
  Br  Br15  1  0.292772  0.864848  0.111812  1
  Br  Br16  1  0.378480  0.057599  0.659952  1
  Br  Br17  1  0.878235  0.935546  0.853022  1
  Br  Br18  1  0.629009  0.938255  0.336608  1
  Br  Br19  1  0.113078  0.051129  0.161192  1
