# generated using pymatgen
data_Ho3TmCo4(P3Ir4)4
_symmetry_space_group_name_H-M   'P 1'
_cell_length_a   3.92966200
_cell_length_b   10.71846324
_cell_length_c   12.39972027
_cell_angle_alpha   90.02422942
_cell_angle_beta   90.00000000
_cell_angle_gamma   90.00000000
_symmetry_Int_Tables_number   1
_chemical_formula_structural   Ho3TmCo4(P3Ir4)4
_chemical_formula_sum   'Ho3 Tm1 Co4 P12 Ir16'
_cell_volume   522.27539876
_cell_formula_units_Z   1
loop_
 _symmetry_equiv_pos_site_id
 _symmetry_equiv_pos_as_xyz
  1  'x, y, z'
loop_
 _atom_site_type_symbol
 _atom_site_label
 _atom_site_symmetry_multiplicity
 _atom_site_fract_x
 _atom_site_fract_y
 _atom_site_fract_z
 _atom_site_occupancy
  Ho  Ho0  1  0.250000  0.585329  0.709828  1
  Ho  Ho1  1  0.250000  0.914810  0.209882  1
  Ho  Ho2  1  0.750000  0.414584  0.290006  1
  Tm  Tm3  1  0.750000  0.085419  0.790118  1
  Co  Co4  1  0.250000  0.460902  0.933918  1
  Co  Co5  1  0.250000  0.038485  0.434255  1
  Co  Co6  1  0.750000  0.538675  0.065999  1
  Co  Co7  1  0.750000  0.961464  0.566369  1
  P  P8  1  0.250000  0.426228  0.105691  1
  P  P9  1  0.250000  0.073958  0.605941  1
  P  P10  1  0.750000  0.573769  0.894333  1
  P  P11  1  0.750000  0.926274  0.394561  1
  P  P12  1  0.250000  0.270377  0.871170  1
  P  P13  1  0.250000  0.229138  0.371447  1
  P  P14  1  0.750000  0.729325  0.128462  1
  P  P15  1  0.750000  0.770745  0.628268  1
  P  P16  1  0.250000  0.594579  0.384784  1
  P  P17  1  0.250000  0.905795  0.884644  1
  P  P18  1  0.750000  0.405475  0.615057  1
  P  P19  1  0.750000  0.094724  0.115501  1
  Ir  Ir20  1  0.250000  0.720862  0.980196  1
  Ir  Ir21  1  0.250000  0.778877  0.481158  1
  Ir  Ir22  1  0.750000  0.279067  0.019137  1
  Ir  Ir23  1  0.750000  0.220575  0.519886  1
  Ir  Ir24  1  0.250000  0.407510  0.478110  1
  Ir  Ir25  1  0.250000  0.092472  0.977020  1
  Ir  Ir26  1  0.750000  0.592147  0.521683  1
  Ir  Ir27  1  0.750000  0.907879  0.021932  1
  Ir  Ir28  1  0.250000  0.231894  0.179853  1
  Ir  Ir29  1  0.250000  0.267138  0.680724  1
  Ir  Ir30  1  0.750000  0.767651  0.819476  1
  Ir  Ir31  1  0.750000  0.732281  0.319945  1
  Ir  Ir32  1  0.250000  0.887205  0.699473  1
  Ir  Ir33  1  0.250000  0.614125  0.199065  1
  Ir  Ir34  1  0.750000  0.114218  0.301384  1
  Ir  Ir35  1  0.750000  0.386042  0.800723  1
