# generated using pymatgen
data_Na3Pr(PuSe3)2
_symmetry_space_group_name_H-M   'P 1'
_cell_length_a   7.39564168
_cell_length_b   7.39564153
_cell_length_c   7.33093102
_cell_angle_alpha   80.26429737
_cell_angle_beta   80.26430114
_cell_angle_gamma   120.01121459
_symmetry_Int_Tables_number   1
_chemical_formula_structural   Na3Pr(PuSe3)2
_chemical_formula_sum   'Na3 Pr1 Pu2 Se6'
_cell_volume   326.74247959
_cell_formula_units_Z   1
loop_
 _symmetry_equiv_pos_site_id
 _symmetry_equiv_pos_as_xyz
  1  'x, y, z'
loop_
 _atom_site_type_symbol
 _atom_site_label
 _atom_site_symmetry_multiplicity
 _atom_site_fract_x
 _atom_site_fract_y
 _atom_site_fract_z
 _atom_site_occupancy
  Na  Na0  1  0.500000  0.500000  0.500000  1
  Na  Na1  1  0.836310  0.163690  0.500000  1
  Na  Na2  1  0.163690  0.836310  0.500000  1
  Pr  Pr3  1  0.000000  0.000000  0.000000  1
  Pu  Pu4  1  0.332693  0.667307  0.000000  1
  Pu  Pu5  1  0.667307  0.332693  0.000000  1
  Se  Se6  1  0.580728  0.920994  0.233376  1
  Se  Se7  1  0.737435  0.737435  0.765442  1
  Se  Se8  1  0.419272  0.079006  0.766624  1
  Se  Se9  1  0.079006  0.419272  0.766624  1
  Se  Se10  1  0.920994  0.580728  0.233376  1
  Se  Se11  1  0.262565  0.262565  0.234558  1
