# generated using pymatgen
data_PrNd19Si15S
_symmetry_space_group_name_H-M   'P 1'
_cell_length_a   7.83593254
_cell_length_b   7.92379891
_cell_length_c   15.19374600
_cell_angle_alpha   89.59138136
_cell_angle_beta   85.12054266
_cell_angle_gamma   89.85640985
_symmetry_Int_Tables_number   1
_chemical_formula_structural   PrNd19Si15S
_chemical_formula_sum   'Pr1 Nd19 Si15 S1'
_cell_volume   939.94048862
_cell_formula_units_Z   1
loop_
 _symmetry_equiv_pos_site_id
 _symmetry_equiv_pos_as_xyz
  1  'x, y, z'
loop_
 _atom_site_type_symbol
 _atom_site_label
 _atom_site_symmetry_multiplicity
 _atom_site_fract_x
 _atom_site_fract_y
 _atom_site_fract_z
 _atom_site_occupancy
  Pr  Pr0  1  0.167171  0.507732  0.744587  1
  Nd  Nd1  1  0.859738  0.346685  0.609887  1
  Nd  Nd2  1  0.465314  0.690112  0.895264  1
  Nd  Nd3  1  0.964681  0.810992  0.895868  1
  Nd  Nd4  1  0.177351  0.678245  0.121823  1
  Nd  Nd5  1  0.676700  0.817932  0.121828  1
  Nd  Nd6  1  0.323953  0.181767  0.879374  1
  Nd  Nd7  1  0.131287  0.661863  0.386893  1
  Nd  Nd8  1  0.034932  0.186589  0.105117  1
  Nd  Nd9  1  0.364391  0.164245  0.616247  1
  Nd  Nd10  1  0.830191  0.491291  0.249659  1
  Nd  Nd11  1  0.330460  0.003352  0.254538  1
  Nd  Nd12  1  0.493484  0.316660  0.398380  1
  Nd  Nd13  1  0.823350  0.321416  0.879189  1
  Nd  Nd14  1  0.013718  0.833108  0.606606  1
  Nd  Nd15  1  0.501348  0.688814  0.604332  1
  Nd  Nd16  1  0.993931  0.175684  0.397089  1
  Nd  Nd17  1  0.636260  0.830187  0.385342  1
  Nd  Nd18  1  0.669980  0.998919  0.744845  1
  Nd  Nd19  1  0.534249  0.308900  0.104826  1
  Si  Si20  1  0.449306  0.601895  0.251993  1
  Si  Si21  1  0.222306  0.376592  0.249906  1
  Si  Si22  1  0.550921  0.398836  0.750459  1
  Si  Si23  1  0.636940  0.025505  0.957827  1
  Si  Si24  1  0.048223  0.107044  0.752163  1
  Si  Si25  1  0.775685  0.624504  0.751448  1
  Si  Si26  1  0.721627  0.119180  0.249905  1
  Si  Si27  1  0.290369  0.967027  0.455231  1
  Si  Si28  1  0.950545  0.894603  0.250376  1
  Si  Si29  1  0.365030  0.973526  0.042589  1
  Si  Si30  1  0.717818  0.031858  0.542334  1
  Si  Si31  1  0.136870  0.473972  0.958634  1
  Si  Si32  1  0.216231  0.470952  0.544372  1
  Si  Si33  1  0.864964  0.523090  0.043455  1
  Si  Si34  1  0.278108  0.880637  0.752972  1
  S  S35  1  0.782565  0.516287  0.444641  1
