# generated using pymatgen
data_Tb3NdGa18(Pd2Ru)2
_symmetry_space_group_name_H-M   'P 1'
_cell_length_a   7.65482851
_cell_length_b   7.65708395
_cell_length_c   9.61784591
_cell_angle_alpha   89.93847558
_cell_angle_beta   89.85558566
_cell_angle_gamma   119.90528054
_symmetry_Int_Tables_number   1
_chemical_formula_structural   Tb3NdGa18(Pd2Ru)2
_chemical_formula_sum   'Tb3 Nd1 Ga18 Pd4 Ru2'
_cell_volume   488.67272103
_cell_formula_units_Z   1
loop_
 _symmetry_equiv_pos_site_id
 _symmetry_equiv_pos_as_xyz
  1  'x, y, z'
loop_
 _atom_site_type_symbol
 _atom_site_label
 _atom_site_symmetry_multiplicity
 _atom_site_fract_x
 _atom_site_fract_y
 _atom_site_fract_z
 _atom_site_occupancy
  Tb  Tb0  1  0.003337  0.331091  0.750288  1
  Tb  Tb1  1  0.668634  0.996016  0.250024  1
  Tb  Tb2  1  0.331393  0.003862  0.750125  1
  Nd  Nd3  1  0.996527  0.668751  0.249264  1
  Ga  Ga4  1  0.130599  0.131986  0.251004  1
  Ga  Ga5  1  0.869512  0.870291  0.748816  1
  Ga  Ga6  1  0.001216  0.331709  0.080305  1
  Ga  Ga7  1  0.998943  0.666050  0.915273  1
  Ga  Ga8  1  0.001268  0.660435  0.578321  1
  Ga  Ga9  1  0.341489  0.000485  0.426044  1
  Ga  Ga10  1  0.999094  0.337757  0.426114  1
  Ga  Ga11  1  0.660510  0.001406  0.576600  1
  Ga  Ga12  1  0.665879  0.999298  0.917347  1
  Ga  Ga13  1  0.336510  0.003738  0.080228  1
  Ga  Ga14  1  0.336665  0.336814  0.562984  1
  Ga  Ga15  1  0.661304  0.662483  0.440459  1
  Ga  Ga16  1  0.661958  0.663955  0.071387  1
  Ga  Ga17  1  0.335464  0.335544  0.925086  1
  Ga  Ga18  1  0.337472  0.545244  0.255308  1
  Ga  Ga19  1  0.663687  0.454316  0.744979  1
  Ga  Ga20  1  0.543364  0.333846  0.255393  1
  Ga  Ga21  1  0.454608  0.664512  0.745050  1
  Pd  Pd22  1  0.670503  0.330397  0.999086  1
  Pd  Pd23  1  0.329566  0.670019  0.999153  1
  Pd  Pd24  1  0.000212  0.999892  0.999075  1
  Pd  Pd25  1  0.000201  0.000110  0.500573  1
  Ru  Ru26  1  0.328284  0.671846  0.500863  1
  Ru  Ru27  1  0.671802  0.328148  0.500850  1
