# generated using pymatgen
data_HfAs2(ClO3)2
_symmetry_space_group_name_H-M   'P 1'
_cell_length_a   5.74320300
_cell_length_b   5.74320301
_cell_length_c   7.18413600
_cell_angle_alpha   90.00000000
_cell_angle_beta   90.00000000
_cell_angle_gamma   119.99999417
_symmetry_Int_Tables_number   1
_chemical_formula_structural   HfAs2(ClO3)2
_chemical_formula_sum   'Hf1 As2 Cl2 O6'
_cell_volume   205.21709601
_cell_formula_units_Z   1
loop_
 _symmetry_equiv_pos_site_id
 _symmetry_equiv_pos_as_xyz
  1  'x, y, z'
loop_
 _atom_site_type_symbol
 _atom_site_label
 _atom_site_symmetry_multiplicity
 _atom_site_fract_x
 _atom_site_fract_y
 _atom_site_fract_z
 _atom_site_occupancy
  Hf  Hf0  1  0.000000  0.000000  0.000000  1
  As  As1  1  0.333334  0.666668  0.231346  1
  As  As2  1  0.666667  0.333334  0.768654  1
  Cl  Cl3  1  0.666667  0.333334  0.470944  1
  Cl  Cl4  1  0.333334  0.666668  0.529056  1
  O  O5  1  0.169896  0.339793  0.165399  1
  O  O6  1  0.169896  0.830104  0.165399  1
  O  O7  1  0.660207  0.830104  0.165399  1
  O  O8  1  0.339793  0.169895  0.834601  1
  O  O9  1  0.830104  0.169895  0.834601  1
  O  O10  1  0.830104  0.660206  0.834601  1
