# generated using pymatgen
data_Tl2BPd6
_symmetry_space_group_name_H-M   'P 1'
_cell_length_a   5.90895103
_cell_length_b   5.90894963
_cell_length_c   5.90895000
_cell_angle_alpha   59.99999795
_cell_angle_beta   60.00000577
_cell_angle_gamma   59.99999925
_symmetry_Int_Tables_number   1
_chemical_formula_structural   Tl2BPd6
_chemical_formula_sum   'Tl2 B1 Pd6'
_cell_volume   145.88680262
_cell_formula_units_Z   1
loop_
 _symmetry_equiv_pos_site_id
 _symmetry_equiv_pos_as_xyz
  1  'x, y, z'
loop_
 _atom_site_type_symbol
 _atom_site_label
 _atom_site_symmetry_multiplicity
 _atom_site_fract_x
 _atom_site_fract_y
 _atom_site_fract_z
 _atom_site_occupancy
  Tl  Tl0  1  0.250000  0.250000  0.250000  1
  Tl  Tl1  1  0.750001  0.750001  0.750001  1
  B  B2  1  0.000000  0.000000  0.000000  1
  Pd  Pd3  1  0.252946  0.747054  0.252946  1
  Pd  Pd4  1  0.747054  0.252946  0.252946  1
  Pd  Pd5  1  0.747053  0.747053  0.252948  1
  Pd  Pd6  1  0.252946  0.252946  0.747054  1
  Pd  Pd7  1  0.747053  0.252948  0.747053  1
  Pd  Pd8  1  0.252948  0.747053  0.747053  1
