# generated using pymatgen
data_Pr3Ho7(SiAs)4
_symmetry_space_group_name_H-M   'P 1'
_cell_length_a   8.55150697
_cell_length_b   7.97099713
_cell_length_c   7.70698831
_cell_angle_alpha   89.67537923
_cell_angle_beta   90.01939074
_cell_angle_gamma   124.78029911
_symmetry_Int_Tables_number   1
_chemical_formula_structural   Pr3Ho7(SiAs)4
_chemical_formula_sum   'Pr3 Ho7 Si4 As4'
_cell_volume   431.47552883
_cell_formula_units_Z   1
loop_
 _symmetry_equiv_pos_site_id
 _symmetry_equiv_pos_as_xyz
  1  'x, y, z'
loop_
 _atom_site_type_symbol
 _atom_site_label
 _atom_site_symmetry_multiplicity
 _atom_site_fract_x
 _atom_site_fract_y
 _atom_site_fract_z
 _atom_site_occupancy
  Pr  Pr0  1  0.057971  0.350253  0.321875  1
  Pr  Pr1  1  0.943282  0.655940  0.677141  1
  Pr  Pr2  1  0.442210  0.152146  0.823981  1
  Ho  Ho3  1  0.779871  0.516739  0.164282  1
  Ho  Ho4  1  0.556709  0.836820  0.171836  1
  Ho  Ho5  1  0.218350  0.482037  0.834355  1
  Ho  Ho6  1  0.720310  0.983131  0.663005  1
  Ho  Ho7  1  0.281563  0.020027  0.335598  1
  Ho  Ho8  1  0.999506  0.999161  0.000474  1
  Ho  Ho9  1  0.500110  0.501726  0.499420  1
  Si  Si10  1  0.381210  0.382520  0.121120  1
  Si  Si11  1  0.619208  0.622286  0.880924  1
  Si  Si12  1  0.120614  0.122873  0.621380  1
  Si  Si13  1  0.875523  0.879700  0.373571  1
  As  As14  1  0.815124  0.218841  0.974290  1
  As  As15  1  0.182864  0.767617  0.038043  1
  As  As16  1  0.677813  0.274561  0.471620  1
  As  As17  1  0.327761  0.733621  0.527085  1
