# generated using pymatgen
data_Ho7Er3Ga3Bi2Ir
_symmetry_space_group_name_H-M   'P 1'
_cell_length_a   8.61405820
_cell_length_b   8.61621147
_cell_length_c   8.74004825
_cell_angle_alpha   124.92102708
_cell_angle_beta   124.90788285
_cell_angle_gamma   80.70770989
_symmetry_Int_Tables_number   1
_chemical_formula_structural   Ho7Er3Ga3Bi2Ir
_chemical_formula_sum   'Ho7 Er3 Ga3 Bi2 Ir1'
_cell_volume   422.66774409
_cell_formula_units_Z   1
loop_
 _symmetry_equiv_pos_site_id
 _symmetry_equiv_pos_as_xyz
  1  'x, y, z'
loop_
 _atom_site_type_symbol
 _atom_site_label
 _atom_site_symmetry_multiplicity
 _atom_site_fract_x
 _atom_site_fract_y
 _atom_site_fract_z
 _atom_site_occupancy
  Ho  Ho0  1  0.717520  0.202102  0.201591  1
  Ho  Ho1  1  0.516140  0.705698  0.500002  1
  Ho  Ho2  1  0.195061  0.039177  0.500054  1
  Ho  Ho3  1  0.999356  0.483920  0.201218  1
  Ho  Ho4  1  0.297974  0.782515  0.798615  1
  Ho  Ho5  1  0.460946  0.304947  0.500030  1
  Ho  Ho6  1  0.794368  0.983982  0.500102  1
  Er  Er7  1  0.999800  0.999790  0.999684  1
  Er  Er8  1  0.499919  0.500161  0.000182  1
  Er  Er9  1  0.016288  0.500605  0.798226  1
  Ga  Ga10  1  0.356811  0.855051  0.211977  1
  Ga  Ga11  1  0.644770  0.143015  0.787840  1
  Ga  Ga12  1  0.864002  0.636038  0.500195  1
  Bi  Bi13  1  0.755632  0.744361  0.999945  1
  Bi  Bi14  1  0.255441  0.244604  0.999983  1
  Ir  Ir15  1  0.125976  0.374032  0.500356  1
