# generated using pymatgen
data_Zr6Zn(Ni5P3)4
_symmetry_space_group_name_H-M   'P 1'
_cell_length_a   12.52193600
_cell_length_b   12.52193628
_cell_length_c   3.64318500
_cell_angle_alpha   90.00000000
_cell_angle_beta   90.00000000
_cell_angle_gamma   119.99999927
_symmetry_Int_Tables_number   1
_chemical_formula_structural   Zr6Zn(Ni5P3)4
_chemical_formula_sum   'Zr6 Zn1 Ni20 P12'
_cell_volume   494.71471590
_cell_formula_units_Z   1
loop_
 _symmetry_equiv_pos_site_id
 _symmetry_equiv_pos_as_xyz
  1  'x, y, z'
loop_
 _atom_site_type_symbol
 _atom_site_label
 _atom_site_symmetry_multiplicity
 _atom_site_fract_x
 _atom_site_fract_y
 _atom_site_fract_z
 _atom_site_occupancy
  Zr  Zr0  1  0.808324  0.282594  0.500000  1
  Zr  Zr1  1  0.717406  0.525730  0.500000  1
  Zr  Zr2  1  0.474270  0.191676  0.500000  1
  Zr  Zr3  1  0.192808  0.715662  0.000000  1
  Zr  Zr4  1  0.284338  0.477146  0.000000  1
  Zr  Zr5  1  0.522854  0.807192  0.000000  1
  Zn  Zn6  1  0.000000  0.000000  0.000000  1
  Ni  Ni7  1  0.416359  0.980385  0.000000  1
  Ni  Ni8  1  0.019615  0.435974  0.000000  1
  Ni  Ni9  1  0.585344  0.020613  0.500000  1
  Ni  Ni10  1  0.564026  0.583641  0.000000  1
  Ni  Ni11  1  0.979387  0.564733  0.500000  1
  Ni  Ni12  1  0.915256  0.092767  0.500000  1
  Ni  Ni13  1  0.177510  0.084744  0.500000  1
  Ni  Ni14  1  0.907233  0.822490  0.500000  1
  Ni  Ni15  1  0.100519  0.886752  0.000000  1
  Ni  Ni16  1  0.786233  0.899481  0.000000  1
  Ni  Ni17  1  0.113248  0.213767  0.000000  1
  Ni  Ni18  1  0.333333  0.666667  0.500000  1
  Ni  Ni19  1  0.666667  0.333333  0.000000  1
  Ni  Ni20  1  0.673668  0.747584  0.500000  1
  Ni  Ni21  1  0.252416  0.926083  0.500000  1
  Ni  Ni22  1  0.919940  0.673903  0.000000  1
  Ni  Ni23  1  0.326097  0.246038  0.000000  1
  Ni  Ni24  1  0.753962  0.080060  0.000000  1
  Ni  Ni25  1  0.435267  0.414656  0.500000  1
  Ni  Ni26  1  0.073917  0.326332  0.500000  1
  P  P27  1  0.233094  0.285608  0.500000  1
  P  P28  1  0.714392  0.947483  0.500000  1
  P  P29  1  0.052517  0.766906  0.500000  1
  P  P30  1  0.768740  0.715997  0.000000  1
  P  P31  1  0.284003  0.052744  0.000000  1
  P  P32  1  0.472445  0.612040  0.500000  1
  P  P33  1  0.387960  0.860405  0.500000  1
  P  P34  1  0.859983  0.472852  0.000000  1
  P  P35  1  0.527148  0.387131  0.000000  1
  P  P36  1  0.612869  0.140017  0.000000  1
  P  P37  1  0.947256  0.231260  0.000000  1
  P  P38  1  0.139595  0.527555  0.500000  1
