# generated using pymatgen
data_Ba4ZrS6
_symmetry_space_group_name_H-M   'P 1'
_cell_length_a   8.64221786
_cell_length_b   8.64221802
_cell_length_c   8.64221845
_cell_angle_alpha   89.41054509
_cell_angle_beta   89.41054508
_cell_angle_gamma   89.41055091
_symmetry_Int_Tables_number   1
_chemical_formula_structural   Ba4ZrS6
_chemical_formula_sum   'Ba8 Zr2 S12'
_cell_volume   645.36763714
_cell_formula_units_Z   2
loop_
 _symmetry_equiv_pos_site_id
 _symmetry_equiv_pos_as_xyz
  1  'x, y, z'
loop_
 _atom_site_type_symbol
 _atom_site_label
 _atom_site_symmetry_multiplicity
 _atom_site_fract_x
 _atom_site_fract_y
 _atom_site_fract_z
 _atom_site_occupancy
  Ba  Ba0  1  0.875104  0.624896  0.250000  1
  Ba  Ba1  1  0.250000  0.875104  0.624896  1
  Ba  Ba2  1  0.624896  0.250000  0.875104  1
  Ba  Ba3  1  0.750000  0.124896  0.375104  1
  Ba  Ba4  1  0.375104  0.750000  0.124896  1
  Ba  Ba5  1  0.124896  0.375104  0.750000  1
  Ba  Ba6  1  0.250000  0.250000  0.250000  1
  Ba  Ba7  1  0.750000  0.750000  0.750000  1
  Zr  Zr8  1  0.500000  0.500000  0.500000  1
  Zr  Zr9  1  0.000000  0.000000  0.000000  1
  S  S10  1  0.212556  0.559994  0.426704  1
  S  S11  1  0.426704  0.212556  0.559994  1
  S  S12  1  0.559994  0.426704  0.212556  1
  S  S13  1  0.926704  0.059994  0.712556  1
  S  S14  1  0.712556  0.926704  0.059994  1
  S  S15  1  0.059994  0.712556  0.926704  1
  S  S16  1  0.787444  0.440006  0.573296  1
  S  S17  1  0.573296  0.787444  0.440006  1
  S  S18  1  0.440006  0.573296  0.787444  1
  S  S19  1  0.073296  0.940006  0.287444  1
  S  S20  1  0.287444  0.073296  0.940006  1
  S  S21  1  0.940006  0.287444  0.073296  1
