# generated using pymatgen
data_Ca5TlGa2
_symmetry_space_group_name_H-M   'P 1'
_cell_length_a   9.41200998
_cell_length_b   9.41200998
_cell_length_c   9.41200946
_cell_angle_alpha   129.08960652
_cell_angle_beta   129.08960241
_cell_angle_gamma   74.86643718
_symmetry_Int_Tables_number   1
_chemical_formula_structural   Ca5TlGa2
_chemical_formula_sum   'Ca10 Tl2 Ga4'
_cell_volume   489.22092169
_cell_formula_units_Z   2
loop_
 _symmetry_equiv_pos_site_id
 _symmetry_equiv_pos_as_xyz
  1  'x, y, z'
loop_
 _atom_site_type_symbol
 _atom_site_label
 _atom_site_symmetry_multiplicity
 _atom_site_fract_x
 _atom_site_fract_y
 _atom_site_fract_z
 _atom_site_occupancy
  Ca  Ca0  1  0.500000  0.500000  0.000000  1
  Ca  Ca1  1  0.000000  0.000000  0.000000  1
  Ca  Ca2  1  0.533200  0.033200  0.850283  1
  Ca  Ca3  1  0.182917  0.682917  0.149717  1
  Ca  Ca4  1  0.033200  0.182917  0.500000  1
  Ca  Ca5  1  0.682917  0.533200  0.500000  1
  Ca  Ca6  1  0.466800  0.966800  0.149717  1
  Ca  Ca7  1  0.817083  0.317083  0.850283  1
  Ca  Ca8  1  0.966800  0.817083  0.500000  1
  Ca  Ca9  1  0.317083  0.466800  0.500000  1
  Tl  Tl10  1  0.250000  0.250000  0.000000  1
  Tl  Tl11  1  0.750000  0.750000  0.000000  1
  Ga  Ga12  1  0.888328  0.388328  0.276659  1
  Ga  Ga13  1  0.111672  0.611672  0.723341  1
  Ga  Ga14  1  0.388328  0.111672  0.500000  1
  Ga  Ga15  1  0.611672  0.888328  0.500000  1
