# generated using pymatgen
data_Sm5Ho2FeBr12
_symmetry_space_group_name_H-M   'P 1'
_cell_length_a   9.39522544
_cell_length_b   9.24463809
_cell_length_c   9.41407813
_cell_angle_alpha   107.08430137
_cell_angle_beta   106.93888656
_cell_angle_gamma   106.93964206
_symmetry_Int_Tables_number   1
_chemical_formula_structural   Sm5Ho2FeBr12
_chemical_formula_sum   'Sm5 Ho2 Fe1 Br12'
_cell_volume   681.18736586
_cell_formula_units_Z   1
loop_
 _symmetry_equiv_pos_site_id
 _symmetry_equiv_pos_as_xyz
  1  'x, y, z'
loop_
 _atom_site_type_symbol
 _atom_site_label
 _atom_site_symmetry_multiplicity
 _atom_site_fract_x
 _atom_site_fract_y
 _atom_site_fract_z
 _atom_site_occupancy
  Sm  Sm0  1  0.521184  0.600647  0.808655  1
  Sm  Sm1  1  0.188570  0.477440  0.399661  1
  Sm  Sm2  1  0.476869  0.400266  0.191517  1
  Sm  Sm3  1  0.596949  0.797722  0.525026  1
  Sm  Sm4  1  0.406042  0.203704  0.476405  1
  Ho  Ho5  1  0.802076  0.523086  0.598234  1
  Ho  Ho6  1  0.002024  0.998249  0.999896  1
  Fe  Fe7  1  0.498666  0.500611  0.499934  1
  Br  Br8  1  0.729476  0.190651  0.574468  1
  Br  Br9  1  0.963917  0.883005  0.672980  1
  Br  Br10  1  0.574535  0.727017  0.185830  1
  Br  Br11  1  0.110469  0.327067  0.034222  1
  Br  Br12  1  0.676976  0.967559  0.890807  1
  Br  Br13  1  0.888379  0.666935  0.957745  1
  Br  Br14  1  0.036593  0.108138  0.324968  1
  Br  Br15  1  0.818702  0.430363  0.284247  1
  Br  Br16  1  0.327750  0.033042  0.110139  1
  Br  Br17  1  0.277856  0.819536  0.428073  1
  Br  Br18  1  0.175635  0.570871  0.722229  1
  Br  Br19  1  0.427333  0.274092  0.814965  1
