# generated using pymatgen
data_IrAuF20
_symmetry_space_group_name_H-M   'P 1'
_cell_length_a   10.59194323
_cell_length_b   5.09494940
_cell_length_c   6.92584806
_cell_angle_alpha   89.67141017
_cell_angle_beta   89.91714858
_cell_angle_gamma   89.66004851
_symmetry_Int_Tables_number   1
_chemical_formula_structural   IrAuF20
_chemical_formula_sum   'Ir1 Au1 F20'
_cell_volume   373.74316550
_cell_formula_units_Z   1
loop_
 _symmetry_equiv_pos_site_id
 _symmetry_equiv_pos_as_xyz
  1  'x, y, z'
loop_
 _atom_site_type_symbol
 _atom_site_label
 _atom_site_symmetry_multiplicity
 _atom_site_fract_x
 _atom_site_fract_y
 _atom_site_fract_z
 _atom_site_occupancy
  Ir  Ir0  1  0.000000  0.500000  0.500000  1
  Au  Au1  1  0.500000  0.500000  0.000000  1
  F  F2  1  0.855698  0.781398  0.976008  1
  F  F3  1  0.356335  0.216829  0.524905  1
  F  F4  1  0.144302  0.218602  0.023992  1
  F  F5  1  0.643665  0.783171  0.475095  1
  F  F6  1  0.851374  0.006697  0.097017  1
  F  F7  1  0.352922  0.993686  0.401908  1
  F  F8  1  0.148626  0.993303  0.902983  1
  F  F9  1  0.647078  0.006314  0.598092  1
  F  F10  1  0.072631  0.642322  0.275916  1
  F  F11  1  0.577024  0.357564  0.231533  1
  F  F12  1  0.927369  0.357678  0.724084  1
  F  F13  1  0.422976  0.642436  0.768467  1
  F  F14  1  0.863200  0.377267  0.355638  1
  F  F15  1  0.356821  0.624541  0.148701  1
  F  F16  1  0.136800  0.622733  0.644362  1
  F  F17  1  0.643179  0.375459  0.851299  1
  F  F18  1  0.087583  0.185538  0.456939  1
  F  F19  1  0.587918  0.825131  0.043856  1
  F  F20  1  0.412082  0.174869  0.956144  1
  F  F21  1  0.912417  0.814462  0.543061  1
