# generated using pymatgen
data_KRbMnO4
_symmetry_space_group_name_H-M   'P 1'
_cell_length_a   6.07376304
_cell_length_b   7.98422705
_cell_length_c   10.67716900
_cell_angle_alpha   90.00000000
_cell_angle_beta   90.00000000
_cell_angle_gamma   89.98739299
_symmetry_Int_Tables_number   1
_chemical_formula_structural   KRbMnO4
_chemical_formula_sum   'K4 Rb4 Mn4 O16'
_cell_volume   517.78185745
_cell_formula_units_Z   4
loop_
 _symmetry_equiv_pos_site_id
 _symmetry_equiv_pos_as_xyz
  1  'x, y, z'
loop_
 _atom_site_type_symbol
 _atom_site_label
 _atom_site_symmetry_multiplicity
 _atom_site_fract_x
 _atom_site_fract_y
 _atom_site_fract_z
 _atom_site_occupancy
  K  K0  1  0.749998  0.002385  0.695306  1
  K  K1  1  0.250001  0.997615  0.304693  1
  K  K2  1  0.749998  0.502384  0.804694  1
  K  K3  1  0.250001  0.497615  0.195306  1
  Rb  Rb4  1  0.249997  0.660870  0.583045  1
  Rb  Rb5  1  0.750002  0.339130  0.416955  1
  Rb  Rb6  1  0.750002  0.839131  0.083046  1
  Rb  Rb7  1  0.249997  0.160870  0.916955  1
  Mn  Mn8  1  0.750029  0.776052  0.415853  1
  Mn  Mn9  1  0.249970  0.223947  0.584147  1
  Mn  Mn10  1  0.750029  0.276053  0.084147  1
  Mn  Mn11  1  0.249970  0.723948  0.915854  1
  O  O12  1  0.527243  0.708075  0.340120  1
  O  O13  1  0.027304  0.291916  0.659873  1
  O  O14  1  0.972697  0.208084  0.159873  1
  O  O15  1  0.472757  0.791924  0.840120  1
  O  O16  1  0.472757  0.291924  0.659879  1
  O  O17  1  0.972697  0.708083  0.340126  1
  O  O18  1  0.027304  0.791916  0.840126  1
  O  O19  1  0.527243  0.208076  0.159879  1
  O  O20  1  0.250065  0.516847  0.923978  1
  O  O21  1  0.749934  0.483153  0.076022  1
  O  O22  1  0.250065  0.016847  0.576022  1
  O  O23  1  0.749934  0.983154  0.423979  1
  O  O24  1  0.749968  0.198383  0.938538  1
  O  O25  1  0.250031  0.801617  0.061462  1
  O  O26  1  0.250031  0.301617  0.438539  1
  O  O27  1  0.749968  0.698382  0.561462  1
