# generated using pymatgen
data_Tb8CdHgPt2
_symmetry_space_group_name_H-M   'P 1'
_cell_length_a   9.71297149
_cell_length_b   9.71297166
_cell_length_c   9.70357200
_cell_angle_alpha   60.03200753
_cell_angle_beta   60.03200695
_cell_angle_gamma   60.05976532
_symmetry_Int_Tables_number   1
_chemical_formula_structural   Tb8CdHgPt2
_chemical_formula_sum   'Tb16 Cd2 Hg2 Pt4'
_cell_volume   647.92803965
_cell_formula_units_Z   2
loop_
 _symmetry_equiv_pos_site_id
 _symmetry_equiv_pos_as_xyz
  1  'x, y, z'
loop_
 _atom_site_type_symbol
 _atom_site_label
 _atom_site_symmetry_multiplicity
 _atom_site_fract_x
 _atom_site_fract_y
 _atom_site_fract_z
 _atom_site_occupancy
  Tb  Tb0  1  0.352569  0.352569  0.350769  1
  Tb  Tb1  1  0.352569  0.352569  0.944093  1
  Tb  Tb2  1  0.354876  0.938818  0.353153  1
  Tb  Tb3  1  0.938818  0.354876  0.353153  1
  Tb  Tb4  1  0.810529  0.189297  0.190928  1
  Tb  Tb5  1  0.189297  0.810529  0.809246  1
  Tb  Tb6  1  0.189297  0.810529  0.190928  1
  Tb  Tb7  1  0.810529  0.189297  0.809246  1
  Tb  Tb8  1  0.189993  0.189993  0.810007  1
  Tb  Tb9  1  0.809500  0.809500  0.190500  1
  Tb  Tb10  1  0.935458  0.563395  0.565016  1
  Tb  Tb11  1  0.563395  0.935458  0.936132  1
  Tb  Tb12  1  0.563395  0.935458  0.565016  1
  Tb  Tb13  1  0.935458  0.563395  0.936132  1
  Tb  Tb14  1  0.564007  0.564007  0.935993  1
  Tb  Tb15  1  0.935635  0.935635  0.564365  1
  Cd  Cd16  1  0.580657  0.255225  0.582058  1
  Cd  Cd17  1  0.255225  0.580657  0.582058  1
  Hg  Hg18  1  0.584874  0.584874  0.587614  1
  Hg  Hg19  1  0.584874  0.584874  0.242636  1
  Pt  Pt20  1  0.143408  0.143408  0.145112  1
  Pt  Pt21  1  0.143408  0.143408  0.568073  1
  Pt  Pt22  1  0.142480  0.569748  0.143887  1
  Pt  Pt23  1  0.569748  0.142480  0.143887  1
