# generated using pymatgen
data_Eu2CuPd5O8
_symmetry_space_group_name_H-M   'P 1'
_cell_length_a   5.84384900
_cell_length_b   5.89497600
_cell_length_c   5.89497600
_cell_angle_alpha   90.00000000
_cell_angle_beta   90.00000000
_cell_angle_gamma   90.00000000
_symmetry_Int_Tables_number   1
_chemical_formula_structural   Eu2CuPd5O8
_chemical_formula_sum   'Eu2 Cu1 Pd5 O8'
_cell_volume   203.07808912
_cell_formula_units_Z   1
loop_
 _symmetry_equiv_pos_site_id
 _symmetry_equiv_pos_as_xyz
  1  'x, y, z'
loop_
 _atom_site_type_symbol
 _atom_site_label
 _atom_site_symmetry_multiplicity
 _atom_site_fract_x
 _atom_site_fract_y
 _atom_site_fract_z
 _atom_site_occupancy
  Eu  Eu0  1  0.496677  0.500000  0.500000  1
  Eu  Eu1  1  0.003323  0.000000  0.000000  1
  Cu  Cu2  1  0.250000  0.500000  0.000000  1
  Pd  Pd3  1  0.496909  0.000000  0.748799  1
  Pd  Pd4  1  0.496909  0.000000  0.251201  1
  Pd  Pd5  1  0.750000  0.500000  0.000000  1
  Pd  Pd6  1  0.003091  0.751201  0.500000  1
  Pd  Pd7  1  0.003091  0.248799  0.500000  1
  O  O8  1  0.750000  0.749462  0.750538  1
  O  O9  1  0.750000  0.250538  0.750538  1
  O  O10  1  0.750000  0.749462  0.249462  1
  O  O11  1  0.750000  0.250538  0.249462  1
  O  O12  1  0.250000  0.745465  0.754535  1
  O  O13  1  0.250000  0.745465  0.245465  1
  O  O14  1  0.250000  0.254535  0.754535  1
  O  O15  1  0.250000  0.254535  0.245465  1
