# generated using pymatgen
data_Ca3Dy(YCd2)4
_symmetry_space_group_name_H-M   'P 1'
_cell_length_a   7.52006801
_cell_length_b   7.51079400
_cell_length_c   7.49742800
_cell_angle_alpha   90.00000000
_cell_angle_beta   90.00217905
_cell_angle_gamma   90.00000000
_symmetry_Int_Tables_number   1
_chemical_formula_structural   Ca3Dy(YCd2)4
_chemical_formula_sum   'Ca3 Dy1 Y4 Cd8'
_cell_volume   423.46734122
_cell_formula_units_Z   1
loop_
 _symmetry_equiv_pos_site_id
 _symmetry_equiv_pos_as_xyz
  1  'x, y, z'
loop_
 _atom_site_type_symbol
 _atom_site_label
 _atom_site_symmetry_multiplicity
 _atom_site_fract_x
 _atom_site_fract_y
 _atom_site_fract_z
 _atom_site_occupancy
  Ca  Ca0  1  0.249574  0.750000  0.499836  1
  Ca  Ca1  1  0.750491  0.250000  0.500156  1
  Ca  Ca2  1  0.250472  0.750000  0.999863  1
  Dy  Dy3  1  0.749291  0.250000  0.000071  1
  Y  Y4  1  0.250948  0.250000  0.000005  1
  Y  Y5  1  0.749103  0.750000  0.000005  1
  Y  Y6  1  0.750926  0.750000  0.499998  1
  Y  Y7  1  0.249142  0.250000  0.500025  1
  Cd  Cd8  1  0.998879  0.498856  0.248099  1
  Cd  Cd9  1  0.998879  0.001146  0.248099  1
  Cd  Cd10  1  0.501383  0.001287  0.250688  1
  Cd  Cd11  1  0.501383  0.498713  0.250688  1
  Cd  Cd12  1  0.501136  0.498901  0.749320  1
  Cd  Cd13  1  0.501136  0.001101  0.749320  1
  Cd  Cd14  1  0.998629  0.001304  0.751915  1
  Cd  Cd15  1  0.998629  0.498696  0.751915  1
