# generated using pymatgen
data_Er5Tm3Hg4
_symmetry_space_group_name_H-M   'P 1'
_cell_length_a   5.04663100
_cell_length_b   6.99859671
_cell_length_c   9.14751000
_cell_angle_alpha   89.98678241
_cell_angle_beta   90.00000000
_cell_angle_gamma   90.00000000
_symmetry_Int_Tables_number   1
_chemical_formula_structural   Er5Tm3Hg4
_chemical_formula_sum   'Er5 Tm3 Hg4'
_cell_volume   323.08396232
_cell_formula_units_Z   1
loop_
 _symmetry_equiv_pos_site_id
 _symmetry_equiv_pos_as_xyz
  1  'x, y, z'
loop_
 _atom_site_type_symbol
 _atom_site_label
 _atom_site_symmetry_multiplicity
 _atom_site_fract_x
 _atom_site_fract_y
 _atom_site_fract_z
 _atom_site_occupancy
  Er  Er0  1  0.750000  0.666968  0.425160  1
  Er  Er1  1  0.250000  0.483452  0.192087  1
  Er  Er2  1  0.250000  0.983968  0.307272  1
  Er  Er3  1  0.750000  0.516579  0.807340  1
  Er  Er4  1  0.750000  0.016472  0.693050  1
  Tm  Tm5  1  0.250000  0.833754  0.925925  1
  Tm  Tm6  1  0.250000  0.332182  0.574656  1
  Tm  Tm7  1  0.750000  0.167475  0.074452  1
  Hg  Hg8  1  0.250000  0.261983  0.898208  1
  Hg  Hg9  1  0.250000  0.761417  0.602830  1
  Hg  Hg10  1  0.750000  0.738885  0.100867  1
  Hg  Hg11  1  0.750000  0.236867  0.398154  1
