# generated using pymatgen
data_Zn8Cu4Ni
_symmetry_space_group_name_H-M   'P 1'
_cell_length_a   7.62823712
_cell_length_b   7.62823726
_cell_length_c   7.67628207
_cell_angle_alpha   109.49439434
_cell_angle_beta   109.49438990
_cell_angle_gamma   109.16969084
_symmetry_Int_Tables_number   1
_chemical_formula_structural   Zn8Cu4Ni
_chemical_formula_sum   'Zn16 Cu8 Ni2'
_cell_volume   344.93254107
_cell_formula_units_Z   2
loop_
 _symmetry_equiv_pos_site_id
 _symmetry_equiv_pos_as_xyz
  1  'x, y, z'
loop_
 _atom_site_type_symbol
 _atom_site_label
 _atom_site_symmetry_multiplicity
 _atom_site_fract_x
 _atom_site_fract_y
 _atom_site_fract_z
 _atom_site_occupancy
  Zn  Zn0  1  0.218131  0.995410  0.000000  1
  Zn  Zn1  1  0.995410  0.218131  0.000000  1
  Zn  Zn2  1  0.996229  0.996229  0.213120  1
  Zn  Zn3  1  0.783109  0.783109  0.786880  1
  Zn  Zn4  1  0.348506  0.723533  0.000000  1
  Zn  Zn5  1  0.625425  0.276137  0.274030  1
  Zn  Zn6  1  0.351396  0.002108  0.725970  1
  Zn  Zn7  1  0.723533  0.348506  0.000000  1
  Zn  Zn8  1  0.002108  0.351396  0.725970  1
  Zn  Zn9  1  0.276137  0.625425  0.274030  1
  Zn  Zn10  1  0.279178  0.279178  0.626189  1
  Zn  Zn11  1  0.001788  0.721504  0.345909  1
  Zn  Zn12  1  0.721504  0.001788  0.345909  1
  Zn  Zn13  1  0.652990  0.652990  0.373811  1
  Zn  Zn14  1  0.375595  0.655879  0.654091  1
  Zn  Zn15  1  0.655879  0.375595  0.654091  1
  Cu  Cu16  1  0.001115  0.001115  0.655667  1
  Cu  Cu17  1  0.345448  0.345448  0.344333  1
  Cu  Cu18  1  0.995837  0.643804  0.641693  1
  Cu  Cu19  1  0.354144  0.002111  0.358307  1
  Cu  Cu20  1  0.352645  0.352645  0.000000  1
  Cu  Cu21  1  0.002111  0.354144  0.358307  1
  Cu  Cu22  1  0.643804  0.995837  0.641693  1
  Cu  Cu23  1  0.642197  0.642197  0.000000  1
  Ni  Ni24  1  0.655162  0.000625  0.000000  1
  Ni  Ni25  1  0.000625  0.655162  0.000000  1
