# generated using pymatgen
data_Co19Ni2(B3Mo)2
_symmetry_space_group_name_H-M   'P 1'
_cell_length_a   7.38441836
_cell_length_b   7.38441800
_cell_length_c   7.38894569
_cell_angle_alpha   60.02026791
_cell_angle_beta   60.02027229
_cell_angle_gamma   59.99999946
_symmetry_Int_Tables_number   1
_chemical_formula_structural   Co19Ni2(B3Mo)2
_chemical_formula_sum   'Co19 Ni2 B6 Mo2'
_cell_volume   284.99223892
_cell_formula_units_Z   1
loop_
 _symmetry_equiv_pos_site_id
 _symmetry_equiv_pos_as_xyz
  1  'x, y, z'
loop_
 _atom_site_type_symbol
 _atom_site_label
 _atom_site_symmetry_multiplicity
 _atom_site_fract_x
 _atom_site_fract_y
 _atom_site_fract_z
 _atom_site_occupancy
  Co  Co0  1  0.618010  0.145805  0.618174  1
  Co  Co1  1  0.145805  0.618010  0.618174  1
  Co  Co2  1  0.618010  0.618010  0.618174  1
  Co  Co3  1  0.382088  0.382088  0.853738  1
  Co  Co4  1  0.381822  0.853925  0.382431  1
  Co  Co5  1  0.853925  0.381822  0.382431  1
  Co  Co6  1  0.381822  0.381822  0.382431  1
  Co  Co7  1  0.000146  0.000146  0.340016  1
  Co  Co8  1  0.659691  0.000146  0.340016  1
  Co  Co9  1  0.000146  0.659691  0.340016  1
  Co  Co10  1  0.660293  0.339660  0.000113  1
  Co  Co11  1  0.999934  0.339660  0.000113  1
  Co  Co12  1  0.999804  0.339751  0.660642  1
  Co  Co13  1  0.339660  0.660293  0.000113  1
  Co  Co14  1  0.339751  0.999804  0.660642  1
  Co  Co15  1  0.339660  0.999934  0.000113  1
  Co  Co16  1  0.999804  0.999804  0.660642  1
  Co  Co17  1  0.999934  0.660293  0.000113  1
  Co  Co18  1  0.660293  0.999934  0.000113  1
  Ni  Ni19  1  0.999976  0.999976  0.000072  1
  Ni  Ni20  1  0.616972  0.616972  0.149083  1
  B  B21  1  0.726354  0.726354  0.275098  1
  B  B22  1  0.272195  0.726354  0.275098  1
  B  B23  1  0.726354  0.272195  0.275098  1
  B  B24  1  0.274808  0.274808  0.725242  1
  B  B25  1  0.725142  0.274808  0.725242  1
  B  B26  1  0.274808  0.725142  0.725242  1
  Mo  Mo27  1  0.752677  0.752677  0.741969  1
  Mo  Mo28  1  0.250116  0.250116  0.249652  1
