# generated using pymatgen
data_Dy8Ti9Si16Tc3
_symmetry_space_group_name_H-M   'P 1'
_cell_length_a   6.97658694
_cell_length_b   6.96437421
_cell_length_c   12.87703121
_cell_angle_alpha   90.16351893
_cell_angle_beta   90.10468331
_cell_angle_gamma   90.00206965
_symmetry_Int_Tables_number   1
_chemical_formula_structural   Dy8Ti9Si16Tc3
_chemical_formula_sum   'Dy8 Ti9 Si16 Tc3'
_cell_volume   625.65996184
_cell_formula_units_Z   1
loop_
 _symmetry_equiv_pos_site_id
 _symmetry_equiv_pos_as_xyz
  1  'x, y, z'
loop_
 _atom_site_type_symbol
 _atom_site_label
 _atom_site_symmetry_multiplicity
 _atom_site_fract_x
 _atom_site_fract_y
 _atom_site_fract_z
 _atom_site_occupancy
  Dy  Dy0  1  0.997482  0.659213  0.035206  1
  Dy  Dy1  1  0.001511  0.342061  0.529171  1
  Dy  Dy2  1  0.659614  0.998104  0.969645  1
  Dy  Dy3  1  0.158588  0.502290  0.785146  1
  Dy  Dy4  1  0.840253  0.496031  0.281053  1
  Dy  Dy5  1  0.501231  0.159188  0.220417  1
  Dy  Dy6  1  0.497041  0.840022  0.713936  1
  Dy  Dy7  1  0.340578  0.001808  0.465560  1
  Ti  Ti8  1  0.998482  0.841274  0.624052  1
  Ti  Ti9  1  0.508567  0.340709  0.621751  1
  Ti  Ti10  1  0.156486  0.003176  0.872752  1
  Ti  Ti11  1  0.672058  0.672736  0.498433  1
  Ti  Ti12  1  0.829771  0.170074  0.749870  1
  Ti  Ti13  1  0.169082  0.832180  0.249906  1
  Ti  Ti14  1  0.326075  0.325269  0.001828  1
  Ti  Ti15  1  0.496930  0.658841  0.126643  1
  Ti  Ti16  1  0.658765  0.491677  0.879186  1
  Si  Si17  1  0.043063  0.713388  0.435551  1
  Si  Si18  1  0.957060  0.289527  0.938314  1
  Si  Si19  1  0.711099  0.043916  0.562332  1
  Si  Si20  1  0.212065  0.457843  0.187415  1
  Si  Si21  1  0.791274  0.542999  0.686137  1
  Si  Si22  1  0.456548  0.208524  0.814086  1
  Si  Si23  1  0.543351  0.785471  0.313006  1
  Si  Si24  1  0.287241  0.957870  0.063229  1
  Si  Si25  1  0.801512  0.875282  0.185748  1
  Si  Si26  1  0.299460  0.628536  0.562334  1
  Si  Si27  1  0.704413  0.368767  0.068206  1
  Si  Si28  1  0.625702  0.300968  0.433365  1
  Si  Si29  1  0.370974  0.702923  0.935550  1
  Si  Si30  1  0.126080  0.197612  0.315761  1
  Si  Si31  1  0.199796  0.133965  0.682900  1
  Si  Si32  1  0.866599  0.798477  0.815582  1
  Tc  Tc33  1  0.337293  0.505547  0.373283  1
  Tc  Tc34  1  0.840892  0.991871  0.374312  1
  Tc  Tc35  1  0.013064  0.161861  0.128337  1
