# generated using pymatgen
data_Sm10Dy2Fe2I17
_symmetry_space_group_name_H-M   'P 1'
_cell_length_a   9.83666796
_cell_length_b   11.82385127
_cell_length_c   11.85969020
_cell_angle_alpha   93.40158994
_cell_angle_beta   104.75360608
_cell_angle_gamma   114.20114951
_symmetry_Int_Tables_number   1
_chemical_formula_structural   Sm10Dy2Fe2I17
_chemical_formula_sum   'Sm10 Dy2 Fe2 I17'
_cell_volume   1195.51220097
_cell_formula_units_Z   1
loop_
 _symmetry_equiv_pos_site_id
 _symmetry_equiv_pos_as_xyz
  1  'x, y, z'
loop_
 _atom_site_type_symbol
 _atom_site_label
 _atom_site_symmetry_multiplicity
 _atom_site_fract_x
 _atom_site_fract_y
 _atom_site_fract_z
 _atom_site_occupancy
  Sm  Sm0  1  0.054785  0.508127  0.320440  1
  Sm  Sm1  1  0.990687  0.808375  0.587839  1
  Sm  Sm2  1  0.655019  0.241924  0.279836  1
  Sm  Sm3  1  0.010452  0.189874  0.416139  1
  Sm  Sm4  1  0.219567  0.671481  0.983742  1
  Sm  Sm5  1  0.254618  0.979769  0.889814  1
  Sm  Sm6  1  0.350999  0.759195  0.717664  1
  Sm  Sm7  1  0.946023  0.495700  0.679666  1
  Sm  Sm8  1  0.741834  0.017206  0.108481  1
  Sm  Sm9  1  0.139805  0.286173  0.152376  1
  Dy  Dy10  1  0.780312  0.328617  0.016741  1
  Dy  Dy11  1  0.857902  0.713109  0.845941  1
  Fe  Fe12  1  0.104019  0.738193  0.785742  1
  Fe  Fe13  1  0.895938  0.262050  0.213929  1
  I  I14  1  0.783161  0.528537  0.416922  1
  I  I15  1  0.644999  0.421123  0.765978  1
  I  I16  1  0.842963  0.894997  0.325930  1
  I  I17  1  0.326986  0.213338  0.368637  1
  I  I18  1  0.156741  0.105210  0.673933  1
  I  I19  1  0.588038  0.055969  0.843143  1
  I  I20  1  0.756813  0.186780  0.538026  1
  I  I21  1  0.552577  0.709479  0.953966  1
  I  I22  1  0.356771  0.580343  0.238836  1
  I  I23  1  0.216894  0.471126  0.581905  1
  I  I24  1  0.052284  0.366421  0.897343  1
  I  I25  1  0.452254  0.291037  0.044637  1
  I  I26  1  0.998571  0.998797  0.999689  1
  I  I27  1  0.242863  0.813735  0.460762  1
  I  I28  1  0.413503  0.947291  0.157813  1
  I  I29  1  0.673014  0.785555  0.633921  1
  I  I30  1  0.939605  0.630467  0.100208  1
