# generated using pymatgen
data_Tb5Y5(GeB4)4
_symmetry_space_group_name_H-M   'P 1'
_cell_length_a   7.27225201
_cell_length_b   7.27234601
_cell_length_c   8.18437201
_cell_angle_alpha   89.99574457
_cell_angle_beta   89.99516601
_cell_angle_gamma   89.99903872
_symmetry_Int_Tables_number   1
_chemical_formula_structural   Tb5Y5(GeB4)4
_chemical_formula_sum   'Tb5 Y5 Ge4 B16'
_cell_volume   432.84141949
_cell_formula_units_Z   1
loop_
 _symmetry_equiv_pos_site_id
 _symmetry_equiv_pos_as_xyz
  1  'x, y, z'
loop_
 _atom_site_type_symbol
 _atom_site_label
 _atom_site_symmetry_multiplicity
 _atom_site_fract_x
 _atom_site_fract_y
 _atom_site_fract_z
 _atom_site_occupancy
  Tb  Tb0  1  0.680388  0.180393  0.221034  1
  Tb  Tb1  1  0.319577  0.819588  0.778820  1
  Tb  Tb2  1  0.319605  0.819614  0.221123  1
  Tb  Tb3  1  0.819624  0.680353  0.221033  1
  Tb  Tb4  1  0.819594  0.680417  0.778943  1
  Y  Y5  1  0.680362  0.180362  0.779359  1
  Y  Y6  1  0.180359  0.319660  0.779565  1
  Y  Y7  1  0.180301  0.319685  0.220408  1
  Y  Y8  1  0.999971  0.000198  0.500051  1
  Y  Y9  1  0.499853  0.499864  0.500051  1
  Ge  Ge10  1  0.119938  0.619711  0.500047  1
  Ge  Ge11  1  0.880173  0.379944  0.500029  1
  Ge  Ge12  1  0.380089  0.120025  0.500028  1
  Ge  Ge13  1  0.619792  0.880318  0.500053  1
  B  B14  1  0.171998  0.039399  0.999945  1
  B  B15  1  0.828113  0.960675  0.999963  1
  B  B16  1  0.960639  0.172028  0.999979  1
  B  B17  1  0.328047  0.539321  0.999940  1
  B  B18  1  0.039308  0.828117  0.999937  1
  B  B19  1  0.671950  0.460648  0.999975  1
  B  B20  1  0.539317  0.671854  0.999935  1
  B  B21  1  0.460599  0.327966  0.999973  1
  B  B22  1  0.090462  0.590359  0.999988  1
  B  B23  1  0.909704  0.409599  0.000091  1
  B  B24  1  0.409688  0.090365  0.999982  1
  B  B25  1  0.590489  0.909559  0.999985  1
  B  B26  1  0.000078  0.000125  0.160715  1
  B  B27  1  0.000041  0.000133  0.839164  1
  B  B28  1  0.499967  0.499831  0.839167  1
  B  B29  1  0.499974  0.499888  0.160717  1
