# generated using pymatgen
data_Na2TiCoO4
_symmetry_space_group_name_H-M   'P 1'
_cell_length_a   5.82724800
_cell_length_b   5.45699426
_cell_length_c   9.03978801
_cell_angle_alpha   52.85093036
_cell_angle_beta   90.00000000
_cell_angle_gamma   90.00000000
_symmetry_Int_Tables_number   1
_chemical_formula_structural   Na2TiCoO4
_chemical_formula_sum   'Na4 Ti2 Co2 O8'
_cell_volume   229.12374098
_cell_formula_units_Z   2
loop_
 _symmetry_equiv_pos_site_id
 _symmetry_equiv_pos_as_xyz
  1  'x, y, z'
loop_
 _atom_site_type_symbol
 _atom_site_label
 _atom_site_symmetry_multiplicity
 _atom_site_fract_x
 _atom_site_fract_y
 _atom_site_fract_z
 _atom_site_occupancy
  Na  Na0  1  0.324252  0.241008  0.749276  1
  Na  Na1  1  0.172426  0.497652  0.993705  1
  Na  Na2  1  0.827574  0.497652  0.493705  1
  Na  Na3  1  0.675748  0.241008  0.249276  1
  Ti  Ti4  1  0.681421  0.759053  0.746385  1
  Ti  Ti5  1  0.318579  0.759053  0.246385  1
  Co  Co6  1  0.180321  0.003302  0.499849  1
  Co  Co7  1  0.819679  0.003302  0.999849  1
  O  O8  1  0.149167  0.882323  0.038710  1
  O  O9  1  0.203316  0.405205  0.456673  1
  O  O10  1  0.700467  0.063560  0.775045  1
  O  O11  1  0.624157  0.705198  0.217158  1
  O  O12  1  0.375843  0.705198  0.717158  1
  O  O13  1  0.850833  0.882323  0.538710  1
  O  O14  1  0.299533  0.063560  0.275045  1
  O  O15  1  0.796684  0.405205  0.956673  1
