# generated using pymatgen
data_YbTh(ZnIr)2
_symmetry_space_group_name_H-M   'P 1'
_cell_length_a   4.07764600
_cell_length_b   7.11490516
_cell_length_c   8.22427245
_cell_angle_alpha   89.12744753
_cell_angle_beta   90.00000000
_cell_angle_gamma   90.00000000
_symmetry_Int_Tables_number   1
_chemical_formula_structural   YbTh(ZnIr)2
_chemical_formula_sum   'Yb2 Th2 Zn4 Ir4'
_cell_volume   238.57545546
_cell_formula_units_Z   2
loop_
 _symmetry_equiv_pos_site_id
 _symmetry_equiv_pos_as_xyz
  1  'x, y, z'
loop_
 _atom_site_type_symbol
 _atom_site_label
 _atom_site_symmetry_multiplicity
 _atom_site_fract_x
 _atom_site_fract_y
 _atom_site_fract_z
 _atom_site_occupancy
  Yb  Yb0  1  0.750000  0.966643  0.680711  1
  Yb  Yb1  1  0.250000  0.033357  0.319289  1
  Th  Th2  1  0.250000  0.533384  0.191956  1
  Th  Th3  1  0.750000  0.466616  0.808044  1
  Zn  Zn4  1  0.250000  0.657856  0.562524  1
  Zn  Zn5  1  0.750000  0.342144  0.437476  1
  Zn  Zn6  1  0.750000  0.876212  0.066410  1
  Zn  Zn7  1  0.250000  0.123788  0.933590  1
  Ir  Ir8  1  0.250000  0.749256  0.881546  1
  Ir  Ir9  1  0.750000  0.250744  0.118454  1
  Ir  Ir10  1  0.750000  0.730692  0.368302  1
  Ir  Ir11  1  0.250000  0.269308  0.631698  1
