# generated using pymatgen
data_Ca7Ce(Si4Mo3)4
_symmetry_space_group_name_H-M   'P 1'
_cell_length_a   6.75856206
_cell_length_b   6.97191982
_cell_length_c   13.07274006
_cell_angle_alpha   90.03831761
_cell_angle_beta   90.08600884
_cell_angle_gamma   89.90012241
_symmetry_Int_Tables_number   1
_chemical_formula_structural   Ca7Ce(Si4Mo3)4
_chemical_formula_sum   'Ca7 Ce1 Si16 Mo12'
_cell_volume   615.98774234
_cell_formula_units_Z   1
loop_
 _symmetry_equiv_pos_site_id
 _symmetry_equiv_pos_as_xyz
  1  'x, y, z'
loop_
 _atom_site_type_symbol
 _atom_site_label
 _atom_site_symmetry_multiplicity
 _atom_site_fract_x
 _atom_site_fract_y
 _atom_site_fract_z
 _atom_site_occupancy
  Ca  Ca0  1  0.498213  0.334039  0.090872  1
  Ca  Ca1  1  0.998090  0.166354  0.408995  1
  Ca  Ca2  1  0.501359  0.667133  0.591629  1
  Ca  Ca3  1  0.001359  0.831975  0.907228  1
  Ca  Ca4  1  0.500971  0.667765  0.907630  1
  Ca  Ca5  1  0.001273  0.832490  0.591585  1
  Ca  Ca6  1  0.498141  0.334006  0.409841  1
  Ce  Ce7  1  0.000226  0.167798  0.092954  1
  Si  Si8  1  0.657073  0.043448  0.546298  1
  Si  Si9  1  0.158578  0.458134  0.953634  1
  Si  Si10  1  0.344353  0.955587  0.045915  1
  Si  Si11  1  0.843046  0.543434  0.453458  1
  Si  Si12  1  0.342711  0.956407  0.453601  1
  Si  Si13  1  0.841380  0.546705  0.045595  1
  Si  Si14  1  0.656965  0.042800  0.953250  1
  Si  Si15  1  0.157138  0.456322  0.546266  1
  Si  Si16  1  0.534955  0.371448  0.750281  1
  Si  Si17  1  0.035141  0.126665  0.749504  1
  Si  Si18  1  0.464771  0.630888  0.248931  1
  Si  Si19  1  0.965087  0.869198  0.251110  1
  Si  Si20  1  0.800719  0.627777  0.749874  1
  Si  Si21  1  0.301697  0.871541  0.749957  1
  Si  Si22  1  0.200502  0.373426  0.251534  1
  Si  Si23  1  0.695243  0.128509  0.251790  1
  Mo  Mo24  1  0.835203  0.331106  0.628259  1
  Mo  Mo25  1  0.333639  0.167867  0.872888  1
  Mo  Mo26  1  0.165119  0.667592  0.127266  1
  Mo  Mo27  1  0.665090  0.830331  0.371576  1
  Mo  Mo28  1  0.165353  0.668500  0.371655  1
  Mo  Mo29  1  0.669203  0.834917  0.127422  1
  Mo  Mo30  1  0.836658  0.329484  0.873236  1
  Mo  Mo31  1  0.334021  0.168303  0.628254  1
  Mo  Mo32  1  0.661161  0.011144  0.750001  1
  Mo  Mo33  1  0.161076  0.488627  0.750551  1
  Mo  Mo34  1  0.337073  0.991980  0.249217  1
  Mo  Mo35  1  0.837415  0.506304  0.247943  1
