# generated using pymatgen
data_AcDyS3
_symmetry_space_group_name_H-M   'P 1'
_cell_length_a   4.15838600
_cell_length_b   10.59874700
_cell_length_c   11.12734500
_cell_angle_alpha   90.00000000
_cell_angle_beta   90.00000000
_cell_angle_gamma   90.00000000
_symmetry_Int_Tables_number   1
_chemical_formula_structural   AcDyS3
_chemical_formula_sum   'Ac4 Dy4 S12'
_cell_volume   490.42305549
_cell_formula_units_Z   4
loop_
 _symmetry_equiv_pos_site_id
 _symmetry_equiv_pos_as_xyz
  1  'x, y, z'
loop_
 _atom_site_type_symbol
 _atom_site_label
 _atom_site_symmetry_multiplicity
 _atom_site_fract_x
 _atom_site_fract_y
 _atom_site_fract_z
 _atom_site_occupancy
  Ac  Ac0  1  0.750000  0.497211  0.695154  1
  Ac  Ac1  1  0.750000  0.002789  0.195154  1
  Ac  Ac2  1  0.250000  0.502789  0.304846  1
  Ac  Ac3  1  0.250000  0.997211  0.804846  1
  Dy  Dy4  1  0.250000  0.184349  0.494432  1
  Dy  Dy5  1  0.250000  0.315651  0.994432  1
  Dy  Dy6  1  0.750000  0.815651  0.505568  1
  Dy  Dy7  1  0.750000  0.684349  0.005568  1
  S  S8  1  0.250000  0.292291  0.733648  1
  S  S9  1  0.250000  0.207709  0.233648  1
  S  S10  1  0.750000  0.707709  0.266352  1
  S  S11  1  0.750000  0.792291  0.766352  1
  S  S12  1  0.750000  0.055262  0.607546  1
  S  S13  1  0.750000  0.444738  0.107546  1
  S  S14  1  0.250000  0.944738  0.392454  1
  S  S15  1  0.250000  0.555262  0.892454  1
  S  S16  1  0.250000  0.640601  0.542509  1
  S  S17  1  0.250000  0.859399  0.042509  1
  S  S18  1  0.750000  0.359399  0.457491  1
  S  S19  1  0.750000  0.140601  0.957491  1
