# generated using pymatgen
data_Dy19YCo3Bi8Ru
_symmetry_space_group_name_H-M   'P 1'
_cell_length_a   8.02166730
_cell_length_b   8.92497700
_cell_length_c   12.44563502
_cell_angle_alpha   90.00000000
_cell_angle_beta   90.19387095
_cell_angle_gamma   90.00000000
_symmetry_Int_Tables_number   1
_chemical_formula_structural   Dy19YCo3Bi8Ru
_chemical_formula_sum   'Dy19 Y1 Co3 Bi8 Ru1'
_cell_volume   891.01768889
_cell_formula_units_Z   1
loop_
 _symmetry_equiv_pos_site_id
 _symmetry_equiv_pos_as_xyz
  1  'x, y, z'
loop_
 _atom_site_type_symbol
 _atom_site_label
 _atom_site_symmetry_multiplicity
 _atom_site_fract_x
 _atom_site_fract_y
 _atom_site_fract_z
 _atom_site_occupancy
  Dy  Dy0  1  0.846730  0.750000  0.800204  1
  Dy  Dy1  1  0.347181  0.250000  0.699327  1
  Dy  Dy2  1  0.653996  0.750000  0.296068  1
  Dy  Dy3  1  0.379557  0.750000  0.693167  1
  Dy  Dy4  1  0.617861  0.250000  0.310400  1
  Dy  Dy5  1  0.881305  0.250000  0.810700  1
  Dy  Dy6  1  0.117336  0.750000  0.187123  1
  Dy  Dy7  1  0.949062  0.750000  0.503873  1
  Dy  Dy8  1  0.051106  0.250000  0.496893  1
  Dy  Dy9  1  0.450994  0.250000  0.997339  1
  Dy  Dy10  1  0.549405  0.750000  0.002197  1
  Dy  Dy11  1  0.676861  0.042287  0.564336  1
  Dy  Dy12  1  0.324169  0.965318  0.436567  1
  Dy  Dy13  1  0.175139  0.965293  0.936980  1
  Dy  Dy14  1  0.324169  0.534682  0.436567  1
  Dy  Dy15  1  0.823653  0.036660  0.062799  1
  Dy  Dy16  1  0.676861  0.457713  0.564336  1
  Dy  Dy17  1  0.823653  0.463340  0.062799  1
  Dy  Dy18  1  0.175139  0.534707  0.936980  1
  Y  Y19  1  0.153079  0.250000  0.199834  1
  Co  Co20  1  0.433369  0.250000  0.490698  1
  Co  Co21  1  0.061296  0.250000  0.991409  1
  Co  Co22  1  0.936410  0.750000  0.007420  1
  Bi  Bi23  1  0.571302  0.491652  0.827008  1
  Bi  Bi24  1  0.427997  0.508117  0.173141  1
  Bi  Bi25  1  0.071722  0.507891  0.674353  1
  Bi  Bi26  1  0.427997  0.991883  0.173141  1
  Bi  Bi27  1  0.929796  0.492131  0.326253  1
  Bi  Bi28  1  0.571302  0.008348  0.827008  1
  Bi  Bi29  1  0.929796  0.007869  0.326253  1
  Bi  Bi30  1  0.071722  0.992109  0.674353  1
  Ru  Ru31  1  0.570033  0.750000  0.510475  1
