# generated using pymatgen
data_Ho4LuRe2BC6
_symmetry_space_group_name_H-M   'P 1'
_cell_length_a   8.27096651
_cell_length_b   8.27098068
_cell_length_c   3.39466100
_cell_angle_alpha   90.00000000
_cell_angle_beta   90.00000000
_cell_angle_gamma   122.34116834
_symmetry_Int_Tables_number   1
_chemical_formula_structural   Ho4LuRe2BC6
_chemical_formula_sum   'Ho4 Lu1 Re2 B1 C6'
_cell_volume   196.20203694
_cell_formula_units_Z   1
loop_
 _symmetry_equiv_pos_site_id
 _symmetry_equiv_pos_as_xyz
  1  'x, y, z'
loop_
 _atom_site_type_symbol
 _atom_site_label
 _atom_site_symmetry_multiplicity
 _atom_site_fract_x
 _atom_site_fract_y
 _atom_site_fract_z
 _atom_site_occupancy
  Ho  Ho0  1  0.329560  0.078329  0.500000  1
  Ho  Ho1  1  0.670440  0.921671  0.500000  1
  Ho  Ho2  1  0.078333  0.329575  0.500000  1
  Ho  Ho3  1  0.921667  0.670425  0.500000  1
  Lu  Lu4  1  0.500000  0.500000  0.000000  1
  Re  Re5  1  0.286303  0.713705  0.000000  1
  Re  Re6  1  0.713697  0.286295  0.000000  1
  B  B7  1  0.000000  0.000000  0.000000  1
  C  C8  1  0.184049  0.184053  0.000000  1
  C  C9  1  0.815951  0.815947  0.000000  1
  C  C10  1  0.375088  0.624929  0.500000  1
  C  C11  1  0.624912  0.375071  0.500000  1
  C  C12  1  0.500000  0.000000  0.000000  1
  C  C13  1  0.000000  0.500000  0.000000  1
