# generated using pymatgen
data_YEr5Ta2(Co4P3)4
_symmetry_space_group_name_H-M   'P 1'
_cell_length_a   3.69411300
_cell_length_b   10.60156000
_cell_length_c   12.29534500
_cell_angle_alpha   90.00000000
_cell_angle_beta   90.00000000
_cell_angle_gamma   90.00000000
_symmetry_Int_Tables_number   1
_chemical_formula_structural   YEr5Ta2(Co4P3)4
_chemical_formula_sum   'Y1 Er5 Ta2 Co16 P12'
_cell_volume   481.52703014
_cell_formula_units_Z   1
loop_
 _symmetry_equiv_pos_site_id
 _symmetry_equiv_pos_as_xyz
  1  'x, y, z'
loop_
 _atom_site_type_symbol
 _atom_site_label
 _atom_site_symmetry_multiplicity
 _atom_site_fract_x
 _atom_site_fract_y
 _atom_site_fract_z
 _atom_site_occupancy
  Y  Y0  1  0.500000  0.000000  0.473013  1
  Er  Er1  1  0.000000  0.500000  0.527139  1
  Er  Er2  1  0.500000  0.820891  0.204995  1
  Er  Er3  1  0.500000  0.179109  0.204995  1
  Er  Er4  1  0.000000  0.678763  0.794795  1
  Er  Er5  1  0.000000  0.321237  0.794795  1
  Ta  Ta6  1  0.500000  0.500000  0.157192  1
  Ta  Ta7  1  0.000000  0.000000  0.843306  1
  Co  Co8  1  0.500000  0.500000  0.702378  1
  Co  Co9  1  0.000000  0.000000  0.296701  1
  Co  Co10  1  0.000000  0.500000  0.986955  1
  Co  Co11  1  0.500000  0.000000  0.012984  1
  Co  Co12  1  0.500000  0.332725  0.992337  1
  Co  Co13  1  0.500000  0.667275  0.992337  1
  Co  Co14  1  0.000000  0.167506  0.007632  1
  Co  Co15  1  0.000000  0.832494  0.007632  1
  Co  Co16  1  0.500000  0.296135  0.432312  1
  Co  Co17  1  0.500000  0.703865  0.432312  1
  Co  Co18  1  0.000000  0.205375  0.567772  1
  Co  Co19  1  0.000000  0.794625  0.567772  1
  Co  Co20  1  0.500000  0.877042  0.705689  1
  Co  Co21  1  0.500000  0.122958  0.705689  1
  Co  Co22  1  0.000000  0.622470  0.294560  1
  Co  Co23  1  0.000000  0.377530  0.294560  1
  P  P24  1  0.500000  0.500000  0.881498  1
  P  P25  1  0.000000  0.000000  0.118211  1
  P  P26  1  0.500000  0.500000  0.357886  1
  P  P27  1  0.000000  0.000000  0.643378  1
  P  P28  1  0.500000  0.312074  0.615994  1
  P  P29  1  0.500000  0.687926  0.615994  1
  P  P30  1  0.000000  0.188975  0.383613  1
  P  P31  1  0.000000  0.811025  0.383613  1
  P  P32  1  0.500000  0.840359  0.892151  1
  P  P33  1  0.500000  0.159641  0.892151  1
  P  P34  1  0.000000  0.659401  0.107830  1
  P  P35  1  0.000000  0.340599  0.107830  1
