# generated using pymatgen
data_Ce2Pr3Y11(CdIr)4
_symmetry_space_group_name_H-M   'P 1'
_cell_length_a   9.73875567
_cell_length_b   9.75099644
_cell_length_c   9.79000020
_cell_angle_alpha   59.87102397
_cell_angle_beta   59.84834714
_cell_angle_gamma   59.75807440
_symmetry_Int_Tables_number   1
_chemical_formula_structural   Ce2Pr3Y11(CdIr)4
_chemical_formula_sum   'Ce2 Pr3 Y11 Cd4 Ir4'
_cell_volume   654.78516455
_cell_formula_units_Z   1
loop_
 _symmetry_equiv_pos_site_id
 _symmetry_equiv_pos_as_xyz
  1  'x, y, z'
loop_
 _atom_site_type_symbol
 _atom_site_label
 _atom_site_symmetry_multiplicity
 _atom_site_fract_x
 _atom_site_fract_y
 _atom_site_fract_z
 _atom_site_occupancy
  Ce  Ce0  1  0.344298  0.345027  0.345760  1
  Ce  Ce1  1  0.345586  0.347062  0.961134  1
  Pr  Pr2  1  0.943371  0.559609  0.935944  1
  Pr  Pr3  1  0.562887  0.564736  0.938160  1
  Pr  Pr4  1  0.936465  0.936342  0.562960  1
  Y  Y5  1  0.350945  0.948688  0.351832  1
  Y  Y6  1  0.947955  0.349562  0.351577  1
  Y  Y7  1  0.812987  0.186731  0.189199  1
  Y  Y8  1  0.191120  0.814863  0.811237  1
  Y  Y9  1  0.188140  0.812680  0.189691  1
  Y  Y10  1  0.813452  0.186480  0.811033  1
  Y  Y11  1  0.190177  0.186899  0.811235  1
  Y  Y12  1  0.811887  0.812765  0.186628  1
  Y  Y13  1  0.941373  0.558668  0.557228  1
  Y  Y14  1  0.554232  0.945835  0.940585  1
  Y  Y15  1  0.559937  0.942472  0.559882  1
  Cd  Cd16  1  0.581283  0.580534  0.577973  1
  Cd  Cd17  1  0.577476  0.581689  0.260448  1
  Cd  Cd18  1  0.576580  0.256640  0.583337  1
  Cd  Cd19  1  0.260483  0.576673  0.577958  1
  Ir  Ir20  1  0.148047  0.142054  0.137951  1
  Ir  Ir21  1  0.145345  0.146831  0.572112  1
  Ir  Ir22  1  0.144360  0.572283  0.143672  1
  Ir  Ir23  1  0.571610  0.144877  0.142465  1
