# generated using pymatgen
data_HfZr(ReSi)2
_symmetry_space_group_name_H-M   'P 1'
_cell_length_a   7.78955174
_cell_length_b   7.78505859
_cell_length_c   7.78955021
_cell_angle_alpha   126.70271082
_cell_angle_beta   127.80881361
_cell_angle_gamma   77.85020089
_symmetry_Int_Tables_number   1
_chemical_formula_structural   HfZr(ReSi)2
_chemical_formula_sum   'Hf3 Zr3 Re6 Si6'
_cell_volume   290.00988394
_cell_formula_units_Z   3
loop_
 _symmetry_equiv_pos_site_id
 _symmetry_equiv_pos_as_xyz
  1  'x, y, z'
loop_
 _atom_site_type_symbol
 _atom_site_label
 _atom_site_symmetry_multiplicity
 _atom_site_fract_x
 _atom_site_fract_y
 _atom_site_fract_z
 _atom_site_occupancy
  Hf  Hf0  1  0.048293  0.093725  0.545433  1
  Hf  Hf1  1  0.749377  0.899457  0.650080  1
  Hf  Hf2  1  0.250315  0.900515  0.150200  1
  Zr  Zr3  1  0.547264  0.091519  0.044254  1
  Zr  Zr4  1  0.452908  0.496809  0.543901  1
  Zr  Zr5  1  0.952336  0.496665  0.044329  1
  Re  Re6  1  0.498000  0.240536  0.739530  1
  Re  Re7  1  0.001005  0.240536  0.242535  1
  Re  Re8  1  0.125115  0.752863  0.624197  1
  Re  Re9  1  0.874554  0.497982  0.625970  1
  Re  Re10  1  0.628664  0.752863  0.127747  1
  Re  Re11  1  0.372012  0.497982  0.123428  1
  Si  Si12  1  0.749657  0.495895  0.246238  1
  Si  Si13  1  0.250651  0.498023  0.747371  1
  Si  Si14  1  0.332810  0.831400  0.496217  1
  Si  Si15  1  0.667061  0.162016  0.497223  1
  Si  Si16  1  0.835183  0.831400  0.998590  1
  Si  Si17  1  0.164794  0.162016  0.994955  1
