# generated using pymatgen
data_Y3Er5(Si4Mo3)4
_symmetry_space_group_name_H-M   'P 1'
_cell_length_a   6.75015037
_cell_length_b   6.93529209
_cell_length_c   12.90368062
_cell_angle_alpha   90.01345789
_cell_angle_beta   90.00034547
_cell_angle_gamma   90.02707255
_symmetry_Int_Tables_number   1
_chemical_formula_structural   Y3Er5(Si4Mo3)4
_chemical_formula_sum   'Y3 Er5 Si16 Mo12'
_cell_volume   604.07623285
_cell_formula_units_Z   1
loop_
 _symmetry_equiv_pos_site_id
 _symmetry_equiv_pos_as_xyz
  1  'x, y, z'
loop_
 _atom_site_type_symbol
 _atom_site_label
 _atom_site_symmetry_multiplicity
 _atom_site_fract_x
 _atom_site_fract_y
 _atom_site_fract_z
 _atom_site_occupancy
  Y  Y0  1  0.002791  0.832800  0.593757  1
  Y  Y1  1  0.497228  0.332987  0.406298  1
  Y  Y2  1  0.997296  0.167121  0.093706  1
  Er  Er3  1  0.496816  0.332844  0.094039  1
  Er  Er4  1  0.996886  0.167420  0.405829  1
  Er  Er5  1  0.503150  0.667401  0.594220  1
  Er  Er6  1  0.003092  0.832334  0.905735  1
  Er  Er7  1  0.502956  0.667341  0.905877  1
  Si  Si8  1  0.659002  0.041233  0.547280  1
  Si  Si9  1  0.159840  0.459210  0.952618  1
  Si  Si10  1  0.341253  0.958302  0.047065  1
  Si  Si11  1  0.841011  0.541297  0.452721  1
  Si  Si12  1  0.340562  0.958195  0.452717  1
  Si  Si13  1  0.840166  0.542009  0.047105  1
  Si  Si14  1  0.659117  0.040997  0.952642  1
  Si  Si15  1  0.159459  0.458201  0.547255  1
  Si  Si16  1  0.534696  0.366829  0.749996  1
  Si  Si17  1  0.034714  0.133644  0.750244  1
  Si  Si18  1  0.465179  0.633724  0.249821  1
  Si  Si19  1  0.965214  0.866334  0.250205  1
  Si  Si20  1  0.802126  0.629942  0.750349  1
  Si  Si21  1  0.302985  0.869641  0.750296  1
  Si  Si22  1  0.197397  0.370273  0.250121  1
  Si  Si23  1  0.697335  0.129751  0.249907  1
  Mo  Mo24  1  0.830277  0.334888  0.624966  1
  Mo  Mo25  1  0.330415  0.165268  0.875084  1
  Mo  Mo26  1  0.169925  0.665170  0.124757  1
  Mo  Mo27  1  0.669687  0.834752  0.375079  1
  Mo  Mo28  1  0.169414  0.665363  0.374731  1
  Mo  Mo29  1  0.669197  0.834317  0.125066  1
  Mo  Mo30  1  0.830031  0.334994  0.874861  1
  Mo  Mo31  1  0.330721  0.165455  0.625368  1
  Mo  Mo32  1  0.666032  0.998306  0.750151  1
  Mo  Mo33  1  0.166441  0.501560  0.750157  1
  Mo  Mo34  1  0.333839  0.001340  0.249991  1
  Mo  Mo35  1  0.833747  0.498761  0.249995  1
