# generated using pymatgen
data_TbAs3PRu6
_symmetry_space_group_name_H-M   'P 1'
_cell_length_a   7.10244200
_cell_length_b   7.10244133
_cell_length_c   3.83560000
_cell_angle_alpha   90.00000000
_cell_angle_beta   90.00000000
_cell_angle_gamma   119.99999382
_symmetry_Int_Tables_number   1
_chemical_formula_structural   TbAs3PRu6
_chemical_formula_sum   'Tb1 As3 P1 Ru6'
_cell_volume   167.56345989
_cell_formula_units_Z   1
loop_
 _symmetry_equiv_pos_site_id
 _symmetry_equiv_pos_as_xyz
  1  'x, y, z'
loop_
 _atom_site_type_symbol
 _atom_site_label
 _atom_site_symmetry_multiplicity
 _atom_site_fract_x
 _atom_site_fract_y
 _atom_site_fract_z
 _atom_site_occupancy
  Tb  Tb0  1  0.000000  0.000000  0.000000  1
  As  As1  1  0.190186  0.380370  0.500000  1
  As  As2  1  0.619630  0.809814  0.500000  1
  As  As3  1  0.190186  0.809814  0.500000  1
  P  P4  1  0.666667  0.333333  0.000000  1
  Ru  Ru5  1  0.795520  0.591039  0.500000  1
  Ru  Ru6  1  0.408961  0.204480  0.500000  1
  Ru  Ru7  1  0.795520  0.204480  0.500000  1
  Ru  Ru8  1  0.468507  0.937015  0.000000  1
  Ru  Ru9  1  0.062985  0.531493  0.000000  1
  Ru  Ru10  1  0.468507  0.531493  0.000000  1
