# generated using pymatgen
data_Lu4Al15(SiIr2)3
_symmetry_space_group_name_H-M   'P 1'
_cell_length_a   7.51183287
_cell_length_b   7.51892810
_cell_length_c   9.21073500
_cell_angle_alpha   90.00000000
_cell_angle_beta   90.00000000
_cell_angle_gamma   119.74368074
_symmetry_Int_Tables_number   1
_chemical_formula_structural   Lu4Al15(SiIr2)3
_chemical_formula_sum   'Lu4 Al15 Si3 Ir6'
_cell_volume   451.69231128
_cell_formula_units_Z   1
loop_
 _symmetry_equiv_pos_site_id
 _symmetry_equiv_pos_as_xyz
  1  'x, y, z'
loop_
 _atom_site_type_symbol
 _atom_site_label
 _atom_site_symmetry_multiplicity
 _atom_site_fract_x
 _atom_site_fract_y
 _atom_site_fract_z
 _atom_site_occupancy
  Lu  Lu0  1  0.998486  0.673420  0.250000  1
  Lu  Lu1  1  0.004308  0.325311  0.750000  1
  Lu  Lu2  1  0.668899  0.991270  0.250000  1
  Lu  Lu3  1  0.326477  0.004287  0.750000  1
  Al  Al4  1  0.998763  0.333872  0.078270  1
  Al  Al5  1  0.001776  0.664457  0.923139  1
  Al  Al6  1  0.001776  0.664457  0.576861  1
  Al  Al7  1  0.336416  0.003200  0.422745  1
  Al  Al8  1  0.998763  0.333872  0.421730  1
  Al  Al9  1  0.663271  0.999748  0.576459  1
  Al  Al10  1  0.663271  0.999748  0.923541  1
  Al  Al11  1  0.336416  0.003200  0.077255  1
  Al  Al12  1  0.335213  0.334722  0.562430  1
  Al  Al13  1  0.667525  0.664768  0.440364  1
  Al  Al14  1  0.667525  0.664768  0.059636  1
  Al  Al15  1  0.335213  0.334722  0.937570  1
  Al  Al16  1  0.665699  0.452435  0.750000  1
  Al  Al17  1  0.548784  0.340101  0.250000  1
  Al  Al18  1  0.448487  0.665314  0.750000  1
  Si  Si19  1  0.122240  0.125841  0.250000  1
  Si  Si20  1  0.871593  0.872146  0.750000  1
  Si  Si21  1  0.335194  0.546106  0.250000  1
  Ir  Ir22  1  0.672571  0.328911  0.000685  1
  Ir  Ir23  1  0.328938  0.671000  0.007762  1
  Ir  Ir24  1  0.328938  0.671000  0.492238  1
  Ir  Ir25  1  0.672571  0.328911  0.499315  1
  Ir  Ir26  1  0.000445  0.001207  0.000820  1
  Ir  Ir27  1  0.000445  0.001207  0.499180  1
