# generated using pymatgen
data_Nb10Al3Os2
_symmetry_space_group_name_H-M   'P 1'
_cell_length_a   9.95125000
_cell_length_b   9.95125000
_cell_length_c   5.19717600
_cell_angle_alpha   90.00000000
_cell_angle_beta   90.00000000
_cell_angle_gamma   90.00000000
_symmetry_Int_Tables_number   1
_chemical_formula_structural   Nb10Al3Os2
_chemical_formula_sum   'Nb20 Al6 Os4'
_cell_volume   514.66270481
_cell_formula_units_Z   2
loop_
 _symmetry_equiv_pos_site_id
 _symmetry_equiv_pos_as_xyz
  1  'x, y, z'
loop_
 _atom_site_type_symbol
 _atom_site_label
 _atom_site_symmetry_multiplicity
 _atom_site_fract_x
 _atom_site_fract_y
 _atom_site_fract_z
 _atom_site_occupancy
  Nb  Nb0  1  0.396602  0.392622  0.000000  1
  Nb  Nb1  1  0.892622  0.103398  0.500000  1
  Nb  Nb2  1  0.107378  0.896602  0.500000  1
  Nb  Nb3  1  0.603398  0.607378  0.000000  1
  Nb  Nb4  1  0.127768  0.462649  0.000000  1
  Nb  Nb5  1  0.962649  0.372232  0.500000  1
  Nb  Nb6  1  0.037351  0.627768  0.500000  1
  Nb  Nb7  1  0.872232  0.537351  0.000000  1
  Nb  Nb8  1  0.373599  0.966086  0.500000  1
  Nb  Nb9  1  0.626401  0.033914  0.500000  1
  Nb  Nb10  1  0.466086  0.126401  0.000000  1
  Nb  Nb11  1  0.533914  0.873599  0.000000  1
  Nb  Nb12  1  0.185167  0.181280  0.249972  1
  Nb  Nb13  1  0.681280  0.314833  0.749972  1
  Nb  Nb14  1  0.318720  0.685167  0.749972  1
  Nb  Nb15  1  0.814833  0.818720  0.249972  1
  Nb  Nb16  1  0.318720  0.685167  0.250028  1
  Nb  Nb17  1  0.681280  0.314833  0.250028  1
  Nb  Nb18  1  0.185167  0.181280  0.750028  1
  Nb  Nb19  1  0.814833  0.818720  0.750028  1
  Al  Al20  1  0.000000  0.000000  0.000000  1
  Al  Al21  1  0.500000  0.500000  0.500000  1
  Al  Al22  1  0.241752  0.432542  0.500000  1
  Al  Al23  1  0.758248  0.567458  0.500000  1
  Al  Al24  1  0.932542  0.258248  0.000000  1
  Al  Al25  1  0.067458  0.741752  0.000000  1
  Os  Os26  1  0.256445  0.932446  0.000000  1
  Os  Os27  1  0.432446  0.243555  0.500000  1
  Os  Os28  1  0.567554  0.756445  0.500000  1
  Os  Os29  1  0.743555  0.067554  0.000000  1
