# generated using pymatgen
data_Nd4CrFe2RhO12
_symmetry_space_group_name_H-M   'P 1'
_cell_length_a   5.48531166
_cell_length_b   5.71773664
_cell_length_c   7.84237456
_cell_angle_alpha   90.33686360
_cell_angle_beta   90.31109917
_cell_angle_gamma   89.99235862
_symmetry_Int_Tables_number   1
_chemical_formula_structural   Nd4CrFe2RhO12
_chemical_formula_sum   'Nd4 Cr1 Fe2 Rh1 O12'
_cell_volume   245.95696531
_cell_formula_units_Z   1
loop_
 _symmetry_equiv_pos_site_id
 _symmetry_equiv_pos_as_xyz
  1  'x, y, z'
loop_
 _atom_site_type_symbol
 _atom_site_label
 _atom_site_symmetry_multiplicity
 _atom_site_fract_x
 _atom_site_fract_y
 _atom_site_fract_z
 _atom_site_occupancy
  Nd  Nd0  1  0.012466  0.938735  0.749946  1
  Nd  Nd1  1  0.519421  0.560579  0.249709  1
  Nd  Nd2  1  0.480579  0.439421  0.750291  1
  Nd  Nd3  1  0.987534  0.061265  0.250054  1
  Cr  Cr4  1  0.500000  0.000000  0.000000  1
  Fe  Fe5  1  0.500000  0.000000  0.500000  1
  Fe  Fe6  1  0.000000  0.500000  0.000000  1
  Rh  Rh7  1  0.000000  0.500000  0.500000  1
  O  O8  1  0.695707  0.293424  0.448235  1
  O  O9  1  0.200285  0.198401  0.550673  1
  O  O10  1  0.797395  0.796926  0.049959  1
  O  O11  1  0.297739  0.704167  0.950770  1
  O  O12  1  0.304293  0.706576  0.551765  1
  O  O13  1  0.799715  0.801599  0.449327  1
  O  O14  1  0.202605  0.203074  0.950041  1
  O  O15  1  0.702261  0.295833  0.049230  1
  O  O16  1  0.100594  0.470759  0.246601  1
  O  O17  1  0.592784  0.028119  0.750655  1
  O  O18  1  0.407216  0.971881  0.249345  1
  O  O19  1  0.899406  0.529241  0.753399  1
