# generated using pymatgen
data_Tb7Er9Cd4Os3Pd
_symmetry_space_group_name_H-M   'P 1'
_cell_length_a   9.57980289
_cell_length_b   9.67398677
_cell_length_c   9.70144700
_cell_angle_alpha   59.90605312
_cell_angle_beta   59.57905431
_cell_angle_gamma   59.54272060
_symmetry_Int_Tables_number   1
_chemical_formula_structural   Tb7Er9Cd4Os3Pd
_chemical_formula_sum   'Tb7 Er9 Cd4 Os3 Pd1'
_cell_volume   631.04996169
_cell_formula_units_Z   1
loop_
 _symmetry_equiv_pos_site_id
 _symmetry_equiv_pos_as_xyz
  1  'x, y, z'
loop_
 _atom_site_type_symbol
 _atom_site_label
 _atom_site_symmetry_multiplicity
 _atom_site_fract_x
 _atom_site_fract_y
 _atom_site_fract_z
 _atom_site_occupancy
  Tb  Tb0  1  0.816253  0.803968  0.189889  1
  Tb  Tb1  1  0.937223  0.559696  0.561798  1
  Tb  Tb2  1  0.550585  0.941639  0.941031  1
  Tb  Tb3  1  0.550585  0.941639  0.566744  1
  Tb  Tb4  1  0.937223  0.559696  0.941283  1
  Tb  Tb5  1  0.550488  0.566566  0.941472  1
  Tb  Tb6  1  0.936936  0.941152  0.560956  1
  Er  Er7  1  0.346263  0.351629  0.350805  1
  Er  Er8  1  0.346263  0.351629  0.951305  1
  Er  Er9  1  0.346090  0.952680  0.350616  1
  Er  Er10  1  0.971112  0.342580  0.343154  1
  Er  Er11  1  0.816042  0.189458  0.189832  1
  Er  Er12  1  0.185102  0.811380  0.811162  1
  Er  Er13  1  0.185102  0.811380  0.192357  1
  Er  Er14  1  0.816042  0.189458  0.804668  1
  Er  Er15  1  0.185203  0.190382  0.812208  1
  Cd  Cd16  1  0.580798  0.579013  0.579718  1
  Cd  Cd17  1  0.580798  0.579013  0.260471  1
  Cd  Cd18  1  0.580970  0.259766  0.579632  1
  Cd  Cd19  1  0.254870  0.581617  0.581756  1
  Os  Os20  1  0.149758  0.137341  0.135762  1
  Os  Os21  1  0.149758  0.137341  0.577140  1
  Os  Os22  1  0.151520  0.576660  0.135910  1
  Pd  Pd23  1  0.575015  0.144317  0.140334  1
