# generated using pymatgen
data_Ca5Sb12Rh19
_symmetry_space_group_name_H-M   'P 1'
_cell_length_a   13.87799200
_cell_length_b   13.87799146
_cell_length_c   4.21916300
_cell_angle_alpha   90.00000000
_cell_angle_beta   90.00000000
_cell_angle_gamma   120.00000129
_symmetry_Int_Tables_number   1
_chemical_formula_structural   Ca5Sb12Rh19
_chemical_formula_sum   'Ca5 Sb12 Rh19'
_cell_volume   703.73666510
_cell_formula_units_Z   1
loop_
 _symmetry_equiv_pos_site_id
 _symmetry_equiv_pos_as_xyz
  1  'x, y, z'
loop_
 _atom_site_type_symbol
 _atom_site_label
 _atom_site_symmetry_multiplicity
 _atom_site_fract_x
 _atom_site_fract_y
 _atom_site_fract_z
 _atom_site_occupancy
  Ca  Ca0  1  0.000000  0.186870  0.500000  1
  Ca  Ca1  1  0.813130  0.813130  0.500000  1
  Ca  Ca2  1  0.186870  0.000000  0.500000  1
  Ca  Ca3  1  0.666667  0.333333  0.000000  1
  Ca  Ca4  1  0.333333  0.666667  0.000000  1
  Sb  Sb5  1  0.483662  0.320895  0.500000  1
  Sb  Sb6  1  0.819550  0.000000  0.000000  1
  Sb  Sb7  1  0.180450  0.180450  0.000000  1
  Sb  Sb8  1  0.000000  0.819550  0.000000  1
  Sb  Sb9  1  0.371639  0.000000  0.000000  1
  Sb  Sb10  1  0.679105  0.162767  0.500000  1
  Sb  Sb11  1  0.837233  0.516338  0.500000  1
  Sb  Sb12  1  0.516338  0.837233  0.500000  1
  Sb  Sb13  1  0.162767  0.679105  0.500000  1
  Sb  Sb14  1  0.320895  0.483662  0.500000  1
  Sb  Sb15  1  0.000000  0.371639  0.000000  1
  Sb  Sb16  1  0.628361  0.628361  0.000000  1
  Rh  Rh17  1  0.804602  0.180604  0.000000  1
  Rh  Rh18  1  0.376002  0.195398  0.000000  1
  Rh  Rh19  1  0.648688  0.520740  0.500000  1
  Rh  Rh20  1  0.872052  0.351312  0.500000  1
  Rh  Rh21  1  0.351312  0.872052  0.500000  1
  Rh  Rh22  1  0.520740  0.648688  0.500000  1
  Rh  Rh23  1  0.127948  0.479260  0.500000  1
  Rh  Rh24  1  0.819396  0.623998  0.000000  1
  Rh  Rh25  1  0.623998  0.819396  0.000000  1
  Rh  Rh26  1  0.180604  0.804602  0.000000  1
  Rh  Rh27  1  0.195398  0.376002  0.000000  1
  Rh  Rh28  1  0.000000  0.716988  0.500000  1
  Rh  Rh29  1  0.283012  0.283012  0.500000  1
  Rh  Rh30  1  0.716988  0.000000  0.500000  1
  Rh  Rh31  1  0.000000  0.560469  0.000000  1
  Rh  Rh32  1  0.439531  0.439531  0.000000  1
  Rh  Rh33  1  0.560469  0.000000  0.000000  1
  Rh  Rh34  1  0.000000  0.000000  0.000000  1
  Rh  Rh35  1  0.479260  0.127948  0.500000  1
