# generated using pymatgen
data_Lu8V12Si15P
_symmetry_space_group_name_H-M   'P 1'
_cell_length_a   6.58711560
_cell_length_b   6.78380549
_cell_length_c   12.72519858
_cell_angle_alpha   89.98136498
_cell_angle_beta   89.97071011
_cell_angle_gamma   89.96062564
_symmetry_Int_Tables_number   1
_chemical_formula_structural   Lu8V12Si15P
_chemical_formula_sum   'Lu8 V12 Si15 P1'
_cell_volume   568.63430772
_cell_formula_units_Z   1
loop_
 _symmetry_equiv_pos_site_id
 _symmetry_equiv_pos_as_xyz
  1  'x, y, z'
loop_
 _atom_site_type_symbol
 _atom_site_label
 _atom_site_symmetry_multiplicity
 _atom_site_fract_x
 _atom_site_fract_y
 _atom_site_fract_z
 _atom_site_occupancy
  Lu  Lu0  1  0.498640  0.330780  0.095348  1
  Lu  Lu1  1  0.996788  0.169571  0.405151  1
  Lu  Lu2  1  0.502474  0.673244  0.594851  1
  Lu  Lu3  1  0.001620  0.830579  0.904626  1
  Lu  Lu4  1  0.501421  0.669488  0.904643  1
  Lu  Lu5  1  0.999548  0.831704  0.594894  1
  Lu  Lu6  1  0.499420  0.327251  0.406249  1
  Lu  Lu7  1  0.998561  0.169476  0.095373  1
  V  V8  1  0.834895  0.324192  0.624866  1
  V  V9  1  0.337603  0.172388  0.873533  1
  V  V10  1  0.162769  0.672335  0.126248  1
  V  V11  1  0.662688  0.830806  0.375847  1
  V  V12  1  0.161963  0.672240  0.374282  1
  V  V13  1  0.662253  0.827414  0.126392  1
  V  V14  1  0.837162  0.327367  0.873609  1
  V  V15  1  0.342419  0.170172  0.624547  1
  V  V16  1  0.665350  0.012780  0.748119  1
  V  V17  1  0.165818  0.487859  0.749670  1
  V  V18  1  0.334347  0.988338  0.250595  1
  V  V19  1  0.834588  0.512165  0.250395  1
  Si  Si20  1  0.162239  0.458085  0.956465  1
  Si  Si21  1  0.337492  0.958241  0.043661  1
  Si  Si22  1  0.837749  0.541671  0.455942  1
  Si  Si23  1  0.332676  0.956257  0.455272  1
  Si  Si24  1  0.837761  0.541864  0.043696  1
  Si  Si25  1  0.662353  0.041836  0.956073  1
  Si  Si26  1  0.163028  0.457967  0.544233  1
  Si  Si27  1  0.538605  0.369712  0.749886  1
  Si  Si28  1  0.040993  0.132903  0.749635  1
  Si  Si29  1  0.461134  0.632118  0.250993  1
  Si  Si30  1  0.960265  0.868400  0.250306  1
  Si  Si31  1  0.804996  0.620747  0.749806  1
  Si  Si32  1  0.303151  0.877500  0.749997  1
  Si  Si33  1  0.196576  0.377938  0.250356  1
  Si  Si34  1  0.696035  0.122200  0.249834  1
  P  P35  1  0.664619  0.042410  0.544605  1
