# generated using pymatgen
data_EuB2IrRu
_symmetry_space_group_name_H-M   'P 1'
_cell_length_a   6.91181618
_cell_length_b   6.04103211
_cell_length_c   5.61454990
_cell_angle_alpha   72.63671547
_cell_angle_beta   56.53138022
_cell_angle_gamma   50.83189146
_symmetry_Int_Tables_number   1
_chemical_formula_structural   EuB2IrRu
_chemical_formula_sum   'Eu2 B4 Ir2 Ru2'
_cell_volume   151.16599195
_cell_formula_units_Z   2
loop_
 _symmetry_equiv_pos_site_id
 _symmetry_equiv_pos_as_xyz
  1  'x, y, z'
loop_
 _atom_site_type_symbol
 _atom_site_label
 _atom_site_symmetry_multiplicity
 _atom_site_fract_x
 _atom_site_fract_y
 _atom_site_fract_z
 _atom_site_occupancy
  Eu  Eu0  1  0.748102  0.748102  0.751898  1
  Eu  Eu1  1  0.498102  0.498102  0.501898  1
  B  B2  1  0.069684  0.431037  0.070559  1
  B  B3  1  0.821280  0.179441  0.818963  1
  B  B4  1  0.431037  0.069684  0.428720  1
  B  B5  1  0.179441  0.821280  0.180316  1
  Ir  Ir6  1  0.866165  0.866165  0.133835  1
  Ir  Ir7  1  0.116165  0.116165  0.383835  1
  Ru  Ru8  1  0.385011  0.385011  0.114989  1
  Ru  Ru9  1  0.135011  0.135011  0.864989  1
