# generated using pymatgen
data_Dy16Al4Ru3Au
_symmetry_space_group_name_H-M   'P 1'
_cell_length_a   9.55540142
_cell_length_b   9.55540150
_cell_length_c   9.55540139
_cell_angle_alpha   60.02662322
_cell_angle_beta   60.02662166
_cell_angle_gamma   60.02662136
_symmetry_Int_Tables_number   1
_chemical_formula_structural   Dy16Al4Ru3Au
_chemical_formula_sum   'Dy16 Al4 Ru3 Au1'
_cell_volume   617.29651572
_cell_formula_units_Z   1
loop_
 _symmetry_equiv_pos_site_id
 _symmetry_equiv_pos_as_xyz
  1  'x, y, z'
loop_
 _atom_site_type_symbol
 _atom_site_label
 _atom_site_symmetry_multiplicity
 _atom_site_fract_x
 _atom_site_fract_y
 _atom_site_fract_z
 _atom_site_occupancy
  Dy  Dy0  1  0.599832  0.599832  0.599832  1
  Dy  Dy1  1  0.608939  0.608939  0.187354  1
  Dy  Dy2  1  0.608939  0.187354  0.608939  1
  Dy  Dy3  1  0.187354  0.608939  0.608939  1
  Dy  Dy4  1  0.044360  0.445569  0.445569  1
  Dy  Dy5  1  0.442521  0.055906  0.055906  1
  Dy  Dy6  1  0.445569  0.044360  0.445569  1
  Dy  Dy7  1  0.055906  0.442521  0.055906  1
  Dy  Dy8  1  0.445569  0.445569  0.044360  1
  Dy  Dy9  1  0.055906  0.055906  0.442521  1
  Dy  Dy10  1  0.189063  0.811553  0.811553  1
  Dy  Dy11  1  0.815736  0.188342  0.188342  1
  Dy  Dy12  1  0.811553  0.189063  0.811553  1
  Dy  Dy13  1  0.188342  0.815736  0.188342  1
  Dy  Dy14  1  0.811553  0.811553  0.189063  1
  Dy  Dy15  1  0.188342  0.188342  0.815736  1
  Al  Al16  1  0.827679  0.827679  0.827679  1
  Al  Al17  1  0.826940  0.826940  0.518579  1
  Al  Al18  1  0.826940  0.518579  0.826940  1
  Al  Al19  1  0.518579  0.826940  0.826940  1
  Ru  Ru20  1  0.390160  0.390160  0.826481  1
  Ru  Ru21  1  0.390160  0.826481  0.390160  1
  Ru  Ru22  1  0.826481  0.390160  0.390160  1
  Au  Au23  1  0.393576  0.393576  0.393576  1
