# generated using pymatgen
data_Er4Sc4Re3B24Rh
_symmetry_space_group_name_H-M   'P 1'
_cell_length_a   3.57471200
_cell_length_b   8.97592132
_cell_length_c   11.34962311
_cell_angle_alpha   90.06657257
_cell_angle_beta   90.00000000
_cell_angle_gamma   90.00000000
_symmetry_Int_Tables_number   1
_chemical_formula_structural   Er4Sc4Re3B24Rh
_chemical_formula_sum   'Er4 Sc4 Re3 B24 Rh1'
_cell_volume   364.16754822
_cell_formula_units_Z   1
loop_
 _symmetry_equiv_pos_site_id
 _symmetry_equiv_pos_as_xyz
  1  'x, y, z'
loop_
 _atom_site_type_symbol
 _atom_site_label
 _atom_site_symmetry_multiplicity
 _atom_site_fract_x
 _atom_site_fract_y
 _atom_site_fract_z
 _atom_site_occupancy
  Er  Er0  1  0.000000  0.317652  0.415651  1
  Er  Er1  1  0.000000  0.679825  0.589372  1
  Er  Er2  1  0.000000  0.824048  0.082052  1
  Er  Er3  1  0.000000  0.178383  0.912763  1
  Sc  Sc4  1  0.000000  0.946813  0.371824  1
  Sc  Sc5  1  0.000000  0.054919  0.628409  1
  Sc  Sc6  1  0.000000  0.441476  0.127107  1
  Sc  Sc7  1  0.000000  0.555715  0.871323  1
  Re  Re8  1  0.000000  0.359798  0.680579  1
  Re  Re9  1  0.000000  0.140470  0.182317  1
  Re  Re10  1  0.000000  0.859728  0.818661  1
  B  B11  1  0.500000  0.555539  0.433536  1
  B  B12  1  0.500000  0.445945  0.566716  1
  B  B13  1  0.500000  0.053906  0.066907  1
  B  B14  1  0.500000  0.945945  0.932800  1
  B  B15  1  0.500000  0.754064  0.419575  1
  B  B16  1  0.500000  0.246040  0.581619  1
  B  B17  1  0.500000  0.253706  0.081574  1
  B  B18  1  0.500000  0.746411  0.918581  1
  B  B19  1  0.500000  0.793876  0.264364  1
  B  B20  1  0.500000  0.205189  0.735367  1
  B  B21  1  0.500000  0.295430  0.236568  1
  B  B22  1  0.500000  0.705022  0.764707  1
  B  B23  1  0.500000  0.629473  0.181344  1
  B  B24  1  0.500000  0.371067  0.817070  1
  B  B25  1  0.500000  0.129557  0.318059  1
  B  B26  1  0.500000  0.870263  0.682649  1
  B  B27  1  0.500000  0.981102  0.213790  1
  B  B28  1  0.500000  0.018659  0.785676  1
  B  B29  1  0.500000  0.482319  0.286001  1
  B  B30  1  0.500000  0.519101  0.713886  1
  B  B31  1  0.500000  0.598044  0.026923  1
  B  B32  1  0.500000  0.402765  0.974167  1
  B  B33  1  0.500000  0.096924  0.473516  1
  B  B34  1  0.500000  0.900838  0.526024  1
  Rh  Rh35  1  0.000000  0.639990  0.318524  1
