# generated using pymatgen
data_Rb6HoPuF12
_symmetry_space_group_name_H-M   'P 1'
_cell_length_a   6.93986796
_cell_length_b   6.68786112
_cell_length_c   11.60929700
_cell_angle_alpha   55.33397825
_cell_angle_beta   90.03010975
_cell_angle_gamma   90.02185524
_symmetry_Int_Tables_number   1
_chemical_formula_structural   Rb6HoPuF12
_chemical_formula_sum   'Rb6 Ho1 Pu1 F12'
_cell_volume   443.17009829
_cell_formula_units_Z   1
loop_
 _symmetry_equiv_pos_site_id
 _symmetry_equiv_pos_as_xyz
  1  'x, y, z'
loop_
 _atom_site_type_symbol
 _atom_site_label
 _atom_site_symmetry_multiplicity
 _atom_site_fract_x
 _atom_site_fract_y
 _atom_site_fract_z
 _atom_site_occupancy
  Rb  Rb0  1  0.500000  0.500000  0.000000  1
  Rb  Rb1  1  0.000000  0.500000  0.500000  1
  Rb  Rb2  1  0.051743  0.734136  0.751589  1
  Rb  Rb3  1  0.948257  0.265864  0.248411  1
  Rb  Rb4  1  0.550120  0.270096  0.744022  1
  Rb  Rb5  1  0.449880  0.729904  0.255978  1
  Ho  Ho6  1  0.500000  0.000000  0.500000  1
  Pu  Pu7  1  0.000000  0.000000  0.000000  1
  F  F8  1  0.760651  0.774051  0.566038  1
  F  F9  1  0.239349  0.225949  0.433962  1
  F  F10  1  0.275452  0.238458  0.931071  1
  F  F11  1  0.724548  0.761542  0.068929  1
  F  F12  1  0.446792  0.892860  0.713994  1
  F  F13  1  0.553208  0.107140  0.286006  1
  F  F14  1  0.942649  0.111120  0.776516  1
  F  F15  1  0.057351  0.888880  0.223484  1
  F  F16  1  0.331171  0.685225  0.547355  1
  F  F17  1  0.668829  0.314775  0.452645  1
  F  F18  1  0.826128  0.328379  0.950449  1
  F  F19  1  0.173872  0.671621  0.049551  1
