# generated using pymatgen
data_K3RbBa2(YbSb2)2
_symmetry_space_group_name_H-M   'P 1'
_cell_length_a   5.39545600
_cell_length_b   8.81197896
_cell_length_c   10.23387336
_cell_angle_alpha   89.78888079
_cell_angle_beta   90.00000000
_cell_angle_gamma   90.00000000
_symmetry_Int_Tables_number   1
_chemical_formula_structural   K3RbBa2(YbSb2)2
_chemical_formula_sum   'K3 Rb1 Ba2 Yb2 Sb4'
_cell_volume   486.56257037
_cell_formula_units_Z   1
loop_
 _symmetry_equiv_pos_site_id
 _symmetry_equiv_pos_as_xyz
  1  'x, y, z'
loop_
 _atom_site_type_symbol
 _atom_site_label
 _atom_site_symmetry_multiplicity
 _atom_site_fract_x
 _atom_site_fract_y
 _atom_site_fract_z
 _atom_site_occupancy
  K  K0  1  0.000000  0.344332  0.340907  1
  K  K1  1  0.500000  0.522379  0.581334  1
  K  K2  1  0.000000  0.843170  0.659374  1
  Rb  Rb3  1  0.500000  0.024251  0.421554  1
  Ba  Ba4  1  0.000000  0.997698  0.054605  1
  Ba  Ba5  1  0.000000  0.497835  0.944414  1
  Yb  Yb6  1  0.500000  0.151581  0.819061  1
  Yb  Yb7  1  0.500000  0.649688  0.180715  1
  Sb  Sb8  1  0.000000  0.244866  0.679934  1
  Sb  Sb9  1  0.500000  0.287042  0.112418  1
  Sb  Sb10  1  0.000000  0.741435  0.319690  1
  Sb  Sb11  1  0.500000  0.786922  0.885992  1
