# generated using pymatgen
data_Y3CuPd2
_symmetry_space_group_name_H-M   'P 1'
_cell_length_a   4.57976500
_cell_length_b   5.58197316
_cell_length_c   10.61707738
_cell_angle_alpha   82.72336058
_cell_angle_beta   90.00000000
_cell_angle_gamma   90.00000000
_symmetry_Int_Tables_number   1
_chemical_formula_structural   Y3CuPd2
_chemical_formula_sum   'Y6 Cu2 Pd4'
_cell_volume   269.23035503
_cell_formula_units_Z   2
loop_
 _symmetry_equiv_pos_site_id
 _symmetry_equiv_pos_as_xyz
  1  'x, y, z'
loop_
 _atom_site_type_symbol
 _atom_site_label
 _atom_site_symmetry_multiplicity
 _atom_site_fract_x
 _atom_site_fract_y
 _atom_site_fract_z
 _atom_site_occupancy
  Y  Y0  1  0.250000  0.405725  0.788699  1
  Y  Y1  1  0.750000  0.594275  0.211301  1
  Y  Y2  1  0.250000  0.116463  0.120485  1
  Y  Y3  1  0.750000  0.883537  0.879515  1
  Y  Y4  1  0.250000  0.257003  0.453910  1
  Y  Y5  1  0.750000  0.742997  0.546090  1
  Cu  Cu6  1  0.250000  0.783272  0.358315  1
  Cu  Cu7  1  0.750000  0.216728  0.641685  1
  Pd  Pd8  1  0.250000  0.646659  0.029353  1
  Pd  Pd9  1  0.750000  0.353341  0.970647  1
  Pd  Pd10  1  0.250000  0.929195  0.690673  1
  Pd  Pd11  1  0.750000  0.070805  0.309327  1
