# generated using pymatgen
data_Ba4Tb3Dy(LuTe4)4
_symmetry_space_group_name_H-M   'P 1'
_cell_length_a   4.46812400
_cell_length_b   13.80411102
_cell_length_c   16.19804502
_cell_angle_alpha   89.99395403
_cell_angle_beta   90.00000000
_cell_angle_gamma   90.00000000
_symmetry_Int_Tables_number   1
_chemical_formula_structural   Ba4Tb3Dy(LuTe4)4
_chemical_formula_sum   'Ba4 Tb3 Dy1 Lu4 Te16'
_cell_volume   999.07078625
_cell_formula_units_Z   1
loop_
 _symmetry_equiv_pos_site_id
 _symmetry_equiv_pos_as_xyz
  1  'x, y, z'
loop_
 _atom_site_type_symbol
 _atom_site_label
 _atom_site_symmetry_multiplicity
 _atom_site_fract_x
 _atom_site_fract_y
 _atom_site_fract_z
 _atom_site_occupancy
  Ba  Ba0  1  0.750000  0.260818  0.831063  1
  Ba  Ba1  1  0.250000  0.739109  0.168977  1
  Ba  Ba2  1  0.750000  0.760834  0.668907  1
  Ba  Ba3  1  0.250000  0.239214  0.331067  1
  Tb  Tb4  1  0.750000  0.940112  0.889864  1
  Tb  Tb5  1  0.250000  0.059878  0.110135  1
  Tb  Tb6  1  0.750000  0.440131  0.610123  1
  Dy  Dy7  1  0.250000  0.559756  0.389835  1
  Lu  Lu8  1  0.250000  0.079937  0.596104  1
  Lu  Lu9  1  0.750000  0.920038  0.403913  1
  Lu  Lu10  1  0.250000  0.579941  0.903896  1
  Lu  Lu11  1  0.750000  0.420099  0.096155  1
  Te  Te12  1  0.250000  0.471891  0.213885  1
  Te  Te13  1  0.750000  0.528252  0.786327  1
  Te  Te14  1  0.250000  0.971730  0.286350  1
  Te  Te15  1  0.750000  0.028243  0.713657  1
  Te  Te16  1  0.250000  0.375269  0.973020  1
  Te  Te17  1  0.750000  0.624738  0.026998  1
  Te  Te18  1  0.250000  0.875271  0.527003  1
  Te  Te19  1  0.750000  0.124745  0.472996  1
  Te  Te20  1  0.250000  0.292233  0.660536  1
  Te  Te21  1  0.750000  0.707320  0.339668  1
  Te  Te22  1  0.250000  0.792240  0.839466  1
  Te  Te23  1  0.750000  0.207758  0.160533  1
  Te  Te24  1  0.750000  0.410064  0.422831  1
  Te  Te25  1  0.250000  0.590380  0.576689  1
  Te  Te26  1  0.750000  0.909620  0.077053  1
  Te  Te27  1  0.250000  0.090379  0.922950  1
