# generated using pymatgen
data_La2Sc2ReTcB12
_symmetry_space_group_name_H-M   'P 1'
_cell_length_a   3.69242200
_cell_length_b   9.12504290
_cell_length_c   11.63047586
_cell_angle_alpha   90.02371111
_cell_angle_beta   90.00000000
_cell_angle_gamma   90.00000000
_symmetry_Int_Tables_number   1
_chemical_formula_structural   La2Sc2ReTcB12
_chemical_formula_sum   'La4 Sc4 Re2 Tc2 B24'
_cell_volume   391.87151144
_cell_formula_units_Z   2
loop_
 _symmetry_equiv_pos_site_id
 _symmetry_equiv_pos_as_xyz
  1  'x, y, z'
loop_
 _atom_site_type_symbol
 _atom_site_label
 _atom_site_symmetry_multiplicity
 _atom_site_fract_x
 _atom_site_fract_y
 _atom_site_fract_z
 _atom_site_occupancy
  La  La0  1  0.000000  0.322005  0.415709  1
  La  La1  1  0.000000  0.677995  0.584291  1
  La  La2  1  0.000000  0.821424  0.084865  1
  La  La3  1  0.000000  0.178576  0.915135  1
  Sc  Sc4  1  0.000000  0.942680  0.367102  1
  Sc  Sc5  1  0.000000  0.057320  0.632898  1
  Sc  Sc6  1  0.000000  0.443351  0.133107  1
  Sc  Sc7  1  0.000000  0.556649  0.866893  1
  Re  Re8  1  0.000000  0.142042  0.183874  1
  Re  Re9  1  0.000000  0.857958  0.816126  1
  Tc  Tc10  1  0.000000  0.642225  0.315925  1
  Tc  Tc11  1  0.000000  0.357775  0.684075  1
  B  B12  1  0.500000  0.557961  0.427386  1
  B  B13  1  0.500000  0.442039  0.572614  1
  B  B14  1  0.500000  0.057665  0.072272  1
  B  B15  1  0.500000  0.942335  0.927728  1
  B  B16  1  0.500000  0.755010  0.413558  1
  B  B17  1  0.500000  0.244990  0.586442  1
  B  B18  1  0.500000  0.255256  0.086222  1
  B  B19  1  0.500000  0.744744  0.913778  1
  B  B20  1  0.500000  0.794106  0.265121  1
  B  B21  1  0.500000  0.205894  0.734879  1
  B  B22  1  0.500000  0.294436  0.235310  1
  B  B23  1  0.500000  0.705564  0.764690  1
  B  B24  1  0.500000  0.627447  0.183972  1
  B  B25  1  0.500000  0.372553  0.816028  1
  B  B26  1  0.500000  0.127595  0.316426  1
  B  B27  1  0.500000  0.872405  0.683574  1
  B  B28  1  0.500000  0.983912  0.215379  1
  B  B29  1  0.500000  0.016088  0.784621  1
  B  B30  1  0.500000  0.484156  0.284819  1
  B  B31  1  0.500000  0.515844  0.715181  1
  B  B32  1  0.500000  0.591871  0.024393  1
  B  B33  1  0.500000  0.408129  0.975607  1
  B  B34  1  0.500000  0.092001  0.475630  1
  B  B35  1  0.500000  0.907999  0.524370  1
