# generated using pymatgen
data_Ca2PaRh3
_symmetry_space_group_name_H-M   'P 1'
_cell_length_a   5.32291701
_cell_length_b   5.95142625
_cell_length_c   5.95142600
_cell_angle_alpha   60.00000140
_cell_angle_beta   56.01070333
_cell_angle_gamma   56.01071154
_symmetry_Int_Tables_number   1
_chemical_formula_structural   Ca2PaRh3
_chemical_formula_sum   'Ca2 Pa1 Rh3'
_cell_volume   124.70078447
_cell_formula_units_Z   1
loop_
 _symmetry_equiv_pos_site_id
 _symmetry_equiv_pos_as_xyz
  1  'x, y, z'
loop_
 _atom_site_type_symbol
 _atom_site_label
 _atom_site_symmetry_multiplicity
 _atom_site_fract_x
 _atom_site_fract_y
 _atom_site_fract_z
 _atom_site_occupancy
  Ca  Ca0  1  0.750807  0.749731  0.749731  1
  Ca  Ca1  1  0.499193  0.500269  0.500269  1
  Pa  Pa2  1  0.625000  0.125000  0.125000  1
  Rh  Rh3  1  0.125000  0.625000  0.125000  1
  Rh  Rh4  1  0.125000  0.125000  0.625000  1
  Rh  Rh5  1  0.125000  0.125000  0.125000  1
