# generated using pymatgen
data_ReCl35
_symmetry_space_group_name_H-M   'P 1'
_cell_length_a   14.38377941
_cell_length_b   10.26025305
_cell_length_c   9.71269500
_cell_angle_alpha   88.81408388
_cell_angle_beta   66.02770759
_cell_angle_gamma   92.31545463
_symmetry_Int_Tables_number   1
_chemical_formula_structural   ReCl35
_chemical_formula_sum   'Re1 Cl35'
_cell_volume   1307.61722576
_cell_formula_units_Z   1
loop_
 _symmetry_equiv_pos_site_id
 _symmetry_equiv_pos_as_xyz
  1  'x, y, z'
loop_
 _atom_site_type_symbol
 _atom_site_label
 _atom_site_symmetry_multiplicity
 _atom_site_fract_x
 _atom_site_fract_y
 _atom_site_fract_z
 _atom_site_occupancy
  Re  Re0  1  0.246458  0.446803  0.442105  1
  Cl  Cl1  1  0.518991  0.262465  0.518721  1
  Cl  Cl2  1  0.773013  0.572705  0.552106  1
  Cl  Cl3  1  0.481229  0.678262  0.773111  1
  Cl  Cl4  1  0.072600  0.900441  0.821259  1
  Cl  Cl5  1  0.895348  0.154818  0.986869  1
  Cl  Cl6  1  0.650437  0.318483  0.312759  1
  Cl  Cl7  1  0.596356  0.335937  0.847334  1
  Cl  Cl8  1  0.336187  0.763844  0.710870  1
  Cl  Cl9  1  0.338949  0.579563  0.229093  1
  Cl  Cl10  1  0.631459  0.146140  0.819133  1
  Cl  Cl11  1  0.907301  0.543136  0.379771  1
  Cl  Cl12  1  0.080823  0.958045  0.616953  1
  Cl  Cl13  1  0.881645  0.088712  0.278473  1
  Cl  Cl14  1  0.899062  0.217969  0.786289  1
  Cl  Cl15  1  0.656396  0.038325  0.195659  1
  Cl  Cl16  1  0.027604  0.812951  0.127989  1
  Cl  Cl17  1  0.356009  0.975020  0.720108  1
  Cl  Cl18  1  0.896213  0.279021  0.326108  1
  Cl  Cl19  1  0.857195  0.932038  0.680089  1
  Cl  Cl20  1  0.881705  0.675062  0.820005  1
  Cl  Cl21  1  0.296414  0.025578  0.298437  1
  Cl  Cl22  1  0.348189  0.287495  0.303589  1
  Cl  Cl23  1  0.595146  0.607488  0.829741  1
  Cl  Cl24  1  0.130806  0.399817  0.340265  1
  Cl  Cl25  1  0.706421  0.892482  0.767044  1
  Cl  Cl26  1  0.892376  0.479142  0.812717  1
  Cl  Cl27  1  0.506468  0.034111  0.246738  1
  Cl  Cl28  1  0.160797  0.302708  0.637497  1
  Cl  Cl29  1  0.661476  0.769741  0.259799  1
  Cl  Cl30  1  0.875001  0.806098  0.185423  1
  Cl  Cl31  1  0.373343  0.204115  0.744127  1
  Cl  Cl32  1  0.361454  0.495224  0.540503  1
  Cl  Cl33  1  0.649498  0.567899  0.270065  1
  Cl  Cl34  1  0.155688  0.618359  0.559773  1
  Cl  Cl35  1  0.301942  0.830004  0.259482  1
