# generated using pymatgen
data_Tb6TcB14Os
_symmetry_space_group_name_H-M   'P 1'
_cell_length_a   8.10684417
_cell_length_b   8.10684442
_cell_length_c   9.36657300
_cell_angle_alpha   90.00000000
_cell_angle_beta   90.00000000
_cell_angle_gamma   154.73978246
_symmetry_Int_Tables_number   1
_chemical_formula_structural   Tb6TcB14Os
_chemical_formula_sum   'Tb6 Tc1 B14 Os1'
_cell_volume   262.68639833
_cell_formula_units_Z   1
loop_
 _symmetry_equiv_pos_site_id
 _symmetry_equiv_pos_as_xyz
  1  'x, y, z'
loop_
 _atom_site_type_symbol
 _atom_site_label
 _atom_site_symmetry_multiplicity
 _atom_site_fract_x
 _atom_site_fract_y
 _atom_site_fract_z
 _atom_site_occupancy
  Tb  Tb0  1  0.894739  0.105261  0.060128  1
  Tb  Tb1  1  0.105266  0.894734  0.561611  1
  Tb  Tb2  1  0.105266  0.894734  0.938389  1
  Tb  Tb3  1  0.894739  0.105261  0.439872  1
  Tb  Tb4  1  0.243275  0.756725  0.250000  1
  Tb  Tb5  1  0.757323  0.242677  0.750000  1
  Tc  Tc6  1  0.946678  0.053322  0.750000  1
  B  B7  1  0.458515  0.541485  0.250000  1
  B  B8  1  0.541840  0.458160  0.750000  1
  B  B9  1  0.726814  0.273186  0.034566  1
  B  B10  1  0.272590  0.727410  0.533267  1
  B  B11  1  0.272590  0.727410  0.966733  1
  B  B12  1  0.726814  0.273186  0.465434  1
  B  B13  1  0.631672  0.368328  0.348528  1
  B  B14  1  0.367933  0.632067  0.848628  1
  B  B15  1  0.367933  0.632067  0.651372  1
  B  B16  1  0.631672  0.368328  0.151472  1
  B  B17  1  0.521188  0.478812  0.403313  1
  B  B18  1  0.478813  0.521187  0.903746  1
  B  B19  1  0.478813  0.521187  0.596254  1
  B  B20  1  0.521188  0.478812  0.096687  1
  Os  Os21  1  0.054339  0.945660  0.250000  1
