# generated using pymatgen
data_HfNb3(PRu)4
_symmetry_space_group_name_H-M   'P 1'
_cell_length_a   3.77785400
_cell_length_b   6.39203958
_cell_length_c   7.24806144
_cell_angle_alpha   90.16433232
_cell_angle_beta   90.00000000
_cell_angle_gamma   90.00000000
_symmetry_Int_Tables_number   1
_chemical_formula_structural   HfNb3(PRu)4
_chemical_formula_sum   'Hf1 Nb3 P4 Ru4'
_cell_volume   175.02686163
_cell_formula_units_Z   1
loop_
 _symmetry_equiv_pos_site_id
 _symmetry_equiv_pos_as_xyz
  1  'x, y, z'
loop_
 _atom_site_type_symbol
 _atom_site_label
 _atom_site_symmetry_multiplicity
 _atom_site_fract_x
 _atom_site_fract_y
 _atom_site_fract_z
 _atom_site_occupancy
  Hf  Hf0  1  0.250000  0.023956  0.823058  1
  Nb  Nb1  1  0.250000  0.523980  0.672714  1
  Nb  Nb2  1  0.750000  0.976132  0.175642  1
  Nb  Nb3  1  0.750000  0.475468  0.326802  1
  P  P4  1  0.250000  0.271658  0.125808  1
  P  P5  1  0.250000  0.770791  0.375953  1
  P  P6  1  0.750000  0.727906  0.878936  1
  P  P7  1  0.750000  0.232569  0.620899  1
  Ru  Ru8  1  0.250000  0.146695  0.436966  1
  Ru  Ru9  1  0.250000  0.646548  0.061745  1
  Ru  Ru10  1  0.750000  0.851999  0.560952  1
  Ru  Ru11  1  0.750000  0.352297  0.940525  1
