# generated using pymatgen
data_PuZnO4
_symmetry_space_group_name_H-M   'P 1'
_cell_length_a   4.69505596
_cell_length_b   4.69505596
_cell_length_c   3.46506400
_cell_angle_alpha   90.00000000
_cell_angle_beta   90.00000000
_cell_angle_gamma   90.47866867
_symmetry_Int_Tables_number   1
_chemical_formula_structural   PuZnO4
_chemical_formula_sum   'Pu1 Zn1 O4'
_cell_volume   76.37964766
_cell_formula_units_Z   1
loop_
 _symmetry_equiv_pos_site_id
 _symmetry_equiv_pos_as_xyz
  1  'x, y, z'
loop_
 _atom_site_type_symbol
 _atom_site_label
 _atom_site_symmetry_multiplicity
 _atom_site_fract_x
 _atom_site_fract_y
 _atom_site_fract_z
 _atom_site_occupancy
  Pu  Pu0  1  0.000000  0.000000  0.500000  1
  Zn  Zn1  1  0.500000  0.500000  0.000000  1
  O  O2  1  0.801675  0.801675  0.000000  1
  O  O3  1  0.198325  0.198325  0.000000  1
  O  O4  1  0.711359  0.288641  0.500000  1
  O  O5  1  0.288641  0.711359  0.500000  1
