# generated using pymatgen
data_Lu8Sc12Si15Se
_symmetry_space_group_name_H-M   'P 1'
_cell_length_a   7.09587712
_cell_length_b   7.28754436
_cell_length_c   13.85883001
_cell_angle_alpha   89.87008229
_cell_angle_beta   88.06148285
_cell_angle_gamma   90.09051988
_symmetry_Int_Tables_number   1
_chemical_formula_structural   Lu8Sc12Si15Se
_chemical_formula_sum   'Lu8 Sc12 Si15 Se1'
_cell_volume   716.24818638
_cell_formula_units_Z   1
loop_
 _symmetry_equiv_pos_site_id
 _symmetry_equiv_pos_as_xyz
  1  'x, y, z'
loop_
 _atom_site_type_symbol
 _atom_site_label
 _atom_site_symmetry_multiplicity
 _atom_site_fract_x
 _atom_site_fract_y
 _atom_site_fract_z
 _atom_site_occupancy
  Lu  Lu0  1  0.010526  0.176903  0.096999  1
  Lu  Lu1  1  0.989863  0.824204  0.902668  1
  Lu  Lu2  1  0.489989  0.677155  0.902991  1
  Lu  Lu3  1  0.999097  0.825921  0.596468  1
  Lu  Lu4  1  0.510296  0.323744  0.097046  1
  Lu  Lu5  1  0.994496  0.173782  0.401725  1
  Lu  Lu6  1  0.500344  0.316183  0.400923  1
  Lu  Lu7  1  0.510335  0.683188  0.598823  1
  Sc  Sc8  1  0.169384  0.501709  0.752474  1
  Sc  Sc9  1  0.830194  0.497733  0.253099  1
  Sc  Sc10  1  0.328989  0.001629  0.251726  1
  Sc  Sc11  1  0.671043  0.998119  0.748848  1
  Sc  Sc12  1  0.351646  0.165985  0.626285  1
  Sc  Sc13  1  0.649810  0.829409  0.374779  1
  Sc  Sc14  1  0.148844  0.669994  0.377317  1
  Sc  Sc15  1  0.665301  0.822876  0.125177  1
  Sc  Sc16  1  0.845924  0.331767  0.621620  1
  Sc  Sc17  1  0.333826  0.176480  0.874067  1
  Sc  Sc18  1  0.834777  0.323829  0.874109  1
  Sc  Sc19  1  0.165326  0.676676  0.125213  1
  Si  Si20  1  0.042210  0.116667  0.748549  1
  Si  Si21  1  0.956998  0.884210  0.249610  1
  Si  Si22  1  0.455415  0.613901  0.249832  1
  Si  Si23  1  0.542943  0.386546  0.749344  1
  Si  Si24  1  0.293540  0.867442  0.750532  1
  Si  Si25  1  0.706767  0.129585  0.248152  1
  Si  Si26  1  0.205917  0.369784  0.249725  1
  Si  Si27  1  0.796917  0.631394  0.750320  1
  Si  Si28  1  0.799116  0.538845  0.457585  1
  Si  Si29  1  0.313643  0.961022  0.460442  1
  Si  Si30  1  0.841121  0.534364  0.039288  1
  Si  Si31  1  0.683745  0.039408  0.540470  1
  Si  Si32  1  0.158250  0.466683  0.960343  1
  Si  Si33  1  0.657987  0.034735  0.959740  1
  Si  Si34  1  0.341376  0.966489  0.039949  1
  Se  Se35  1  0.204047  0.461636  0.543758  1
