# generated using pymatgen
data_Dy2Er2BBr6
_symmetry_space_group_name_H-M   'P 1'
_cell_length_a   3.94180100
_cell_length_b   13.11466500
_cell_length_c   13.58614100
_cell_angle_alpha   90.00000000
_cell_angle_beta   90.00000000
_cell_angle_gamma   90.00000000
_symmetry_Int_Tables_number   1
_chemical_formula_structural   Dy2Er2BBr6
_chemical_formula_sum   'Dy4 Er4 B2 Br12'
_cell_volume   702.34098818
_cell_formula_units_Z   2
loop_
 _symmetry_equiv_pos_site_id
 _symmetry_equiv_pos_as_xyz
  1  'x, y, z'
loop_
 _atom_site_type_symbol
 _atom_site_label
 _atom_site_symmetry_multiplicity
 _atom_site_fract_x
 _atom_site_fract_y
 _atom_site_fract_z
 _atom_site_occupancy
  Dy  Dy0  1  0.500000  0.122637  0.855832  1
  Dy  Dy1  1  0.500000  0.877363  0.144168  1
  Dy  Dy2  1  0.500000  0.622637  0.644168  1
  Dy  Dy3  1  0.500000  0.377363  0.355832  1
  Er  Er4  1  0.000000  0.100912  0.080114  1
  Er  Er5  1  0.000000  0.899088  0.919886  1
  Er  Er6  1  0.000000  0.600912  0.419886  1
  Er  Er7  1  0.000000  0.399088  0.580114  1
  B  B8  1  0.500000  0.000000  0.000000  1
  B  B9  1  0.500000  0.500000  0.500000  1
  Br  Br10  1  0.500000  0.268586  0.681359  1
  Br  Br11  1  0.500000  0.731414  0.318641  1
  Br  Br12  1  0.500000  0.768586  0.818641  1
  Br  Br13  1  0.500000  0.231414  0.181359  1
  Br  Br14  1  0.000000  0.261008  0.931733  1
  Br  Br15  1  0.000000  0.738992  0.068267  1
  Br  Br16  1  0.000000  0.481262  0.239459  1
  Br  Br17  1  0.000000  0.518738  0.760541  1
  Br  Br18  1  0.000000  0.981262  0.260541  1
  Br  Br19  1  0.000000  0.018738  0.739459  1
  Br  Br20  1  0.000000  0.238992  0.431733  1
  Br  Br21  1  0.000000  0.761008  0.568267  1
