# generated using pymatgen
data_K8Sb4Pb
_symmetry_space_group_name_H-M   'P 1'
_cell_length_a   11.74121795
_cell_length_b   11.74121780
_cell_length_c   11.74121800
_cell_angle_alpha   59.99999944
_cell_angle_beta   59.99999986
_cell_angle_gamma   59.99999786
_symmetry_Int_Tables_number   1
_chemical_formula_structural   K8Sb4Pb
_chemical_formula_sum   'K16 Sb8 Pb2'
_cell_volume   1144.52277388
_cell_formula_units_Z   2
loop_
 _symmetry_equiv_pos_site_id
 _symmetry_equiv_pos_as_xyz
  1  'x, y, z'
loop_
 _atom_site_type_symbol
 _atom_site_label
 _atom_site_symmetry_multiplicity
 _atom_site_fract_x
 _atom_site_fract_y
 _atom_site_fract_z
 _atom_site_occupancy
  K  K0  1  0.625000  0.125000  0.625000  1
  K  K1  1  0.625000  0.625000  0.125000  1
  K  K2  1  0.125000  0.625000  0.625000  1
  K  K3  1  0.625000  0.625000  0.625000  1
  K  K4  1  0.022069  0.022069  0.477931  1
  K  K5  1  0.772069  0.227931  0.227931  1
  K  K6  1  0.227931  0.772069  0.772069  1
  K  K7  1  0.772069  0.772069  0.227931  1
  K  K8  1  0.772069  0.227931  0.772069  1
  K  K9  1  0.227931  0.772069  0.227931  1
  K  K10  1  0.477931  0.022069  0.477931  1
  K  K11  1  0.477931  0.022069  0.022069  1
  K  K12  1  0.022069  0.477931  0.477931  1
  K  K13  1  0.022069  0.477931  0.022069  1
  K  K14  1  0.227931  0.227931  0.772069  1
  K  K15  1  0.477931  0.477931  0.022069  1
  Sb  Sb16  1  0.394980  0.815059  0.394980  1
  Sb  Sb17  1  0.855020  0.855020  0.434941  1
  Sb  Sb18  1  0.434941  0.855020  0.855020  1
  Sb  Sb19  1  0.855020  0.855020  0.855020  1
  Sb  Sb20  1  0.815059  0.394980  0.394980  1
  Sb  Sb21  1  0.394980  0.394980  0.394980  1
  Sb  Sb22  1  0.394980  0.394980  0.815059  1
  Sb  Sb23  1  0.855020  0.434941  0.855020  1
  Pb  Pb24  1  0.750000  0.750000  0.750000  1
  Pb  Pb25  1  0.500000  0.500000  0.500000  1
