# generated using pymatgen
data_Ba2Na(H6Pt)2
_symmetry_space_group_name_H-M   'P 1'
_cell_length_a   5.26927300
_cell_length_b   5.26927301
_cell_length_c   9.37918500
_cell_angle_alpha   90.00000000
_cell_angle_beta   90.00000000
_cell_angle_gamma   120.00000622
_symmetry_Int_Tables_number   1
_chemical_formula_structural   Ba2Na(H6Pt)2
_chemical_formula_sum   'Ba2 Na1 H12 Pt2'
_cell_volume   225.52625447
_cell_formula_units_Z   1
loop_
 _symmetry_equiv_pos_site_id
 _symmetry_equiv_pos_as_xyz
  1  'x, y, z'
loop_
 _atom_site_type_symbol
 _atom_site_label
 _atom_site_symmetry_multiplicity
 _atom_site_fract_x
 _atom_site_fract_y
 _atom_site_fract_z
 _atom_site_occupancy
  Ba  Ba0  1  0.000000  0.000000  0.995315  1
  Ba  Ba1  1  0.333333  0.666667  0.611383  1
  Na  Na2  1  0.666667  0.333333  0.314111  1
  H  H3  1  0.182947  0.817053  0.344098  1
  H  H4  1  0.634105  0.817053  0.344098  1
  H  H5  1  0.182947  0.365895  0.344098  1
  H  H6  1  0.819501  0.180499  0.669462  1
  H  H7  1  0.360998  0.180499  0.669462  1
  H  H8  1  0.819501  0.639002  0.669462  1
  H  H9  1  0.514446  0.028892  0.871039  1
  H  H10  1  0.514446  0.485554  0.871039  1
  H  H11  1  0.971108  0.485554  0.871039  1
  H  H12  1  0.479543  0.959086  0.137320  1
  H  H13  1  0.479543  0.520457  0.137320  1
  H  H14  1  0.040914  0.520457  0.137320  1
  Pt  Pt15  1  0.666667  0.333333  0.769925  1
  Pt  Pt16  1  0.333333  0.666667  0.243511  1
