# generated using pymatgen
data_Sr2VH9
_symmetry_space_group_name_H-M   'P 1'
_cell_length_a   8.89798600
_cell_length_b   8.89798384
_cell_length_c   5.10498900
_cell_angle_alpha   90.00000000
_cell_angle_beta   90.00000000
_cell_angle_gamma   120.00000060
_symmetry_Int_Tables_number   1
_chemical_formula_structural   Sr2VH9
_chemical_formula_sum   'Sr6 V3 H27'
_cell_volume   350.03282285
_cell_formula_units_Z   3
loop_
 _symmetry_equiv_pos_site_id
 _symmetry_equiv_pos_as_xyz
  1  'x, y, z'
loop_
 _atom_site_type_symbol
 _atom_site_label
 _atom_site_symmetry_multiplicity
 _atom_site_fract_x
 _atom_site_fract_y
 _atom_site_fract_z
 _atom_site_occupancy
  Sr  Sr0  1  0.000000  0.268514  0.500000  1
  Sr  Sr1  1  0.731486  0.731486  0.500000  1
  Sr  Sr2  1  0.268514  0.000000  0.500000  1
  Sr  Sr3  1  0.000000  0.602685  0.000000  1
  Sr  Sr4  1  0.397315  0.397315  0.000000  1
  Sr  Sr5  1  0.602685  0.000000  0.000000  1
  V  V6  1  0.666667  0.333333  0.500000  1
  V  V7  1  0.333333  0.666667  0.500000  1
  V  V8  1  0.000000  0.000000  0.000000  1
  H  H9  1  0.799420  0.328773  0.748382  1
  H  H10  1  0.671227  0.470646  0.748382  1
  H  H11  1  0.529354  0.200580  0.748382  1
  H  H12  1  0.200580  0.529354  0.251618  1
  H  H13  1  0.529354  0.200580  0.251618  1
  H  H14  1  0.799420  0.328773  0.251618  1
  H  H15  1  0.671227  0.470646  0.251618  1
  H  H16  1  0.328773  0.799420  0.748382  1
  H  H17  1  0.470646  0.671227  0.748382  1
  H  H18  1  0.193208  0.000000  0.000000  1
  H  H19  1  0.806792  0.806792  0.000000  1
  H  H20  1  0.000000  0.193208  0.000000  1
  H  H21  1  0.861059  0.000000  0.235476  1
  H  H22  1  0.138941  0.138941  0.764524  1
  H  H23  1  0.000000  0.861059  0.764524  1
  H  H24  1  0.000000  0.861059  0.235476  1
  H  H25  1  0.138941  0.138941  0.235476  1
  H  H26  1  0.861059  0.000000  0.764524  1
  H  H27  1  0.142073  0.667121  0.500000  1
  H  H28  1  0.525048  0.857927  0.500000  1
  H  H29  1  0.332879  0.474952  0.500000  1
  H  H30  1  0.474952  0.332879  0.500000  1
  H  H31  1  0.857927  0.525048  0.500000  1
  H  H32  1  0.667121  0.142073  0.500000  1
  H  H33  1  0.200580  0.529354  0.748382  1
  H  H34  1  0.328773  0.799420  0.251618  1
  H  H35  1  0.470646  0.671227  0.251618  1
