# generated using pymatgen
data_Ce3Ho(Ni2Pb)2
_symmetry_space_group_name_H-M   'P 1'
_cell_length_a   7.59725416
_cell_length_b   7.59725416
_cell_length_c   3.62920600
_cell_angle_alpha   90.00000000
_cell_angle_beta   90.00000000
_cell_angle_gamma   90.89198930
_symmetry_Int_Tables_number   1
_chemical_formula_structural   Ce3Ho(Ni2Pb)2
_chemical_formula_sum   'Ce3 Ho1 Ni4 Pb2'
_cell_volume   209.44611084
_cell_formula_units_Z   1
loop_
 _symmetry_equiv_pos_site_id
 _symmetry_equiv_pos_as_xyz
  1  'x, y, z'
loop_
 _atom_site_type_symbol
 _atom_site_label
 _atom_site_symmetry_multiplicity
 _atom_site_fract_x
 _atom_site_fract_y
 _atom_site_fract_z
 _atom_site_occupancy
  Ce  Ce0  1  0.826732  0.325631  0.500000  1
  Ce  Ce1  1  0.174370  0.673269  0.500000  1
  Ce  Ce2  1  0.671628  0.828373  0.500000  1
  Ho  Ho3  1  0.328066  0.171935  0.500000  1
  Ni  Ni4  1  0.626034  0.118340  0.000000  1
  Ni  Ni5  1  0.113618  0.386382  0.000000  1
  Ni  Ni6  1  0.875812  0.624188  0.000000  1
  Ni  Ni7  1  0.381660  0.873966  0.000000  1
  Pb  Pb8  1  0.005598  0.003516  0.000000  1
  Pb  Pb9  1  0.496484  0.494402  0.000000  1
