# generated using pymatgen
data_K4CdHg5Se8
_symmetry_space_group_name_H-M   'P 1'
_cell_length_a   7.00183700
_cell_length_b   11.20020106
_cell_length_c   14.42137708
_cell_angle_alpha   90.01216116
_cell_angle_beta   90.00000000
_cell_angle_gamma   90.00000000
_symmetry_Int_Tables_number   1
_chemical_formula_structural   K4CdHg5Se8
_chemical_formula_sum   'K8 Cd2 Hg10 Se16'
_cell_volume   1130.95295144
_cell_formula_units_Z   2
loop_
 _symmetry_equiv_pos_site_id
 _symmetry_equiv_pos_as_xyz
  1  'x, y, z'
loop_
 _atom_site_type_symbol
 _atom_site_label
 _atom_site_symmetry_multiplicity
 _atom_site_fract_x
 _atom_site_fract_y
 _atom_site_fract_z
 _atom_site_occupancy
  K  K0  1  0.728892  0.880677  0.501503  1
  K  K1  1  0.271108  0.119323  0.498497  1
  K  K2  1  0.772088  0.618751  0.002292  1
  K  K3  1  0.728892  0.119323  0.998497  1
  K  K4  1  0.227912  0.381249  0.997708  1
  K  K5  1  0.271108  0.880677  0.001503  1
  K  K6  1  0.772088  0.381249  0.497708  1
  K  K7  1  0.227912  0.618751  0.502292  1
  Cd  Cd8  1  0.589871  0.500000  0.750000  1
  Cd  Cd9  1  0.410129  0.500000  0.250000  1
  Hg  Hg10  1  0.911360  0.000000  0.250000  1
  Hg  Hg11  1  0.088640  0.000000  0.750000  1
  Hg  Hg12  1  0.588873  0.837766  0.758669  1
  Hg  Hg13  1  0.411127  0.162234  0.241331  1
  Hg  Hg14  1  0.911162  0.660815  0.258631  1
  Hg  Hg15  1  0.588873  0.162234  0.741331  1
  Hg  Hg16  1  0.088838  0.339185  0.741369  1
  Hg  Hg17  1  0.411127  0.837766  0.258669  1
  Hg  Hg18  1  0.911162  0.339185  0.241369  1
  Hg  Hg19  1  0.088838  0.660815  0.758631  1
  Se  Se20  1  0.823593  0.633245  0.640349  1
  Se  Se21  1  0.176407  0.366755  0.359651  1
  Se  Se22  1  0.673492  0.865008  0.139211  1
  Se  Se23  1  0.823593  0.366755  0.859651  1
  Se  Se24  1  0.326508  0.134992  0.860789  1
  Se  Se25  1  0.176407  0.633245  0.140349  1
  Se  Se26  1  0.673492  0.134992  0.360789  1
  Se  Se27  1  0.326508  0.865008  0.639211  1
  Se  Se28  1  0.866124  0.871487  0.869887  1
  Se  Se29  1  0.133876  0.128513  0.130113  1
  Se  Se30  1  0.630950  0.627026  0.368332  1
  Se  Se31  1  0.866124  0.128513  0.630113  1
  Se  Se32  1  0.369050  0.372974  0.631668  1
  Se  Se33  1  0.133876  0.871487  0.369887  1
  Se  Se34  1  0.630950  0.372974  0.131668  1
  Se  Se35  1  0.369050  0.627026  0.868332  1
