# generated using pymatgen
data_Sr8Mg5Cd3Si15Sn
_symmetry_space_group_name_H-M   'P 1'
_cell_length_a   4.44735500
_cell_length_b   11.54279500
_cell_length_c   14.54740939
_cell_angle_alpha   89.65909695
_cell_angle_beta   90.00000000
_cell_angle_gamma   90.00000000
_symmetry_Int_Tables_number   1
_chemical_formula_structural   Sr8Mg5Cd3Si15Sn
_chemical_formula_sum   'Sr8 Mg5 Cd3 Si15 Sn1'
_cell_volume   746.77669040
_cell_formula_units_Z   1
loop_
 _symmetry_equiv_pos_site_id
 _symmetry_equiv_pos_as_xyz
  1  'x, y, z'
loop_
 _atom_site_type_symbol
 _atom_site_label
 _atom_site_symmetry_multiplicity
 _atom_site_fract_x
 _atom_site_fract_y
 _atom_site_fract_z
 _atom_site_occupancy
  Sr  Sr0  1  0.250000  0.523344  0.197609  1
  Sr  Sr1  1  0.250000  0.736319  0.939458  1
  Sr  Sr2  1  0.750000  0.261150  0.062039  1
  Sr  Sr3  1  0.750000  0.242385  0.559447  1
  Sr  Sr4  1  0.250000  0.757013  0.438717  1
  Sr  Sr5  1  0.250000  0.975130  0.691168  1
  Sr  Sr6  1  0.750000  0.025903  0.304374  1
  Sr  Sr7  1  0.750000  0.476852  0.801739  1
  Mg  Mg8  1  0.750000  0.942461  0.067787  1
  Mg  Mg9  1  0.250000  0.677097  0.685858  1
  Mg  Mg10  1  0.750000  0.320499  0.310251  1
  Mg  Mg11  1  0.750000  0.188138  0.807539  1
  Mg  Mg12  1  0.250000  0.818516  0.191457  1
  Cd  Cd13  1  0.250000  0.441058  0.439572  1
  Cd  Cd14  1  0.750000  0.557278  0.558282  1
  Cd  Cd15  1  0.250000  0.068902  0.952064  1
  Si  Si16  1  0.250000  0.452141  0.634271  1
  Si  Si17  1  0.750000  0.546270  0.363748  1
  Si  Si18  1  0.250000  0.028410  0.464816  1
  Si  Si19  1  0.250000  0.047827  0.139813  1
  Si  Si20  1  0.250000  0.274911  0.720621  1
  Si  Si21  1  0.750000  0.725573  0.278166  1
  Si  Si22  1  0.750000  0.759131  0.771689  1
  Si  Si23  1  0.250000  0.211542  0.392631  1
  Si  Si24  1  0.750000  0.970325  0.532288  1
  Si  Si25  1  0.750000  0.530418  0.034124  1
  Si  Si26  1  0.250000  0.470608  0.967015  1
  Si  Si27  1  0.250000  0.291673  0.892189  1
  Si  Si28  1  0.750000  0.786641  0.603827  1
  Si  Si29  1  0.750000  0.712650  0.107397  1
  Si  Si30  1  0.250000  0.227737  0.223636  1
  Sn  Sn31  1  0.750000  0.952097  0.866404  1
