# generated using pymatgen
data_Ta15Co8IrN4
_symmetry_space_group_name_H-M   'P 1'
_cell_length_a   8.13325213
_cell_length_b   8.13325227
_cell_length_c   8.20690552
_cell_angle_alpha   60.29643817
_cell_angle_beta   60.29643653
_cell_angle_gamma   60.00000562
_symmetry_Int_Tables_number   1
_chemical_formula_structural   Ta15Co8IrN4
_chemical_formula_sum   'Ta15 Co8 Ir1 N4'
_cell_volume   385.58878311
_cell_formula_units_Z   1
loop_
 _symmetry_equiv_pos_site_id
 _symmetry_equiv_pos_as_xyz
  1  'x, y, z'
loop_
 _atom_site_type_symbol
 _atom_site_label
 _atom_site_symmetry_multiplicity
 _atom_site_fract_x
 _atom_site_fract_y
 _atom_site_fract_z
 _atom_site_occupancy
  Ta  Ta0  1  0.125000  0.625000  0.625000  1
  Ta  Ta1  1  0.625000  0.125000  0.625000  1
  Ta  Ta2  1  0.625000  0.625000  0.625000  1
  Ta  Ta3  1  0.807349  0.807349  0.188834  1
  Ta  Ta4  1  0.184461  0.184461  0.816155  1
  Ta  Ta5  1  0.814924  0.184461  0.816155  1
  Ta  Ta6  1  0.196467  0.807349  0.188834  1
  Ta  Ta7  1  0.184461  0.814924  0.816155  1
  Ta  Ta8  1  0.807349  0.196467  0.188834  1
  Ta  Ta9  1  0.442651  0.442651  0.061166  1
  Ta  Ta10  1  0.065539  0.065539  0.433845  1
  Ta  Ta11  1  0.435076  0.065539  0.433845  1
  Ta  Ta12  1  0.053533  0.442651  0.061166  1
  Ta  Ta13  1  0.065539  0.435076  0.433845  1
  Ta  Ta14  1  0.442651  0.053533  0.061166  1
  Co  Co15  1  0.737694  0.422458  0.417391  1
  Co  Co16  1  0.422458  0.737694  0.417391  1
  Co  Co17  1  0.412558  0.412558  0.762326  1
  Co  Co18  1  0.422458  0.422458  0.417391  1
  Co  Co19  1  0.512306  0.827542  0.832609  1
  Co  Co20  1  0.827542  0.512306  0.832609  1
  Co  Co21  1  0.837442  0.837442  0.487674  1
  Co  Co22  1  0.827542  0.827542  0.832609  1
  Ir  Ir23  1  0.625000  0.625000  0.125000  1
  N  N24  1  0.625000  0.125000  0.125000  1
  N  N25  1  0.125000  0.625000  0.125000  1
  N  N26  1  0.125000  0.125000  0.625000  1
  N  N27  1  0.125000  0.125000  0.125000  1
