# generated using pymatgen
data_LaPr2Mg3RuAu2
_symmetry_space_group_name_H-M   'P 1'
_cell_length_a   7.62678900
_cell_length_b   7.62214143
_cell_length_c   4.26448600
_cell_angle_alpha   90.00000000
_cell_angle_beta   90.00000000
_cell_angle_gamma   119.26903240
_symmetry_Int_Tables_number   1
_chemical_formula_structural   LaPr2Mg3RuAu2
_chemical_formula_sum   'La1 Pr2 Mg3 Ru1 Au2'
_cell_volume   216.25594382
_cell_formula_units_Z   1
loop_
 _symmetry_equiv_pos_site_id
 _symmetry_equiv_pos_as_xyz
  1  'x, y, z'
loop_
 _atom_site_type_symbol
 _atom_site_label
 _atom_site_symmetry_multiplicity
 _atom_site_fract_x
 _atom_site_fract_y
 _atom_site_fract_z
 _atom_site_occupancy
  La  La0  1  0.405872  0.433938  0.000000  1
  Pr  Pr1  1  0.574723  0.979442  0.000000  1
  Pr  Pr2  1  0.020124  0.596610  0.000000  1
  Mg  Mg3  1  0.243382  0.997556  0.500000  1
  Mg  Mg4  1  0.999106  0.244389  0.500000  1
  Mg  Mg5  1  0.757873  0.758933  0.500000  1
  Ru  Ru6  1  0.333942  0.658532  0.500000  1
  Au  Au7  1  0.666316  0.332257  0.500000  1
  Au  Au8  1  0.998661  0.998343  0.000000  1
