# generated using pymatgen
data_Pu(PaGa2)5
_symmetry_space_group_name_H-M   'P 1'
_cell_length_a   6.05639366
_cell_length_b   6.05639551
_cell_length_c   9.42334700
_cell_angle_alpha   90.00000000
_cell_angle_beta   90.00000000
_cell_angle_gamma   102.35118976
_symmetry_Int_Tables_number   1
_chemical_formula_structural   Pu(PaGa2)5
_chemical_formula_sum   'Pu1 Pa5 Ga10'
_cell_volume   337.64750750
_cell_formula_units_Z   1
loop_
 _symmetry_equiv_pos_site_id
 _symmetry_equiv_pos_as_xyz
  1  'x, y, z'
loop_
 _atom_site_type_symbol
 _atom_site_label
 _atom_site_symmetry_multiplicity
 _atom_site_fract_x
 _atom_site_fract_y
 _atom_site_fract_z
 _atom_site_occupancy
  Pu  Pu0  1  0.358403  0.358403  0.750000  1
  Pa  Pa1  1  0.794038  0.206113  0.001713  1
  Pa  Pa2  1  0.206113  0.794038  0.001713  1
  Pa  Pa3  1  0.206113  0.794038  0.498287  1
  Pa  Pa4  1  0.794038  0.206113  0.498287  1
  Pa  Pa5  1  0.640526  0.640526  0.250000  1
  Ga  Ga6  1  0.082194  0.486822  0.250000  1
  Ga  Ga7  1  0.920259  0.510730  0.750000  1
  Ga  Ga8  1  0.486822  0.082194  0.250000  1
  Ga  Ga9  1  0.510730  0.920259  0.750000  1
  Ga  Ga10  1  0.028311  0.028311  0.250000  1
  Ga  Ga11  1  0.970377  0.970377  0.750000  1
  Ga  Ga12  1  0.308493  0.308493  0.053398  1
  Ga  Ga13  1  0.692543  0.692543  0.944771  1
  Ga  Ga14  1  0.692543  0.692543  0.555229  1
  Ga  Ga15  1  0.308493  0.308493  0.446602  1
