# generated using pymatgen
data_La7Ir2Pt
_symmetry_space_group_name_H-M   'P 1'
_cell_length_a   6.55770230
_cell_length_b   10.28037295
_cell_length_c   10.28128270
_cell_angle_alpha   119.99678542
_cell_angle_beta   90.12846442
_cell_angle_gamma   89.99680632
_symmetry_Int_Tables_number   1
_chemical_formula_structural   La7Ir2Pt
_chemical_formula_sum   'La14 Ir4 Pt2'
_cell_volume   600.27622983
_cell_formula_units_Z   2
loop_
 _symmetry_equiv_pos_site_id
 _symmetry_equiv_pos_as_xyz
  1  'x, y, z'
loop_
 _atom_site_type_symbol
 _atom_site_label
 _atom_site_symmetry_multiplicity
 _atom_site_fract_x
 _atom_site_fract_y
 _atom_site_fract_z
 _atom_site_occupancy
  La  La0  1  0.475528  0.333235  0.666491  1
  La  La1  1  0.967943  0.668788  0.337527  1
  La  La2  1  0.250147  0.121928  0.868994  1
  La  La3  1  0.250261  0.747001  0.868978  1
  La  La4  1  0.251440  0.127665  0.255325  1
  La  La5  1  0.743361  0.875533  0.125230  1
  La  La6  1  0.743386  0.249688  0.125203  1
  La  La7  1  0.749098  0.874877  0.749739  1
  La  La8  1  0.439359  0.542353  0.465637  1
  La  La9  1  0.439305  0.923281  0.465633  1
  La  La10  1  0.443448  0.536360  0.072792  1
  La  La11  1  0.934430  0.461032  0.540593  1
  La  La12  1  0.934259  0.079535  0.540543  1
  La  La13  1  0.935560  0.460511  0.920941  1
  Ir  Ir14  1  0.191362  0.810229  0.620462  1
  Ir  Ir15  1  0.690068  0.188838  0.812337  1
  Ir  Ir16  1  0.690081  0.623523  0.812323  1
  Ir  Ir17  1  0.691053  0.187779  0.375522  1
  Pt  Pt18  1  0.190950  0.810673  0.187854  1
  Pt  Pt19  1  0.190958  0.377168  0.187875  1
