# generated using pymatgen
data_Tb8Ni2AgHg
_symmetry_space_group_name_H-M   'P 1'
_cell_length_a   9.52231032
_cell_length_b   9.52230958
_cell_length_c   9.49548400
_cell_angle_alpha   60.09314623
_cell_angle_beta   60.09314879
_cell_angle_gamma   60.05367864
_symmetry_Int_Tables_number   1
_chemical_formula_structural   Tb8Ni2AgHg
_chemical_formula_sum   'Tb16 Ni4 Ag2 Hg2'
_cell_volume   609.92035143
_cell_formula_units_Z   2
loop_
 _symmetry_equiv_pos_site_id
 _symmetry_equiv_pos_as_xyz
  1  'x, y, z'
loop_
 _atom_site_type_symbol
 _atom_site_label
 _atom_site_symmetry_multiplicity
 _atom_site_fract_x
 _atom_site_fract_y
 _atom_site_fract_z
 _atom_site_occupancy
  Tb  Tb0  1  0.349394  0.349394  0.349420  1
  Tb  Tb1  1  0.349394  0.349394  0.951794  1
  Tb  Tb2  1  0.351394  0.947439  0.350584  1
  Tb  Tb3  1  0.947439  0.351394  0.350584  1
  Tb  Tb4  1  0.811215  0.189354  0.190223  1
  Tb  Tb5  1  0.189354  0.811215  0.809206  1
  Tb  Tb6  1  0.189354  0.811215  0.190223  1
  Tb  Tb7  1  0.811215  0.189354  0.809206  1
  Tb  Tb8  1  0.191054  0.191054  0.808946  1
  Tb  Tb9  1  0.811876  0.811876  0.188124  1
  Tb  Tb10  1  0.934610  0.563457  0.564640  1
  Tb  Tb11  1  0.563457  0.934610  0.937292  1
  Tb  Tb12  1  0.563457  0.934610  0.564640  1
  Tb  Tb13  1  0.934610  0.563457  0.937292  1
  Tb  Tb14  1  0.563367  0.563367  0.936633  1
  Tb  Tb15  1  0.936151  0.936151  0.563849  1
  Ni  Ni16  1  0.142775  0.142775  0.144147  1
  Ni  Ni17  1  0.142775  0.142775  0.570303  1
  Ni  Ni18  1  0.141307  0.572613  0.143040  1
  Ni  Ni19  1  0.572613  0.141307  0.143040  1
  Ag  Ag20  1  0.584186  0.584186  0.581326  1
  Ag  Ag21  1  0.584186  0.584186  0.250301  1
  Hg  Hg22  1  0.586962  0.247851  0.582593  1
  Hg  Hg23  1  0.247851  0.586962  0.582593  1
