# generated using pymatgen
data_Ho2Lu(MgHg)3
_symmetry_space_group_name_H-M   'P 1'
_cell_length_a   7.70342400
_cell_length_b   7.66930170
_cell_length_c   4.25653000
_cell_angle_alpha   90.00000000
_cell_angle_beta   90.00000000
_cell_angle_gamma   120.14729664
_symmetry_Int_Tables_number   1
_chemical_formula_structural   Ho2Lu(MgHg)3
_chemical_formula_sum   'Ho2 Lu1 Mg3 Hg3'
_cell_volume   217.46002545
_cell_formula_units_Z   1
loop_
 _symmetry_equiv_pos_site_id
 _symmetry_equiv_pos_as_xyz
  1  'x, y, z'
loop_
 _atom_site_type_symbol
 _atom_site_label
 _atom_site_symmetry_multiplicity
 _atom_site_fract_x
 _atom_site_fract_y
 _atom_site_fract_z
 _atom_site_occupancy
  Ho  Ho0  1  0.999602  0.413762  0.000000  1
  Ho  Ho1  1  0.585839  0.586238  0.000000  1
  Lu  Lu2  1  0.412073  0.000000  0.000000  1
  Mg  Mg3  1  0.748951  0.000000  0.500000  1
  Mg  Mg4  1  0.251318  0.250534  0.500000  1
  Mg  Mg5  1  0.000784  0.749467  0.500000  1
  Hg  Hg6  1  0.002301  0.000000  0.000000  1
  Hg  Hg7  1  0.664627  0.330121  0.500000  1
  Hg  Hg8  1  0.334506  0.669879  0.500000  1
