# generated using pymatgen
data_Li6TbZrUN6
_symmetry_space_group_name_H-M   'P 1'
_cell_length_a   5.92917600
_cell_length_b   5.92917597
_cell_length_c   5.48703400
_cell_angle_alpha   90.00000000
_cell_angle_beta   90.00000000
_cell_angle_gamma   120.00000019
_symmetry_Int_Tables_number   1
_chemical_formula_structural   Li6TbZrUN6
_chemical_formula_sum   'Li6 Tb1 Zr1 U1 N6'
_cell_volume   167.05403256
_cell_formula_units_Z   1
loop_
 _symmetry_equiv_pos_site_id
 _symmetry_equiv_pos_as_xyz
  1  'x, y, z'
loop_
 _atom_site_type_symbol
 _atom_site_label
 _atom_site_symmetry_multiplicity
 _atom_site_fract_x
 _atom_site_fract_y
 _atom_site_fract_z
 _atom_site_occupancy
  Li  Li0  1  0.992153  0.661788  0.610315  1
  Li  Li1  1  0.338212  0.330366  0.610315  1
  Li  Li2  1  0.669634  0.007847  0.610315  1
  Li  Li3  1  0.004809  0.328738  0.388592  1
  Li  Li4  1  0.671262  0.676071  0.388592  1
  Li  Li5  1  0.323929  0.995191  0.388592  1
  Tb  Tb6  1  0.333333  0.666667  0.997779  1
  Zr  Zr7  1  0.000000  0.000000  0.996690  1
  U  U8  1  0.666667  0.333333  0.004060  1
  N  N9  1  0.981845  0.663595  0.225489  1
  N  N10  1  0.336405  0.318249  0.225489  1
  N  N11  1  0.681751  0.018155  0.225489  1
  N  N12  1  0.981481  0.318399  0.776095  1
  N  N13  1  0.681601  0.663082  0.776095  1
  N  N14  1  0.336918  0.018519  0.776095  1
