# generated using pymatgen
data_Nb12ZnGa8Fe(TcN2)2
_symmetry_space_group_name_H-M   'P 1'
_cell_length_a   8.31773406
_cell_length_b   8.31773292
_cell_length_c   8.31773500
_cell_angle_alpha   59.61051512
_cell_angle_beta   59.61051973
_cell_angle_gamma   59.61051307
_symmetry_Int_Tables_number   1
_chemical_formula_structural   Nb12ZnGa8Fe(TcN2)2
_chemical_formula_sum   'Nb12 Zn1 Ga8 Fe1 Tc2 N4'
_cell_volume   403.30965103
_cell_formula_units_Z   1
loop_
 _symmetry_equiv_pos_site_id
 _symmetry_equiv_pos_as_xyz
  1  'x, y, z'
loop_
 _atom_site_type_symbol
 _atom_site_label
 _atom_site_symmetry_multiplicity
 _atom_site_fract_x
 _atom_site_fract_y
 _atom_site_fract_z
 _atom_site_occupancy
  Nb  Nb0  1  0.808799  0.809060  0.189431  1
  Nb  Nb1  1  0.193970  0.194697  0.806171  1
  Nb  Nb2  1  0.806806  0.191501  0.806806  1
  Nb  Nb3  1  0.193576  0.807557  0.193576  1
  Nb  Nb4  1  0.189431  0.809060  0.808799  1
  Nb  Nb5  1  0.806171  0.194697  0.193970  1
  Nb  Nb6  1  0.441201  0.440940  0.060569  1
  Nb  Nb7  1  0.056030  0.055303  0.443829  1
  Nb  Nb8  1  0.443194  0.058499  0.443194  1
  Nb  Nb9  1  0.056424  0.442443  0.056424  1
  Nb  Nb10  1  0.060569  0.440940  0.441201  1
  Nb  Nb11  1  0.443829  0.055303  0.056030  1
  Zn  Zn12  1  0.625000  0.125000  0.625000  1
  Ga  Ga13  1  0.759177  0.419804  0.417942  1
  Ga  Ga14  1  0.418906  0.758800  0.418906  1
  Ga  Ga15  1  0.417942  0.419804  0.759177  1
  Ga  Ga16  1  0.413463  0.413487  0.413463  1
  Ga  Ga17  1  0.490823  0.830196  0.832058  1
  Ga  Ga18  1  0.831094  0.491200  0.831094  1
  Ga  Ga19  1  0.832058  0.830196  0.490823  1
  Ga  Ga20  1  0.836537  0.836513  0.836537  1
  Fe  Fe21  1  0.625000  0.625000  0.625000  1
  Tc  Tc22  1  0.125000  0.625000  0.625000  1
  Tc  Tc23  1  0.625000  0.625000  0.125000  1
  N  N24  1  0.625000  0.125000  0.125000  1
  N  N25  1  0.125000  0.625000  0.125000  1
  N  N26  1  0.125000  0.125000  0.625000  1
  N  N27  1  0.125000  0.125000  0.125000  1
