# generated using pymatgen
data_LiDy3ZnIn3Ru
_symmetry_space_group_name_H-M   'P 1'
_cell_length_a   7.84522100
_cell_length_b   7.84522102
_cell_length_c   3.75224600
_cell_angle_alpha   90.00000000
_cell_angle_beta   90.00000000
_cell_angle_gamma   119.99999568
_symmetry_Int_Tables_number   1
_chemical_formula_structural   LiDy3ZnIn3Ru
_chemical_formula_sum   'Li1 Dy3 Zn1 In3 Ru1'
_cell_volume   200.00107019
_cell_formula_units_Z   1
loop_
 _symmetry_equiv_pos_site_id
 _symmetry_equiv_pos_as_xyz
  1  'x, y, z'
loop_
 _atom_site_type_symbol
 _atom_site_label
 _atom_site_symmetry_multiplicity
 _atom_site_fract_x
 _atom_site_fract_y
 _atom_site_fract_z
 _atom_site_occupancy
  Li  Li0  1  0.000000  0.000000  0.000000  1
  Dy  Dy1  1  0.573752  0.601434  0.000000  1
  Dy  Dy2  1  0.398566  0.972318  0.000000  1
  Dy  Dy3  1  0.027682  0.426248  0.000000  1
  Zn  Zn4  1  0.666667  0.333333  0.500000  1
  In  In5  1  0.995545  0.737970  0.500000  1
  In  In6  1  0.262030  0.257575  0.500000  1
  In  In7  1  0.742425  0.004455  0.500000  1
  Ru  Ru8  1  0.333333  0.666667  0.500000  1
