# generated using pymatgen
data_Yb5Sm(OsO6)3
_symmetry_space_group_name_H-M   'P 1'
_cell_length_a   9.02288952
_cell_length_b   9.02288924
_cell_length_c   5.27754281
_cell_angle_alpha   89.07013864
_cell_angle_beta   90.92986265
_cell_angle_gamma   120.64498914
_symmetry_Int_Tables_number   1
_chemical_formula_structural   Yb5Sm(OsO6)3
_chemical_formula_sum   'Yb5 Sm1 Os3 O18'
_cell_volume   369.58846732
_cell_formula_units_Z   1
loop_
 _symmetry_equiv_pos_site_id
 _symmetry_equiv_pos_as_xyz
  1  'x, y, z'
loop_
 _atom_site_type_symbol
 _atom_site_label
 _atom_site_symmetry_multiplicity
 _atom_site_fract_x
 _atom_site_fract_y
 _atom_site_fract_z
 _atom_site_occupancy
  Yb  Yb0  1  0.990116  0.272173  0.503737  1
  Yb  Yb1  1  0.272173  0.990116  0.496263  1
  Yb  Yb2  1  0.385594  0.385594  0.000000  1
  Yb  Yb3  1  0.998346  0.611467  0.992899  1
  Yb  Yb4  1  0.611467  0.998346  0.007101  1
  Sm  Sm5  1  0.746984  0.746984  0.500000  1
  Os  Os6  1  0.662291  0.331558  0.508376  1
  Os  Os7  1  0.331558  0.662291  0.491624  1
  Os  Os8  1  0.004586  0.004586  0.000000  1
  O  O9  1  0.757304  0.235585  0.725734  1
  O  O10  1  0.769193  0.531111  0.717235  1
  O  O11  1  0.465228  0.239688  0.708302  1
  O  O12  1  0.531111  0.769193  0.282765  1
  O  O13  1  0.239688  0.465228  0.291698  1
  O  O14  1  0.235585  0.757304  0.274266  1
  O  O15  1  0.599454  0.464291  0.303561  1
  O  O16  1  0.540188  0.139056  0.304080  1
  O  O17  1  0.857203  0.404097  0.304528  1
  O  O18  1  0.042992  0.873247  0.760612  1
  O  O19  1  0.124292  0.201946  0.799947  1
  O  O20  1  0.803150  0.948859  0.799578  1
  O  O21  1  0.201946  0.124292  0.200053  1
  O  O22  1  0.948859  0.803150  0.200422  1
  O  O23  1  0.873247  0.042992  0.239388  1
  O  O24  1  0.464291  0.599454  0.696439  1
  O  O25  1  0.404097  0.857203  0.695472  1
  O  O26  1  0.139056  0.540188  0.695920  1
