# generated using pymatgen
data_Hf3Sc5(CoIr)4
_symmetry_space_group_name_H-M   'P 1'
_cell_length_a   6.42528701
_cell_length_b   4.53716700
_cell_length_c   9.09241001
_cell_angle_alpha   90.00000000
_cell_angle_beta   89.99427562
_cell_angle_gamma   90.00000000
_symmetry_Int_Tables_number   1
_chemical_formula_structural   Hf3Sc5(CoIr)4
_chemical_formula_sum   'Hf3 Sc5 Co4 Ir4'
_cell_volume   265.06739240
_cell_formula_units_Z   1
loop_
 _symmetry_equiv_pos_site_id
 _symmetry_equiv_pos_as_xyz
  1  'x, y, z'
loop_
 _atom_site_type_symbol
 _atom_site_label
 _atom_site_symmetry_multiplicity
 _atom_site_fract_x
 _atom_site_fract_y
 _atom_site_fract_z
 _atom_site_occupancy
  Hf  Hf0  1  0.500339  0.750001  0.121780  1
  Hf  Hf1  1  0.999537  0.750001  0.124463  1
  Hf  Hf2  1  0.499802  0.249999  0.378771  1
  Sc  Sc3  1  0.999985  0.249999  0.378824  1
  Sc  Sc4  1  0.000061  0.750001  0.625135  1
  Sc  Sc5  1  0.499746  0.750001  0.628484  1
  Sc  Sc6  1  0.999733  0.249999  0.871128  1
  Sc  Sc7  1  0.500616  0.249999  0.871346  1
  Co  Co8  1  0.748906  0.249999  0.129167  1
  Co  Co9  1  0.254774  0.750001  0.367015  1
  Co  Co10  1  0.748530  0.249999  0.621085  1
  Co  Co11  1  0.248091  0.750001  0.882679  1
  Ir  Ir12  1  0.251440  0.249999  0.127328  1
  Ir  Ir13  1  0.745085  0.750001  0.370617  1
  Ir  Ir14  1  0.251956  0.249999  0.622872  1
  Ir  Ir15  1  0.751399  0.750001  0.879304  1
