# generated using pymatgen
data_Rb8Er3Tm3BBr20
_symmetry_space_group_name_H-M   'P 1'
_cell_length_a   12.23624075
_cell_length_b   12.23599233
_cell_length_c   12.26899700
_cell_angle_alpha   59.91206995
_cell_angle_beta   59.91006246
_cell_angle_gamma   60.17786600
_symmetry_Int_Tables_number   1
_chemical_formula_structural   Rb8Er3Tm3BBr20
_chemical_formula_sum   'Rb8 Er3 Tm3 B1 Br20'
_cell_volume   1298.89778722
_cell_formula_units_Z   1
loop_
 _symmetry_equiv_pos_site_id
 _symmetry_equiv_pos_as_xyz
  1  'x, y, z'
loop_
 _atom_site_type_symbol
 _atom_site_label
 _atom_site_symmetry_multiplicity
 _atom_site_fract_x
 _atom_site_fract_y
 _atom_site_fract_z
 _atom_site_occupancy
  Rb  Rb0  1  0.359913  0.359818  0.359460  1
  Rb  Rb1  1  0.640097  0.640234  0.640525  1
  Rb  Rb2  1  0.359766  0.359903  0.920857  1
  Rb  Rb3  1  0.359460  0.920809  0.359913  1
  Rb  Rb4  1  0.640182  0.640087  0.079191  1
  Rb  Rb5  1  0.640525  0.079143  0.640097  1
  Rb  Rb6  1  0.920857  0.359475  0.359766  1
  Rb  Rb7  1  0.079191  0.640540  0.640182  1
  Er  Er8  1  0.850452  0.149548  0.149186  1
  Er  Er9  1  0.149186  0.850814  0.850452  1
  Er  Er10  1  0.149419  0.850581  0.149419  1
  Tm  Tm11  1  0.850797  0.149203  0.850797  1
  Tm  Tm12  1  0.148662  0.148935  0.851065  1
  Tm  Tm13  1  0.851065  0.851338  0.148662  1
  B  B14  1  0.999372  0.000628  0.999372  1
  Br  Br15  1  0.326658  0.000998  0.999002  1
  Br  Br16  1  0.674489  0.000218  0.999782  1
  Br  Br17  1  0.999782  0.325511  0.674489  1
  Br  Br18  1  0.999002  0.673342  0.326658  1
  Br  Br19  1  0.001067  0.326493  0.998917  1
  Br  Br20  1  0.673507  0.998933  0.326476  1
  Br  Br21  1  0.998917  0.673524  0.001067  1
  Br  Br22  1  0.326476  0.001083  0.673507  1
  Br  Br23  1  0.000112  0.999888  0.327290  1
  Br  Br24  1  0.998762  0.001238  0.673773  1
  Br  Br25  1  0.673773  0.326227  0.998762  1
  Br  Br26  1  0.327290  0.672710  0.000112  1
  Br  Br27  1  0.683596  0.316404  0.316311  1
  Br  Br28  1  0.316311  0.683689  0.683596  1
  Br  Br29  1  0.316419  0.683581  0.316419  1
  Br  Br30  1  0.684939  0.315061  0.684939  1
  Br  Br31  1  0.315007  0.315085  0.684915  1
  Br  Br32  1  0.684915  0.684993  0.315007  1
  Br  Br33  1  0.250015  0.249985  0.250015  1
  Br  Br34  1  0.750015  0.749985  0.750015  1
