# generated using pymatgen
data_Dy4(Ga8Pd3)3
_symmetry_space_group_name_H-M   'P 1'
_cell_length_a   7.50632473
_cell_length_b   7.57663334
_cell_length_c   13.45580183
_cell_angle_alpha   84.85843859
_cell_angle_beta   79.77677963
_cell_angle_gamma   60.26334621
_symmetry_Int_Tables_number   1
_chemical_formula_structural   Dy4(Ga8Pd3)3
_chemical_formula_sum   'Dy4 Ga24 Pd9'
_cell_volume   653.94190169
_cell_formula_units_Z   1
loop_
 _symmetry_equiv_pos_site_id
 _symmetry_equiv_pos_as_xyz
  1  'x, y, z'
loop_
 _atom_site_type_symbol
 _atom_site_label
 _atom_site_symmetry_multiplicity
 _atom_site_fract_x
 _atom_site_fract_y
 _atom_site_fract_z
 _atom_site_occupancy
  Dy  Dy0  1  0.394054  0.168852  0.811381  1
  Dy  Dy1  1  0.605946  0.831148  0.188619  1
  Dy  Dy2  1  0.732008  0.497047  0.811503  1
  Dy  Dy3  1  0.267992  0.502953  0.188497  1
  Ga  Ga4  1  0.686602  0.833532  0.939313  1
  Ga  Ga5  1  0.313398  0.166468  0.060687  1
  Ga  Ga6  1  0.144392  0.835173  0.557915  1
  Ga  Ga7  1  0.855608  0.164827  0.442085  1
  Ga  Ga8  1  0.478016  0.167182  0.555999  1
  Ga  Ga9  1  0.521984  0.832818  0.444001  1
  Ga  Ga10  1  0.220743  0.164985  0.325279  1
  Ga  Ga11  1  0.779257  0.835015  0.674721  1
  Ga  Ga12  1  0.436447  0.503974  0.673919  1
  Ga  Ga13  1  0.563553  0.496026  0.326081  1
  Ga  Ga14  1  0.107141  0.162669  0.673154  1
  Ga  Ga15  1  0.892859  0.837331  0.326846  1
  Ga  Ga16  1  0.356134  0.499218  0.940142  1
  Ga  Ga17  1  0.643866  0.500782  0.059858  1
  Ga  Ga18  1  0.019217  0.167895  0.944999  1
  Ga  Ga19  1  0.980783  0.832105  0.055001  1
  Ga  Ga20  1  0.187244  0.500137  0.443336  1
  Ga  Ga21  1  0.812756  0.499863  0.556664  1
  Ga  Ga22  1  0.733918  0.163654  0.182269  1
  Ga  Ga23  1  0.266082  0.836346  0.817731  1
  Ga  Ga24  1  0.061026  0.629918  0.816869  1
  Ga  Ga25  1  0.938974  0.370082  0.183131  1
  Ga  Ga26  1  0.856385  0.040283  0.816807  1
  Ga  Ga27  1  0.143615  0.959717  0.183193  1
  Pd  Pd28  1  0.116005  0.496930  0.638813  1
  Pd  Pd29  1  0.883995  0.503070  0.361187  1
  Pd  Pd30  1  0.659757  0.169430  0.999001  1
  Pd  Pd31  1  0.340243  0.830570  0.000999  1
  Pd  Pd32  1  0.542721  0.167117  0.360474  1
  Pd  Pd33  1  0.457279  0.832883  0.639526  1
  Pd  Pd34  1  0.778529  0.171829  0.638174  1
  Pd  Pd35  1  0.221471  0.828171  0.361826  1
  Pd  Pd36  1  0.000000  0.500000  0.000000  1
