# generated using pymatgen
data_Ca2GaAg6
_symmetry_space_group_name_H-M   'P 1'
_cell_length_a   5.51773948
_cell_length_b   5.51774021
_cell_length_c   13.95356800
_cell_angle_alpha   90.00000000
_cell_angle_beta   90.00000000
_cell_angle_gamma   117.88394838
_symmetry_Int_Tables_number   1
_chemical_formula_structural   Ca2GaAg6
_chemical_formula_sum   'Ca4 Ga2 Ag12'
_cell_volume   375.49937633
_cell_formula_units_Z   2
loop_
 _symmetry_equiv_pos_site_id
 _symmetry_equiv_pos_as_xyz
  1  'x, y, z'
loop_
 _atom_site_type_symbol
 _atom_site_label
 _atom_site_symmetry_multiplicity
 _atom_site_fract_x
 _atom_site_fract_y
 _atom_site_fract_z
 _atom_site_occupancy
  Ca  Ca0  1  0.322206  0.322206  0.118005  1
  Ca  Ca1  1  0.677794  0.677794  0.618005  1
  Ca  Ca2  1  0.322206  0.322206  0.381995  1
  Ca  Ca3  1  0.677794  0.677794  0.881995  1
  Ga  Ga4  1  0.829406  0.829406  0.250000  1
  Ga  Ga5  1  0.170594  0.170594  0.750000  1
  Ag  Ag6  1  0.828041  0.331618  0.250000  1
  Ag  Ag7  1  0.171959  0.668382  0.750000  1
  Ag  Ag8  1  0.331618  0.828041  0.250000  1
  Ag  Ag9  1  0.668382  0.171959  0.750000  1
  Ag  Ag10  1  0.990479  0.667216  0.076542  1
  Ag  Ag11  1  0.009521  0.332784  0.576542  1
  Ag  Ag12  1  0.667216  0.990479  0.423458  1
  Ag  Ag13  1  0.332784  0.009521  0.923458  1
  Ag  Ag14  1  0.009521  0.332784  0.923458  1
  Ag  Ag15  1  0.990479  0.667216  0.423458  1
  Ag  Ag16  1  0.332784  0.009521  0.576542  1
  Ag  Ag17  1  0.667216  0.990479  0.076542  1
