# generated using pymatgen
data_CaSmFe3Re14C3
_symmetry_space_group_name_H-M   'P 1'
_cell_length_a   6.93736091
_cell_length_b   6.93736087
_cell_length_c   6.93736146
_cell_angle_alpha   82.59162805
_cell_angle_beta   82.59162005
_cell_angle_gamma   82.59162142
_symmetry_Int_Tables_number   1
_chemical_formula_structural   CaSmFe3Re14C3
_chemical_formula_sum   'Ca1 Sm1 Fe3 Re14 C3'
_cell_volume   326.17486123
_cell_formula_units_Z   1
loop_
 _symmetry_equiv_pos_site_id
 _symmetry_equiv_pos_as_xyz
  1  'x, y, z'
loop_
 _atom_site_type_symbol
 _atom_site_label
 _atom_site_symmetry_multiplicity
 _atom_site_fract_x
 _atom_site_fract_y
 _atom_site_fract_z
 _atom_site_occupancy
  Ca  Ca0  1  0.648299  0.648299  0.648299  1
  Sm  Sm1  1  0.351823  0.351823  0.351823  1
  Fe  Fe2  1  0.999614  0.999614  0.500093  1
  Fe  Fe3  1  0.500093  0.999614  0.999614  1
  Fe  Fe4  1  0.999614  0.500093  0.999614  1
  Re  Re5  1  0.721530  0.278309  0.999938  1
  Re  Re6  1  0.999938  0.721530  0.278309  1
  Re  Re7  1  0.278309  0.999938  0.721530  1
  Re  Re8  1  0.999938  0.278309  0.721530  1
  Re  Re9  1  0.721530  0.999938  0.278309  1
  Re  Re10  1  0.278309  0.721530  0.999938  1
  Re  Re11  1  0.345797  0.345797  0.862316  1
  Re  Re12  1  0.862316  0.345797  0.345797  1
  Re  Re13  1  0.345797  0.862316  0.345797  1
  Re  Re14  1  0.654492  0.654492  0.138164  1
  Re  Re15  1  0.138164  0.654492  0.654492  1
  Re  Re16  1  0.654492  0.138164  0.654492  1
  Re  Re17  1  0.898484  0.898484  0.898484  1
  Re  Re18  1  0.101647  0.101647  0.101647  1
  C  C19  1  0.500203  0.500203  0.999406  1
  C  C20  1  0.999406  0.500203  0.500203  1
  C  C21  1  0.500203  0.999406  0.500203  1
