# generated using pymatgen
data_Ho11Th8Si16Ag
_symmetry_space_group_name_H-M   'P 1'
_cell_length_a   7.65761749
_cell_length_b   7.65761836
_cell_length_c   13.95840500
_cell_angle_alpha   89.70647228
_cell_angle_beta   90.29352775
_cell_angle_gamma   90.14751698
_symmetry_Int_Tables_number   1
_chemical_formula_structural   Ho11Th8Si16Ag
_chemical_formula_sum   'Ho11 Th8 Si16 Ag1'
_cell_volume   818.48433761
_cell_formula_units_Z   1
loop_
 _symmetry_equiv_pos_site_id
 _symmetry_equiv_pos_as_xyz
  1  'x, y, z'
loop_
 _atom_site_type_symbol
 _atom_site_label
 _atom_site_symmetry_multiplicity
 _atom_site_fract_x
 _atom_site_fract_y
 _atom_site_fract_z
 _atom_site_occupancy
  Ho  Ho0  1  0.817418  0.817418  0.500000  1
  Ho  Ho1  1  0.317990  0.684995  0.248560  1
  Ho  Ho2  1  0.684995  0.317990  0.751440  1
  Ho  Ho3  1  0.137345  0.006028  0.375165  1
  Ho  Ho4  1  0.868462  0.997582  0.881521  1
  Ho  Ho5  1  0.493491  0.641688  0.629129  1
  Ho  Ho6  1  0.360762  0.495779  0.877372  1
  Ho  Ho7  1  0.495779  0.360762  0.122628  1
  Ho  Ho8  1  0.641688  0.493491  0.370871  1
  Ho  Ho9  1  0.006028  0.137345  0.624835  1
  Ho  Ho10  1  0.997582  0.868462  0.118479  1
  Th  Th11  1  0.997283  0.358250  0.204342  1
  Th  Th12  1  0.008596  0.642629  0.713363  1
  Th  Th13  1  0.141538  0.491789  0.459840  1
  Th  Th14  1  0.499354  0.864194  0.037349  1
  Th  Th15  1  0.864194  0.499354  0.962651  1
  Th  Th16  1  0.491789  0.141538  0.540160  1
  Th  Th17  1  0.358250  0.997283  0.795658  1
  Th  Th18  1  0.642629  0.008596  0.286637  1
  Si  Si19  1  0.348894  0.294511  0.312790  1
  Si  Si20  1  0.649615  0.707549  0.819786  1
  Si  Si21  1  0.205331  0.848091  0.564462  1
  Si  Si22  1  0.145549  0.776007  0.929304  1
  Si  Si23  1  0.776007  0.145549  0.070696  1
  Si  Si24  1  0.848091  0.205331  0.435538  1
  Si  Si25  1  0.294511  0.348894  0.687210  1
  Si  Si26  1  0.707549  0.649615  0.180214  1
  Si  Si27  1  0.289152  0.064530  0.188109  1
  Si  Si28  1  0.706225  0.938899  0.691050  1
  Si  Si29  1  0.438669  0.791168  0.437155  1
  Si  Si30  1  0.210419  0.574492  0.062303  1
  Si  Si31  1  0.574492  0.210419  0.937697  1
  Si  Si32  1  0.791168  0.438669  0.562845  1
  Si  Si33  1  0.064530  0.289152  0.811891  1
  Si  Si34  1  0.938899  0.706225  0.308950  1
  Ag  Ag35  1  0.185725  0.185725  0.000000  1
