# generated using pymatgen
data_Pr3Al12(RuRh)2
_symmetry_space_group_name_H-M   'P 1'
_cell_length_a   8.95267501
_cell_length_b   8.90020406
_cell_length_c   9.69950900
_cell_angle_alpha   90.00000000
_cell_angle_beta   90.00000000
_cell_angle_gamma   119.80630743
_symmetry_Int_Tables_number   1
_chemical_formula_structural   Pr3Al12(RuRh)2
_chemical_formula_sum   'Pr6 Al24 Ru4 Rh4'
_cell_volume   670.62155151
_cell_formula_units_Z   2
loop_
 _symmetry_equiv_pos_site_id
 _symmetry_equiv_pos_as_xyz
  1  'x, y, z'
loop_
 _atom_site_type_symbol
 _atom_site_label
 _atom_site_symmetry_multiplicity
 _atom_site_fract_x
 _atom_site_fract_y
 _atom_site_fract_z
 _atom_site_occupancy
  Pr  Pr0  1  0.188577  0.382438  0.250000  1
  Pr  Pr1  1  0.811423  0.617562  0.750000  1
  Pr  Pr2  1  0.619903  0.809952  0.250000  1
  Pr  Pr3  1  0.380097  0.190048  0.750000  1
  Pr  Pr4  1  0.188577  0.806138  0.250000  1
  Pr  Pr5  1  0.811423  0.193862  0.750000  1
  Al  Al6  1  0.330905  0.665453  0.016359  1
  Al  Al7  1  0.669095  0.334547  0.983641  1
  Al  Al8  1  0.669095  0.334547  0.516359  1
  Al  Al9  1  0.330905  0.665453  0.483641  1
  Al  Al10  1  0.161986  0.326396  0.575555  1
  Al  Al11  1  0.838014  0.673604  0.424445  1
  Al  Al12  1  0.675018  0.837508  0.575498  1
  Al  Al13  1  0.838014  0.673604  0.075555  1
  Al  Al14  1  0.324982  0.162492  0.424502  1
  Al  Al15  1  0.161986  0.326396  0.924445  1
  Al  Al16  1  0.161986  0.835590  0.575555  1
  Al  Al17  1  0.324982  0.162492  0.075498  1
  Al  Al18  1  0.838014  0.164410  0.424445  1
  Al  Al19  1  0.675018  0.837508  0.924502  1
  Al  Al20  1  0.838014  0.164410  0.075555  1
  Al  Al21  1  0.161986  0.835590  0.924445  1
  Al  Al22  1  0.562136  0.125947  0.250000  1
  Al  Al23  1  0.437864  0.874053  0.750000  1
  Al  Al24  1  0.873274  0.436638  0.250000  1
  Al  Al25  1  0.126726  0.563362  0.750000  1
  Al  Al26  1  0.562136  0.436189  0.250000  1
  Al  Al27  1  0.437864  0.563811  0.750000  1
  Al  Al28  1  0.998078  0.999039  0.250000  1
  Al  Al29  1  0.001922  0.000961  0.750000  1
  Ru  Ru30  1  0.000000  0.500000  0.000000  1
  Ru  Ru31  1  0.000000  0.500000  0.500000  1
  Ru  Ru32  1  0.000000  0.000000  0.000000  1
  Ru  Ru33  1  0.000000  0.000000  0.500000  1
  Rh  Rh34  1  0.500000  0.000000  0.000000  1
  Rh  Rh35  1  0.500000  0.000000  0.500000  1
  Rh  Rh36  1  0.500000  0.500000  0.000000  1
  Rh  Rh37  1  0.500000  0.500000  0.500000  1
