# generated using pymatgen
data_Yb3YPt3RhO14
_symmetry_space_group_name_H-M   'P 1'
_cell_length_a   7.23357677
_cell_length_b   7.23357574
_cell_length_c   7.23357601
_cell_angle_alpha   60.18066147
_cell_angle_beta   60.18064498
_cell_angle_gamma   60.18065514
_symmetry_Int_Tables_number   1
_chemical_formula_structural   Yb3YPt3RhO14
_chemical_formula_sum   'Yb3 Y1 Pt3 Rh1 O14'
_cell_volume   268.73073107
_cell_formula_units_Z   1
loop_
 _symmetry_equiv_pos_site_id
 _symmetry_equiv_pos_as_xyz
  1  'x, y, z'
loop_
 _atom_site_type_symbol
 _atom_site_label
 _atom_site_symmetry_multiplicity
 _atom_site_fract_x
 _atom_site_fract_y
 _atom_site_fract_z
 _atom_site_occupancy
  Yb  Yb0  1  0.125000  0.625000  0.125000  1
  Yb  Yb1  1  0.125000  0.125000  0.625000  1
  Yb  Yb2  1  0.625000  0.125000  0.125000  1
  Y  Y3  1  0.125000  0.125000  0.125000  1
  Pt  Pt4  1  0.125000  0.625000  0.625000  1
  Pt  Pt5  1  0.625000  0.625000  0.125000  1
  Pt  Pt6  1  0.625000  0.125000  0.625000  1
  Rh  Rh7  1  0.625000  0.625000  0.625000  1
  O  O8  1  0.296092  0.704448  0.704448  1
  O  O9  1  0.535378  0.960148  0.960148  1
  O  O10  1  0.704448  0.704448  0.296092  1
  O  O11  1  0.289852  0.289852  0.714622  1
  O  O12  1  0.001502  0.001502  0.001502  1
  O  O13  1  0.289852  0.714622  0.289852  1
  O  O14  1  0.704448  0.296092  0.704448  1
  O  O15  1  0.960148  0.535378  0.960148  1
  O  O16  1  0.545552  0.545552  0.953908  1
  O  O17  1  0.960148  0.960148  0.535378  1
  O  O18  1  0.248498  0.248498  0.248498  1
  O  O19  1  0.545552  0.953908  0.545552  1
  O  O20  1  0.714622  0.289852  0.289852  1
  O  O21  1  0.953908  0.545552  0.545552  1
