# generated using pymatgen
data_Re3BiO12
_symmetry_space_group_name_H-M   'P 1'
_cell_length_a   10.35973100
_cell_length_b   10.35973056
_cell_length_c   6.30218700
_cell_angle_alpha   90.00000000
_cell_angle_beta   90.00000000
_cell_angle_gamma   119.99999822
_symmetry_Int_Tables_number   1
_chemical_formula_structural   Re3BiO12
_chemical_formula_sum   'Re6 Bi2 O24'
_cell_volume   585.75885667
_cell_formula_units_Z   2
loop_
 _symmetry_equiv_pos_site_id
 _symmetry_equiv_pos_as_xyz
  1  'x, y, z'
loop_
 _atom_site_type_symbol
 _atom_site_label
 _atom_site_symmetry_multiplicity
 _atom_site_fract_x
 _atom_site_fract_y
 _atom_site_fract_z
 _atom_site_occupancy
  Re  Re0  1  0.090067  0.394678  0.750000  1
  Re  Re1  1  0.394678  0.304612  0.250000  1
  Re  Re2  1  0.605322  0.695388  0.750000  1
  Re  Re3  1  0.909933  0.605322  0.250000  1
  Re  Re4  1  0.304612  0.909933  0.750000  1
  Re  Re5  1  0.695388  0.090067  0.250000  1
  Bi  Bi6  1  0.666667  0.333333  0.750000  1
  Bi  Bi7  1  0.333333  0.666667  0.250000  1
  O  O8  1  0.490585  0.646124  0.522722  1
  O  O9  1  0.353876  0.844461  0.522722  1
  O  O10  1  0.843373  0.728396  0.250000  1
  O  O11  1  0.114977  0.843373  0.750000  1
  O  O12  1  0.271604  0.114977  0.250000  1
  O  O13  1  0.156627  0.271604  0.750000  1
  O  O14  1  0.509415  0.353876  0.022722  1
  O  O15  1  0.885023  0.156627  0.250000  1
  O  O16  1  0.105666  0.704012  0.250000  1
  O  O17  1  0.155539  0.509415  0.977278  1
  O  O18  1  0.155539  0.509415  0.522722  1
  O  O19  1  0.894334  0.295988  0.750000  1
  O  O20  1  0.295988  0.401654  0.250000  1
  O  O21  1  0.704012  0.598346  0.750000  1
  O  O22  1  0.844461  0.490585  0.477278  1
  O  O23  1  0.401654  0.105666  0.750000  1
  O  O24  1  0.646124  0.155539  0.022722  1
  O  O25  1  0.490585  0.646124  0.977278  1
  O  O26  1  0.353876  0.844461  0.977278  1
  O  O27  1  0.646124  0.155539  0.477278  1
  O  O28  1  0.509415  0.353876  0.477278  1
  O  O29  1  0.844461  0.490585  0.022722  1
  O  O30  1  0.728396  0.885023  0.750000  1
  O  O31  1  0.598346  0.894334  0.250000  1
