# generated using pymatgen
data_TbLu2MoO7
_symmetry_space_group_name_H-M   'P 1'
_cell_length_a   6.35667300
_cell_length_b   6.35667392
_cell_length_c   7.35352300
_cell_angle_alpha   90.00000000
_cell_angle_beta   90.00000000
_cell_angle_gamma   109.20996427
_symmetry_Int_Tables_number   1
_chemical_formula_structural   TbLu2MoO7
_chemical_formula_sum   'Tb2 Lu4 Mo2 O14'
_cell_volume   280.59121087
_cell_formula_units_Z   2
loop_
 _symmetry_equiv_pos_site_id
 _symmetry_equiv_pos_as_xyz
  1  'x, y, z'
loop_
 _atom_site_type_symbol
 _atom_site_label
 _atom_site_symmetry_multiplicity
 _atom_site_fract_x
 _atom_site_fract_y
 _atom_site_fract_z
 _atom_site_occupancy
  Tb  Tb0  1  0.500000  0.500000  0.500000  1
  Tb  Tb1  1  0.500000  0.500000  0.000000  1
  Lu  Lu2  1  0.534208  0.002034  0.750000  1
  Lu  Lu3  1  0.002034  0.534208  0.250000  1
  Lu  Lu4  1  0.465792  0.997966  0.250000  1
  Lu  Lu5  1  0.997966  0.465792  0.750000  1
  Mo  Mo6  1  0.000000  0.000000  0.500000  1
  Mo  Mo7  1  0.000000  0.000000  0.000000  1
  O  O8  1  0.674202  0.925195  0.468676  1
  O  O9  1  0.925195  0.674202  0.531324  1
  O  O10  1  0.674202  0.925195  0.031324  1
  O  O11  1  0.925195  0.674202  0.968676  1
  O  O12  1  0.325798  0.074805  0.531324  1
  O  O13  1  0.074805  0.325798  0.468676  1
  O  O14  1  0.325798  0.074805  0.968676  1
  O  O15  1  0.074805  0.325798  0.031324  1
  O  O16  1  0.922184  0.077816  0.750000  1
  O  O17  1  0.077816  0.922184  0.250000  1
  O  O18  1  0.363280  0.636720  0.750000  1
  O  O19  1  0.636720  0.363280  0.250000  1
  O  O20  1  0.640506  0.359494  0.750000  1
  O  O21  1  0.359494  0.640506  0.250000  1
