# generated using pymatgen
data_Zr5Cr3(Ni4P3)4
_symmetry_space_group_name_H-M   'P 1'
_cell_length_a   12.01790000
_cell_length_b   12.01789976
_cell_length_c   3.63825500
_cell_angle_alpha   90.00000000
_cell_angle_beta   90.00000000
_cell_angle_gamma   119.99999516
_symmetry_Int_Tables_number   1
_chemical_formula_structural   Zr5Cr3(Ni4P3)4
_chemical_formula_sum   'Zr5 Cr3 Ni16 P12'
_cell_volume   455.07287626
_cell_formula_units_Z   1
loop_
 _symmetry_equiv_pos_site_id
 _symmetry_equiv_pos_as_xyz
  1  'x, y, z'
loop_
 _atom_site_type_symbol
 _atom_site_label
 _atom_site_symmetry_multiplicity
 _atom_site_fract_x
 _atom_site_fract_y
 _atom_site_fract_z
 _atom_site_occupancy
  Zr  Zr0  1  0.666667  0.333333  0.000000  1
  Zr  Zr1  1  0.333333  0.666667  0.000000  1
  Zr  Zr2  1  0.819688  0.819688  0.500000  1
  Zr  Zr3  1  0.180312  0.000000  0.500000  1
  Zr  Zr4  1  0.000000  0.180312  0.500000  1
  Cr  Cr5  1  0.448089  0.448089  0.000000  1
  Cr  Cr6  1  0.551911  0.000000  0.000000  1
  Cr  Cr7  1  0.000000  0.551911  0.000000  1
  Ni  Ni8  1  0.193451  0.375653  0.000000  1
  Ni  Ni9  1  0.182202  0.806549  0.000000  1
  Ni  Ni10  1  0.817798  0.624347  0.000000  1
  Ni  Ni11  1  0.806549  0.182202  0.000000  1
  Ni  Ni12  1  0.375653  0.193451  0.000000  1
  Ni  Ni13  1  0.127230  0.481868  0.500000  1
  Ni  Ni14  1  0.354639  0.872770  0.500000  1
  Ni  Ni15  1  0.518132  0.645361  0.500000  1
  Ni  Ni16  1  0.645361  0.518132  0.500000  1
  Ni  Ni17  1  0.872770  0.354639  0.500000  1
  Ni  Ni18  1  0.481868  0.127230  0.500000  1
  Ni  Ni19  1  0.000000  0.000000  0.000000  1
  Ni  Ni20  1  0.719284  0.000000  0.500000  1
  Ni  Ni21  1  0.000000  0.719284  0.500000  1
  Ni  Ni22  1  0.624347  0.817798  0.000000  1
  Ni  Ni23  1  0.280716  0.280716  0.500000  1
  P  P24  1  0.638937  0.638937  0.000000  1
  P  P25  1  0.361063  0.000000  0.000000  1
  P  P26  1  0.000000  0.361063  0.000000  1
  P  P27  1  0.482792  0.319528  0.500000  1
  P  P28  1  0.680472  0.163263  0.500000  1
  P  P29  1  0.836737  0.517208  0.500000  1
  P  P30  1  0.517208  0.836737  0.500000  1
  P  P31  1  0.163263  0.680472  0.500000  1
  P  P32  1  0.822697  0.000000  0.000000  1
  P  P33  1  0.000000  0.822697  0.000000  1
  P  P34  1  0.319528  0.482792  0.500000  1
  P  P35  1  0.177303  0.177303  0.000000  1
