# generated using pymatgen
data_FeNi(OsO3)4
_symmetry_space_group_name_H-M   'P 1'
_cell_length_a   4.59801195
_cell_length_b   4.59801195
_cell_length_c   9.35156600
_cell_angle_alpha   90.00000000
_cell_angle_beta   90.00000000
_cell_angle_gamma   89.78691695
_symmetry_Int_Tables_number   1
_chemical_formula_structural   FeNi(OsO3)4
_chemical_formula_sum   'Fe1 Ni1 Os4 O12'
_cell_volume   197.70676552
_cell_formula_units_Z   1
loop_
 _symmetry_equiv_pos_site_id
 _symmetry_equiv_pos_as_xyz
  1  'x, y, z'
loop_
 _atom_site_type_symbol
 _atom_site_label
 _atom_site_symmetry_multiplicity
 _atom_site_fract_x
 _atom_site_fract_y
 _atom_site_fract_z
 _atom_site_occupancy
  Fe  Fe0  1  0.500000  0.500000  0.500000  1
  Ni  Ni1  1  0.000000  0.000000  0.000000  1
  Os  Os2  1  0.500000  0.500000  0.168628  1
  Os  Os3  1  0.000000  0.000000  0.669607  1
  Os  Os4  1  0.500000  0.500000  0.831372  1
  Os  Os5  1  0.000000  0.000000  0.330393  1
  O  O6  1  0.187292  0.812708  0.500000  1
  O  O7  1  0.812708  0.187292  0.500000  1
  O  O8  1  0.315393  0.315393  0.000000  1
  O  O9  1  0.684607  0.684607  0.000000  1
  O  O10  1  0.204090  0.795910  0.176769  1
  O  O11  1  0.795910  0.204090  0.176769  1
  O  O12  1  0.299798  0.299798  0.669680  1
  O  O13  1  0.700202  0.700202  0.669680  1
  O  O14  1  0.795910  0.204090  0.823231  1
  O  O15  1  0.204090  0.795910  0.823231  1
  O  O16  1  0.700202  0.700202  0.330320  1
  O  O17  1  0.299798  0.299798  0.330320  1
