# generated using pymatgen
data_LaNd3Y4(CdPd)2
_symmetry_space_group_name_H-M   'P 1'
_cell_length_a   9.89409068
_cell_length_b   9.89409158
_cell_length_c   9.86608400
_cell_angle_alpha   60.09359597
_cell_angle_beta   60.09359297
_cell_angle_gamma   60.20151086
_symmetry_Int_Tables_number   1
_chemical_formula_structural   LaNd3Y4(CdPd)2
_chemical_formula_sum   'La2 Nd6 Y8 Cd4 Pd4'
_cell_volume   684.94148223
_cell_formula_units_Z   2
loop_
 _symmetry_equiv_pos_site_id
 _symmetry_equiv_pos_as_xyz
  1  'x, y, z'
loop_
 _atom_site_type_symbol
 _atom_site_label
 _atom_site_symmetry_multiplicity
 _atom_site_fract_x
 _atom_site_fract_y
 _atom_site_fract_z
 _atom_site_occupancy
  La  La0  1  0.350851  0.350851  0.354182  1
  La  La1  1  0.350851  0.350851  0.944115  1
  Nd  Nd2  1  0.936894  0.563767  0.564660  1
  Nd  Nd3  1  0.563767  0.936894  0.934679  1
  Nd  Nd4  1  0.563767  0.936894  0.564660  1
  Nd  Nd5  1  0.936894  0.563767  0.934679  1
  Nd  Nd6  1  0.563806  0.563806  0.936194  1
  Nd  Nd7  1  0.937000  0.937000  0.563000  1
  Y  Y8  1  0.353585  0.937765  0.354325  1
  Y  Y9  1  0.937765  0.353585  0.354325  1
  Y  Y10  1  0.814551  0.187244  0.186424  1
  Y  Y11  1  0.187244  0.814551  0.811781  1
  Y  Y12  1  0.187244  0.814551  0.186424  1
  Y  Y13  1  0.814551  0.187244  0.811781  1
  Y  Y14  1  0.186227  0.186227  0.813773  1
  Y  Y15  1  0.811953  0.811953  0.188047  1
  Cd  Cd16  1  0.582880  0.582880  0.575686  1
  Cd  Cd17  1  0.582880  0.582880  0.258556  1
  Cd  Cd18  1  0.585142  0.258365  0.578247  1
  Cd  Cd19  1  0.258365  0.585142  0.578247  1
  Pd  Pd20  1  0.141116  0.141116  0.148608  1
  Pd  Pd21  1  0.141116  0.141116  0.569160  1
  Pd  Pd22  1  0.138772  0.572780  0.144224  1
  Pd  Pd23  1  0.572780  0.138772  0.144224  1
