# generated using pymatgen
data_Ho15ErIn4Pt3Rh
_symmetry_space_group_name_H-M   'P 1'
_cell_length_a   9.66296863
_cell_length_b   9.66389233
_cell_length_c   9.66296801
_cell_angle_alpha   60.06716476
_cell_angle_beta   60.06106634
_cell_angle_gamma   60.06716489
_symmetry_Int_Tables_number   1
_chemical_formula_structural   Ho15ErIn4Pt3Rh
_chemical_formula_sum   'Ho15 Er1 In4 Pt3 Rh1'
_cell_volume   638.99694458
_cell_formula_units_Z   1
loop_
 _symmetry_equiv_pos_site_id
 _symmetry_equiv_pos_as_xyz
  1  'x, y, z'
loop_
 _atom_site_type_symbol
 _atom_site_label
 _atom_site_symmetry_multiplicity
 _atom_site_fract_x
 _atom_site_fract_y
 _atom_site_fract_z
 _atom_site_occupancy
  Ho  Ho0  1  0.190381  0.190254  0.809045  1
  Ho  Ho1  1  0.438232  0.062068  0.062183  1
  Ho  Ho2  1  0.437319  0.063659  0.437319  1
  Ho  Ho3  1  0.062129  0.438293  0.062129  1
  Ho  Ho4  1  0.650430  0.051853  0.650430  1
  Ho  Ho5  1  0.186764  0.810557  0.810646  1
  Ho  Ho6  1  0.062183  0.062068  0.438232  1
  Ho  Ho7  1  0.809045  0.190254  0.190381  1
  Ho  Ho8  1  0.810646  0.810557  0.186764  1
  Ho  Ho9  1  0.650321  0.650492  0.051902  1
  Ho  Ho10  1  0.649224  0.649263  0.649224  1
  Ho  Ho11  1  0.063714  0.437394  0.437248  1
  Ho  Ho12  1  0.051902  0.650492  0.650321  1
  Ho  Ho13  1  0.810586  0.186705  0.810586  1
  Ho  Ho14  1  0.437248  0.437394  0.063714  1
  Er  Er15  1  0.190316  0.809007  0.190316  1
  In  In16  1  0.416755  0.749272  0.416755  1
  In  In17  1  0.416770  0.416797  0.749257  1
  In  In18  1  0.749257  0.416797  0.416770  1
  In  In19  1  0.416237  0.416316  0.416237  1
  Pt  Pt20  1  0.857577  0.427979  0.857577  1
  Pt  Pt21  1  0.857913  0.857562  0.427690  1
  Pt  Pt22  1  0.427690  0.857562  0.857913  1
  Rh  Rh23  1  0.857365  0.857408  0.857365  1
