# generated using pymatgen
data_PrNdSi3GeRh6
_symmetry_space_group_name_H-M   'P 1'
_cell_length_a   6.73270009
_cell_length_b   6.73185356
_cell_length_c   6.73269955
_cell_angle_alpha   130.35658433
_cell_angle_beta   114.48342647
_cell_angle_gamma   86.45117785
_symmetry_Int_Tables_number   1
_chemical_formula_structural   PrNdSi3GeRh6
_chemical_formula_sum   'Pr1 Nd1 Si3 Ge1 Rh6'
_cell_volume   202.02841513
_cell_formula_units_Z   1
loop_
 _symmetry_equiv_pos_site_id
 _symmetry_equiv_pos_as_xyz
  1  'x, y, z'
loop_
 _atom_site_type_symbol
 _atom_site_label
 _atom_site_symmetry_multiplicity
 _atom_site_fract_x
 _atom_site_fract_y
 _atom_site_fract_z
 _atom_site_occupancy
  Pr  Pr0  1  0.750463  0.040907  0.290443  1
  Nd  Nd1  1  0.249838  0.969312  0.719475  1
  Si  Si2  1  0.428007  0.629850  0.201844  1
  Si  Si3  1  0.072707  0.271414  0.198706  1
  Si  Si4  1  0.913960  0.711272  0.797313  1
  Ge  Ge5  1  0.586052  0.385566  0.799514  1
  Rh  Rh6  1  0.213167  0.503024  0.715856  1
  Rh  Rh7  1  0.721386  0.996915  0.722001  1
  Rh  Rh8  1  0.787168  0.503024  0.289857  1
  Rh  Rh9  1  0.274913  0.996915  0.275528  1
  Rh  Rh10  1  0.482689  0.495899  0.476249  1
  Rh  Rh11  1  0.019650  0.495899  0.013212  1
