# generated using pymatgen
data_Tb3Er(CCl)2
_symmetry_space_group_name_H-M   'P 1'
_cell_length_a   3.64559800
_cell_length_b   3.64562970
_cell_length_c   13.63734402
_cell_angle_alpha   89.99992377
_cell_angle_beta   89.99861645
_cell_angle_gamma   119.99935355
_symmetry_Int_Tables_number   1
_chemical_formula_structural   Tb3Er(CCl)2
_chemical_formula_sum   'Tb3 Er1 C2 Cl2'
_cell_volume   156.96563764
_cell_formula_units_Z   1
loop_
 _symmetry_equiv_pos_site_id
 _symmetry_equiv_pos_as_xyz
  1  'x, y, z'
loop_
 _atom_site_type_symbol
 _atom_site_label
 _atom_site_symmetry_multiplicity
 _atom_site_fract_x
 _atom_site_fract_y
 _atom_site_fract_z
 _atom_site_occupancy
  Tb  Tb0  1  0.666652  0.333389  0.594700  1
  Tb  Tb1  1  0.666702  0.333278  0.906824  1
  Tb  Tb2  1  0.333327  0.666770  0.404782  1
  Er  Er3  1  0.333326  0.666537  0.093519  1
  C  C4  1  0.000011  0.999931  0.003505  1
  C  C5  1  0.999994  0.000091  0.499483  1
  Cl  Cl6  1  0.333350  0.666705  0.751351  1
  Cl  Cl7  1  0.666640  0.333299  0.245836  1
