# generated using pymatgen
data_Sm2Ga5Ni2Pd
_symmetry_space_group_name_H-M   'P 1'
_cell_length_a   8.46719576
_cell_length_b   8.46719660
_cell_length_c   8.46719648
_cell_angle_alpha   140.16912824
_cell_angle_beta   107.91706048
_cell_angle_gamma   85.66554117
_symmetry_Int_Tables_number   1
_chemical_formula_structural   Sm2Ga5Ni2Pd
_chemical_formula_sum   'Sm4 Ga10 Ni4 Pd2'
_cell_volume   356.88020507
_cell_formula_units_Z   2
loop_
 _symmetry_equiv_pos_site_id
 _symmetry_equiv_pos_as_xyz
  1  'x, y, z'
loop_
 _atom_site_type_symbol
 _atom_site_label
 _atom_site_symmetry_multiplicity
 _atom_site_fract_x
 _atom_site_fract_y
 _atom_site_fract_z
 _atom_site_occupancy
  Sm  Sm0  1  0.636937  0.861622  0.775315  1
  Sm  Sm1  1  0.363063  0.138378  0.224685  1
  Sm  Sm2  1  0.086307  0.361622  0.724685  1
  Sm  Sm3  1  0.913693  0.638378  0.275315  1
  Ga  Ga4  1  0.282405  0.032405  0.750000  1
  Ga  Ga5  1  0.717595  0.967595  0.250000  1
  Ga  Ga6  1  0.717595  0.467595  0.750000  1
  Ga  Ga7  1  0.282405  0.532405  0.250000  1
  Ga  Ga8  1  0.425042  0.599239  0.825803  1
  Ga  Ga9  1  0.574958  0.400761  0.174197  1
  Ga  Ga10  1  0.773436  0.099239  0.674197  1
  Ga  Ga11  1  0.226564  0.900761  0.325803  1
  Ga  Ga12  1  0.000000  0.750000  0.750000  1
  Ga  Ga13  1  0.000000  0.250000  0.250000  1
  Ni  Ni14  1  0.233753  0.641386  0.592368  1
  Ni  Ni15  1  0.766247  0.358614  0.407632  1
  Ni  Ni16  1  0.049018  0.141386  0.907632  1
  Ni  Ni17  1  0.950982  0.858614  0.092368  1
  Pd  Pd18  1  0.500000  0.750000  0.250000  1
  Pd  Pd19  1  0.500000  0.250000  0.750000  1
