# generated using pymatgen
data_Ho4HgPt
_symmetry_space_group_name_H-M   'P 1'
_cell_length_a   9.60373210
_cell_length_b   9.60373264
_cell_length_c   9.60373200
_cell_angle_alpha   60.00000222
_cell_angle_beta   60.00000035
_cell_angle_gamma   60.00000012
_symmetry_Int_Tables_number   1
_chemical_formula_structural   Ho4HgPt
_chemical_formula_sum   'Ho16 Hg4 Pt4'
_cell_volume   626.33277947
_cell_formula_units_Z   4
loop_
 _symmetry_equiv_pos_site_id
 _symmetry_equiv_pos_as_xyz
  1  'x, y, z'
loop_
 _atom_site_type_symbol
 _atom_site_label
 _atom_site_symmetry_multiplicity
 _atom_site_fract_x
 _atom_site_fract_y
 _atom_site_fract_z
 _atom_site_occupancy
  Ho  Ho0  1  0.604296  0.604296  0.604296  1
  Ho  Ho1  1  0.604296  0.604296  0.187111  1
  Ho  Ho2  1  0.604296  0.187111  0.604296  1
  Ho  Ho3  1  0.187111  0.604296  0.604296  1
  Ho  Ho4  1  0.059735  0.440265  0.440265  1
  Ho  Ho5  1  0.440265  0.059735  0.059735  1
  Ho  Ho6  1  0.440265  0.059735  0.440265  1
  Ho  Ho7  1  0.059735  0.440265  0.059735  1
  Ho  Ho8  1  0.440265  0.440265  0.059735  1
  Ho  Ho9  1  0.059735  0.059735  0.440265  1
  Ho  Ho10  1  0.185998  0.814002  0.814002  1
  Ho  Ho11  1  0.814002  0.185998  0.185998  1
  Ho  Ho12  1  0.814002  0.185998  0.814002  1
  Ho  Ho13  1  0.185998  0.814002  0.185998  1
  Ho  Ho14  1  0.814002  0.814002  0.185998  1
  Ho  Ho15  1  0.185998  0.185998  0.814002  1
  Hg  Hg16  1  0.835925  0.835925  0.835925  1
  Hg  Hg17  1  0.835925  0.835925  0.492226  1
  Hg  Hg18  1  0.835925  0.492226  0.835925  1
  Hg  Hg19  1  0.492226  0.835925  0.835925  1
  Pt  Pt20  1  0.393867  0.393867  0.393867  1
  Pt  Pt21  1  0.393867  0.393867  0.818397  1
  Pt  Pt22  1  0.393867  0.818397  0.393867  1
  Pt  Pt23  1  0.818397  0.393867  0.393867  1
