# generated using pymatgen
data_CaLa2Si4(GePd10)2
_symmetry_space_group_name_H-M   'P 1'
_cell_length_a   8.84429795
_cell_length_b   8.84429805
_cell_length_c   8.80178300
_cell_angle_alpha   60.15888547
_cell_angle_beta   60.15888510
_cell_angle_gamma   59.68222457
_symmetry_Int_Tables_number   1
_chemical_formula_structural   CaLa2Si4(GePd10)2
_chemical_formula_sum   'Ca1 La2 Si4 Ge2 Pd20'
_cell_volume   486.81326440
_cell_formula_units_Z   1
loop_
 _symmetry_equiv_pos_site_id
 _symmetry_equiv_pos_as_xyz
  1  'x, y, z'
loop_
 _atom_site_type_symbol
 _atom_site_label
 _atom_site_symmetry_multiplicity
 _atom_site_fract_x
 _atom_site_fract_y
 _atom_site_fract_z
 _atom_site_occupancy
  Ca  Ca0  1  0.000000  0.000000  0.000000  1
  La  La1  1  0.750000  0.750000  0.750000  1
  La  La2  1  0.250000  0.250000  0.250000  1
  Si  Si3  1  0.734197  0.265803  0.734197  1
  Si  Si4  1  0.265803  0.734197  0.265803  1
  Si  Si5  1  0.265803  0.734197  0.734197  1
  Si  Si6  1  0.734197  0.265803  0.265803  1
  Ge  Ge7  1  0.734416  0.734416  0.265584  1
  Ge  Ge8  1  0.265584  0.265584  0.734416  1
  Pd  Pd9  1  0.612767  0.612767  0.620353  1
  Pd  Pd10  1  0.387233  0.387233  0.379647  1
  Pd  Pd11  1  0.154113  0.620353  0.612767  1
  Pd  Pd12  1  0.620353  0.154113  0.612767  1
  Pd  Pd13  1  0.845887  0.379647  0.387233  1
  Pd  Pd14  1  0.379647  0.845887  0.387233  1
  Pd  Pd15  1  0.612767  0.612767  0.154113  1
  Pd  Pd16  1  0.387233  0.387233  0.845887  1
  Pd  Pd17  1  0.000000  0.000000  0.654033  1
  Pd  Pd18  1  0.000000  0.000000  0.345967  1
  Pd  Pd19  1  0.345967  0.654033  0.000000  1
  Pd  Pd20  1  0.654033  0.345967  0.000000  1
  Pd  Pd21  1  0.006773  0.652672  0.993227  1
  Pd  Pd22  1  0.652672  0.006773  0.347328  1
  Pd  Pd23  1  0.993227  0.347328  0.006773  1
  Pd  Pd24  1  0.347328  0.993227  0.652672  1
  Pd  Pd25  1  0.652672  0.006773  0.993227  1
  Pd  Pd26  1  0.347328  0.993227  0.006773  1
  Pd  Pd27  1  0.006773  0.652672  0.347328  1
  Pd  Pd28  1  0.993227  0.347328  0.652672  1
