# generated using pymatgen
data_La17Er3Si15Ir
_symmetry_space_group_name_H-M   'P 1'
_cell_length_a   7.90674528
_cell_length_b   7.86992854
_cell_length_c   15.20468500
_cell_angle_alpha   90.07179148
_cell_angle_beta   89.84141864
_cell_angle_gamma   90.24074830
_symmetry_Int_Tables_number   1
_chemical_formula_structural   La17Er3Si15Ir
_chemical_formula_sum   'La17 Er3 Si15 Ir1'
_cell_volume   946.10673104
_cell_formula_units_Z   1
loop_
 _symmetry_equiv_pos_site_id
 _symmetry_equiv_pos_as_xyz
  1  'x, y, z'
loop_
 _atom_site_type_symbol
 _atom_site_label
 _atom_site_symmetry_multiplicity
 _atom_site_fract_x
 _atom_site_fract_y
 _atom_site_fract_z
 _atom_site_occupancy
  La  La0  1  0.704320  0.689821  0.498907  1
  La  La1  1  0.373063  0.012300  0.448902  1
  La  La2  1  0.486935  0.875018  0.700526  1
  La  La3  1  0.513047  0.124755  0.198215  1
  La  La4  1  0.875661  0.482954  0.299172  1
  La  La5  1  0.126772  0.504619  0.797626  1
  La  La6  1  0.627156  0.985275  0.949548  1
  La  La7  1  0.004303  0.376658  0.552695  1
  La  La8  1  0.985749  0.627409  0.050562  1
  La  La9  1  0.135779  0.983285  0.872881  1
  La  La10  1  0.521155  0.629687  0.126312  1
  La  La11  1  0.468305  0.364889  0.631083  1
  La  La12  1  0.627302  0.520324  0.873468  1
  La  La13  1  0.373074  0.477544  0.371573  1
  La  La14  1  0.872873  0.023937  0.378281  1
  La  La15  1  0.977221  0.126117  0.122192  1
  La  La16  1  0.030924  0.887528  0.625637  1
  Er  Er17  1  0.309136  0.307901  0.999387  1
  Er  Er18  1  0.188184  0.809179  0.250352  1
  Er  Er19  1  0.816775  0.190025  0.750835  1
  Si  Si20  1  0.328534  0.689372  0.954947  1
  Si  Si21  1  0.662227  0.303348  0.456705  1
  Si  Si22  1  0.691771  0.330300  0.044670  1
  Si  Si23  1  0.307192  0.669646  0.544616  1
  Si  Si24  1  0.810447  0.828297  0.207065  1
  Si  Si25  1  0.170188  0.189269  0.292164  1
  Si  Si26  1  0.831872  0.807776  0.795648  1
  Si  Si27  1  0.286416  0.923142  0.062599  1
  Si  Si28  1  0.573099  0.789010  0.309656  1
  Si  Si29  1  0.432298  0.207729  0.816394  1
  Si  Si30  1  0.784204  0.578497  0.690570  1
  Si  Si31  1  0.211868  0.422997  0.184813  1
  Si  Si32  1  0.704166  0.077995  0.565071  1
  Si  Si33  1  0.921632  0.286125  0.937494  1
  Si  Si34  1  0.087315  0.718012  0.435544  1
  Ir  Ir35  1  0.179038  0.179263  0.703892  1
