# generated using pymatgen
data_CeY3ZrIr3
_symmetry_space_group_name_H-M   'P 1'
_cell_length_a   10.91341300
_cell_length_b   10.97115600
_cell_length_c   6.25142100
_cell_angle_alpha   90.00000000
_cell_angle_beta   90.00000000
_cell_angle_gamma   90.00000000
_symmetry_Int_Tables_number   1
_chemical_formula_structural   CeY3ZrIr3
_chemical_formula_sum   'Ce4 Y12 Zr4 Ir12'
_cell_volume   748.49986847
_cell_formula_units_Z   4
loop_
 _symmetry_equiv_pos_site_id
 _symmetry_equiv_pos_as_xyz
  1  'x, y, z'
loop_
 _atom_site_type_symbol
 _atom_site_label
 _atom_site_symmetry_multiplicity
 _atom_site_fract_x
 _atom_site_fract_y
 _atom_site_fract_z
 _atom_site_occupancy
  Ce  Ce0  1  0.293819  0.088674  0.376675  1
  Ce  Ce1  1  0.293819  0.911326  0.876675  1
  Ce  Ce2  1  0.706181  0.088674  0.876675  1
  Ce  Ce3  1  0.706181  0.911326  0.376675  1
  Y  Y4  1  0.587151  0.783141  0.873743  1
  Y  Y5  1  0.587151  0.216859  0.373743  1
  Y  Y6  1  0.412849  0.783141  0.373743  1
  Y  Y7  1  0.412849  0.216859  0.873743  1
  Y  Y8  1  0.208679  0.414400  0.627202  1
  Y  Y9  1  0.208679  0.585600  0.127202  1
  Y  Y10  1  0.791321  0.414400  0.127202  1
  Y  Y11  1  0.791321  0.585600  0.627202  1
  Y  Y12  1  0.913476  0.711799  0.124010  1
  Y  Y13  1  0.913476  0.288201  0.624010  1
  Y  Y14  1  0.086524  0.711799  0.624010  1
  Y  Y15  1  0.086524  0.288201  0.124010  1
  Zr  Zr16  1  0.000000  0.000000  0.494907  1
  Zr  Zr17  1  0.000000  0.000000  0.994907  1
  Zr  Zr18  1  0.500000  0.500000  0.008395  1
  Zr  Zr19  1  0.500000  0.500000  0.508395  1
  Ir  Ir20  1  0.851993  0.142052  0.241903  1
  Ir  Ir21  1  0.851993  0.857948  0.741903  1
  Ir  Ir22  1  0.148007  0.142052  0.741903  1
  Ir  Ir23  1  0.148007  0.857948  0.241903  1
  Ir  Ir24  1  0.644594  0.355588  0.756199  1
  Ir  Ir25  1  0.644594  0.644412  0.256199  1
  Ir  Ir26  1  0.355406  0.355588  0.256199  1
  Ir  Ir27  1  0.355406  0.644412  0.756199  1
  Ir  Ir28  1  0.500000  0.000000  0.115024  1
  Ir  Ir29  1  0.500000  0.000000  0.615024  1
  Ir  Ir30  1  0.000000  0.500000  0.882211  1
  Ir  Ir31  1  0.000000  0.500000  0.382211  1
