# generated using pymatgen
data_ErPa3(SnPd2)2
_symmetry_space_group_name_H-M   'P 1'
_cell_length_a   7.75263580
_cell_length_b   7.75263643
_cell_length_c   3.69934600
_cell_angle_alpha   90.00000000
_cell_angle_beta   90.00000000
_cell_angle_gamma   89.74288576
_symmetry_Int_Tables_number   1
_chemical_formula_structural   ErPa3(SnPd2)2
_chemical_formula_sum   'Er1 Pa3 Sn2 Pd4'
_cell_volume   222.34091039
_cell_formula_units_Z   1
loop_
 _symmetry_equiv_pos_site_id
 _symmetry_equiv_pos_as_xyz
  1  'x, y, z'
loop_
 _atom_site_type_symbol
 _atom_site_label
 _atom_site_symmetry_multiplicity
 _atom_site_fract_x
 _atom_site_fract_y
 _atom_site_fract_z
 _atom_site_occupancy
  Er  Er0  1  0.675577  0.175577  0.500000  1
  Pa  Pa1  1  0.327176  0.827176  0.500000  1
  Pa  Pa2  1  0.824331  0.674575  0.500000  1
  Pa  Pa3  1  0.174575  0.324331  0.500000  1
  Sn  Sn4  1  0.993037  0.003738  0.000000  1
  Sn  Sn5  1  0.503738  0.493037  0.000000  1
  Pd  Pd6  1  0.365888  0.124311  0.000000  1
  Pd  Pd7  1  0.879498  0.379498  0.000000  1
  Pd  Pd8  1  0.131868  0.631868  0.000000  1
  Pd  Pd9  1  0.624311  0.865888  0.000000  1
