# generated using pymatgen
data_Dy3Er9InCo5
_symmetry_space_group_name_H-M   'P 1'
_cell_length_a   8.21680592
_cell_length_b   8.21680575
_cell_length_c   8.21573090
_cell_angle_alpha   106.79049065
_cell_angle_beta   110.61994313
_cell_angle_gamma   111.04146842
_symmetry_Int_Tables_number   1
_chemical_formula_structural   Dy3Er9InCo5
_chemical_formula_sum   'Dy3 Er9 In1 Co5'
_cell_volume   426.27170957
_cell_formula_units_Z   1
loop_
 _symmetry_equiv_pos_site_id
 _symmetry_equiv_pos_as_xyz
  1  'x, y, z'
loop_
 _atom_site_type_symbol
 _atom_site_label
 _atom_site_symmetry_multiplicity
 _atom_site_fract_x
 _atom_site_fract_y
 _atom_site_fract_z
 _atom_site_occupancy
  Dy  Dy0  1  0.807687  0.789967  0.597654  1
  Dy  Dy1  1  0.192833  0.789582  0.982413  1
  Dy  Dy2  1  0.808148  0.209955  0.018104  1
  Er  Er3  1  0.476112  0.291202  0.185448  1
  Er  Er4  1  0.106412  0.291952  0.814001  1
  Er  Er5  1  0.894246  0.709336  0.185448  1
  Er  Er6  1  0.522049  0.707589  0.814001  1
  Er  Er7  1  0.305238  0.619425  0.315094  1
  Er  Er8  1  0.304887  0.990394  0.684697  1
  Er  Er9  1  0.694304  0.379811  0.684697  1
  Er  Er10  1  0.695668  0.009854  0.315094  1
  Er  Er11  1  0.193137  0.210937  0.404073  1
  In  In12  1  0.000997  0.499962  0.500959  1
  Co  Co13  1  0.499901  0.612448  0.112349  1
  Co  Co14  1  0.498811  0.386928  0.885739  1
  Co  Co15  1  0.377194  0.000183  0.377378  1
  Co  Co16  1  0.620573  0.999711  0.620284  1
  Co  Co17  1  0.001804  0.000762  0.002566  1
