# generated using pymatgen
data_Rb8Tm6GeI20
_symmetry_space_group_name_H-M   'P 1'
_cell_length_a   13.07890655
_cell_length_b   13.07924018
_cell_length_c   13.07893900
_cell_angle_alpha   60.01464914
_cell_angle_beta   60.01486428
_cell_angle_gamma   60.01581427
_symmetry_Int_Tables_number   1
_chemical_formula_structural   Rb8Tm6GeI20
_chemical_formula_sum   'Rb8 Tm6 Ge1 I20'
_cell_volume   1582.56006392
_cell_formula_units_Z   1
loop_
 _symmetry_equiv_pos_site_id
 _symmetry_equiv_pos_as_xyz
  1  'x, y, z'
loop_
 _atom_site_type_symbol
 _atom_site_label
 _atom_site_symmetry_multiplicity
 _atom_site_fract_x
 _atom_site_fract_y
 _atom_site_fract_z
 _atom_site_occupancy
  Rb  Rb0  1  0.359031  0.359031  0.359033  1
  Rb  Rb1  1  0.640969  0.640969  0.640967  1
  Rb  Rb2  1  0.359020  0.359032  0.922926  1
  Rb  Rb3  1  0.359030  0.922919  0.359031  1
  Rb  Rb4  1  0.640980  0.640968  0.077074  1
  Rb  Rb5  1  0.640970  0.077081  0.640969  1
  Rb  Rb6  1  0.922921  0.359027  0.359024  1
  Rb  Rb7  1  0.077079  0.640973  0.640976  1
  Tm  Tm8  1  0.847891  0.152093  0.152081  1
  Tm  Tm9  1  0.152109  0.847907  0.847919  1
  Tm  Tm10  1  0.152091  0.847884  0.152090  1
  Tm  Tm11  1  0.847909  0.152116  0.847910  1
  Tm  Tm12  1  0.152085  0.152092  0.847891  1
  Tm  Tm13  1  0.847915  0.847908  0.152109  1
  Ge  Ge14  1  0.000000  0.000000  0.000000  1
  I  I15  1  0.330472  0.000006  0.000005  1
  I  I16  1  0.669528  0.999994  0.999995  1
  I  I17  1  0.999999  0.330485  0.669516  1
  I  I18  1  0.000001  0.669515  0.330484  1
  I  I19  1  0.000006  0.330476  0.000004  1
  I  I20  1  0.669515  0.999998  0.330485  1
  I  I21  1  0.999994  0.669524  0.999996  1
  I  I22  1  0.330485  0.000002  0.669515  1
  I  I23  1  0.000009  0.000003  0.330471  1
  I  I24  1  0.999991  0.999997  0.669529  1
  I  I25  1  0.669517  0.330484  0.999997  1
  I  I26  1  0.330483  0.669516  0.000003  1
  I  I27  1  0.680789  0.319217  0.319216  1
  I  I28  1  0.319211  0.680783  0.680784  1
  I  I29  1  0.319217  0.680789  0.319217  1
  I  I30  1  0.680783  0.319211  0.680783  1
  I  I31  1  0.319219  0.319218  0.680788  1
  I  I32  1  0.680781  0.680782  0.319212  1
  I  I33  1  0.249996  0.249994  0.249996  1
  I  I34  1  0.750004  0.750006  0.750004  1
