# generated using pymatgen
data_Nd3YIn4
_symmetry_space_group_name_H-M   'P 1'
_cell_length_a   6.65947262
_cell_length_b   6.65947310
_cell_length_c   11.03522100
_cell_angle_alpha   90.00000000
_cell_angle_beta   90.00000000
_cell_angle_gamma   110.42823637
_symmetry_Int_Tables_number   1
_chemical_formula_structural   Nd3YIn4
_chemical_formula_sum   'Nd6 Y2 In8'
_cell_volume   458.61827563
_cell_formula_units_Z   2
loop_
 _symmetry_equiv_pos_site_id
 _symmetry_equiv_pos_as_xyz
  1  'x, y, z'
loop_
 _atom_site_type_symbol
 _atom_site_label
 _atom_site_symmetry_multiplicity
 _atom_site_fract_x
 _atom_site_fract_y
 _atom_site_fract_z
 _atom_site_occupancy
  Nd  Nd0  1  0.501648  0.501648  0.250000  1
  Nd  Nd1  1  0.498352  0.498352  0.750000  1
  Nd  Nd2  1  0.249211  0.750789  0.500000  1
  Nd  Nd3  1  0.249211  0.750789  0.000000  1
  Nd  Nd4  1  0.750789  0.249211  0.500000  1
  Nd  Nd5  1  0.750789  0.249211  0.000000  1
  Y  Y6  1  0.997255  0.997255  0.250000  1
  Y  Y7  1  0.002745  0.002745  0.750000  1
  In  In8  1  0.243956  0.243956  0.001423  1
  In  In9  1  0.756044  0.756044  0.998577  1
  In  In10  1  0.243956  0.243956  0.498577  1
  In  In11  1  0.756044  0.756044  0.501423  1
  In  In12  1  0.498007  0.000685  0.250000  1
  In  In13  1  0.999315  0.501993  0.750000  1
  In  In14  1  0.501993  0.999315  0.750000  1
  In  In15  1  0.000685  0.498007  0.250000  1
