# generated using pymatgen
data_CeHoPt2Pb
_symmetry_space_group_name_H-M   'P 1'
_cell_length_a   7.97973100
_cell_length_b   7.97973100
_cell_length_c   7.26945200
_cell_angle_alpha   90.00000000
_cell_angle_beta   90.00000000
_cell_angle_gamma   90.00000000
_symmetry_Int_Tables_number   1
_chemical_formula_structural   CeHoPt2Pb
_chemical_formula_sum   'Ce4 Ho4 Pt8 Pb4'
_cell_volume   462.89040216
_cell_formula_units_Z   4
loop_
 _symmetry_equiv_pos_site_id
 _symmetry_equiv_pos_as_xyz
  1  'x, y, z'
loop_
 _atom_site_type_symbol
 _atom_site_label
 _atom_site_symmetry_multiplicity
 _atom_site_fract_x
 _atom_site_fract_y
 _atom_site_fract_z
 _atom_site_occupancy
  Ce  Ce0  1  0.675799  0.675799  0.000000  1
  Ce  Ce1  1  0.824201  0.175799  0.500000  1
  Ce  Ce2  1  0.324201  0.324201  0.000000  1
  Ce  Ce3  1  0.175799  0.824201  0.500000  1
  Ho  Ho4  1  0.338961  0.338961  0.500000  1
  Ho  Ho5  1  0.661039  0.661039  0.500000  1
  Ho  Ho6  1  0.838961  0.161039  0.000000  1
  Ho  Ho7  1  0.161039  0.838961  0.000000  1
  Pt  Pt8  1  0.871686  0.871686  0.736722  1
  Pt  Pt9  1  0.128314  0.128314  0.736722  1
  Pt  Pt10  1  0.628314  0.371686  0.763278  1
  Pt  Pt11  1  0.628314  0.371686  0.236722  1
  Pt  Pt12  1  0.371686  0.628314  0.236722  1
  Pt  Pt13  1  0.128314  0.128314  0.263278  1
  Pt  Pt14  1  0.871686  0.871686  0.263278  1
  Pt  Pt15  1  0.371686  0.628314  0.763278  1
  Pb  Pb16  1  0.500000  0.000000  0.750000  1
  Pb  Pb17  1  0.500000  0.000000  0.250000  1
  Pb  Pb18  1  0.000000  0.500000  0.750000  1
  Pb  Pb19  1  0.000000  0.500000  0.250000  1
