# generated using pymatgen
data_Mn6GaCo12Si5
_symmetry_space_group_name_H-M   'P 1'
_cell_length_a   3.99169900
_cell_length_b   5.65303000
_cell_length_c   11.97024101
_cell_angle_alpha   90.00238779
_cell_angle_beta   89.99765033
_cell_angle_gamma   89.99651993
_symmetry_Int_Tables_number   1
_chemical_formula_structural   Mn6GaCo12Si5
_chemical_formula_sum   'Mn6 Ga1 Co12 Si5'
_cell_volume   270.11081228
_cell_formula_units_Z   1
loop_
 _symmetry_equiv_pos_site_id
 _symmetry_equiv_pos_as_xyz
  1  'x, y, z'
loop_
 _atom_site_type_symbol
 _atom_site_label
 _atom_site_symmetry_multiplicity
 _atom_site_fract_x
 _atom_site_fract_y
 _atom_site_fract_z
 _atom_site_occupancy
  Mn  Mn0  1  0.999975  0.499960  0.000049  1
  Mn  Mn1  1  0.499934  0.999989  0.165818  1
  Mn  Mn2  1  0.999919  0.499957  0.335119  1
  Mn  Mn3  1  0.499990  0.999985  0.499988  1
  Mn  Mn4  1  0.000086  0.500084  0.664829  1
  Mn  Mn5  1  0.500070  0.000039  0.834176  1
  Ga  Ga6  1  0.000007  0.999987  0.000014  1
  Co  Co7  1  0.500026  0.260379  0.000001  1
  Co  Co8  1  0.499984  0.739605  0.000030  1
  Co  Co9  1  0.999898  0.255185  0.170716  1
  Co  Co10  1  0.999902  0.744839  0.170697  1
  Co  Co11  1  0.499902  0.249981  0.334025  1
  Co  Co12  1  0.499923  0.750009  0.334008  1
  Co  Co13  1  0.000003  0.248983  0.499985  1
  Co  Co14  1  0.000002  0.751015  0.500003  1
  Co  Co15  1  0.500078  0.249967  0.665960  1
  Co  Co16  1  0.500085  0.750043  0.665972  1
  Co  Co17  1  0.000082  0.255180  0.829304  1
  Co  Co18  1  0.000111  0.744806  0.829283  1
  Si  Si19  1  0.499913  0.500017  0.167310  1
  Si  Si20  1  0.999937  0.999966  0.333228  1
  Si  Si21  1  0.499986  0.500011  0.499996  1
  Si  Si22  1  0.000081  0.999997  0.666781  1
  Si  Si23  1  0.500100  0.500016  0.832710  1
