# generated using pymatgen
data_SrCa5(C3Cl2)2
_symmetry_space_group_name_H-M   'P 1'
_cell_length_a   7.11687515
_cell_length_b   7.11687538
_cell_length_c   11.55605300
_cell_angle_alpha   90.00000000
_cell_angle_beta   90.00000000
_cell_angle_gamma   148.04426037
_symmetry_Int_Tables_number   1
_chemical_formula_structural   SrCa5(C3Cl2)2
_chemical_formula_sum   'Sr1 Ca5 C6 Cl4'
_cell_volume   309.78514382
_cell_formula_units_Z   1
loop_
 _symmetry_equiv_pos_site_id
 _symmetry_equiv_pos_as_xyz
  1  'x, y, z'
loop_
 _atom_site_type_symbol
 _atom_site_label
 _atom_site_symmetry_multiplicity
 _atom_site_fract_x
 _atom_site_fract_y
 _atom_site_fract_z
 _atom_site_occupancy
  Sr  Sr0  1  0.115861  0.884139  0.250000  1
  Ca  Ca1  1  0.658566  0.341434  0.560943  1
  Ca  Ca2  1  0.342430  0.657570  0.440332  1
  Ca  Ca3  1  0.342430  0.657570  0.059668  1
  Ca  Ca4  1  0.658566  0.341434  0.939057  1
  Ca  Ca5  1  0.878335  0.121665  0.750000  1
  C  C6  1  0.267007  0.732993  0.634970  1
  C  C7  1  0.736696  0.263304  0.365049  1
  C  C8  1  0.736696  0.263304  0.134951  1
  C  C9  1  0.267007  0.732993  0.865030  1
  C  C10  1  0.746219  0.253781  0.250000  1
  C  C11  1  0.258343  0.741657  0.750000  1
  Cl  Cl12  1  0.527833  0.472167  0.750000  1
  Cl  Cl13  1  0.461206  0.538794  0.250000  1
  Cl  Cl14  1  0.001403  0.998597  0.999775  1
  Cl  Cl15  1  0.001403  0.998597  0.500225  1
