# generated using pymatgen
data_V3Si(BW)2
_symmetry_space_group_name_H-M   'P 1'
_cell_length_a   6.86482297
_cell_length_b   6.88599174
_cell_length_c   6.86714162
_cell_angle_alpha   129.29715586
_cell_angle_beta   129.19450367
_cell_angle_gamma   74.97409143
_symmetry_Int_Tables_number   1
_chemical_formula_structural   V3Si(BW)2
_chemical_formula_sum   'V6 Si2 B4 W4'
_cell_volume   189.23492592
_cell_formula_units_Z   2
loop_
 _symmetry_equiv_pos_site_id
 _symmetry_equiv_pos_as_xyz
  1  'x, y, z'
loop_
 _atom_site_type_symbol
 _atom_site_label
 _atom_site_symmetry_multiplicity
 _atom_site_fract_x
 _atom_site_fract_y
 _atom_site_fract_z
 _atom_site_occupancy
  V  V0  1  0.192997  0.030894  0.497906  1
  V  V1  1  0.471352  0.304447  0.499717  1
  V  V2  1  0.803252  0.971684  0.499541  1
  V  V3  1  0.305744  0.803128  0.835523  1
  V  V4  1  0.004440  0.001627  0.002792  1
  V  V5  1  0.499360  0.501540  0.997688  1
  Si  Si6  1  0.245228  0.234523  0.987731  1
  Si  Si7  1  0.746026  0.750323  0.004533  1
  B  B8  1  0.614999  0.118998  0.731182  1
  B  B9  1  0.128002  0.378385  0.503845  1
  B  B10  1  0.880291  0.628314  0.503791  1
  B  B11  1  0.384301  0.888115  0.267621  1
  W  W12  1  0.525674  0.692629  0.498228  1
  W  W13  1  0.030094  0.529782  0.836758  1
  W  W14  1  0.692947  0.192551  0.163303  1
  W  W15  1  0.975294  0.473060  0.169842  1
