# generated using pymatgen
data_LaSm2Th5Se12
_symmetry_space_group_name_H-M   'P 1'
_cell_length_a   4.12094300
_cell_length_b   11.30288460
_cell_length_c   11.39385860
_cell_angle_alpha   91.09349849
_cell_angle_beta   90.00000000
_cell_angle_gamma   90.00000000
_symmetry_Int_Tables_number   1
_chemical_formula_structural   LaSm2Th5Se12
_chemical_formula_sum   'La1 Sm2 Th5 Se12'
_cell_volume   530.61268378
_cell_formula_units_Z   1
loop_
 _symmetry_equiv_pos_site_id
 _symmetry_equiv_pos_as_xyz
  1  'x, y, z'
loop_
 _atom_site_type_symbol
 _atom_site_label
 _atom_site_symmetry_multiplicity
 _atom_site_fract_x
 _atom_site_fract_y
 _atom_site_fract_z
 _atom_site_occupancy
  La  La0  1  0.250000  0.997759  0.697271  1
  Sm  Sm1  1  0.750000  0.812526  0.980698  1
  Sm  Sm2  1  0.250000  0.187358  0.019673  1
  Th  Th3  1  0.750000  0.999339  0.304536  1
  Th  Th4  1  0.750000  0.490028  0.803570  1
  Th  Th5  1  0.250000  0.514187  0.196445  1
  Th  Th6  1  0.250000  0.317527  0.515964  1
  Th  Th7  1  0.750000  0.685649  0.483691  1
  Se  Se8  1  0.750000  0.053993  0.886121  1
  Se  Se9  1  0.250000  0.945534  0.118617  1
  Se  Se10  1  0.250000  0.557220  0.623968  1
  Se  Se11  1  0.750000  0.443114  0.374077  1
  Se  Se12  1  0.250000  0.873051  0.446670  1
  Se  Se13  1  0.750000  0.127318  0.544375  1
  Se  Se14  1  0.750000  0.377046  0.050830  1
  Se  Se15  1  0.250000  0.623208  0.950957  1
  Se  Se16  1  0.250000  0.296991  0.778274  1
  Se  Se17  1  0.750000  0.706815  0.221854  1
  Se  Se18  1  0.750000  0.794787  0.723354  1
  Se  Se19  1  0.250000  0.196551  0.279054  1
