# generated using pymatgen
data_Ce3Lu(GaIr)4
_symmetry_space_group_name_H-M   'P 1'
_cell_length_a   4.35503400
_cell_length_b   6.82653551
_cell_length_c   7.86468223
_cell_angle_alpha   90.86518316
_cell_angle_beta   90.00000000
_cell_angle_gamma   90.00000000
_symmetry_Int_Tables_number   1
_chemical_formula_structural   Ce3Lu(GaIr)4
_chemical_formula_sum   'Ce3 Lu1 Ga4 Ir4'
_cell_volume   233.78872792
_cell_formula_units_Z   1
loop_
 _symmetry_equiv_pos_site_id
 _symmetry_equiv_pos_as_xyz
  1  'x, y, z'
loop_
 _atom_site_type_symbol
 _atom_site_label
 _atom_site_symmetry_multiplicity
 _atom_site_fract_x
 _atom_site_fract_y
 _atom_site_fract_z
 _atom_site_occupancy
  Ce  Ce0  1  0.750000  0.470494  0.817375  1
  Ce  Ce1  1  0.750000  0.967700  0.689009  1
  Ce  Ce2  1  0.250000  0.032044  0.309849  1
  Lu  Lu3  1  0.250000  0.531832  0.190050  1
  Ga  Ga4  1  0.250000  0.646967  0.561962  1
  Ga  Ga5  1  0.750000  0.355810  0.430460  1
  Ga  Ga6  1  0.750000  0.844833  0.069905  1
  Ga  Ga7  1  0.250000  0.152715  0.935375  1
  Ir  Ir8  1  0.250000  0.759104  0.885904  1
  Ir  Ir9  1  0.750000  0.239643  0.110419  1
  Ir  Ir10  1  0.750000  0.739081  0.386737  1
  Ir  Ir11  1  0.250000  0.259777  0.612954  1
