# generated using pymatgen
data_Sr4InGeIr4
_symmetry_space_group_name_H-M   'P 1'
_cell_length_a   5.95736724
_cell_length_b   5.95736574
_cell_length_c   7.95675827
_cell_angle_alpha   100.12092118
_cell_angle_beta   100.12091882
_cell_angle_gamma   62.00927624
_symmetry_Int_Tables_number   1
_chemical_formula_structural   Sr4InGeIr4
_chemical_formula_sum   'Sr4 In1 Ge1 Ir4'
_cell_volume   244.05770372
_cell_formula_units_Z   1
loop_
 _symmetry_equiv_pos_site_id
 _symmetry_equiv_pos_as_xyz
  1  'x, y, z'
loop_
 _atom_site_type_symbol
 _atom_site_label
 _atom_site_symmetry_multiplicity
 _atom_site_fract_x
 _atom_site_fract_y
 _atom_site_fract_z
 _atom_site_occupancy
  Sr  Sr0  1  0.011831  0.282771  0.141068  1
  Sr  Sr1  1  0.717229  0.988169  0.358932  1
  Sr  Sr2  1  0.283388  0.005286  0.641135  1
  Sr  Sr3  1  0.994714  0.716612  0.858865  1
  In  In4  1  0.404028  0.595972  0.250000  1
  Ge  Ge5  1  0.573572  0.426428  0.750000  1
  Ir  Ir6  1  0.500214  0.793172  0.994942  1
  Ir  Ir7  1  0.206827  0.499785  0.505058  1
  Ir  Ir8  1  0.790999  0.482803  0.524245  1
  Ir  Ir9  1  0.517197  0.209001  0.975755  1
