# generated using pymatgen
data_NaNd6CoBr12
_symmetry_space_group_name_H-M   'P 1'
_cell_length_a   9.47815711
_cell_length_b   9.47815652
_cell_length_c   9.47815739
_cell_angle_alpha   107.02480566
_cell_angle_beta   107.02480665
_cell_angle_gamma   107.02481059
_symmetry_Int_Tables_number   1
_chemical_formula_structural   NaNd6CoBr12
_chemical_formula_sum   'Na1 Nd6 Co1 Br12'
_cell_volume   708.63577028
_cell_formula_units_Z   1
loop_
 _symmetry_equiv_pos_site_id
 _symmetry_equiv_pos_as_xyz
  1  'x, y, z'
loop_
 _atom_site_type_symbol
 _atom_site_label
 _atom_site_symmetry_multiplicity
 _atom_site_fract_x
 _atom_site_fract_y
 _atom_site_fract_z
 _atom_site_occupancy
  Na  Na0  1  0.500000  0.500000  0.500000  1
  Nd  Nd1  1  0.970744  0.894214  0.684285  1
  Nd  Nd2  1  0.029256  0.105786  0.315715  1
  Nd  Nd3  1  0.105786  0.315715  0.029256  1
  Nd  Nd4  1  0.315715  0.029256  0.105786  1
  Nd  Nd5  1  0.894214  0.684285  0.970744  1
  Nd  Nd6  1  0.684285  0.970744  0.894214  1
  Co  Co7  1  0.000000  0.000000  0.000000  1
  Br  Br8  1  0.549736  0.628448  0.851077  1
  Br  Br9  1  0.450264  0.371552  0.148923  1
  Br  Br10  1  0.316064  0.926319  0.777067  1
  Br  Br11  1  0.371552  0.148923  0.450264  1
  Br  Br12  1  0.926319  0.777067  0.316064  1
  Br  Br13  1  0.683936  0.073681  0.222933  1
  Br  Br14  1  0.073681  0.222933  0.683936  1
  Br  Br15  1  0.777067  0.316064  0.926319  1
  Br  Br16  1  0.222933  0.683936  0.073681  1
  Br  Br17  1  0.851077  0.549736  0.628448  1
  Br  Br18  1  0.148923  0.450264  0.371552  1
  Br  Br19  1  0.628448  0.851077  0.549736  1
