# generated using pymatgen
data_Ho8TaTi10Si16Ru
_symmetry_space_group_name_H-M   'P 1'
_cell_length_a   7.01132697
_cell_length_b   7.00859933
_cell_length_c   12.87083596
_cell_angle_alpha   90.09631492
_cell_angle_beta   89.95450480
_cell_angle_gamma   89.80457917
_symmetry_Int_Tables_number   1
_chemical_formula_structural   Ho8TaTi10Si16Ru
_chemical_formula_sum   'Ho8 Ta1 Ti10 Si16 Ru1'
_cell_volume   632.46271858
_cell_formula_units_Z   1
loop_
 _symmetry_equiv_pos_site_id
 _symmetry_equiv_pos_as_xyz
  1  'x, y, z'
loop_
 _atom_site_type_symbol
 _atom_site_label
 _atom_site_symmetry_multiplicity
 _atom_site_fract_x
 _atom_site_fract_y
 _atom_site_fract_z
 _atom_site_occupancy
  Ho  Ho0  1  0.341252  0.003394  0.467342  1
  Ho  Ho1  1  0.496778  0.841469  0.717903  1
  Ho  Ho2  1  0.500639  0.158732  0.215264  1
  Ho  Ho3  1  0.841886  0.496966  0.281996  1
  Ho  Ho4  1  0.158717  0.500804  0.784842  1
  Ho  Ho5  1  0.658362  0.998776  0.968584  1
  Ho  Ho6  1  0.003700  0.340346  0.532776  1
  Ho  Ho7  1  0.999149  0.657967  0.031299  1
  Ta  Ta8  1  0.174620  0.827037  0.248377  1
  Ti  Ti9  1  0.827222  0.174679  0.751592  1
  Ti  Ti10  1  0.673416  0.674000  0.500151  1
  Ti  Ti11  1  0.150103  0.003373  0.875311  1
  Ti  Ti12  1  0.492117  0.656595  0.125434  1
  Ti  Ti13  1  0.507033  0.348825  0.627826  1
  Ti  Ti14  1  0.656177  0.492875  0.875059  1
  Ti  Ti15  1  0.347917  0.508163  0.371515  1
  Ti  Ti16  1  0.848815  0.993532  0.374440  1
  Ti  Ti17  1  0.003396  0.149019  0.125306  1
  Ti  Ti18  1  0.994278  0.848592  0.624984  1
  Si  Si19  1  0.202482  0.132165  0.685116  1
  Si  Si20  1  0.372668  0.700333  0.933288  1
  Si  Si21  1  0.631303  0.296614  0.434368  1
  Si  Si22  1  0.699902  0.372572  0.066082  1
  Si  Si23  1  0.296544  0.630693  0.565898  1
  Si  Si24  1  0.796528  0.867835  0.183592  1
  Si  Si25  1  0.132501  0.202821  0.315510  1
  Si  Si26  1  0.868083  0.796662  0.816172  1
  Si  Si27  1  0.288321  0.955259  0.062741  1
  Si  Si28  1  0.547533  0.792554  0.315736  1
  Si  Si29  1  0.449964  0.209347  0.818418  1
  Si  Si30  1  0.792206  0.547319  0.684541  1
  Si  Si31  1  0.208836  0.449516  0.181898  1
  Si  Si32  1  0.708313  0.047882  0.565706  1
  Si  Si33  1  0.953771  0.287155  0.935731  1
  Si  Si34  1  0.047104  0.707379  0.435158  1
  Ru  Ru35  1  0.328364  0.328750  0.000046  1
