# generated using pymatgen
data_Ca2Cd2Os3PdO14
_symmetry_space_group_name_H-M   'P 1'
_cell_length_a   7.26469153
_cell_length_b   7.19094258
_cell_length_c   7.26469143
_cell_angle_alpha   61.22970451
_cell_angle_beta   61.30857556
_cell_angle_gamma   61.22970783
_symmetry_Int_Tables_number   1
_chemical_formula_structural   Ca2Cd2Os3PdO14
_chemical_formula_sum   'Ca2 Cd2 Os3 Pd1 O14'
_cell_volume   275.93060438
_cell_formula_units_Z   1
loop_
 _symmetry_equiv_pos_site_id
 _symmetry_equiv_pos_as_xyz
  1  'x, y, z'
loop_
 _atom_site_type_symbol
 _atom_site_label
 _atom_site_symmetry_multiplicity
 _atom_site_fract_x
 _atom_site_fract_y
 _atom_site_fract_z
 _atom_site_occupancy
  Ca  Ca0  1  0.625000  0.125000  0.125000  1
  Ca  Ca1  1  0.125000  0.125000  0.625000  1
  Cd  Cd2  1  0.125000  0.125000  0.125000  1
  Cd  Cd3  1  0.125000  0.625000  0.125000  1
  Os  Os4  1  0.125000  0.625000  0.625000  1
  Os  Os5  1  0.625000  0.125000  0.625000  1
  Os  Os6  1  0.625000  0.625000  0.125000  1
  Pd  Pd7  1  0.625000  0.625000  0.625000  1
  O  O8  1  0.239508  0.259855  0.239508  1
  O  O9  1  0.010492  0.990145  0.010492  1
  O  O10  1  0.540410  0.970425  0.540410  1
  O  O11  1  0.318056  0.698392  0.318056  1
  O  O12  1  0.545223  0.541452  0.968560  1
  O  O13  1  0.968560  0.541452  0.545223  1
  O  O14  1  0.550978  0.936307  0.934926  1
  O  O15  1  0.934926  0.936307  0.550978  1
  O  O16  1  0.931944  0.551608  0.931944  1
  O  O17  1  0.699022  0.313693  0.315074  1
  O  O18  1  0.281440  0.708548  0.704777  1
  O  O19  1  0.709590  0.279575  0.709590  1
  O  O20  1  0.315074  0.313693  0.699022  1
  O  O21  1  0.704777  0.708548  0.281440  1
