# generated using pymatgen
data_K2Nb3(WSe4)3
_symmetry_space_group_name_H-M   'P 1'
_cell_length_a   5.93335000
_cell_length_b   5.93335151
_cell_length_c   17.49489600
_cell_angle_alpha   90.00000000
_cell_angle_beta   90.00000000
_cell_angle_gamma   120.00000271
_symmetry_Int_Tables_number   1
_chemical_formula_structural   K2Nb3(WSe4)3
_chemical_formula_sum   'K2 Nb3 W3 Se12'
_cell_volume   533.38651384
_cell_formula_units_Z   1
loop_
 _symmetry_equiv_pos_site_id
 _symmetry_equiv_pos_as_xyz
  1  'x, y, z'
loop_
 _atom_site_type_symbol
 _atom_site_label
 _atom_site_symmetry_multiplicity
 _atom_site_fract_x
 _atom_site_fract_y
 _atom_site_fract_z
 _atom_site_occupancy
  K  K0  1  0.000000  0.000000  0.999429  1
  K  K1  1  0.000000  0.000000  0.500571  1
  Nb  Nb2  1  0.666667  0.333333  0.750000  1
  Nb  Nb3  1  0.666667  0.333333  0.250000  1
  Nb  Nb4  1  0.333333  0.666667  0.750000  1
  W  W5  1  0.000000  0.000000  0.750000  1
  W  W6  1  0.000000  0.000000  0.250000  1
  W  W7  1  0.333333  0.666667  0.250000  1
  Se  Se8  1  0.328282  0.993473  0.155146  1
  Se  Se9  1  0.006527  0.334810  0.155146  1
  Se  Se10  1  0.665190  0.671718  0.155146  1
  Se  Se11  1  0.328935  0.328946  0.654131  1
  Se  Se12  1  0.665190  0.671718  0.344854  1
  Se  Se13  1  0.671054  0.999989  0.654131  1
  Se  Se14  1  0.000011  0.671065  0.654131  1
  Se  Se15  1  0.000011  0.671065  0.845869  1
  Se  Se16  1  0.328935  0.328946  0.845869  1
  Se  Se17  1  0.006527  0.334810  0.344854  1
  Se  Se18  1  0.328282  0.993473  0.344854  1
  Se  Se19  1  0.671054  0.999989  0.845869  1
