# generated using pymatgen
data_Rb4Sr2TiAs4
_symmetry_space_group_name_H-M   'P 1'
_cell_length_a   10.59378354
_cell_length_b   10.59378207
_cell_length_c   7.89515935
_cell_angle_alpha   87.68463136
_cell_angle_beta   87.68462187
_cell_angle_gamma   118.98364631
_symmetry_Int_Tables_number   1
_chemical_formula_structural   Rb4Sr2TiAs4
_chemical_formula_sum   'Rb8 Sr4 Ti2 As8'
_cell_volume   772.62970535
_cell_formula_units_Z   2
loop_
 _symmetry_equiv_pos_site_id
 _symmetry_equiv_pos_as_xyz
  1  'x, y, z'
loop_
 _atom_site_type_symbol
 _atom_site_label
 _atom_site_symmetry_multiplicity
 _atom_site_fract_x
 _atom_site_fract_y
 _atom_site_fract_z
 _atom_site_occupancy
  Rb  Rb0  1  0.055054  0.523816  0.611449  1
  Rb  Rb1  1  0.523816  0.055054  0.111449  1
  Rb  Rb2  1  0.277014  0.133831  0.835320  1
  Rb  Rb3  1  0.874319  0.735616  0.762269  1
  Rb  Rb4  1  0.859734  0.144225  0.806385  1
  Rb  Rb5  1  0.735616  0.874319  0.262269  1
  Rb  Rb6  1  0.133831  0.277014  0.335320  1
  Rb  Rb7  1  0.144225  0.859734  0.306385  1
  Sr  Sr8  1  0.468234  0.929083  0.605913  1
  Sr  Sr9  1  0.472301  0.525033  0.620705  1
  Sr  Sr10  1  0.929083  0.468234  0.105913  1
  Sr  Sr11  1  0.525033  0.472301  0.120705  1
  Ti  Ti12  1  0.663061  0.335805  0.507013  1
  Ti  Ti13  1  0.335805  0.663061  0.007013  1
  As  As14  1  0.669402  0.361646  0.826481  1
  As  As15  1  0.361646  0.669402  0.326481  1
  As  As16  1  0.586963  0.782743  0.864639  1
  As  As17  1  0.210561  0.406745  0.925858  1
  As  As18  1  0.200426  0.784387  0.902714  1
  As  As19  1  0.406745  0.210561  0.425858  1
  As  As20  1  0.782743  0.586963  0.364639  1
  As  As21  1  0.784387  0.200426  0.402714  1
