# generated using pymatgen
data_Er12Co4TcSb
_symmetry_space_group_name_H-M   'P 1'
_cell_length_a   8.21829237
_cell_length_b   8.21829265
_cell_length_c   8.21829274
_cell_angle_alpha   111.62550628
_cell_angle_beta   110.39422256
_cell_angle_gamma   106.43838293
_symmetry_Int_Tables_number   1
_chemical_formula_structural   Er12Co4TcSb
_chemical_formula_sum   'Er12 Co4 Tc1 Sb1'
_cell_volume   426.34617097
_cell_formula_units_Z   1
loop_
 _symmetry_equiv_pos_site_id
 _symmetry_equiv_pos_as_xyz
  1  'x, y, z'
loop_
 _atom_site_type_symbol
 _atom_site_label
 _atom_site_symmetry_multiplicity
 _atom_site_fract_x
 _atom_site_fract_y
 _atom_site_fract_z
 _atom_site_occupancy
  Er  Er0  1  0.181677  0.278758  0.460434  1
  Er  Er1  1  0.818323  0.721242  0.539566  1
  Er  Er2  1  0.181677  0.721242  0.902919  1
  Er  Er3  1  0.818323  0.278758  0.097081  1
  Er  Er4  1  0.311864  0.618713  0.306848  1
  Er  Er5  1  0.688136  0.381287  0.693152  1
  Er  Er6  1  0.311864  0.005016  0.693152  1
  Er  Er7  1  0.688136  0.994984  0.306848  1
  Er  Er8  1  0.417976  0.219749  0.198227  1
  Er  Er9  1  0.582024  0.780251  0.801773  1
  Er  Er10  1  0.021520  0.219749  0.801773  1
  Er  Er11  1  0.978480  0.780251  0.198227  1
  Co  Co12  1  0.111885  0.611885  0.500000  1
  Co  Co13  1  0.888115  0.388115  0.500000  1
  Co  Co14  1  0.375976  0.000000  0.375976  1
  Co  Co15  1  0.624024  0.000000  0.624024  1
  Tc  Tc16  1  0.000000  0.000000  0.000000  1
  Sb  Sb17  1  0.500000  0.500000  0.000000  1
