# generated using pymatgen
data_La4SiOs3Br2
_symmetry_space_group_name_H-M   'P 1'
_cell_length_a   4.26675200
_cell_length_b   4.26675283
_cell_length_c   17.34790800
_cell_angle_alpha   90.00000000
_cell_angle_beta   90.00000000
_cell_angle_gamma   120.00000910
_symmetry_Int_Tables_number   1
_chemical_formula_structural   La4SiOs3Br2
_chemical_formula_sum   'La4 Si1 Os3 Br2'
_cell_volume   273.50960840
_cell_formula_units_Z   1
loop_
 _symmetry_equiv_pos_site_id
 _symmetry_equiv_pos_as_xyz
  1  'x, y, z'
loop_
 _atom_site_type_symbol
 _atom_site_label
 _atom_site_symmetry_multiplicity
 _atom_site_fract_x
 _atom_site_fract_y
 _atom_site_fract_z
 _atom_site_occupancy
  La  La0  1  0.000000  0.000000  0.115348  1
  La  La1  1  0.000000  0.000000  0.883361  1
  La  La2  1  0.000000  0.000000  0.609666  1
  La  La3  1  0.000000  0.000000  0.393551  1
  Si  Si4  1  0.333333  0.666667  0.502357  1
  Os  Os5  1  0.666667  0.333333  0.498663  1
  Os  Os6  1  0.666667  0.333333  0.010559  1
  Os  Os7  1  0.333333  0.666667  0.988377  1
  Br  Br8  1  0.333333  0.666667  0.249769  1
  Br  Br9  1  0.666667  0.333333  0.748349  1
