# generated using pymatgen
data_HoSc3(Al3Rh)2
_symmetry_space_group_name_H-M   'P 1'
_cell_length_a   5.38258400
_cell_length_b   5.38258495
_cell_length_c   8.52231300
_cell_angle_alpha   90.00000000
_cell_angle_beta   90.00000000
_cell_angle_gamma   120.00000646
_symmetry_Int_Tables_number   1
_chemical_formula_structural   HoSc3(Al3Rh)2
_chemical_formula_sum   'Ho1 Sc3 Al6 Rh2'
_cell_volume   213.83056954
_cell_formula_units_Z   1
loop_
 _symmetry_equiv_pos_site_id
 _symmetry_equiv_pos_as_xyz
  1  'x, y, z'
loop_
 _atom_site_type_symbol
 _atom_site_label
 _atom_site_symmetry_multiplicity
 _atom_site_fract_x
 _atom_site_fract_y
 _atom_site_fract_z
 _atom_site_occupancy
  Ho  Ho0  1  0.333334  0.666667  0.943592  1
  Sc  Sc1  1  0.666665  0.333333  0.058801  1
  Sc  Sc2  1  0.666665  0.333333  0.442639  1
  Sc  Sc3  1  0.333334  0.666667  0.555258  1
  Al  Al4  1  0.165622  0.331244  0.253038  1
  Al  Al5  1  0.165623  0.834378  0.253038  1
  Al  Al6  1  0.668755  0.834378  0.253038  1
  Al  Al7  1  0.333413  0.166706  0.746970  1
  Al  Al8  1  0.833294  0.166706  0.746970  1
  Al  Al9  1  0.833293  0.666587  0.746970  1
  Rh  Rh10  1  0.000000  0.000000  0.000803  1
  Rh  Rh11  1  0.000000  0.000000  0.498887  1
