# generated using pymatgen
data_Tb2Nd8(IrPt)3
_symmetry_space_group_name_H-M   'P 1'
_cell_length_a   11.35813213
_cell_length_b   11.34636400
_cell_length_c   6.48783592
_cell_angle_alpha   90.00000000
_cell_angle_beta   90.10885314
_cell_angle_gamma   90.00000000
_symmetry_Int_Tables_number   1
_chemical_formula_structural   Tb2Nd8(IrPt)3
_chemical_formula_sum   'Tb4 Nd16 Ir6 Pt6'
_cell_volume   836.10862380
_cell_formula_units_Z   2
loop_
 _symmetry_equiv_pos_site_id
 _symmetry_equiv_pos_as_xyz
  1  'x, y, z'
loop_
 _atom_site_type_symbol
 _atom_site_label
 _atom_site_symmetry_multiplicity
 _atom_site_fract_x
 _atom_site_fract_y
 _atom_site_fract_z
 _atom_site_occupancy
  Tb  Tb0  1  0.000239  0.999614  0.500083  1
  Tb  Tb1  1  0.000239  0.000386  0.000083  1
  Tb  Tb2  1  0.496811  0.499506  0.999958  1
  Tb  Tb3  1  0.496811  0.500494  0.499958  1
  Nd  Nd4  1  0.293884  0.091100  0.376918  1
  Nd  Nd5  1  0.293884  0.908900  0.876918  1
  Nd  Nd6  1  0.706332  0.087893  0.876512  1
  Nd  Nd7  1  0.706332  0.912107  0.376512  1
  Nd  Nd8  1  0.585417  0.790806  0.876493  1
  Nd  Nd9  1  0.585417  0.209194  0.376493  1
  Nd  Nd10  1  0.409853  0.791057  0.382182  1
  Nd  Nd11  1  0.409853  0.208943  0.882182  1
  Nd  Nd12  1  0.210898  0.412954  0.618719  1
  Nd  Nd13  1  0.210898  0.587046  0.118719  1
  Nd  Nd14  1  0.792923  0.411476  0.122433  1
  Nd  Nd15  1  0.792923  0.588524  0.622433  1
  Nd  Nd16  1  0.912554  0.706571  0.123256  1
  Nd  Nd17  1  0.912554  0.293429  0.623256  1
  Nd  Nd18  1  0.091822  0.705839  0.623389  1
  Nd  Nd19  1  0.091822  0.294161  0.123389  1
  Ir  Ir20  1  0.350771  0.349898  0.249892  1
  Ir  Ir21  1  0.350771  0.650102  0.749892  1
  Ir  Ir22  1  0.500478  0.999218  0.119237  1
  Ir  Ir23  1  0.500478  0.000782  0.619237  1
  Ir  Ir24  1  0.998785  0.500176  0.880799  1
  Ir  Ir25  1  0.998785  0.499824  0.380799  1
  Pt  Pt26  1  0.850848  0.148891  0.249952  1
  Pt  Pt27  1  0.850848  0.851109  0.749952  1
  Pt  Pt28  1  0.148384  0.148832  0.749876  1
  Pt  Pt29  1  0.148384  0.851168  0.249876  1
  Pt  Pt30  1  0.650001  0.350372  0.750300  1
  Pt  Pt31  1  0.650001  0.649628  0.250300  1
