# generated using pymatgen
data_Yb5Pr3(HoRu2)2
_symmetry_space_group_name_H-M   'P 1'
_cell_length_a   6.54377110
_cell_length_b   7.28618479
_cell_length_c   8.65359492
_cell_angle_alpha   96.23006500
_cell_angle_beta   112.63315441
_cell_angle_gamma   89.96213185
_symmetry_Int_Tables_number   1
_chemical_formula_structural   Yb5Pr3(HoRu2)2
_chemical_formula_sum   'Yb5 Pr3 Ho2 Ru4'
_cell_volume   378.19179780
_cell_formula_units_Z   1
loop_
 _symmetry_equiv_pos_site_id
 _symmetry_equiv_pos_as_xyz
  1  'x, y, z'
loop_
 _atom_site_type_symbol
 _atom_site_label
 _atom_site_symmetry_multiplicity
 _atom_site_fract_x
 _atom_site_fract_y
 _atom_site_fract_z
 _atom_site_occupancy
  Yb  Yb0  1  0.975311  0.918408  0.175046  1
  Yb  Yb1  1  0.800520  0.583999  0.824996  1
  Yb  Yb2  1  0.024470  0.082791  0.826581  1
  Yb  Yb3  1  0.199961  0.416668  0.176387  1
  Yb  Yb4  1  0.641443  0.815416  0.433387  1
  Pr  Pr5  1  0.207943  0.681727  0.566453  1
  Pr  Pr6  1  0.363449  0.179276  0.565466  1
  Pr  Pr7  1  0.788109  0.316546  0.431190  1
  Ho  Ho8  1  0.437103  0.751231  0.004137  1
  Ho  Ho9  1  0.562863  0.251763  0.000315  1
  Ru  Ru10  1  0.819926  0.563755  0.218874  1
  Ru  Ru11  1  0.595677  0.932837  0.786902  1
  Ru  Ru12  1  0.181342  0.434991  0.777077  1
  Ru  Ru13  1  0.401882  0.070593  0.213189  1
