# generated using pymatgen
data_Co4Ni4RhSe8
_symmetry_space_group_name_H-M   'P 1'
_cell_length_a   7.43600318
_cell_length_b   7.41742678
_cell_length_c   7.43600400
_cell_angle_alpha   59.91712487
_cell_angle_beta   60.00000526
_cell_angle_gamma   59.91712569
_symmetry_Int_Tables_number   1
_chemical_formula_structural   Co4Ni4RhSe8
_chemical_formula_sum   'Co4 Ni4 Rh1 Se8'
_cell_volume   289.64918601
_cell_formula_units_Z   1
loop_
 _symmetry_equiv_pos_site_id
 _symmetry_equiv_pos_as_xyz
  1  'x, y, z'
loop_
 _atom_site_type_symbol
 _atom_site_label
 _atom_site_symmetry_multiplicity
 _atom_site_fract_x
 _atom_site_fract_y
 _atom_site_fract_z
 _atom_site_occupancy
  Co  Co0  1  0.367780  0.875909  0.878154  1
  Co  Co1  1  0.878154  0.875909  0.878154  1
  Co  Co2  1  0.878154  0.875909  0.367780  1
  Co  Co3  1  0.121676  0.634974  0.121676  1
  Ni  Ni4  1  0.874910  0.375269  0.874910  1
  Ni  Ni5  1  0.124006  0.124965  0.627024  1
  Ni  Ni6  1  0.627024  0.124965  0.124006  1
  Ni  Ni7  1  0.124006  0.124965  0.124006  1
  Rh  Rh8  1  0.502430  0.492711  0.502430  1
  Se  Se9  1  0.746244  0.761267  0.746244  1
  Se  Se10  1  0.247021  0.258936  0.247021  1
  Se  Se11  1  0.262728  0.254587  0.741343  1
  Se  Se12  1  0.259036  0.736819  0.745109  1
  Se  Se13  1  0.741343  0.254587  0.262728  1
  Se  Se14  1  0.259036  0.736819  0.259036  1
  Se  Se15  1  0.741343  0.254587  0.741343  1
  Se  Se16  1  0.745109  0.736819  0.259036  1
