# generated using pymatgen
data_Sc18Re8AsP
_symmetry_space_group_name_H-M   'P 1'
_cell_length_a   8.66530211
_cell_length_b   8.66532652
_cell_length_c   8.58804700
_cell_angle_alpha   90.00000000
_cell_angle_beta   90.00000000
_cell_angle_gamma   119.99751047
_symmetry_Int_Tables_number   1
_chemical_formula_structural   Sc18Re8AsP
_chemical_formula_sum   'Sc18 Re8 As1 P1'
_cell_volume   558.47608388
_cell_formula_units_Z   1
loop_
 _symmetry_equiv_pos_site_id
 _symmetry_equiv_pos_as_xyz
  1  'x, y, z'
loop_
 _atom_site_type_symbol
 _atom_site_label
 _atom_site_symmetry_multiplicity
 _atom_site_fract_x
 _atom_site_fract_y
 _atom_site_fract_z
 _atom_site_occupancy
  Sc  Sc0  1  0.803468  0.606936  0.550530  1
  Sc  Sc1  1  0.803337  0.196631  0.550438  1
  Sc  Sc2  1  0.393072  0.196507  0.550482  1
  Sc  Sc3  1  0.194436  0.388887  0.452060  1
  Sc  Sc4  1  0.194579  0.805448  0.452136  1
  Sc  Sc5  1  0.611101  0.805589  0.452082  1
  Sc  Sc6  1  0.194436  0.388887  0.047940  1
  Sc  Sc7  1  0.194579  0.805448  0.047864  1
  Sc  Sc8  1  0.611101  0.805589  0.047918  1
  Sc  Sc9  1  0.803468  0.606936  0.949470  1
  Sc  Sc10  1  0.803337  0.196631  0.949562  1
  Sc  Sc11  1  0.393072  0.196507  0.949518  1
  Sc  Sc12  1  0.462633  0.925251  0.750000  1
  Sc  Sc13  1  0.462557  0.537447  0.750000  1
  Sc  Sc14  1  0.074751  0.537343  0.750000  1
  Sc  Sc15  1  0.538261  0.076507  0.250000  1
  Sc  Sc16  1  0.538323  0.461685  0.250000  1
  Sc  Sc17  1  0.923516  0.461767  0.250000  1
  Re  Re18  1  0.107444  0.214968  0.750000  1
  Re  Re19  1  0.107539  0.892378  0.750000  1
  Re  Re20  1  0.784885  0.892464  0.750000  1
  Re  Re21  1  0.892574  0.785050  0.250000  1
  Re  Re22  1  0.892453  0.107620  0.250000  1
  Re  Re23  1  0.215084  0.107507  0.250000  1
  Re  Re24  1  0.000006  0.000004  0.500078  1
  Re  Re25  1  0.000006  0.000004  0.999922  1
  As  As26  1  0.333405  0.666577  0.250000  1
  P  P27  1  0.666578  0.333432  0.750000  1
