# generated using pymatgen
data_Ba5Mo3O11
_symmetry_space_group_name_H-M   'P 1'
_cell_length_a   4.19341361
_cell_length_b   4.19341471
_cell_length_c   17.48608718
_cell_angle_alpha   89.99951575
_cell_angle_beta   89.99951559
_cell_angle_gamma   91.38993687
_symmetry_Int_Tables_number   1
_chemical_formula_structural   Ba5Mo3O11
_chemical_formula_sum   'Ba5 Mo3 O11'
_cell_volume   307.39751353
_cell_formula_units_Z   1
loop_
 _symmetry_equiv_pos_site_id
 _symmetry_equiv_pos_as_xyz
  1  'x, y, z'
loop_
 _atom_site_type_symbol
 _atom_site_label
 _atom_site_symmetry_multiplicity
 _atom_site_fract_x
 _atom_site_fract_y
 _atom_site_fract_z
 _atom_site_occupancy
  Ba  Ba0  1  0.006620  0.999250  0.726449  1
  Ba  Ba1  1  0.000750  0.993380  0.273551  1
  Ba  Ba2  1  0.507964  0.491466  0.889919  1
  Ba  Ba3  1  0.508534  0.492036  0.110081  1
  Ba  Ba4  1  0.001692  0.998308  0.500000  1
  Mo  Mo5  1  0.008948  0.991052  0.000000  1
  Mo  Mo6  1  0.504745  0.500051  0.619692  1
  Mo  Mo7  1  0.499949  0.495255  0.380308  1
  O  O8  1  0.502055  0.497945  0.500000  1
  O  O9  1  0.007641  0.989775  0.881992  1
  O  O10  1  0.010225  0.992359  0.118008  1
  O  O11  1  0.507719  0.499671  0.735874  1
  O  O12  1  0.500329  0.492281  0.264126  1
  O  O13  1  0.009383  0.490768  0.000004  1
  O  O14  1  0.509232  0.990617  0.999996  1
  O  O15  1  0.005014  0.500854  0.618414  1
  O  O16  1  0.505186  0.999831  0.618454  1
  O  O17  1  0.000169  0.494814  0.381546  1
  O  O18  1  0.499146  0.994986  0.381586  1
