# generated using pymatgen
data_Th8Ni6IrOs
_symmetry_space_group_name_H-M   'P 1'
_cell_length_a   4.23911900
_cell_length_b   5.80773104
_cell_length_c   14.46497711
_cell_angle_alpha   89.98618009
_cell_angle_beta   89.99997064
_cell_angle_gamma   89.99997662
_symmetry_Int_Tables_number   1
_chemical_formula_structural   Th8Ni6IrOs
_chemical_formula_sum   'Th8 Ni6 Ir1 Os1'
_cell_volume   356.12285139
_cell_formula_units_Z   1
loop_
 _symmetry_equiv_pos_site_id
 _symmetry_equiv_pos_as_xyz
  1  'x, y, z'
loop_
 _atom_site_type_symbol
 _atom_site_label
 _atom_site_symmetry_multiplicity
 _atom_site_fract_x
 _atom_site_fract_y
 _atom_site_fract_z
 _atom_site_occupancy
  Th  Th0  1  0.250000  0.548806  0.284145  1
  Th  Th1  1  0.750000  0.455115  0.716324  1
  Th  Th2  1  0.250000  0.953189  0.784261  1
  Th  Th3  1  0.249999  0.756175  0.540016  1
  Th  Th4  1  0.250000  0.744905  0.032901  1
  Th  Th5  1  0.750001  0.259901  0.961374  1
  Th  Th6  1  0.750000  0.048500  0.213187  1
  Th  Th7  1  0.750000  0.245768  0.468233  1
  Ni  Ni8  1  0.750000  0.736123  0.407427  1
  Ni  Ni9  1  0.249999  0.455093  0.853571  1
  Ni  Ni10  1  0.750000  0.959793  0.645936  1
  Ni  Ni11  1  0.750000  0.746309  0.891484  1
  Ni  Ni12  1  0.250001  0.235378  0.092922  1
  Ni  Ni13  1  0.249999  0.246441  0.608365  1
  Ir  Ir14  1  0.250000  0.054147  0.354628  1
  Os  Os15  1  0.750000  0.554358  0.145225  1
