# generated using pymatgen
data_Er5Sc14Si16W
_symmetry_space_group_name_H-M   'P 1'
_cell_length_a   6.96253559
_cell_length_b   7.27354080
_cell_length_c   13.76418948
_cell_angle_alpha   89.80315376
_cell_angle_beta   89.69896094
_cell_angle_gamma   89.74218646
_symmetry_Int_Tables_number   1
_chemical_formula_structural   Er5Sc14Si16W
_chemical_formula_sum   'Er5 Sc14 Si16 W1'
_cell_volume   697.02929427
_cell_formula_units_Z   1
loop_
 _symmetry_equiv_pos_site_id
 _symmetry_equiv_pos_as_xyz
  1  'x, y, z'
loop_
 _atom_site_type_symbol
 _atom_site_label
 _atom_site_symmetry_multiplicity
 _atom_site_fract_x
 _atom_site_fract_y
 _atom_site_fract_z
 _atom_site_occupancy
  Er  Er0  1  0.991886  0.679972  0.600512  1
  Er  Er1  1  0.012962  0.322181  0.405192  1
  Er  Er2  1  0.511505  0.176645  0.405327  1
  Er  Er3  1  0.014053  0.323101  0.090031  1
  Er  Er4  1  0.485601  0.824576  0.599114  1
  Sc  Sc5  1  0.844040  0.004668  0.247504  1
  Sc  Sc6  1  0.343821  0.496540  0.248429  1
  Sc  Sc7  1  0.655209  0.507179  0.752717  1
  Sc  Sc8  1  0.989293  0.685685  0.899070  1
  Sc  Sc9  1  0.482535  0.822854  0.901534  1
  Sc  Sc10  1  0.518364  0.182223  0.095726  1
  Sc  Sc11  1  0.326681  0.320996  0.630314  1
  Sc  Sc12  1  0.671823  0.676795  0.373309  1
  Sc  Sc13  1  0.174217  0.826792  0.375531  1
  Sc  Sc14  1  0.672537  0.677737  0.124031  1
  Sc  Sc15  1  0.825987  0.169542  0.630693  1
  Sc  Sc16  1  0.326232  0.320577  0.875555  1
  Sc  Sc17  1  0.822054  0.168651  0.873211  1
  Sc  Sc18  1  0.176038  0.828531  0.120074  1
  Si  Si19  1  0.028154  0.381656  0.753226  1
  Si  Si20  1  0.973695  0.614204  0.247888  1
  Si  Si21  1  0.471564  0.891021  0.247308  1
  Si  Si22  1  0.516368  0.097186  0.753793  1
  Si  Si23  1  0.280097  0.643587  0.755040  1
  Si  Si24  1  0.718157  0.368081  0.246918  1
  Si  Si25  1  0.219859  0.132484  0.246304  1
  Si  Si26  1  0.790447  0.866124  0.753607  1
  Si  Si27  1  0.155357  0.034012  0.548032  1
  Si  Si28  1  0.842842  0.964283  0.463509  1
  Si  Si29  1  0.344207  0.535349  0.463455  1
  Si  Si30  1  0.839717  0.964800  0.036129  1
  Si  Si31  1  0.658871  0.464510  0.539905  1
  Si  Si32  1  0.154124  0.023488  0.948386  1
  Si  Si33  1  0.662215  0.469573  0.959777  1
  Si  Si34  1  0.349535  0.534966  0.036732  1
  W  W35  1  0.149951  0.999430  0.752118  1
