# generated using pymatgen
data_Ho8Hf9Si16Mo3
_symmetry_space_group_name_H-M   'P 1'
_cell_length_a   7.18211665
_cell_length_b   7.18211659
_cell_length_c   13.12879325
_cell_angle_alpha   90.09950347
_cell_angle_beta   90.09950369
_cell_angle_gamma   90.07292887
_symmetry_Int_Tables_number   1
_chemical_formula_structural   Ho8Hf9Si16Mo3
_chemical_formula_sum   'Ho8 Hf9 Si16 Mo3'
_cell_volume   677.21731171
_cell_formula_units_Z   1
loop_
 _symmetry_equiv_pos_site_id
 _symmetry_equiv_pos_as_xyz
  1  'x, y, z'
loop_
 _atom_site_type_symbol
 _atom_site_label
 _atom_site_symmetry_multiplicity
 _atom_site_fract_x
 _atom_site_fract_y
 _atom_site_fract_z
 _atom_site_occupancy
  Ho  Ho0  1  0.999554  0.344727  0.215254  1
  Ho  Ho1  1  0.003536  0.656359  0.714533  1
  Ho  Ho2  1  0.154467  0.500283  0.463921  1
  Ho  Ho3  1  0.499717  0.845533  0.036079  1
  Ho  Ho4  1  0.846687  0.501458  0.967723  1
  Ho  Ho5  1  0.498542  0.153313  0.532277  1
  Ho  Ho6  1  0.343641  0.996464  0.785467  1
  Ho  Ho7  1  0.655273  0.000446  0.284746  1
  Hf  Hf8  1  0.675656  0.324344  0.750000  1
  Hf  Hf9  1  0.145609  0.993206  0.373678  1
  Hf  Hf10  1  0.855612  0.004320  0.876792  1
  Hf  Hf11  1  0.505594  0.648426  0.621608  1
  Hf  Hf12  1  0.351574  0.494406  0.878392  1
  Hf  Hf13  1  0.493144  0.353533  0.125659  1
  Hf  Hf14  1  0.646467  0.506856  0.374341  1
  Hf  Hf15  1  0.995680  0.144388  0.623208  1
  Hf  Hf16  1  0.006794  0.854391  0.126322  1
  Si  Si17  1  0.360243  0.296571  0.317394  1
  Si  Si18  1  0.638804  0.705372  0.817932  1
  Si  Si19  1  0.204531  0.860797  0.566377  1
  Si  Si20  1  0.139203  0.795469  0.933623  1
  Si  Si21  1  0.795965  0.139035  0.067867  1
  Si  Si22  1  0.860965  0.204035  0.432133  1
  Si  Si23  1  0.294628  0.361196  0.682068  1
  Si  Si24  1  0.703429  0.639757  0.182606  1
  Si  Si25  1  0.296398  0.051352  0.184263  1
  Si  Si26  1  0.704128  0.947513  0.682485  1
  Si  Si27  1  0.448333  0.795974  0.432427  1
  Si  Si28  1  0.204026  0.551667  0.067573  1
  Si  Si29  1  0.548006  0.202301  0.936091  1
  Si  Si30  1  0.797699  0.451994  0.563909  1
  Si  Si31  1  0.052487  0.295872  0.817515  1
  Si  Si32  1  0.948648  0.703602  0.315737  1
  Mo  Mo33  1  0.176577  0.175614  0.001449  1
  Mo  Mo34  1  0.824386  0.823423  0.498551  1
  Mo  Mo35  1  0.323999  0.676001  0.250000  1
