# generated using pymatgen
data_NdTmZn5Ge
_symmetry_space_group_name_H-M   'P 1'
_cell_length_a   8.26063066
_cell_length_b   8.26063015
_cell_length_c   8.81560800
_cell_angle_alpha   90.00000000
_cell_angle_beta   90.00000000
_cell_angle_gamma   149.51696416
_symmetry_Int_Tables_number   1
_chemical_formula_structural   NdTmZn5Ge
_chemical_formula_sum   'Nd2 Tm2 Zn10 Ge2'
_cell_volume   305.16109027
_cell_formula_units_Z   2
loop_
 _symmetry_equiv_pos_site_id
 _symmetry_equiv_pos_as_xyz
  1  'x, y, z'
loop_
 _atom_site_type_symbol
 _atom_site_label
 _atom_site_symmetry_multiplicity
 _atom_site_fract_x
 _atom_site_fract_y
 _atom_site_fract_z
 _atom_site_occupancy
  Nd  Nd0  1  0.000000  0.000000  0.500000  1
  Nd  Nd1  1  0.000000  0.000000  0.000000  1
  Tm  Tm2  1  0.200879  0.799121  0.250000  1
  Tm  Tm3  1  0.799121  0.200879  0.750000  1
  Zn  Zn4  1  0.812427  0.187573  0.391749  1
  Zn  Zn5  1  0.187573  0.812427  0.608251  1
  Zn  Zn6  1  0.812427  0.187573  0.108251  1
  Zn  Zn7  1  0.187573  0.812427  0.891749  1
  Zn  Zn8  1  0.654122  0.345878  0.475994  1
  Zn  Zn9  1  0.345878  0.654122  0.524006  1
  Zn  Zn10  1  0.654122  0.345878  0.024006  1
  Zn  Zn11  1  0.345878  0.654122  0.975994  1
  Zn  Zn12  1  0.399847  0.600153  0.250000  1
  Zn  Zn13  1  0.600153  0.399847  0.750000  1
  Ge  Ge14  1  0.557383  0.442617  0.250000  1
  Ge  Ge15  1  0.442617  0.557383  0.750000  1
