# generated using pymatgen
data_Ce2Y3Tc2
_symmetry_space_group_name_H-M   'P 1'
_cell_length_a   6.37526147
_cell_length_b   7.14277707
_cell_length_c   8.87684440
_cell_angle_alpha   95.80876617
_cell_angle_beta   111.04463851
_cell_angle_gamma   89.99999738
_symmetry_Int_Tables_number   1
_chemical_formula_structural   Ce2Y3Tc2
_chemical_formula_sum   'Ce4 Y6 Tc4'
_cell_volume   375.03925148
_cell_formula_units_Z   2
loop_
 _symmetry_equiv_pos_site_id
 _symmetry_equiv_pos_as_xyz
  1  'x, y, z'
loop_
 _atom_site_type_symbol
 _atom_site_label
 _atom_site_symmetry_multiplicity
 _atom_site_fract_x
 _atom_site_fract_y
 _atom_site_fract_z
 _atom_site_occupancy
  Ce  Ce0  1  0.987674  0.900745  0.190118  1
  Ce  Ce1  1  0.797556  0.599255  0.809882  1
  Ce  Ce2  1  0.012326  0.099255  0.809882  1
  Ce  Ce3  1  0.202444  0.400745  0.190118  1
  Y  Y4  1  0.642829  0.812318  0.429768  1
  Y  Y5  1  0.213061  0.687682  0.570232  1
  Y  Y6  1  0.357171  0.187682  0.570232  1
  Y  Y7  1  0.786939  0.312318  0.429768  1
  Y  Y8  1  0.424388  0.750000  0.000000  1
  Y  Y9  1  0.575612  0.250000  0.000000  1
  Tc  Tc10  1  0.866803  0.594960  0.217942  1
  Tc  Tc11  1  0.648861  0.905040  0.782058  1
  Tc  Tc12  1  0.133197  0.405040  0.782058  1
  Tc  Tc13  1  0.351139  0.094960  0.217942  1
