# generated using pymatgen
data_La3Er3Ta2O14
_symmetry_space_group_name_H-M   'P 1'
_cell_length_a   6.57489274
_cell_length_b   6.55685608
_cell_length_c   7.67666900
_cell_angle_alpha   90.00000000
_cell_angle_beta   90.00000000
_cell_angle_gamma   109.08907603
_symmetry_Int_Tables_number   1
_chemical_formula_structural   La3Er3Ta2O14
_chemical_formula_sum   'La3 Er3 Ta2 O14'
_cell_volume   312.74770536
_cell_formula_units_Z   1
loop_
 _symmetry_equiv_pos_site_id
 _symmetry_equiv_pos_as_xyz
  1  'x, y, z'
loop_
 _atom_site_type_symbol
 _atom_site_label
 _atom_site_symmetry_multiplicity
 _atom_site_fract_x
 _atom_site_fract_y
 _atom_site_fract_z
 _atom_site_occupancy
  La  La0  1  0.507884  0.508148  0.503400  1
  La  La1  1  0.507884  0.508148  0.996600  1
  La  La2  1  0.471798  0.003173  0.250000  1
  Er  Er3  1  0.003494  0.530612  0.250000  1
  Er  Er4  1  0.999064  0.467655  0.750000  1
  Er  Er5  1  0.533267  0.000686  0.750000  1
  Ta  Ta6  1  0.001747  0.000285  0.503524  1
  Ta  Ta7  1  0.001747  0.000285  0.996476  1
  O  O8  1  0.940787  0.071590  0.750000  1
  O  O9  1  0.051318  0.937961  0.250000  1
  O  O10  1  0.355216  0.634383  0.250000  1
  O  O11  1  0.648843  0.354268  0.750000  1
  O  O12  1  0.358803  0.636746  0.750000  1
  O  O13  1  0.648571  0.382411  0.250000  1
  O  O14  1  0.312840  0.067377  0.957436  1
  O  O15  1  0.676152  0.919975  0.485133  1
  O  O16  1  0.312840  0.067377  0.542564  1
  O  O17  1  0.676152  0.919975  0.014867  1
  O  O18  1  0.055588  0.312970  0.463028  1
  O  O19  1  0.940208  0.681504  0.966261  1
  O  O20  1  0.940208  0.681504  0.533739  1
  O  O21  1  0.055588  0.312970  0.036972  1
