# generated using pymatgen
data_Dy6Cd23As
_symmetry_space_group_name_H-M   'P 1'
_cell_length_a   9.94074141
_cell_length_b   9.94074108
_cell_length_c   9.94074200
_cell_angle_alpha   60.00000360
_cell_angle_beta   60.00000469
_cell_angle_gamma   59.99999627
_symmetry_Int_Tables_number   1
_chemical_formula_structural   Dy6Cd23As
_chemical_formula_sum   'Dy6 Cd23 As1'
_cell_volume   694.61052276
_cell_formula_units_Z   1
loop_
 _symmetry_equiv_pos_site_id
 _symmetry_equiv_pos_as_xyz
  1  'x, y, z'
loop_
 _atom_site_type_symbol
 _atom_site_label
 _atom_site_symmetry_multiplicity
 _atom_site_fract_x
 _atom_site_fract_y
 _atom_site_fract_z
 _atom_site_occupancy
  Dy  Dy0  1  0.796230  0.796230  0.203770  1
  Dy  Dy1  1  0.203770  0.796230  0.203770  1
  Dy  Dy2  1  0.796230  0.203770  0.203770  1
  Dy  Dy3  1  0.203770  0.203770  0.796230  1
  Dy  Dy4  1  0.796230  0.203770  0.796230  1
  Dy  Dy5  1  0.203770  0.796230  0.796230  1
  Cd  Cd6  1  0.836597  0.836597  0.490213  1
  Cd  Cd7  1  0.836597  0.490213  0.836597  1
  Cd  Cd8  1  0.490213  0.836597  0.836597  1
  Cd  Cd9  1  0.836597  0.836597  0.836597  1
  Cd  Cd10  1  0.163403  0.163403  0.509787  1
  Cd  Cd11  1  0.163403  0.509787  0.163403  1
  Cd  Cd12  1  0.509787  0.163403  0.163403  1
  Cd  Cd13  1  0.163403  0.163403  0.163403  1
  Cd  Cd14  1  0.621554  0.621554  0.135338  1
  Cd  Cd15  1  0.621554  0.135338  0.621554  1
  Cd  Cd16  1  0.135338  0.621554  0.621554  1
  Cd  Cd17  1  0.621554  0.621554  0.621554  1
  Cd  Cd18  1  0.378446  0.378446  0.864662  1
  Cd  Cd19  1  0.378446  0.864662  0.378446  1
  Cd  Cd20  1  0.864662  0.378446  0.378446  1
  Cd  Cd21  1  0.378446  0.378446  0.378446  1
  Cd  Cd22  1  0.000000  0.000000  0.500000  1
  Cd  Cd23  1  0.500000  0.000000  0.500000  1
  Cd  Cd24  1  0.000000  0.500000  0.500000  1
  Cd  Cd25  1  0.500000  0.500000  0.000000  1
  Cd  Cd26  1  0.000000  0.500000  0.000000  1
  Cd  Cd27  1  0.500000  0.000000  0.000000  1
  Cd  Cd28  1  0.500000  0.500000  0.500000  1
  As  As29  1  0.000000  0.000000  0.000000  1
