# generated using pymatgen
data_K2Ho2Hf3Se10
_symmetry_space_group_name_H-M   'P 1'
_cell_length_a   6.79250427
_cell_length_b   11.46423355
_cell_length_c   9.14000900
_cell_angle_alpha   59.87459752
_cell_angle_beta   68.30570506
_cell_angle_gamma   90.06344522
_symmetry_Int_Tables_number   1
_chemical_formula_structural   K2Ho2Hf3Se10
_chemical_formula_sum   'K2 Ho2 Hf3 Se10'
_cell_volume   556.36326435
_cell_formula_units_Z   1
loop_
 _symmetry_equiv_pos_site_id
 _symmetry_equiv_pos_as_xyz
  1  'x, y, z'
loop_
 _atom_site_type_symbol
 _atom_site_label
 _atom_site_symmetry_multiplicity
 _atom_site_fract_x
 _atom_site_fract_y
 _atom_site_fract_z
 _atom_site_occupancy
  K  K0  1  0.785619  0.074319  0.426929  1
  K  K1  1  0.011585  0.525869  0.974467  1
  Ho  Ho2  1  0.799389  0.601368  0.403297  1
  Ho  Ho3  1  0.202372  0.398375  0.593624  1
  Hf  Hf4  1  0.398887  0.797308  0.201313  1
  Hf  Hf5  1  0.600851  0.202217  0.804006  1
  Hf  Hf6  1  0.999511  0.999182  0.998471  1
  Se  Se7  1  0.006885  0.848219  0.338089  1
  Se  Se8  1  0.596371  0.035484  0.147528  1
  Se  Se9  1  0.191266  0.228577  0.960261  1
  Se  Se10  1  0.773258  0.425599  0.769188  1
  Se  Se11  1  0.382824  0.649912  0.541296  1
  Se  Se12  1  0.402216  0.965255  0.855342  1
  Se  Se13  1  0.993364  0.150513  0.661532  1
  Se  Se14  1  0.621485  0.348297  0.456567  1
  Se  Se15  1  0.228589  0.575581  0.228845  1
  Se  Se16  1  0.805526  0.773926  0.039243  1
