# generated using pymatgen
data_Pr15Dy5(Ir2Ru)4
_symmetry_space_group_name_H-M   'P 1'
_cell_length_a   11.20600070
_cell_length_b   11.19512430
_cell_length_c   6.59324212
_cell_angle_alpha   90.09190475
_cell_angle_beta   89.99856975
_cell_angle_gamma   90.04040216
_symmetry_Int_Tables_number   1
_chemical_formula_structural   Pr15Dy5(Ir2Ru)4
_chemical_formula_sum   'Pr15 Dy5 Ir8 Ru4'
_cell_volume   827.13790318
_cell_formula_units_Z   1
loop_
 _symmetry_equiv_pos_site_id
 _symmetry_equiv_pos_as_xyz
  1  'x, y, z'
loop_
 _atom_site_type_symbol
 _atom_site_label
 _atom_site_symmetry_multiplicity
 _atom_site_fract_x
 _atom_site_fract_y
 _atom_site_fract_z
 _atom_site_occupancy
  Pr  Pr0  1  0.289559  0.088237  0.379590  1
  Pr  Pr1  1  0.291182  0.913317  0.881020  1
  Pr  Pr2  1  0.709307  0.086627  0.881471  1
  Pr  Pr3  1  0.708944  0.913159  0.380860  1
  Pr  Pr4  1  0.586692  0.791081  0.880707  1
  Pr  Pr5  1  0.586702  0.209251  0.380955  1
  Pr  Pr6  1  0.413221  0.791001  0.381065  1
  Pr  Pr7  1  0.412623  0.209005  0.881580  1
  Pr  Pr8  1  0.208024  0.411851  0.619344  1
  Pr  Pr9  1  0.208313  0.584095  0.119107  1
  Pr  Pr10  1  0.792457  0.412247  0.118954  1
  Pr  Pr11  1  0.791083  0.586054  0.619254  1
  Pr  Pr12  1  0.913749  0.708656  0.119086  1
  Pr  Pr13  1  0.915040  0.290751  0.618870  1
  Pr  Pr14  1  0.086816  0.709027  0.618460  1
  Dy  Dy15  1  0.085421  0.293476  0.115174  1
  Dy  Dy16  1  0.000097  0.000532  0.500705  1
  Dy  Dy17  1  0.001093  0.002059  0.001081  1
  Dy  Dy18  1  0.499835  0.499512  0.000581  1
  Dy  Dy19  1  0.499373  0.499738  0.499852  1
  Ir  Ir20  1  0.856633  0.149022  0.247822  1
  Ir  Ir21  1  0.853151  0.852957  0.750027  1
  Ir  Ir22  1  0.146279  0.149589  0.756840  1
  Ir  Ir23  1  0.146707  0.853830  0.250357  1
  Ir  Ir24  1  0.646539  0.353040  0.749991  1
  Ir  Ir25  1  0.646834  0.647000  0.249930  1
  Ir  Ir26  1  0.349260  0.352424  0.248155  1
  Ir  Ir27  1  0.353014  0.646625  0.750301  1
  Ru  Ru28  1  0.499704  0.000238  0.118791  1
  Ru  Ru29  1  0.500045  0.000435  0.618399  1
  Ru  Ru30  1  0.001128  0.497236  0.883314  1
  Ru  Ru31  1  0.001172  0.497929  0.378354  1
