# generated using pymatgen
data_Tm11Sc(Si3Tc)4
_symmetry_space_group_name_H-M   'P 1'
_cell_length_a   4.07569600
_cell_length_b   10.82235843
_cell_length_c   12.27666423
_cell_angle_alpha   89.89192463
_cell_angle_beta   90.00000000
_cell_angle_gamma   90.00000000
_symmetry_Int_Tables_number   1
_chemical_formula_structural   Tm11Sc(Si3Tc)4
_chemical_formula_sum   'Tm11 Sc1 Si12 Tc4'
_cell_volume   541.50603599
_cell_formula_units_Z   1
loop_
 _symmetry_equiv_pos_site_id
 _symmetry_equiv_pos_as_xyz
  1  'x, y, z'
loop_
 _atom_site_type_symbol
 _atom_site_label
 _atom_site_symmetry_multiplicity
 _atom_site_fract_x
 _atom_site_fract_y
 _atom_site_fract_z
 _atom_site_occupancy
  Tm  Tm0  1  0.250000  0.879285  0.017157  1
  Tm  Tm1  1  0.250000  0.621139  0.518327  1
  Tm  Tm2  1  0.750000  0.122031  0.979412  1
  Tm  Tm3  1  0.750000  0.376062  0.483624  1
  Tm  Tm4  1  0.250000  0.925425  0.606631  1
  Tm  Tm5  1  0.250000  0.576178  0.106140  1
  Tm  Tm6  1  0.750000  0.075328  0.395912  1
  Tm  Tm7  1  0.750000  0.422745  0.892972  1
  Tm  Tm8  1  0.250000  0.664910  0.798594  1
  Tm  Tm9  1  0.250000  0.835475  0.298809  1
  Tm  Tm10  1  0.750000  0.332679  0.201200  1
  Sc  Sc11  1  0.750000  0.165641  0.702689  1
  Si  Si12  1  0.250000  0.018817  0.820044  1
  Si  Si13  1  0.250000  0.483022  0.322344  1
  Si  Si14  1  0.750000  0.985678  0.178077  1
  Si  Si15  1  0.750000  0.516144  0.678133  1
  Si  Si16  1  0.250000  0.249529  0.841090  1
  Si  Si17  1  0.250000  0.247979  0.347575  1
  Si  Si18  1  0.750000  0.749644  0.154368  1
  Si  Si19  1  0.750000  0.751165  0.654335  1
  Si  Si20  1  0.250000  0.195889  0.548297  1
  Si  Si21  1  0.250000  0.302423  0.039962  1
  Si  Si22  1  0.750000  0.802843  0.458399  1
  Si  Si23  1  0.750000  0.697323  0.957876  1
  Tc  Tc24  1  0.250000  0.388109  0.679941  1
  Tc  Tc25  1  0.250000  0.112353  0.180704  1
  Tc  Tc26  1  0.750000  0.611383  0.319465  1
  Tc  Tc27  1  0.750000  0.890802  0.817923  1
