# generated using pymatgen
data_TbDyTa4(B2Ru5)2
_symmetry_space_group_name_H-M   'P 1'
_cell_length_a   9.56964970
_cell_length_b   9.56958772
_cell_length_c   3.09246100
_cell_angle_alpha   90.00000000
_cell_angle_beta   90.00000000
_cell_angle_gamma   90.68233064
_symmetry_Int_Tables_number   1
_chemical_formula_structural   TbDyTa4(B2Ru5)2
_chemical_formula_sum   'Tb1 Dy1 Ta4 B4 Ru10'
_cell_volume   283.18008161
_cell_formula_units_Z   1
loop_
 _symmetry_equiv_pos_site_id
 _symmetry_equiv_pos_as_xyz
  1  'x, y, z'
loop_
 _atom_site_type_symbol
 _atom_site_label
 _atom_site_symmetry_multiplicity
 _atom_site_fract_x
 _atom_site_fract_y
 _atom_site_fract_z
 _atom_site_occupancy
  Tb  Tb0  1  0.176173  0.323829  0.000000  1
  Dy  Dy1  1  0.823706  0.676295  0.000000  1
  Ta  Ta2  1  0.324252  0.824244  0.000000  1
  Ta  Ta3  1  0.675758  0.175745  0.000000  1
  Ta  Ta4  1  0.500218  0.500097  0.000000  1
  Ta  Ta5  1  0.999903  0.999783  0.000000  1
  B  B6  1  0.620153  0.879847  0.000000  1
  B  B7  1  0.380077  0.119922  0.000000  1
  B  B8  1  0.121345  0.621552  0.000000  1
  B  B9  1  0.878450  0.378655  0.000000  1
  Ru  Ru10  1  0.559028  0.723402  0.500000  1
  Ru  Ru11  1  0.441362  0.276485  0.500000  1
  Ru  Ru12  1  0.082355  0.785743  0.500000  1
  Ru  Ru13  1  0.917319  0.214204  0.500000  1
  Ru  Ru14  1  0.285797  0.582678  0.500000  1
  Ru  Ru15  1  0.714257  0.417646  0.500000  1
  Ru  Ru16  1  0.223516  0.058637  0.500000  1
  Ru  Ru17  1  0.776599  0.940970  0.500000  1
  Ru  Ru18  1  0.500070  0.999928  0.500000  1
  Ru  Ru19  1  0.999662  0.500339  0.500000  1
