# generated using pymatgen
data_ErLu19Ir12
_symmetry_space_group_name_H-M   'P 1'
_cell_length_a   10.67205301
_cell_length_b   10.67571893
_cell_length_c   6.26613900
_cell_angle_alpha   89.97697589
_cell_angle_beta   90.00260385
_cell_angle_gamma   90.00659163
_symmetry_Int_Tables_number   1
_chemical_formula_structural   ErLu19Ir12
_chemical_formula_sum   'Er1 Lu19 Ir12'
_cell_volume   713.91267271
_cell_formula_units_Z   1
loop_
 _symmetry_equiv_pos_site_id
 _symmetry_equiv_pos_as_xyz
  1  'x, y, z'
loop_
 _atom_site_type_symbol
 _atom_site_label
 _atom_site_symmetry_multiplicity
 _atom_site_fract_x
 _atom_site_fract_y
 _atom_site_fract_z
 _atom_site_occupancy
  Er  Er0  1  0.087561  0.290544  0.124314  1
  Lu  Lu1  1  0.292199  0.086448  0.377170  1
  Lu  Lu2  1  0.291610  0.912914  0.877088  1
  Lu  Lu3  1  0.708351  0.087128  0.876551  1
  Lu  Lu4  1  0.708342  0.912823  0.376870  1
  Lu  Lu5  1  0.587127  0.791682  0.876960  1
  Lu  Lu6  1  0.587094  0.208416  0.376907  1
  Lu  Lu7  1  0.412901  0.791593  0.376786  1
  Lu  Lu8  1  0.412972  0.208387  0.876634  1
  Lu  Lu9  1  0.208531  0.413340  0.623080  1
  Lu  Lu10  1  0.208469  0.587782  0.123135  1
  Lu  Lu11  1  0.791118  0.413144  0.123199  1
  Lu  Lu12  1  0.791335  0.587315  0.623288  1
  Lu  Lu13  1  0.912705  0.708539  0.123294  1
  Lu  Lu14  1  0.912380  0.291843  0.623126  1
  Lu  Lu15  1  0.087220  0.708621  0.623282  1
  Lu  Lu16  1  0.999816  0.999895  0.499918  1
  Lu  Lu17  1  0.999615  0.999265  0.999548  1
  Lu  Lu18  1  0.500052  0.500158  0.999705  1
  Lu  Lu19  1  0.500203  0.500127  0.499977  1
  Ir  Ir20  1  0.845062  0.152824  0.250653  1
  Ir  Ir21  1  0.846359  0.846091  0.749999  1
  Ir  Ir22  1  0.154071  0.152805  0.747199  1
  Ir  Ir23  1  0.153595  0.846284  0.249774  1
  Ir  Ir24  1  0.653739  0.346341  0.750167  1
  Ir  Ir25  1  0.653691  0.653728  0.249947  1
  Ir  Ir26  1  0.348107  0.346348  0.251202  1
  Ir  Ir27  1  0.346434  0.653743  0.750013  1
  Ir  Ir28  1  0.500260  0.999943  0.122892  1
  Ir  Ir29  1  0.500036  0.999826  0.623185  1
  Ir  Ir30  1  0.999560  0.501009  0.876173  1
  Ir  Ir31  1  0.999484  0.501094  0.377964  1
