# generated using pymatgen
data_NpMoCl28
_symmetry_space_group_name_H-M   'P 1'
_cell_length_a   15.29438578
_cell_length_b   15.77640585
_cell_length_c   9.83687867
_cell_angle_alpha   68.89907514
_cell_angle_beta   74.22792974
_cell_angle_gamma   36.85770906
_symmetry_Int_Tables_number   1
_chemical_formula_structural   NpMoCl28
_chemical_formula_sum   'Np1 Mo1 Cl28'
_cell_volume   1327.69929545
_cell_formula_units_Z   1
loop_
 _symmetry_equiv_pos_site_id
 _symmetry_equiv_pos_as_xyz
  1  'x, y, z'
loop_
 _atom_site_type_symbol
 _atom_site_label
 _atom_site_symmetry_multiplicity
 _atom_site_fract_x
 _atom_site_fract_y
 _atom_site_fract_z
 _atom_site_occupancy
  Np  Np0  1  0.127820  0.127820  0.372180  1
  Mo  Mo1  1  0.877814  0.877814  0.122186  1
  Cl  Cl2  1  0.610890  0.855141  0.571776  1
  Cl  Cl3  1  0.677805  0.287459  0.639994  1
  Cl  Cl4  1  0.855141  0.610890  0.962192  1
  Cl  Cl5  1  0.287459  0.677805  0.394743  1
  Cl  Cl6  1  0.065118  0.065355  0.258735  1
  Cl  Cl7  1  0.183672  0.196926  0.485379  1
  Cl  Cl8  1  0.196926  0.183672  0.134023  1
  Cl  Cl9  1  0.919374  0.836833  0.359851  1
  Cl  Cl10  1  0.154162  0.448202  0.813855  1
  Cl  Cl11  1  0.652885  0.984938  0.180199  1
  Cl  Cl12  1  0.303829  0.357831  0.944347  1
  Cl  Cl13  1  0.735180  0.653279  0.576451  1
  Cl  Cl14  1  0.855872  0.305675  0.892241  1
  Cl  Cl15  1  0.436039  0.666119  0.095917  1
  Cl  Cl16  1  0.357831  0.303829  0.393991  1
  Cl  Cl17  1  0.380412  0.875319  0.415612  1
  Cl  Cl18  1  0.666119  0.436039  0.801925  1
  Cl  Cl19  1  0.984938  0.652885  0.181977  1
  Cl  Cl20  1  0.673706  0.214915  0.514425  1
  Cl  Cl21  1  0.448202  0.154162  0.583780  1
  Cl  Cl22  1  0.101999  0.771331  0.056424  1
  Cl  Cl23  1  0.653279  0.735180  0.035091  1
  Cl  Cl24  1  0.771331  0.101999  0.070246  1
  Cl  Cl25  1  0.065355  0.065118  0.610794  1
  Cl  Cl26  1  0.305675  0.855872  0.946213  1
  Cl  Cl27  1  0.875319  0.380412  0.328656  1
  Cl  Cl28  1  0.214915  0.673706  0.596953  1
  Cl  Cl29  1  0.836833  0.919374  0.883942  1
