# generated using pymatgen
data_Th8Sc12Si15Ni
_symmetry_space_group_name_H-M   'P 1'
_cell_length_a   7.25175836
_cell_length_b   7.52127415
_cell_length_c   14.10698600
_cell_angle_alpha   90.00000000
_cell_angle_beta   90.00000000
_cell_angle_gamma   89.89238652
_symmetry_Int_Tables_number   1
_chemical_formula_structural   Th8Sc12Si15Ni
_chemical_formula_sum   'Th8 Sc12 Si15 Ni1'
_cell_volume   769.42840076
_cell_formula_units_Z   1
loop_
 _symmetry_equiv_pos_site_id
 _symmetry_equiv_pos_as_xyz
  1  'x, y, z'
loop_
 _atom_site_type_symbol
 _atom_site_label
 _atom_site_symmetry_multiplicity
 _atom_site_fract_x
 _atom_site_fract_y
 _atom_site_fract_z
 _atom_site_occupancy
  Th  Th0  1  0.000524  0.673744  0.596970  1
  Th  Th1  1  0.000804  0.324784  0.405389  1
  Th  Th2  1  0.500460  0.173541  0.404104  1
  Th  Th3  1  0.000804  0.324784  0.094611  1
  Th  Th4  1  0.500243  0.824932  0.597113  1
  Th  Th5  1  0.000524  0.673744  0.903030  1
  Th  Th6  1  0.500243  0.824932  0.902887  1
  Th  Th7  1  0.500460  0.173541  0.095896  1
  Sc  Sc8  1  0.169730  0.998421  0.750000  1
  Sc  Sc9  1  0.828869  0.001611  0.250000  1
  Sc  Sc10  1  0.329767  0.497217  0.250000  1
  Sc  Sc11  1  0.676958  0.497984  0.750000  1
  Sc  Sc12  1  0.332996  0.329158  0.627465  1
  Sc  Sc13  1  0.659387  0.672710  0.374207  1
  Sc  Sc14  1  0.157638  0.825649  0.375606  1
  Sc  Sc15  1  0.659387  0.672710  0.125793  1
  Sc  Sc16  1  0.845091  0.176247  0.627430  1
  Sc  Sc17  1  0.332996  0.329158  0.872535  1
  Sc  Sc18  1  0.845091  0.176247  0.872570  1
  Sc  Sc19  1  0.157638  0.825649  0.124394  1
  Si  Si20  1  0.956668  0.620142  0.250000  1
  Si  Si21  1  0.453205  0.878176  0.250000  1
  Si  Si22  1  0.544833  0.119418  0.750000  1
  Si  Si23  1  0.296815  0.621925  0.750000  1
  Si  Si24  1  0.701476  0.374430  0.250000  1
  Si  Si25  1  0.200141  0.121263  0.250000  1
  Si  Si26  1  0.798639  0.880183  0.750000  1
  Si  Si27  1  0.169649  0.037108  0.541227  1
  Si  Si28  1  0.830766  0.960269  0.461234  1
  Si  Si29  1  0.335316  0.537293  0.460988  1
  Si  Si30  1  0.830766  0.960269  0.038766  1
  Si  Si31  1  0.665127  0.461529  0.540119  1
  Si  Si32  1  0.169649  0.037108  0.958773  1
  Si  Si33  1  0.665127  0.461529  0.959881  1
  Si  Si34  1  0.335316  0.537293  0.039012  1
  Ni  Ni35  1  0.046898  0.395303  0.750000  1
