# generated using pymatgen
data_PuP2O7
_symmetry_space_group_name_H-M   'P 1'
_cell_length_a   8.83859400
_cell_length_b   5.30842803
_cell_length_c   7.41915039
_cell_angle_alpha   71.06459413
_cell_angle_beta   90.00000000
_cell_angle_gamma   90.00000000
_symmetry_Int_Tables_number   1
_chemical_formula_structural   PuP2O7
_chemical_formula_sum   'Pu2 P4 O14'
_cell_volume   329.26201999
_cell_formula_units_Z   2
loop_
 _symmetry_equiv_pos_site_id
 _symmetry_equiv_pos_as_xyz
  1  'x, y, z'
loop_
 _atom_site_type_symbol
 _atom_site_label
 _atom_site_symmetry_multiplicity
 _atom_site_fract_x
 _atom_site_fract_y
 _atom_site_fract_z
 _atom_site_occupancy
  Pu  Pu0  1  0.048496  0.198658  0.281037  1
  Pu  Pu1  1  0.548496  0.801342  0.718963  1
  P  P2  1  0.275685  0.766894  0.094947  1
  P  P3  1  0.775685  0.233106  0.905053  1
  P  P4  1  0.370465  0.409932  0.469754  1
  P  P5  1  0.870465  0.590068  0.530246  1
  O  O6  1  0.380684  0.590667  0.593550  1
  O  O7  1  0.643139  0.418192  0.909770  1
  O  O8  1  0.143139  0.581808  0.090230  1
  O  O9  1  0.213516  0.281728  0.481163  1
  O  O10  1  0.865778  0.143526  0.090205  1
  O  O11  1  0.223916  0.003806  0.154592  1
  O  O12  1  0.365778  0.856474  0.909795  1
  O  O13  1  0.997101  0.798252  0.488522  1
  O  O14  1  0.397080  0.595751  0.251253  1
  O  O15  1  0.880684  0.409333  0.406450  1
  O  O16  1  0.497101  0.201748  0.511478  1
  O  O17  1  0.723916  0.996194  0.845408  1
  O  O18  1  0.713516  0.718272  0.518837  1
  O  O19  1  0.897080  0.404249  0.748747  1
