# generated using pymatgen
data_Ho4TmVMoO12
_symmetry_space_group_name_H-M   'P 1'
_cell_length_a   6.77432605
_cell_length_b   6.77417466
_cell_length_c   7.27614729
_cell_angle_alpha   74.24496698
_cell_angle_beta   74.24647487
_cell_angle_gamma   51.77328868
_symmetry_Int_Tables_number   1
_chemical_formula_structural   Ho4TmVMoO12
_chemical_formula_sum   'Ho4 Tm1 V1 Mo1 O12'
_cell_volume   250.07534506
_cell_formula_units_Z   1
loop_
 _symmetry_equiv_pos_site_id
 _symmetry_equiv_pos_as_xyz
  1  'x, y, z'
loop_
 _atom_site_type_symbol
 _atom_site_label
 _atom_site_symmetry_multiplicity
 _atom_site_fract_x
 _atom_site_fract_y
 _atom_site_fract_z
 _atom_site_occupancy
  Ho  Ho0  1  0.706429  0.687516  0.637720  1
  Ho  Ho1  1  0.312946  0.307458  0.824644  1
  Ho  Ho2  1  0.692403  0.687067  0.174890  1
  Ho  Ho3  1  0.003576  0.997232  0.499482  1
  Tm  Tm4  1  0.312864  0.293772  0.361338  1
  V  V5  1  0.744455  0.254966  0.000664  1
  Mo  Mo6  1  0.231599  0.767853  0.000565  1
  O  O7  1  0.897272  0.426328  0.918143  1
  O  O8  1  0.429946  0.898881  0.917005  1
  O  O9  1  0.101642  0.569133  0.084671  1
  O  O10  1  0.572482  0.103509  0.083903  1
  O  O11  1  0.104725  0.590162  0.572009  1
  O  O12  1  0.598645  0.091435  0.573874  1
  O  O13  1  0.912466  0.399107  0.423542  1
  O  O14  1  0.407802  0.899013  0.425618  1
  O  O15  1  0.989209  0.010180  0.813794  1
  O  O16  1  0.989360  0.010228  0.186766  1
  O  O17  1  0.496142  0.503143  0.809683  1
  O  O18  1  0.496036  0.503017  0.191689  1
