# generated using pymatgen
data_Dy3YFeOs7
_symmetry_space_group_name_H-M   'P 1'
_cell_length_a   5.27388228
_cell_length_b   5.30870599
_cell_length_c   8.85640300
_cell_angle_alpha   89.99993524
_cell_angle_beta   90.01859927
_cell_angle_gamma   120.21910623
_symmetry_Int_Tables_number   1
_chemical_formula_structural   Dy3YFeOs7
_chemical_formula_sum   'Dy3 Y1 Fe1 Os7'
_cell_volume   214.26141818
_cell_formula_units_Z   1
loop_
 _symmetry_equiv_pos_site_id
 _symmetry_equiv_pos_as_xyz
  1  'x, y, z'
loop_
 _atom_site_type_symbol
 _atom_site_label
 _atom_site_symmetry_multiplicity
 _atom_site_fract_x
 _atom_site_fract_y
 _atom_site_fract_z
 _atom_site_occupancy
  Dy  Dy0  1  0.337759  0.668602  0.437076  1
  Dy  Dy1  1  0.665967  0.333090  0.566260  1
  Dy  Dy2  1  0.665835  0.333017  0.933596  1
  Y  Y3  1  0.337821  0.668619  0.063300  1
  Fe  Fe4  1  0.663938  0.832074  0.749686  1
  Os  Os5  1  0.002583  0.001538  0.501993  1
  Os  Os6  1  0.002723  0.001582  0.997953  1
  Os  Os7  1  0.827143  0.173265  0.250164  1
  Os  Os8  1  0.827340  0.653047  0.250152  1
  Os  Os9  1  0.334444  0.166820  0.250149  1
  Os  Os10  1  0.166963  0.824167  0.749835  1
  Os  Os11  1  0.167484  0.344180  0.749835  1
