# generated using pymatgen
data_Na5La8AgAu20
_symmetry_space_group_name_H-M   'P 1'
_cell_length_a   8.92343286
_cell_length_b   8.92340263
_cell_length_c   10.51293100
_cell_angle_alpha   89.75757388
_cell_angle_beta   90.24240604
_cell_angle_gamma   108.66100250
_symmetry_Int_Tables_number   1
_chemical_formula_structural   Na5La8AgAu20
_chemical_formula_sum   'Na5 La8 Ag1 Au20'
_cell_volume   793.09774846
_cell_formula_units_Z   1
loop_
 _symmetry_equiv_pos_site_id
 _symmetry_equiv_pos_as_xyz
  1  'x, y, z'
loop_
 _atom_site_type_symbol
 _atom_site_label
 _atom_site_symmetry_multiplicity
 _atom_site_fract_x
 _atom_site_fract_y
 _atom_site_fract_z
 _atom_site_occupancy
  Na  Na0  1  0.985850  0.485846  0.749997  1
  Na  Na1  1  0.999317  0.999451  0.999951  1
  Na  Na2  1  0.013973  0.513969  0.250002  1
  Na  Na3  1  0.486562  0.986558  0.750000  1
  Na  Na4  1  0.499441  0.499310  0.500051  1
  La  La5  1  0.698405  0.296390  0.002993  1
  La  La6  1  0.201938  0.800601  0.498935  1
  La  La7  1  0.795435  0.802141  0.297039  1
  La  La8  1  0.302117  0.295442  0.202962  1
  La  La9  1  0.796392  0.198415  0.497009  1
  La  La10  1  0.300595  0.701935  0.001056  1
  La  La11  1  0.699565  0.700280  0.797270  1
  La  La12  1  0.200277  0.199549  0.702734  1
  Ag  Ag13  1  0.517292  0.017292  0.250001  1
  Au  Au14  1  0.152860  0.431570  0.487499  1
  Au  Au15  1  0.903580  0.902774  0.594464  1
  Au  Au16  1  0.569686  0.846650  0.514068  1
  Au  Au17  1  0.883489  0.160290  0.208929  1
  Au  Au18  1  0.383318  0.664384  0.289954  1
  Au  Au19  1  0.660291  0.383492  0.291068  1
  Au  Au20  1  0.402779  0.403580  0.905537  1
  Au  Au21  1  0.931571  0.652854  0.012502  1
  Au  Au22  1  0.339677  0.618340  0.709025  1
  Au  Au23  1  0.346651  0.069686  0.985933  1
  Au  Au24  1  0.597229  0.595566  0.094041  1
  Au  Au25  1  0.650435  0.929966  0.014620  1
  Au  Au26  1  0.095568  0.097225  0.405957  1
  Au  Au27  1  0.617957  0.338163  0.709034  1
  Au  Au28  1  0.118344  0.839675  0.790977  1
  Au  Au29  1  0.069114  0.347784  0.988271  1
  Au  Au30  1  0.847785  0.569116  0.511726  1
  Au  Au31  1  0.164385  0.883317  0.210043  1
  Au  Au32  1  0.429966  0.150435  0.485380  1
  Au  Au33  1  0.838160  0.117954  0.790971  1
