# generated using pymatgen
data_Hf10C7N2
_symmetry_space_group_name_H-M   'P 1'
_cell_length_a   8.66058525
_cell_length_b   8.65807814
_cell_length_c   10.84493726
_cell_angle_alpha   62.83302855
_cell_angle_beta   62.84771224
_cell_angle_gamma   44.43114067
_symmetry_Int_Tables_number   1
_chemical_formula_structural   Hf10C7N2
_chemical_formula_sum   'Hf20 C14 N4'
_cell_volume   495.26657894
_cell_formula_units_Z   2
loop_
 _symmetry_equiv_pos_site_id
 _symmetry_equiv_pos_as_xyz
  1  'x, y, z'
loop_
 _atom_site_type_symbol
 _atom_site_label
 _atom_site_symmetry_multiplicity
 _atom_site_fract_x
 _atom_site_fract_y
 _atom_site_fract_z
 _atom_site_occupancy
  Hf  Hf0  1  0.226713  0.477921  0.947591  1
  Hf  Hf1  1  0.720656  0.968393  0.957879  1
  Hf  Hf2  1  0.565151  0.330309  0.649394  1
  Hf  Hf3  1  0.434809  0.670405  0.350671  1
  Hf  Hf4  1  0.278060  0.031100  0.042807  1
  Hf  Hf5  1  0.082800  0.814933  0.645242  1
  Hf  Hf6  1  0.125021  0.371034  0.750104  1
  Hf  Hf7  1  0.918943  0.184576  0.354463  1
  Hf  Hf8  1  0.968546  0.721190  0.456303  1
  Hf  Hf9  1  0.773546  0.520754  0.051501  1
  Hf  Hf10  1  0.625886  0.876383  0.748990  1
  Hf  Hf11  1  0.815403  0.081261  0.145440  1
  Hf  Hf12  1  0.475921  0.225209  0.447506  1
  Hf  Hf13  1  0.670354  0.434696  0.850869  1
  Hf  Hf14  1  0.522441  0.775806  0.552698  1
  Hf  Hf15  1  0.329253  0.565081  0.148948  1
  Hf  Hf16  1  0.373045  0.124641  0.251652  1
  Hf  Hf17  1  0.184671  0.918939  0.854199  1
  Hf  Hf18  1  0.031375  0.278431  0.544292  1
  Hf  Hf19  1  0.876483  0.628140  0.250675  1
  C  C20  1  0.424890  0.172292  0.852437  1
  C  C21  1  0.626299  0.376576  0.249861  1
  C  C22  1  0.274083  0.528549  0.550499  1
  C  C23  1  0.475719  0.725563  0.950594  1
  C  C24  1  0.324808  0.075207  0.650590  1
  C  C25  1  0.174125  0.423911  0.350809  1
  C  C26  1  0.975104  0.225073  0.952270  1
  C  C27  1  0.826057  0.577776  0.648499  1
  C  C28  1  0.023895  0.775301  0.048904  1
  C  C29  1  0.676404  0.924632  0.349025  1
  C  C30  1  0.726134  0.471121  0.448223  1
  C  C31  1  0.525349  0.273569  0.050011  1
  C  C32  1  0.373299  0.623815  0.750157  1
  C  C33  1  0.221239  0.975484  0.449040  1
  N  N34  1  0.074312  0.323029  0.150194  1
  N  N35  1  0.923498  0.678080  0.850588  1
  N  N36  1  0.577946  0.826805  0.146846  1
  N  N37  1  0.777760  0.024016  0.550228  1
