# generated using pymatgen
data_Zr4ZnIn2Pt3
_symmetry_space_group_name_H-M   'P 1'
_cell_length_a   7.51419416
_cell_length_b   7.51419403
_cell_length_c   6.98176129
_cell_angle_alpha   90.09784122
_cell_angle_beta   90.09784075
_cell_angle_gamma   90.66790791
_symmetry_Int_Tables_number   1
_chemical_formula_structural   Zr4ZnIn2Pt3
_chemical_formula_sum   'Zr8 Zn2 In4 Pt6'
_cell_volume   394.18402849
_cell_formula_units_Z   2
loop_
 _symmetry_equiv_pos_site_id
 _symmetry_equiv_pos_as_xyz
  1  'x, y, z'
loop_
 _atom_site_type_symbol
 _atom_site_label
 _atom_site_symmetry_multiplicity
 _atom_site_fract_x
 _atom_site_fract_y
 _atom_site_fract_z
 _atom_site_occupancy
  Zr  Zr0  1  0.647298  0.647298  0.508083  1
  Zr  Zr1  1  0.802458  0.197542  0.500000  1
  Zr  Zr2  1  0.687674  0.687674  0.997006  1
  Zr  Zr3  1  0.849572  0.150428  0.000000  1
  Zr  Zr4  1  0.197542  0.802458  0.500000  1
  Zr  Zr5  1  0.312326  0.312326  0.002994  1
  Zr  Zr6  1  0.150428  0.849572  0.000000  1
  Zr  Zr7  1  0.352702  0.352702  0.491917  1
  Zn  Zn8  1  0.872320  0.872320  0.300973  1
  Zn  Zn9  1  0.127680  0.127680  0.699027  1
  In  In10  1  0.998922  0.498736  0.248266  1
  In  In11  1  0.501264  0.001078  0.751734  1
  In  In12  1  0.498736  0.998922  0.248266  1
  In  In13  1  0.001078  0.501264  0.751734  1
  Pt  Pt14  1  0.630414  0.370021  0.210368  1
  Pt  Pt15  1  0.369586  0.629979  0.789632  1
  Pt  Pt16  1  0.877778  0.877778  0.709900  1
  Pt  Pt17  1  0.629979  0.369586  0.789632  1
  Pt  Pt18  1  0.370021  0.630414  0.210368  1
  Pt  Pt19  1  0.122222  0.122222  0.290100  1
