# generated using pymatgen
data_Ta4Co4B3P
_symmetry_space_group_name_H-M   'P 1'
_cell_length_a   3.40094700
_cell_length_b   5.90832777
_cell_length_c   6.83025865
_cell_angle_alpha   90.08419906
_cell_angle_beta   90.00000000
_cell_angle_gamma   90.00000000
_symmetry_Int_Tables_number   1
_chemical_formula_structural   Ta4Co4B3P
_chemical_formula_sum   'Ta4 Co4 B3 P1'
_cell_volume   137.24645173
_cell_formula_units_Z   1
loop_
 _symmetry_equiv_pos_site_id
 _symmetry_equiv_pos_as_xyz
  1  'x, y, z'
loop_
 _atom_site_type_symbol
 _atom_site_label
 _atom_site_symmetry_multiplicity
 _atom_site_fract_x
 _atom_site_fract_y
 _atom_site_fract_z
 _atom_site_occupancy
  Ta  Ta0  1  0.250000  0.017564  0.831657  1
  Ta  Ta1  1  0.250000  0.541574  0.681490  1
  Ta  Ta2  1  0.750000  0.975666  0.179779  1
  Ta  Ta3  1  0.750000  0.482074  0.311503  1
  Co  Co4  1  0.250000  0.137521  0.431632  1
  Co  Co5  1  0.250000  0.641108  0.059436  1
  Co  Co6  1  0.750000  0.849945  0.555689  1
  Co  Co7  1  0.750000  0.357637  0.945616  1
  B  B8  1  0.250000  0.269910  0.120460  1
  B  B9  1  0.250000  0.770897  0.376473  1
  B  B10  1  0.750000  0.727949  0.885154  1
  P  P11  1  0.750000  0.228156  0.621111  1
