# generated using pymatgen
data_Cs3MnVBr9
_symmetry_space_group_name_H-M   'P 1'
_cell_length_a   7.73941700
_cell_length_b   7.73941698
_cell_length_c   19.60811800
_cell_angle_alpha   90.00000000
_cell_angle_beta   90.00000000
_cell_angle_gamma   119.99999580
_symmetry_Int_Tables_number   1
_chemical_formula_structural   Cs3MnVBr9
_chemical_formula_sum   'Cs6 Mn2 V2 Br18'
_cell_volume   1017.14543665
_cell_formula_units_Z   2
loop_
 _symmetry_equiv_pos_site_id
 _symmetry_equiv_pos_as_xyz
  1  'x, y, z'
loop_
 _atom_site_type_symbol
 _atom_site_label
 _atom_site_symmetry_multiplicity
 _atom_site_fract_x
 _atom_site_fract_y
 _atom_site_fract_z
 _atom_site_occupancy
  Cs  Cs0  1  0.666667  0.333333  0.568806  1
  Cs  Cs1  1  0.333333  0.666667  0.068043  1
  Cs  Cs2  1  0.333333  0.666667  0.431194  1
  Cs  Cs3  1  0.666667  0.333333  0.931957  1
  Cs  Cs4  1  0.000000  0.000000  0.251202  1
  Cs  Cs5  1  0.000000  0.000000  0.748798  1
  Mn  Mn6  1  0.333333  0.666667  0.658312  1
  Mn  Mn7  1  0.666667  0.333333  0.341688  1
  V  V8  1  0.333333  0.666667  0.835819  1
  V  V9  1  0.666667  0.333333  0.164181  1
  Br  Br10  1  0.826170  0.652340  0.406164  1
  Br  Br11  1  0.173830  0.826170  0.593836  1
  Br  Br12  1  0.652340  0.826170  0.593836  1
  Br  Br13  1  0.826170  0.173830  0.406164  1
  Br  Br14  1  0.347660  0.173830  0.406164  1
  Br  Br15  1  0.177415  0.354831  0.905365  1
  Br  Br16  1  0.033768  0.516884  0.752602  1
  Br  Br17  1  0.645169  0.822585  0.905365  1
  Br  Br18  1  0.822585  0.645169  0.094635  1
  Br  Br19  1  0.173830  0.347660  0.593836  1
  Br  Br20  1  0.483116  0.966232  0.752602  1
  Br  Br21  1  0.516884  0.483116  0.247398  1
  Br  Br22  1  0.483116  0.516884  0.752602  1
  Br  Br23  1  0.177415  0.822585  0.905365  1
  Br  Br24  1  0.354831  0.177415  0.094635  1
  Br  Br25  1  0.966232  0.483116  0.247398  1
  Br  Br26  1  0.516884  0.033768  0.247398  1
  Br  Br27  1  0.822585  0.177415  0.094635  1
