# generated using pymatgen
data_Dy5Zr2Co12P12Ru5
_symmetry_space_group_name_H-M   'P 1'
_cell_length_a   12.35345289
_cell_length_b   12.36628659
_cell_length_c   3.74620800
_cell_angle_alpha   90.00000000
_cell_angle_beta   90.00000000
_cell_angle_gamma   119.74987766
_symmetry_Int_Tables_number   1
_chemical_formula_structural   Dy5Zr2Co12P12Ru5
_chemical_formula_sum   'Dy5 Zr2 Co12 P12 Ru5'
_cell_volume   496.86599570
_cell_formula_units_Z   1
loop_
 _symmetry_equiv_pos_site_id
 _symmetry_equiv_pos_as_xyz
  1  'x, y, z'
loop_
 _atom_site_type_symbol
 _atom_site_label
 _atom_site_symmetry_multiplicity
 _atom_site_fract_x
 _atom_site_fract_y
 _atom_site_fract_z
 _atom_site_occupancy
  Dy  Dy0  1  0.668056  0.334584  0.000000  1
  Dy  Dy1  1  0.334489  0.666222  0.000000  1
  Dy  Dy2  1  0.179488  0.178540  0.500000  1
  Dy  Dy3  1  0.820481  0.999199  0.500000  1
  Dy  Dy4  1  0.999096  0.815217  0.500000  1
  Zr  Zr5  1  0.557470  0.563347  0.000000  1
  Zr  Zr6  1  0.440125  0.998157  0.000000  1
  Co  Co7  1  0.833468  0.200284  0.000000  1
  Co  Co8  1  0.804945  0.629554  0.000000  1
  Co  Co9  1  0.366925  0.173449  0.000000  1
  Co  Co10  1  0.193746  0.821231  0.000000  1
  Co  Co11  1  0.629254  0.809856  0.000000  1
  Co  Co12  1  0.173093  0.371563  0.000000  1
  Co  Co13  1  0.517916  0.872892  0.500000  1
  Co  Co14  1  0.348868  0.483094  0.500000  1
  Co  Co15  1  0.722679  0.724622  0.500000  1
  Co  Co16  1  0.275164  0.996555  0.500000  1
  Co  Co17  1  0.003449  0.281868  0.500000  1
  Co  Co18  1  0.000670  0.000399  0.000000  1
  P  P19  1  0.346863  0.354995  0.000000  1
  P  P20  1  0.651694  0.002657  0.000000  1
  P  P21  1  0.000206  0.635098  0.000000  1
  P  P22  1  0.842283  0.315053  0.500000  1
  P  P23  1  0.688480  0.522962  0.500000  1
  P  P24  1  0.475782  0.167263  0.500000  1
  P  P25  1  0.311205  0.830542  0.500000  1
  P  P26  1  0.522856  0.697542  0.500000  1
  P  P27  1  0.164871  0.474599  0.500000  1
  P  P28  1  0.821798  0.821444  0.000000  1
  P  P29  1  0.177305  0.996854  0.000000  1
  P  P30  1  0.002017  0.179578  0.000000  1
  Ru  Ru31  1  0.000641  0.443302  0.000000  1
  Ru  Ru32  1  0.652366  0.125792  0.500000  1
  Ru  Ru33  1  0.873636  0.517011  0.500000  1
  Ru  Ru34  1  0.471517  0.353356  0.500000  1
  Ru  Ru35  1  0.127099  0.641322  0.500000  1
