# generated using pymatgen
data_Y3Fe8Co
_symmetry_space_group_name_H-M   'P 1'
_cell_length_a   5.11934900
_cell_length_b   5.11934937
_cell_length_c   16.25091400
_cell_angle_alpha   90.00000000
_cell_angle_beta   90.00000000
_cell_angle_gamma   119.99999115
_symmetry_Int_Tables_number   1
_chemical_formula_structural   Y3Fe8Co
_chemical_formula_sum   'Y6 Fe16 Co2'
_cell_volume   368.83996231
_cell_formula_units_Z   2
loop_
 _symmetry_equiv_pos_site_id
 _symmetry_equiv_pos_as_xyz
  1  'x, y, z'
loop_
 _atom_site_type_symbol
 _atom_site_label
 _atom_site_symmetry_multiplicity
 _atom_site_fract_x
 _atom_site_fract_y
 _atom_site_fract_z
 _atom_site_occupancy
  Y  Y0  1  0.333333  0.666667  0.963271  1
  Y  Y1  1  0.666667  0.333333  0.036729  1
  Y  Y2  1  0.666667  0.333333  0.463271  1
  Y  Y3  1  0.333333  0.666667  0.536729  1
  Y  Y4  1  0.333333  0.666667  0.750000  1
  Y  Y5  1  0.666667  0.333333  0.250000  1
  Fe  Fe6  1  0.166414  0.833586  0.372580  1
  Fe  Fe7  1  0.166414  0.332828  0.372580  1
  Fe  Fe8  1  0.667172  0.833586  0.372580  1
  Fe  Fe9  1  0.833586  0.166414  0.627420  1
  Fe  Fe10  1  0.833586  0.667172  0.627420  1
  Fe  Fe11  1  0.332828  0.166414  0.627420  1
  Fe  Fe12  1  0.833586  0.166414  0.872580  1
  Fe  Fe13  1  0.833586  0.667172  0.872580  1
  Fe  Fe14  1  0.332828  0.166414  0.872580  1
  Fe  Fe15  1  0.166414  0.833586  0.127420  1
  Fe  Fe16  1  0.166414  0.332828  0.127420  1
  Fe  Fe17  1  0.667172  0.833586  0.127420  1
  Fe  Fe18  1  0.333333  0.666667  0.250000  1
  Fe  Fe19  1  0.666667  0.333333  0.750000  1
  Fe  Fe20  1  0.000000  0.000000  0.250000  1
  Fe  Fe21  1  0.000000  0.000000  0.750000  1
  Co  Co22  1  0.000000  0.000000  0.500000  1
  Co  Co23  1  0.000000  0.000000  0.000000  1
