# generated using pymatgen
data_Dy3Tm3Al19Si5Os8
_symmetry_space_group_name_H-M   'P 1'
_cell_length_a   8.67718000
_cell_length_b   8.66326816
_cell_length_c   9.56703400
_cell_angle_alpha   90.00000000
_cell_angle_beta   90.00000000
_cell_angle_gamma   120.05313507
_symmetry_Int_Tables_number   1
_chemical_formula_structural   Dy3Tm3Al19Si5Os8
_chemical_formula_sum   'Dy3 Tm3 Al19 Si5 Os8'
_cell_volume   622.49451966
_cell_formula_units_Z   1
loop_
 _symmetry_equiv_pos_site_id
 _symmetry_equiv_pos_as_xyz
  1  'x, y, z'
loop_
 _atom_site_type_symbol
 _atom_site_label
 _atom_site_symmetry_multiplicity
 _atom_site_fract_x
 _atom_site_fract_y
 _atom_site_fract_z
 _atom_site_occupancy
  Dy  Dy0  1  0.806313  0.612627  0.750000  1
  Dy  Dy1  1  0.388530  0.194647  0.750000  1
  Dy  Dy2  1  0.806116  0.194647  0.750000  1
  Tm  Tm3  1  0.195748  0.391497  0.250000  1
  Tm  Tm4  1  0.606003  0.805477  0.250000  1
  Tm  Tm5  1  0.199474  0.805477  0.250000  1
  Al  Al6  1  0.164752  0.329505  0.578050  1
  Al  Al7  1  0.834787  0.669573  0.421287  1
  Al  Al8  1  0.669715  0.835236  0.576704  1
  Al  Al9  1  0.834787  0.669573  0.078713  1
  Al  Al10  1  0.328902  0.165402  0.421429  1
  Al  Al11  1  0.164752  0.329505  0.921950  1
  Al  Al12  1  0.165521  0.835236  0.576704  1
  Al  Al13  1  0.328902  0.165402  0.078571  1
  Al  Al14  1  0.836500  0.165402  0.421429  1
  Al  Al15  1  0.669715  0.835236  0.923296  1
  Al  Al16  1  0.836500  0.165402  0.078571  1
  Al  Al17  1  0.165521  0.835236  0.923296  1
  Al  Al18  1  0.436893  0.873785  0.750000  1
  Al  Al19  1  0.873511  0.433897  0.250000  1
  Al  Al20  1  0.128347  0.564891  0.750000  1
  Al  Al21  1  0.560387  0.433897  0.250000  1
  Al  Al22  1  0.436544  0.564891  0.750000  1
  Al  Al23  1  0.999799  0.999598  0.250000  1
  Al  Al24  1  0.000374  0.000748  0.750000  1
  Si  Si25  1  0.332534  0.665070  0.039268  1
  Si  Si26  1  0.667304  0.334608  0.961485  1
  Si  Si27  1  0.667304  0.334608  0.538515  1
  Si  Si28  1  0.332534  0.665070  0.460732  1
  Si  Si29  1  0.563502  0.127005  0.250000  1
  Os  Os30  1  0.500293  0.000586  0.007435  1
  Os  Os31  1  0.999862  0.499370  0.001444  1
  Os  Os32  1  0.500293  0.000586  0.492565  1
  Os  Os33  1  0.499508  0.499370  0.001444  1
  Os  Os34  1  0.999862  0.499370  0.498556  1
  Os  Os35  1  0.499508  0.499370  0.498556  1
  Os  Os36  1  0.999551  0.999100  0.000230  1
  Os  Os37  1  0.999551  0.999100  0.499770  1
