# generated using pymatgen
data_Y2Fe2Si2B
_symmetry_space_group_name_H-M   'P 1'
_cell_length_a   5.71600539
_cell_length_b   5.71600433
_cell_length_c   6.83111717
_cell_angle_alpha   52.37541653
_cell_angle_beta   52.37542543
_cell_angle_gamma   41.19127874
_symmetry_Int_Tables_number   1
_chemical_formula_structural   Y2Fe2Si2B
_chemical_formula_sum   'Y2 Fe2 Si2 B1'
_cell_volume   111.42798128
_cell_formula_units_Z   1
loop_
 _symmetry_equiv_pos_site_id
 _symmetry_equiv_pos_as_xyz
  1  'x, y, z'
loop_
 _atom_site_type_symbol
 _atom_site_label
 _atom_site_symmetry_multiplicity
 _atom_site_fract_x
 _atom_site_fract_y
 _atom_site_fract_z
 _atom_site_occupancy
  Y  Y0  1  0.439127  0.439127  0.300521  1
  Y  Y1  1  0.560873  0.560873  0.699479  1
  Fe  Fe2  1  0.790863  0.790863  0.100684  1
  Fe  Fe3  1  0.209137  0.209137  0.899316  1
  Si  Si4  1  0.834517  0.834517  0.725145  1
  Si  Si5  1  0.165483  0.165483  0.274855  1
  B  B6  1  0.000000  0.000000  0.000000  1
