# generated using pymatgen
data_Ce3Sm3Al16(SiOs)8
_symmetry_space_group_name_H-M   'P 1'
_cell_length_a   8.75457410
_cell_length_b   8.76332059
_cell_length_c   9.50402116
_cell_angle_alpha   90.01913247
_cell_angle_beta   90.00277477
_cell_angle_gamma   120.07255382
_symmetry_Int_Tables_number   1
_chemical_formula_structural   Ce3Sm3Al16(SiOs)8
_chemical_formula_sum   'Ce3 Sm3 Al16 Si8 Os8'
_cell_volume   630.99182647
_cell_formula_units_Z   1
loop_
 _symmetry_equiv_pos_site_id
 _symmetry_equiv_pos_as_xyz
  1  'x, y, z'
loop_
 _atom_site_type_symbol
 _atom_site_label
 _atom_site_symmetry_multiplicity
 _atom_site_fract_x
 _atom_site_fract_y
 _atom_site_fract_z
 _atom_site_occupancy
  Ce  Ce0  1  0.191947  0.384940  0.252910  1
  Ce  Ce1  1  0.806639  0.613586  0.750322  1
  Ce  Ce2  1  0.612128  0.806901  0.249334  1
  Sm  Sm3  1  0.381543  0.189844  0.748724  1
  Sm  Sm4  1  0.192957  0.806677  0.249377  1
  Sm  Sm5  1  0.807904  0.191476  0.748430  1
  Al  Al6  1  0.835503  0.672392  0.424707  1
  Al  Al7  1  0.672923  0.836126  0.577173  1
  Al  Al8  1  0.835046  0.671455  0.076286  1
  Al  Al9  1  0.332125  0.164824  0.422235  1
  Al  Al10  1  0.164763  0.329564  0.927798  1
  Al  Al11  1  0.163257  0.835821  0.575834  1
  Al  Al12  1  0.330197  0.165614  0.075763  1
  Al  Al13  1  0.832840  0.163393  0.421229  1
  Al  Al14  1  0.671901  0.835386  0.922929  1
  Al  Al15  1  0.835662  0.163895  0.076595  1
  Al  Al16  1  0.163582  0.834681  0.924410  1
  Al  Al17  1  0.129222  0.567664  0.750056  1
  Al  Al18  1  0.567053  0.433301  0.250061  1
  Al  Al19  1  0.436902  0.567560  0.750187  1
  Al  Al20  1  0.998862  0.998648  0.251026  1
  Al  Al21  1  0.995745  0.993544  0.751582  1
  Si  Si22  1  0.331842  0.664039  0.037010  1
  Si  Si23  1  0.664792  0.332894  0.961367  1
  Si  Si24  1  0.665146  0.334060  0.538964  1
  Si  Si25  1  0.333991  0.668715  0.463328  1
  Si  Si26  1  0.165994  0.332116  0.572370  1
  Si  Si27  1  0.564294  0.124696  0.248917  1
  Si  Si28  1  0.436990  0.874746  0.749687  1
  Si  Si29  1  0.874073  0.434178  0.249898  1
  Os  Os30  1  0.501045  0.000384  0.000429  1
  Os  Os31  1  0.997199  0.498303  0.005057  1
  Os  Os32  1  0.501039  0.000735  0.498411  1
  Os  Os33  1  0.501225  0.500054  0.999902  1
  Os  Os34  1  0.000784  0.496811  0.495104  1
  Os  Os35  1  0.495257  0.498055  0.500000  1
  Os  Os36  1  0.001346  0.001247  0.000474  1
  Os  Os37  1  0.006282  0.011675  0.502118  1
