# generated using pymatgen
data_YLu2Sn3HgRh2
_symmetry_space_group_name_H-M   'P 1'
_cell_length_a   7.68500501
_cell_length_b   7.71168296
_cell_length_c   3.86037000
_cell_angle_alpha   90.00000000
_cell_angle_beta   90.00000000
_cell_angle_gamma   120.33355914
_symmetry_Int_Tables_number   1
_chemical_formula_structural   YLu2Sn3HgRh2
_chemical_formula_sum   'Y1 Lu2 Sn3 Hg1 Rh2'
_cell_volume   197.46190190
_cell_formula_units_Z   1
loop_
 _symmetry_equiv_pos_site_id
 _symmetry_equiv_pos_as_xyz
  1  'x, y, z'
loop_
 _atom_site_type_symbol
 _atom_site_label
 _atom_site_symmetry_multiplicity
 _atom_site_fract_x
 _atom_site_fract_y
 _atom_site_fract_z
 _atom_site_occupancy
  Y  Y0  1  0.608133  0.589045  0.500000  1
  Lu  Lu1  1  0.412470  0.023804  0.500000  1
  Lu  Lu2  1  0.975776  0.387508  0.500000  1
  Sn  Sn3  1  0.749166  0.008167  0.000000  1
  Sn  Sn4  1  0.993897  0.741795  0.000000  1
  Sn  Sn5  1  0.259489  0.251194  0.000000  1
  Hg  Hg6  1  0.330197  0.667258  0.000000  1
  Rh  Rh7  1  0.668199  0.328872  0.000000  1
  Rh  Rh8  1  0.002674  0.002357  0.500000  1
