# generated using pymatgen
data_K2NpCl6
_symmetry_space_group_name_H-M   'P 1'
_cell_length_a   7.64042900
_cell_length_b   7.46641570
_cell_length_c   12.80096044
_cell_angle_alpha   54.75778345
_cell_angle_beta   90.00000000
_cell_angle_gamma   90.00000000
_symmetry_Int_Tables_number   1
_chemical_formula_structural   K2NpCl6
_chemical_formula_sum   'K4 Np2 Cl12'
_cell_volume   596.41098035
_cell_formula_units_Z   2
loop_
 _symmetry_equiv_pos_site_id
 _symmetry_equiv_pos_as_xyz
  1  'x, y, z'
loop_
 _atom_site_type_symbol
 _atom_site_label
 _atom_site_symmetry_multiplicity
 _atom_site_fract_x
 _atom_site_fract_y
 _atom_site_fract_z
 _atom_site_occupancy
  K  K0  1  0.054666  0.743243  0.750447  1
  K  K1  1  0.945334  0.256757  0.249553  1
  K  K2  1  0.554666  0.256757  0.749553  1
  K  K3  1  0.445334  0.743243  0.250447  1
  Np  Np4  1  0.500000  0.000000  0.500000  1
  Np  Np5  1  0.000000  0.000000  0.000000  1
  Cl  Cl6  1  0.318516  0.667461  0.541317  1
  Cl  Cl7  1  0.681484  0.332539  0.458683  1
  Cl  Cl8  1  0.818516  0.332539  0.958683  1
  Cl  Cl9  1  0.181484  0.667461  0.041317  1
  Cl  Cl10  1  0.790818  0.784231  0.538573  1
  Cl  Cl11  1  0.209182  0.215769  0.461427  1
  Cl  Cl12  1  0.290818  0.215769  0.961427  1
  Cl  Cl13  1  0.709182  0.784231  0.038573  1
  Cl  Cl14  1  0.477627  0.836330  0.742863  1
  Cl  Cl15  1  0.522373  0.163670  0.257137  1
  Cl  Cl16  1  0.977627  0.163670  0.757137  1
  Cl  Cl17  1  0.022373  0.836330  0.242863  1
