# generated using pymatgen
data_Tb7Dy4YIn20
_symmetry_space_group_name_H-M   'P 1'
_cell_length_a   6.52264120
_cell_length_b   10.44407273
_cell_length_c   12.30840004
_cell_angle_alpha   89.97986591
_cell_angle_beta   90.01466685
_cell_angle_gamma   90.01667289
_symmetry_Int_Tables_number   1
_chemical_formula_structural   Tb7Dy4YIn20
_chemical_formula_sum   'Tb7 Dy4 Y1 In20'
_cell_volume   838.48427066
_cell_formula_units_Z   1
loop_
 _symmetry_equiv_pos_site_id
 _symmetry_equiv_pos_as_xyz
  1  'x, y, z'
loop_
 _atom_site_type_symbol
 _atom_site_label
 _atom_site_symmetry_multiplicity
 _atom_site_fract_x
 _atom_site_fract_y
 _atom_site_fract_z
 _atom_site_occupancy
  Tb  Tb0  1  0.890238  0.493619  0.141998  1
  Tb  Tb1  1  0.609683  0.006380  0.642051  1
  Tb  Tb2  1  0.109691  0.993602  0.857970  1
  Tb  Tb3  1  0.390223  0.506457  0.357944  1
  Tb  Tb4  1  0.109680  0.506419  0.857901  1
  Tb  Tb5  1  0.390388  0.993554  0.358036  1
  Tb  Tb6  1  0.890250  0.006317  0.141974  1
  Dy  Dy7  1  0.349928  0.749896  0.056606  1
  Dy  Dy8  1  0.150228  0.750119  0.556603  1
  Dy  Dy9  1  0.650054  0.250061  0.943336  1
  Dy  Dy10  1  0.849912  0.250006  0.443454  1
  Y  Y11  1  0.609783  0.493589  0.642237  1
  In  In12  1  0.617014  0.749923  0.505224  1
  In  In13  1  0.882907  0.750001  0.004866  1
  In  In14  1  0.383053  0.250021  0.494912  1
  In  In15  1  0.116996  0.249970  0.994981  1
  In  In16  1  0.650876  0.749890  0.246032  1
  In  In17  1  0.849077  0.750070  0.745934  1
  In  In18  1  0.348885  0.249930  0.754017  1
  In  In19  1  0.150817  0.249948  0.254040  1
  In  In20  1  0.124885  0.750105  0.285041  1
  In  In21  1  0.375119  0.750090  0.785113  1
  In  In22  1  0.875123  0.249985  0.714890  1
  In  In23  1  0.624884  0.249989  0.214910  1
  In  In24  1  0.875425  0.544025  0.401360  1
  In  In25  1  0.624522  0.955985  0.901465  1
  In  In26  1  0.124534  0.044114  0.598621  1
  In  In27  1  0.375500  0.455932  0.098524  1
  In  In28  1  0.124789  0.455947  0.598561  1
  In  In29  1  0.375538  0.044027  0.098573  1
  In  In30  1  0.875487  0.955947  0.401415  1
  In  In31  1  0.624509  0.544081  0.901406  1
