# generated using pymatgen
data_Y18Lu2Cd3Ni2Au3
_symmetry_space_group_name_H-M   'P 1'
_cell_length_a   9.64714866
_cell_length_b   9.62564237
_cell_length_c   9.55449100
_cell_angle_alpha   90.00000000
_cell_angle_beta   90.00000000
_cell_angle_gamma   119.92263920
_symmetry_Int_Tables_number   1
_chemical_formula_structural   Y18Lu2Cd3Ni2Au3
_chemical_formula_sum   'Y18 Lu2 Cd3 Ni2 Au3'
_cell_volume   768.96204131
_cell_formula_units_Z   1
loop_
 _symmetry_equiv_pos_site_id
 _symmetry_equiv_pos_as_xyz
  1  'x, y, z'
loop_
 _atom_site_type_symbol
 _atom_site_label
 _atom_site_symmetry_multiplicity
 _atom_site_fract_x
 _atom_site_fract_y
 _atom_site_fract_z
 _atom_site_occupancy
  Y  Y0  1  0.002939  0.001615  0.455638  1
  Y  Y1  1  0.002939  0.001615  0.044362  1
  Y  Y2  1  0.913670  0.456954  0.250000  1
  Y  Y3  1  0.456606  0.543409  0.750000  1
  Y  Y4  1  0.456883  0.912919  0.750000  1
  Y  Y5  1  0.085350  0.542670  0.750000  1
  Y  Y6  1  0.211316  0.791569  0.437000  1
  Y  Y7  1  0.211330  0.420028  0.436915  1
  Y  Y8  1  0.582023  0.790900  0.435196  1
  Y  Y9  1  0.790363  0.207939  0.559421  1
  Y  Y10  1  0.790360  0.582579  0.559416  1
  Y  Y11  1  0.419909  0.209876  0.558961  1
  Y  Y12  1  0.790363  0.207939  0.940579  1
  Y  Y13  1  0.790360  0.582579  0.940584  1
  Y  Y14  1  0.419909  0.209876  0.941039  1
  Y  Y15  1  0.211316  0.791569  0.063000  1
  Y  Y16  1  0.211330  0.420028  0.063085  1
  Y  Y17  1  0.582023  0.790900  0.064804  1
  Lu  Lu18  1  0.539909  0.456833  0.250000  1
  Lu  Lu19  1  0.540092  0.082742  0.250000  1
  Cd  Cd20  1  0.110620  0.891379  0.750000  1
  Cd  Cd21  1  0.110538  0.219187  0.750000  1
  Cd  Cd22  1  0.781811  0.890809  0.750000  1
  Ni  Ni23  1  0.333058  0.666858  0.250000  1
  Ni  Ni24  1  0.668669  0.334390  0.750000  1
  Au  Au25  1  0.858099  0.124172  0.250000  1
  Au  Au26  1  0.858066  0.733953  0.250000  1
  Au  Au27  1  0.270149  0.134714  0.250000  1
