# generated using pymatgen
data_Tm6LuCr(Co4P3)4
_symmetry_space_group_name_H-M   'P 1'
_cell_length_a   3.69359700
_cell_length_b   10.57518000
_cell_length_c   12.24954700
_cell_angle_alpha   90.00000000
_cell_angle_beta   90.00000000
_cell_angle_gamma   90.00000000
_symmetry_Int_Tables_number   1
_chemical_formula_structural   Tm6LuCr(Co4P3)4
_chemical_formula_sum   'Tm6 Lu1 Cr1 Co16 P12'
_cell_volume   478.47285636
_cell_formula_units_Z   1
loop_
 _symmetry_equiv_pos_site_id
 _symmetry_equiv_pos_as_xyz
  1  'x, y, z'
loop_
 _atom_site_type_symbol
 _atom_site_label
 _atom_site_symmetry_multiplicity
 _atom_site_fract_x
 _atom_site_fract_y
 _atom_site_fract_z
 _atom_site_occupancy
  Tm  Tm0  1  0.000000  0.500000  0.530835  1
  Tm  Tm1  1  0.500000  0.000000  0.477631  1
  Tm  Tm2  1  0.500000  0.823505  0.205781  1
  Tm  Tm3  1  0.500000  0.176495  0.205781  1
  Tm  Tm4  1  0.000000  0.682374  0.795355  1
  Tm  Tm5  1  0.000000  0.317626  0.795355  1
  Lu  Lu6  1  0.500000  0.500000  0.155506  1
  Cr  Cr7  1  0.000000  0.000000  0.840735  1
  Co  Co8  1  0.500000  0.500000  0.702158  1
  Co  Co9  1  0.000000  0.000000  0.296604  1
  Co  Co10  1  0.000000  0.500000  0.981840  1
  Co  Co11  1  0.500000  0.000000  0.009301  1
  Co  Co12  1  0.500000  0.324806  0.986754  1
  Co  Co13  1  0.500000  0.675194  0.986754  1
  Co  Co14  1  0.000000  0.161369  0.001024  1
  Co  Co15  1  0.000000  0.838631  0.001024  1
  Co  Co16  1  0.500000  0.292624  0.435978  1
  Co  Co17  1  0.500000  0.707376  0.435978  1
  Co  Co18  1  0.000000  0.201898  0.570835  1
  Co  Co19  1  0.000000  0.798102  0.570835  1
  Co  Co20  1  0.500000  0.880253  0.706430  1
  Co  Co21  1  0.500000  0.119747  0.706430  1
  Co  Co22  1  0.000000  0.624490  0.300983  1
  Co  Co23  1  0.000000  0.375510  0.300983  1
  P  P24  1  0.500000  0.500000  0.881120  1
  P  P25  1  0.000000  0.000000  0.116580  1
  P  P26  1  0.500000  0.500000  0.365117  1
  P  P27  1  0.000000  0.000000  0.654072  1
  P  P28  1  0.500000  0.309953  0.618684  1
  P  P29  1  0.500000  0.690047  0.618684  1
  P  P30  1  0.000000  0.186443  0.386101  1
  P  P31  1  0.000000  0.813557  0.386101  1
  P  P32  1  0.500000  0.850728  0.885664  1
  P  P33  1  0.500000  0.149272  0.885664  1
  P  P34  1  0.000000  0.667238  0.100661  1
  P  P35  1  0.000000  0.332762  0.100661  1
