# generated using pymatgen
data_Cs12Na8Ti4As7P5
_symmetry_space_group_name_H-M   'P 1'
_cell_length_a   10.85227010
_cell_length_b   10.84666383
_cell_length_c   16.68638324
_cell_angle_alpha   90.01798707
_cell_angle_beta   89.99065257
_cell_angle_gamma   142.64477498
_symmetry_Int_Tables_number   1
_chemical_formula_structural   Cs12Na8Ti4As7P5
_chemical_formula_sum   'Cs12 Na8 Ti4 As7 P5'
_cell_volume   1191.76935520
_cell_formula_units_Z   1
loop_
 _symmetry_equiv_pos_site_id
 _symmetry_equiv_pos_as_xyz
  1  'x, y, z'
loop_
 _atom_site_type_symbol
 _atom_site_label
 _atom_site_symmetry_multiplicity
 _atom_site_fract_x
 _atom_site_fract_y
 _atom_site_fract_z
 _atom_site_occupancy
  Cs  Cs0  1  0.944998  0.608971  0.826929  1
  Cs  Cs1  1  0.557490  0.892807  0.328786  1
  Cs  Cs2  1  0.390602  0.054939  0.173040  1
  Cs  Cs3  1  0.055277  0.391120  0.173635  1
  Cs  Cs4  1  0.891412  0.554569  0.327642  1
  Cs  Cs5  1  0.445294  0.108963  0.672061  1
  Cs  Cs6  1  0.608935  0.945101  0.826847  1
  Cs  Cs7  1  0.274685  0.277949  0.316373  1
  Cs  Cs8  1  0.776991  0.776478  0.185189  1
  Cs  Cs9  1  0.223527  0.223422  0.814758  1
  Cs  Cs10  1  0.723546  0.724258  0.683938  1
  Cs  Cs11  1  0.108857  0.444703  0.672572  1
  Na  Na12  1  0.922177  0.077561  0.000069  1
  Na  Na13  1  0.577842  0.422506  0.499847  1
  Na  Na14  1  0.077586  0.922196  0.000026  1
  Na  Na15  1  0.419757  0.576432  0.499268  1
  Na  Na16  1  0.754282  0.245592  0.000044  1
  Na  Na17  1  0.749284  0.255397  0.499117  1
  Na  Na18  1  0.245743  0.754425  0.000082  1
  Na  Na19  1  0.252920  0.743144  0.499566  1
  Ti  Ti20  1  0.581719  0.418219  0.000088  1
  Ti  Ti21  1  0.920038  0.085353  0.498797  1
  Ti  Ti22  1  0.418336  0.581743  0.000152  1
  Ti  Ti23  1  0.081476  0.918834  0.499404  1
  As  As24  1  0.859863  0.555730  0.089056  1
  As  As25  1  0.443988  0.140023  0.911119  1
  As  As26  1  0.638345  0.943507  0.588142  1
  As  As27  1  0.944494  0.640792  0.588151  1
  As  As28  1  0.140127  0.444028  0.911229  1
  As  As29  1  0.555819  0.859786  0.089477  1
  As  As30  1  0.359790  0.055645  0.410615  1
  P  P31  1  0.186103  0.186217  0.574482  1
  P  P32  1  0.684772  0.684778  0.924998  1
  P  P33  1  0.315013  0.315144  0.075171  1
  P  P34  1  0.054022  0.354445  0.415391  1
  P  P35  1  0.814891  0.815221  0.423936  1
