# generated using pymatgen
data_K8TbGd2DyF20
_symmetry_space_group_name_H-M   'P 1'
_cell_length_a   6.74279853
_cell_length_b   7.37971700
_cell_length_c   11.08379800
_cell_angle_alpha   90.00000000
_cell_angle_beta   90.02317860
_cell_angle_gamma   90.00000000
_symmetry_Int_Tables_number   1
_chemical_formula_structural   K8TbGd2DyF20
_chemical_formula_sum   'K8 Tb1 Gd2 Dy1 F20'
_cell_volume   551.52913307
_cell_formula_units_Z   1
loop_
 _symmetry_equiv_pos_site_id
 _symmetry_equiv_pos_as_xyz
  1  'x, y, z'
loop_
 _atom_site_type_symbol
 _atom_site_label
 _atom_site_symmetry_multiplicity
 _atom_site_fract_x
 _atom_site_fract_y
 _atom_site_fract_z
 _atom_site_occupancy
  K  K0  1  0.528153  0.498197  0.827922  1
  K  K1  1  0.472250  0.502749  0.172064  1
  K  K2  1  0.027821  0.502705  0.672260  1
  K  K3  1  0.472250  0.997251  0.172064  1
  K  K4  1  0.971880  0.498158  0.327734  1
  K  K5  1  0.528153  0.001803  0.827922  1
  K  K6  1  0.971880  0.001842  0.327734  1
  K  K7  1  0.027821  0.997295  0.672260  1
  Tb  Tb8  1  0.564976  0.750000  0.501680  1
  Gd  Gd9  1  0.435258  0.250000  0.498114  1
  Gd  Gd10  1  0.064430  0.250000  0.998146  1
  Dy  Dy11  1  0.935162  0.750000  0.001567  1
  F  F12  1  0.836194  0.750000  0.809988  1
  F  F13  1  0.165502  0.250000  0.192931  1
  F  F14  1  0.334424  0.250000  0.692933  1
  F  F15  1  0.664224  0.750000  0.309120  1
  F  F16  1  0.367359  0.750000  0.662485  1
  F  F17  1  0.634917  0.250000  0.335614  1
  F  F18  1  0.865106  0.250000  0.835568  1
  F  F19  1  0.131569  0.750000  0.161570  1
  F  F20  1  0.893550  0.750000  0.513222  1
  F  F21  1  0.102944  0.250000  0.486834  1
  F  F22  1  0.396811  0.250000  0.986763  1
  F  F23  1  0.608255  0.750000  0.013216  1
  F  F24  1  0.644968  0.031399  0.578872  1
  F  F25  1  0.356039  0.963749  0.421157  1
  F  F26  1  0.143142  0.962866  0.921595  1
  F  F27  1  0.356039  0.536251  0.421157  1
  F  F28  1  0.855405  0.030400  0.078519  1
  F  F29  1  0.644968  0.468601  0.578872  1
  F  F30  1  0.855405  0.469600  0.078519  1
  F  F31  1  0.143142  0.537134  0.921595  1
