# generated using pymatgen
data_GdYAs2Cl2O5
_symmetry_space_group_name_H-M   'P 1'
_cell_length_a   7.05377154
_cell_length_b   7.72008438
_cell_length_c   9.54378774
_cell_angle_alpha   110.84293274
_cell_angle_beta   102.95720613
_cell_angle_gamma   101.94934433
_symmetry_Int_Tables_number   1
_chemical_formula_structural   GdYAs2Cl2O5
_chemical_formula_sum   'Gd2 Y2 As4 Cl4 O10'
_cell_volume   449.25043384
_cell_formula_units_Z   2
loop_
 _symmetry_equiv_pos_site_id
 _symmetry_equiv_pos_as_xyz
  1  'x, y, z'
loop_
 _atom_site_type_symbol
 _atom_site_label
 _atom_site_symmetry_multiplicity
 _atom_site_fract_x
 _atom_site_fract_y
 _atom_site_fract_z
 _atom_site_occupancy
  Gd  Gd0  1  0.394031  0.704082  0.524097  1
  Gd  Gd1  1  0.605969  0.295918  0.475903  1
  Y  Y2  1  0.840848  0.759645  0.334125  1
  Y  Y3  1  0.159152  0.240355  0.665875  1
  As  As4  1  0.888091  0.850381  0.737562  1
  As  As5  1  0.111909  0.149619  0.262438  1
  As  As6  1  0.712705  0.239067  0.799616  1
  As  As7  1  0.287295  0.760933  0.200384  1
  Cl  Cl8  1  0.246918  0.636802  0.747510  1
  Cl  Cl9  1  0.753082  0.363198  0.252490  1
  Cl  Cl10  1  0.792848  0.724653  0.043806  1
  Cl  Cl11  1  0.207152  0.275347  0.956194  1
  O  O12  1  0.848789  0.281487  0.668858  1
  O  O13  1  0.151211  0.718513  0.331142  1
  O  O14  1  0.528906  0.786818  0.337710  1
  O  O15  1  0.471094  0.213182  0.662290  1
  O  O16  1  0.673214  0.968678  0.723282  1
  O  O17  1  0.326786  0.031322  0.276718  1
  O  O18  1  0.695829  0.625696  0.581510  1
  O  O19  1  0.304171  0.374304  0.418490  1
  O  O20  1  0.999079  0.918332  0.604492  1
  O  O21  1  0.000921  0.081668  0.395508  1
