# generated using pymatgen
data_Tb4Zn7Cd4Ga
_symmetry_space_group_name_H-M   'P 1'
_cell_length_a   4.46294300
_cell_length_b   7.22415508
_cell_length_c   10.11772644
_cell_angle_alpha   90.09468399
_cell_angle_beta   90.00000000
_cell_angle_gamma   90.00000000
_symmetry_Int_Tables_number   1
_chemical_formula_structural   Tb4Zn7Cd4Ga
_chemical_formula_sum   'Tb4 Zn7 Cd4 Ga1'
_cell_volume   326.20509546
_cell_formula_units_Z   1
loop_
 _symmetry_equiv_pos_site_id
 _symmetry_equiv_pos_as_xyz
  1  'x, y, z'
loop_
 _atom_site_type_symbol
 _atom_site_label
 _atom_site_symmetry_multiplicity
 _atom_site_fract_x
 _atom_site_fract_y
 _atom_site_fract_z
 _atom_site_occupancy
  Tb  Tb0  1  0.250000  0.804079  0.826291  1
  Tb  Tb1  1  0.750000  0.196006  0.172257  1
  Tb  Tb2  1  0.750000  0.695997  0.326563  1
  Tb  Tb3  1  0.250000  0.304568  0.672978  1
  Zn  Zn4  1  0.250000  0.911831  0.148177  1
  Zn  Zn5  1  0.750000  0.085048  0.853568  1
  Zn  Zn6  1  0.750000  0.586386  0.643673  1
  Zn  Zn7  1  0.250000  0.413648  0.355924  1
  Zn  Zn8  1  0.250000  0.689916  0.537150  1
  Zn  Zn9  1  0.750000  0.309455  0.461918  1
  Zn  Zn10  1  0.750000  0.809080  0.037139  1
  Cd  Cd11  1  0.250000  0.534230  0.099213  1
  Cd  Cd12  1  0.750000  0.470550  0.900242  1
  Cd  Cd13  1  0.750000  0.967452  0.597864  1
  Cd  Cd14  1  0.250000  0.032797  0.402485  1
  Ga  Ga15  1  0.250000  0.188957  0.964556  1
