# generated using pymatgen
data_Yb2Co6GeB3
_symmetry_space_group_name_H-M   'P 1'
_cell_length_a   5.18166801
_cell_length_b   5.18147488
_cell_length_c   12.01567103
_cell_angle_alpha   89.99916119
_cell_angle_beta   90.00166130
_cell_angle_gamma   119.99680151
_symmetry_Int_Tables_number   1
_chemical_formula_structural   Yb2Co6GeB3
_chemical_formula_sum   'Yb4 Co12 Ge2 B6'
_cell_volume   279.39307542
_cell_formula_units_Z   2
loop_
 _symmetry_equiv_pos_site_id
 _symmetry_equiv_pos_as_xyz
  1  'x, y, z'
loop_
 _atom_site_type_symbol
 _atom_site_label
 _atom_site_symmetry_multiplicity
 _atom_site_fract_x
 _atom_site_fract_y
 _atom_site_fract_z
 _atom_site_occupancy
  Yb  Yb0  1  0.999993  0.000000  0.000139  1
  Yb  Yb1  1  0.999999  0.000000  0.499855  1
  Yb  Yb2  1  0.000002  0.000000  0.259508  1
  Yb  Yb3  1  0.999981  0.000000  0.740406  1
  Co  Co4  1  0.499953  0.000000  0.159996  1
  Co  Co5  1  0.499973  0.500006  0.160130  1
  Co  Co6  1  0.999967  0.499994  0.160130  1
  Co  Co7  1  0.500040  0.000000  0.840031  1
  Co  Co8  1  0.500015  0.499995  0.839995  1
  Co  Co9  1  0.000020  0.500005  0.839995  1
  Co  Co10  1  0.499958  0.000000  0.386118  1
  Co  Co11  1  0.499979  0.499999  0.386117  1
  Co  Co12  1  0.999980  0.500001  0.386116  1
  Co  Co13  1  0.499993  0.000000  0.613771  1
  Co  Co14  1  0.499999  0.500003  0.613802  1
  Co  Co15  1  0.999997  0.499998  0.613803  1
  Ge  Ge16  1  0.333309  0.666616  0.000134  1
  Ge  Ge17  1  0.666686  0.333384  0.000134  1
  B  B18  1  0.333306  0.666611  0.499936  1
  B  B19  1  0.666687  0.333389  0.499936  1
  B  B20  1  0.333338  0.666701  0.270057  1
  B  B21  1  0.666630  0.333299  0.270057  1
  B  B22  1  0.666661  0.333334  0.729917  1
  B  B23  1  0.333335  0.666666  0.729916  1
