# generated using pymatgen
data_YPu3(NiP)4
_symmetry_space_group_name_H-M   'P 1'
_cell_length_a   3.92713400
_cell_length_b   3.92713467
_cell_length_c   15.64303500
_cell_angle_alpha   90.00000000
_cell_angle_beta   90.00000000
_cell_angle_gamma   120.00001123
_symmetry_Int_Tables_number   1
_chemical_formula_structural   YPu3(NiP)4
_chemical_formula_sum   'Y1 Pu3 Ni4 P4'
_cell_volume   208.93111111
_cell_formula_units_Z   1
loop_
 _symmetry_equiv_pos_site_id
 _symmetry_equiv_pos_as_xyz
  1  'x, y, z'
loop_
 _atom_site_type_symbol
 _atom_site_label
 _atom_site_symmetry_multiplicity
 _atom_site_fract_x
 _atom_site_fract_y
 _atom_site_fract_z
 _atom_site_occupancy
  Y  Y0  1  0.000000  0.000000  0.750000  1
  Pu  Pu1  1  0.000000  0.000000  0.500029  1
  Pu  Pu2  1  0.000000  0.000000  0.999971  1
  Pu  Pu3  1  0.000000  0.000000  0.250000  1
  Ni  Ni4  1  0.333333  0.666667  0.372428  1
  Ni  Ni5  1  0.666667  0.333333  0.627091  1
  Ni  Ni6  1  0.666667  0.333333  0.872909  1
  Ni  Ni7  1  0.333333  0.666667  0.127572  1
  P  P8  1  0.333333  0.666667  0.876051  1
  P  P9  1  0.666667  0.333333  0.123634  1
  P  P10  1  0.666667  0.333333  0.376366  1
  P  P11  1  0.333333  0.666667  0.623949  1
