# generated using pymatgen
data_Na5TiAs3
_symmetry_space_group_name_H-M   'P 1'
_cell_length_a   7.55700800
_cell_length_b   8.36016655
_cell_length_c   16.00644154
_cell_angle_alpha   58.51393522
_cell_angle_beta   90.00000000
_cell_angle_gamma   90.00000000
_symmetry_Int_Tables_number   1
_chemical_formula_structural   Na5TiAs3
_chemical_formula_sum   'Na20 Ti4 As12'
_cell_volume   862.36297397
_cell_formula_units_Z   4
loop_
 _symmetry_equiv_pos_site_id
 _symmetry_equiv_pos_as_xyz
  1  'x, y, z'
loop_
 _atom_site_type_symbol
 _atom_site_label
 _atom_site_symmetry_multiplicity
 _atom_site_fract_x
 _atom_site_fract_y
 _atom_site_fract_z
 _atom_site_occupancy
  Na  Na0  1  0.491054  0.077960  0.241931  1
  Na  Na1  1  0.991054  0.922040  0.258069  1
  Na  Na2  1  0.508946  0.922040  0.758069  1
  Na  Na3  1  0.008946  0.077960  0.741931  1
  Na  Na4  1  0.034704  0.414125  0.416333  1
  Na  Na5  1  0.534704  0.585875  0.083667  1
  Na  Na6  1  0.965296  0.585875  0.583667  1
  Na  Na7  1  0.465296  0.414125  0.916333  1
  Na  Na8  1  0.514728  0.264643  0.410480  1
  Na  Na9  1  0.014728  0.735357  0.089520  1
  Na  Na10  1  0.485272  0.735357  0.589520  1
  Na  Na11  1  0.985272  0.264643  0.910480  1
  Na  Na12  1  0.662265  0.995867  0.080794  1
  Na  Na13  1  0.162265  0.004133  0.419206  1
  Na  Na14  1  0.337735  0.004133  0.919206  1
  Na  Na15  1  0.837735  0.995867  0.580794  1
  Na  Na16  1  0.851429  0.316170  0.258469  1
  Na  Na17  1  0.351429  0.683830  0.241531  1
  Na  Na18  1  0.148571  0.683830  0.741531  1
  Na  Na19  1  0.648571  0.316170  0.758469  1
  Ti  Ti20  1  0.857857  0.655475  0.914823  1
  Ti  Ti21  1  0.357857  0.344525  0.585177  1
  Ti  Ti22  1  0.142143  0.344525  0.085177  1
  Ti  Ti23  1  0.642143  0.655475  0.414823  1
  As  As24  1  0.757932  0.930414  0.418211  1
  As  As25  1  0.257932  0.069586  0.081789  1
  As  As26  1  0.242068  0.069586  0.581789  1
  As  As27  1  0.742068  0.930414  0.918211  1
  As  As28  1  0.737947  0.640801  0.271000  1
  As  As29  1  0.237947  0.359199  0.229000  1
  As  As30  1  0.262053  0.359199  0.729000  1
  As  As31  1  0.762053  0.640801  0.771000  1
  As  As32  1  0.808271  0.341026  0.068523  1
  As  As33  1  0.308271  0.658974  0.431477  1
  As  As34  1  0.191729  0.658974  0.931477  1
  As  As35  1  0.691729  0.341026  0.568523  1
