# generated using pymatgen
data_Sc2Hg(SeO3)4
_symmetry_space_group_name_H-M   'P 1'
_cell_length_a   8.55265300
_cell_length_b   8.52633957
_cell_length_c   8.81934610
_cell_angle_alpha   88.56804150
_cell_angle_beta   90.00000000
_cell_angle_gamma   90.00000000
_symmetry_Int_Tables_number   1
_chemical_formula_structural   Sc2Hg(SeO3)4
_chemical_formula_sum   'Sc4 Hg2 Se8 O24'
_cell_volume   642.93077456
_cell_formula_units_Z   2
loop_
 _symmetry_equiv_pos_site_id
 _symmetry_equiv_pos_as_xyz
  1  'x, y, z'
loop_
 _atom_site_type_symbol
 _atom_site_label
 _atom_site_symmetry_multiplicity
 _atom_site_fract_x
 _atom_site_fract_y
 _atom_site_fract_z
 _atom_site_occupancy
  Sc  Sc0  1  0.765861  0.754291  0.998140  1
  Sc  Sc1  1  0.743538  0.238503  0.513958  1
  Sc  Sc2  1  0.234139  0.254291  0.998140  1
  Sc  Sc3  1  0.256462  0.738503  0.513958  1
  Hg  Hg4  1  0.606388  0.346524  0.161882  1
  Hg  Hg5  1  0.393612  0.846524  0.161882  1
  Se  Se6  1  0.085148  0.551070  0.193904  1
  Se  Se7  1  0.914852  0.051070  0.193904  1
  Se  Se8  1  0.568240  0.453765  0.814241  1
  Se  Se9  1  0.324426  0.164768  0.410576  1
  Se  Se10  1  0.055823  0.421566  0.681661  1
  Se  Se11  1  0.431760  0.953765  0.814241  1
  Se  Se12  1  0.675574  0.664768  0.410576  1
  Se  Se13  1  0.944177  0.921566  0.681661  1
  O  O14  1  0.965556  0.689641  0.110744  1
  O  O15  1  0.312142  0.019164  0.960857  1
  O  O16  1  0.157977  0.275391  0.779892  1
  O  O17  1  0.684676  0.461197  0.381050  1
  O  O18  1  0.777400  0.171503  0.281319  1
  O  O19  1  0.192021  0.490659  0.042015  1
  O  O20  1  0.208013  0.512374  0.584556  1
  O  O21  1  0.639097  0.731936  0.224706  1
  O  O22  1  0.699305  0.343317  0.719881  1
  O  O23  1  0.315324  0.961197  0.381050  1
  O  O24  1  0.973413  0.313388  0.539083  1
  O  O25  1  0.474088  0.314076  0.931481  1
  O  O26  1  0.842023  0.775391  0.779892  1
  O  O27  1  0.500278  0.687566  0.495957  1
  O  O28  1  0.300695  0.843317  0.719881  1
  O  O29  1  0.222600  0.671503  0.281319  1
  O  O30  1  0.360903  0.231936  0.224706  1
  O  O31  1  0.034444  0.189641  0.110744  1
  O  O32  1  0.026587  0.813388  0.539083  1
  O  O33  1  0.525912  0.814076  0.931481  1
  O  O34  1  0.687858  0.519163  0.960857  1
  O  O35  1  0.791987  0.012374  0.584556  1
  O  O36  1  0.499722  0.187566  0.495957  1
  O  O37  1  0.807979  0.990659  0.042015  1
