# generated using pymatgen
data_Th(SeI)2
_symmetry_space_group_name_H-M   'P 1'
_cell_length_a   7.97204853
_cell_length_b   7.97204852
_cell_length_c   8.34342208
_cell_angle_alpha   80.54078663
_cell_angle_beta   80.54078449
_cell_angle_gamma   120.66627908
_symmetry_Int_Tables_number   1
_chemical_formula_structural   Th(SeI)2
_chemical_formula_sum   'Th2 Se4 I4'
_cell_volume   430.22274897
_cell_formula_units_Z   2
loop_
 _symmetry_equiv_pos_site_id
 _symmetry_equiv_pos_as_xyz
  1  'x, y, z'
loop_
 _atom_site_type_symbol
 _atom_site_label
 _atom_site_symmetry_multiplicity
 _atom_site_fract_x
 _atom_site_fract_y
 _atom_site_fract_z
 _atom_site_occupancy
  Th  Th0  1  0.859131  0.143391  0.499324  1
  Th  Th1  1  0.143391  0.859131  0.499324  1
  Se  Se2  1  0.300806  0.300806  0.387330  1
  Se  Se3  1  0.114096  0.114096  0.214851  1
  Se  Se4  1  0.888747  0.888747  0.783131  1
  Se  Se5  1  0.702071  0.702071  0.610754  1
  I  I6  1  0.025504  0.435958  0.739318  1
  I  I7  1  0.564148  0.966148  0.263325  1
  I  I8  1  0.966148  0.564148  0.263325  1
  I  I9  1  0.435958  0.025504  0.739318  1
