# generated using pymatgen
data_Th2Os2C3
_symmetry_space_group_name_H-M   'P 1'
_cell_length_a   3.49223300
_cell_length_b   5.37516100
_cell_length_c   11.78273800
_cell_angle_alpha   90.00000000
_cell_angle_beta   90.00000000
_cell_angle_gamma   90.00000000
_symmetry_Int_Tables_number   1
_chemical_formula_structural   Th2Os2C3
_chemical_formula_sum   'Th4 Os4 C6'
_cell_volume   221.17748214
_cell_formula_units_Z   2
loop_
 _symmetry_equiv_pos_site_id
 _symmetry_equiv_pos_as_xyz
  1  'x, y, z'
loop_
 _atom_site_type_symbol
 _atom_site_label
 _atom_site_symmetry_multiplicity
 _atom_site_fract_x
 _atom_site_fract_y
 _atom_site_fract_z
 _atom_site_occupancy
  Th  Th0  1  0.500000  0.836302  0.158302  1
  Th  Th1  1  0.000000  0.336302  0.341698  1
  Th  Th2  1  0.000000  0.663698  0.658302  1
  Th  Th3  1  0.500000  0.163698  0.841698  1
  Os  Os4  1  0.500000  0.821721  0.424032  1
  Os  Os5  1  0.000000  0.321721  0.075968  1
  Os  Os6  1  0.500000  0.178279  0.575968  1
  Os  Os7  1  0.000000  0.678279  0.924032  1
  C  C8  1  0.000000  0.165679  0.668322  1
  C  C9  1  0.500000  0.665679  0.831678  1
  C  C10  1  0.000000  0.834321  0.331678  1
  C  C11  1  0.000000  0.000000  0.000000  1
  C  C12  1  0.500000  0.334321  0.168322  1
  C  C13  1  0.500000  0.500000  0.500000  1
