# generated using pymatgen
data_Dy16Er4Ir7Rh5
_symmetry_space_group_name_H-M   'P 1'
_cell_length_a   10.86120889
_cell_length_b   10.86120889
_cell_length_c   6.37278801
_cell_angle_alpha   89.99465413
_cell_angle_beta   89.99465413
_cell_angle_gamma   89.95390459
_symmetry_Int_Tables_number   1
_chemical_formula_structural   Dy16Er4Ir7Rh5
_chemical_formula_sum   'Dy16 Er4 Ir7 Rh5'
_cell_volume   751.77115967
_cell_formula_units_Z   1
loop_
 _symmetry_equiv_pos_site_id
 _symmetry_equiv_pos_as_xyz
  1  'x, y, z'
loop_
 _atom_site_type_symbol
 _atom_site_label
 _atom_site_symmetry_multiplicity
 _atom_site_fract_x
 _atom_site_fract_y
 _atom_site_fract_z
 _atom_site_occupancy
  Dy  Dy0  1  0.289559  0.088501  0.379114  1
  Dy  Dy1  1  0.289750  0.911442  0.878585  1
  Dy  Dy2  1  0.709546  0.088099  0.877909  1
  Dy  Dy3  1  0.709709  0.909912  0.379301  1
  Dy  Dy4  1  0.588511  0.789625  0.879070  1
  Dy  Dy5  1  0.587052  0.210526  0.379003  1
  Dy  Dy6  1  0.411257  0.789704  0.378950  1
  Dy  Dy7  1  0.411369  0.210229  0.878832  1
  Dy  Dy8  1  0.210375  0.411489  0.620930  1
  Dy  Dy9  1  0.210296  0.588743  0.121050  1
  Dy  Dy10  1  0.789474  0.412948  0.120997  1
  Dy  Dy11  1  0.789771  0.588631  0.621168  1
  Dy  Dy12  1  0.911499  0.710441  0.120886  1
  Dy  Dy13  1  0.911901  0.290454  0.622091  1
  Dy  Dy14  1  0.088558  0.710250  0.621415  1
  Dy  Dy15  1  0.090088  0.290291  0.120699  1
  Er  Er16  1  0.000133  0.999756  0.499912  1
  Er  Er17  1  0.000244  0.999867  0.000088  1
  Er  Er18  1  0.499991  0.499825  0.999898  1
  Er  Er19  1  0.500175  0.500009  0.500102  1
  Ir  Ir20  1  0.846960  0.847606  0.749928  1
  Ir  Ir21  1  0.152394  0.153040  0.750072  1
  Ir  Ir22  1  0.153054  0.846946  0.250000  1
  Ir  Ir23  1  0.653724  0.346276  0.750000  1
  Ir  Ir24  1  0.653206  0.652949  0.249881  1
  Ir  Ir25  1  0.347051  0.346794  0.250119  1
  Ir  Ir26  1  0.346941  0.653059  0.750000  1
  Rh  Rh27  1  0.846927  0.153073  0.250000  1
  Rh  Rh28  1  0.500613  0.000269  0.122505  1
  Rh  Rh29  1  0.500385  0.000243  0.622024  1
  Rh  Rh30  1  0.999757  0.499615  0.877976  1
  Rh  Rh31  1  0.999731  0.499387  0.377495  1
