# generated using pymatgen
data_Er3Tm3InCoSi
_symmetry_space_group_name_H-M   'P 1'
_cell_length_a   8.37248569
_cell_length_b   8.37248557
_cell_length_c   8.36975988
_cell_angle_alpha   113.43302295
_cell_angle_beta   110.98411158
_cell_angle_gamma   104.14994482
_symmetry_Int_Tables_number   1
_chemical_formula_structural   Er3Tm3InCoSi
_chemical_formula_sum   'Er6 Tm6 In2 Co2 Si2'
_cell_volume   448.44672131
_cell_formula_units_Z   2
loop_
 _symmetry_equiv_pos_site_id
 _symmetry_equiv_pos_as_xyz
  1  'x, y, z'
loop_
 _atom_site_type_symbol
 _atom_site_label
 _atom_site_symmetry_multiplicity
 _atom_site_fract_x
 _atom_site_fract_y
 _atom_site_fract_z
 _atom_site_occupancy
  Er  Er0  1  0.444297  0.241959  0.202056  1
  Er  Er1  1  0.555703  0.758041  0.797944  1
  Er  Er2  1  0.039902  0.242241  0.797944  1
  Er  Er3  1  0.960098  0.757759  0.202056  1
  Er  Er4  1  0.187041  0.288654  0.475695  1
  Er  Er5  1  0.812959  0.711346  0.524305  1
  Tm  Tm6  1  0.187008  0.711412  0.898419  1
  Tm  Tm7  1  0.812992  0.288588  0.101581  1
  Tm  Tm8  1  0.305786  0.616597  0.310531  1
  Tm  Tm9  1  0.694214  0.383403  0.689469  1
  Tm  Tm10  1  0.306065  0.995255  0.689469  1
  Tm  Tm11  1  0.693935  0.004745  0.310531  1
  In  In12  1  0.500000  0.500000  0.000000  1
  In  In13  1  0.000000  0.000000  0.000000  1
  Co  Co14  1  0.108649  0.608649  0.500000  1
  Co  Co15  1  0.891351  0.391351  0.500000  1
  Si  Si16  1  0.360409  0.999885  0.360294  1
  Si  Si17  1  0.639591  0.000115  0.639706  1
