# generated using pymatgen
data_Tb2Al14Fe3
_symmetry_space_group_name_H-M   'P 1'
_cell_length_a   6.74924453
_cell_length_b   6.74924333
_cell_length_c   6.74924403
_cell_angle_alpha   83.82500083
_cell_angle_beta   83.82499498
_cell_angle_gamma   83.82499370
_symmetry_Int_Tables_number   1
_chemical_formula_structural   Tb2Al14Fe3
_chemical_formula_sum   'Tb2 Al14 Fe3'
_cell_volume   302.44977494
_cell_formula_units_Z   1
loop_
 _symmetry_equiv_pos_site_id
 _symmetry_equiv_pos_as_xyz
  1  'x, y, z'
loop_
 _atom_site_type_symbol
 _atom_site_label
 _atom_site_symmetry_multiplicity
 _atom_site_fract_x
 _atom_site_fract_y
 _atom_site_fract_z
 _atom_site_occupancy
  Tb  Tb0  1  0.659772  0.659772  0.659772  1
  Tb  Tb1  1  0.340228  0.340228  0.340228  1
  Al  Al2  1  0.295643  0.704357  0.000000  1
  Al  Al3  1  0.704357  0.000000  0.295643  1
  Al  Al4  1  0.000000  0.295643  0.704357  1
  Al  Al5  1  0.295643  0.000000  0.704357  1
  Al  Al6  1  0.000000  0.704357  0.295643  1
  Al  Al7  1  0.704357  0.295643  0.000000  1
  Al  Al8  1  0.343780  0.343780  0.861153  1
  Al  Al9  1  0.343780  0.861153  0.343780  1
  Al  Al10  1  0.861153  0.343780  0.343780  1
  Al  Al11  1  0.656220  0.656220  0.138847  1
  Al  Al12  1  0.656220  0.138847  0.656220  1
  Al  Al13  1  0.138847  0.656220  0.656220  1
  Al  Al14  1  0.895186  0.895186  0.895186  1
  Al  Al15  1  0.104814  0.104814  0.104814  1
  Fe  Fe16  1  0.000000  0.000000  0.500000  1
  Fe  Fe17  1  0.000000  0.500000  0.000000  1
  Fe  Fe18  1  0.500000  0.000000  0.000000  1
