# generated using pymatgen
data_TbTmSc3Ga4
_symmetry_space_group_name_H-M   'P 1'
_cell_length_a   7.25781921
_cell_length_b   7.55333613
_cell_length_c   14.44746516
_cell_angle_alpha   90.00059167
_cell_angle_beta   90.01728578
_cell_angle_gamma   90.02119080
_symmetry_Int_Tables_number   1
_chemical_formula_structural   TbTmSc3Ga4
_chemical_formula_sum   'Tb4 Tm4 Sc12 Ga16'
_cell_volume   792.02075725
_cell_formula_units_Z   4
loop_
 _symmetry_equiv_pos_site_id
 _symmetry_equiv_pos_as_xyz
  1  'x, y, z'
loop_
 _atom_site_type_symbol
 _atom_site_label
 _atom_site_symmetry_multiplicity
 _atom_site_fract_x
 _atom_site_fract_y
 _atom_site_fract_z
 _atom_site_occupancy
  Tb  Tb0  1  0.010658  0.179460  0.094716  1
  Tb  Tb1  1  0.989296  0.820915  0.905266  1
  Tb  Tb2  1  0.489222  0.679014  0.905747  1
  Tb  Tb3  1  0.989247  0.820868  0.594407  1
  Tm  Tm4  1  0.510628  0.320058  0.094910  1
  Tm  Tm5  1  0.010604  0.180039  0.404936  1
  Tm  Tm6  1  0.510682  0.320090  0.405383  1
  Tm  Tm7  1  0.489324  0.679594  0.594672  1
  Sc  Sc8  1  0.162923  0.502950  0.749746  1
  Sc  Sc9  1  0.837007  0.496115  0.250262  1
  Sc  Sc10  1  0.337800  0.003827  0.250234  1
  Sc  Sc11  1  0.662127  0.997112  0.749744  1
  Sc  Sc12  1  0.330510  0.173761  0.624310  1
  Sc  Sc13  1  0.669789  0.826498  0.375431  1
  Sc  Sc14  1  0.170261  0.673507  0.375371  1
  Sc  Sc15  1  0.669609  0.826387  0.124879  1
  Sc  Sc16  1  0.829940  0.326348  0.624216  1
  Sc  Sc17  1  0.330597  0.173671  0.875499  1
  Sc  Sc18  1  0.830092  0.326309  0.875426  1
  Sc  Sc19  1  0.170221  0.673503  0.124810  1
  Ga  Ga20  1  0.031301  0.116759  0.749898  1
  Ga  Ga21  1  0.968748  0.883725  0.250230  1
  Ga  Ga22  1  0.468868  0.615917  0.250093  1
  Ga  Ga23  1  0.531177  0.383525  0.749749  1
  Ga  Ga24  1  0.284391  0.870884  0.749574  1
  Ga  Ga25  1  0.715672  0.129683  0.250384  1
  Ga  Ga26  1  0.216788  0.370529  0.250411  1
  Ga  Ga27  1  0.783303  0.628877  0.749603  1
  Ga  Ga28  1  0.162848  0.465014  0.540142  1
  Ga  Ga29  1  0.837364  0.533450  0.459330  1
  Ga  Ga30  1  0.337945  0.965928  0.459451  1
  Ga  Ga31  1  0.837380  0.534487  0.040573  1
  Ga  Ga32  1  0.661440  0.034690  0.540116  1
  Ga  Ga33  1  0.162015  0.465072  0.959894  1
  Ga  Ga34  1  0.661412  0.035587  0.960013  1
  Ga  Ga35  1  0.338810  0.965847  0.040571  1
