# generated using pymatgen
data_Ho8Tc3OsC8
_symmetry_space_group_name_H-M   'P 1'
_cell_length_a   5.08083800
_cell_length_b   6.53009131
_cell_length_c   9.81297662
_cell_angle_alpha   89.84013254
_cell_angle_beta   90.00000000
_cell_angle_gamma   90.00000000
_symmetry_Int_Tables_number   1
_chemical_formula_structural   Ho8Tc3OsC8
_chemical_formula_sum   'Ho8 Tc3 Os1 C8'
_cell_volume   325.57696871
_cell_formula_units_Z   1
loop_
 _symmetry_equiv_pos_site_id
 _symmetry_equiv_pos_as_xyz
  1  'x, y, z'
loop_
 _atom_site_type_symbol
 _atom_site_label
 _atom_site_symmetry_multiplicity
 _atom_site_fract_x
 _atom_site_fract_y
 _atom_site_fract_z
 _atom_site_occupancy
  Ho  Ho0  1  0.250000  0.677442  0.556646  1
  Ho  Ho1  1  0.750000  0.321203  0.443369  1
  Ho  Ho2  1  0.750000  0.822135  0.056862  1
  Ho  Ho3  1  0.250000  0.177301  0.943255  1
  Ho  Ho4  1  0.250000  0.530963  0.215949  1
  Ho  Ho5  1  0.750000  0.467375  0.784566  1
  Ho  Ho6  1  0.750000  0.969426  0.713464  1
  Ho  Ho7  1  0.250000  0.030804  0.284412  1
  Tc  Tc8  1  0.250000  0.720276  0.866041  1
  Tc  Tc9  1  0.750000  0.280289  0.133329  1
  Tc  Tc10  1  0.750000  0.779523  0.366769  1
  Os  Os11  1  0.250000  0.220319  0.634098  1
  C  C12  1  0.250000  0.453504  0.758378  1
  C  C13  1  0.750000  0.546754  0.241418  1
  C  C14  1  0.750000  0.046797  0.259216  1
  C  C15  1  0.250000  0.954752  0.741334  1
  C  C16  1  0.250000  0.823087  0.050414  1
  C  C17  1  0.750000  0.177298  0.948744  1
  C  C18  1  0.750000  0.677103  0.551957  1
  C  C19  1  0.250000  0.323649  0.449779  1
