# generated using pymatgen
data_Nd2Ga(PRh2)6
_symmetry_space_group_name_H-M   'P 1'
_cell_length_a   9.72315900
_cell_length_b   9.72315914
_cell_length_c   3.90626400
_cell_angle_alpha   90.00000000
_cell_angle_beta   90.00000000
_cell_angle_gamma   120.00000971
_symmetry_Int_Tables_number   1
_chemical_formula_structural   Nd2Ga(PRh2)6
_chemical_formula_sum   'Nd2 Ga1 P6 Rh12'
_cell_volume   319.82098923
_cell_formula_units_Z   1
loop_
 _symmetry_equiv_pos_site_id
 _symmetry_equiv_pos_as_xyz
  1  'x, y, z'
loop_
 _atom_site_type_symbol
 _atom_site_label
 _atom_site_symmetry_multiplicity
 _atom_site_fract_x
 _atom_site_fract_y
 _atom_site_fract_z
 _atom_site_occupancy
  Nd  Nd0  1  0.333333  0.666667  0.750147  1
  Nd  Nd1  1  0.666667  0.333333  0.249853  1
  Ga  Ga2  1  0.000000  0.000000  0.500000  1
  P  P3  1  0.885725  0.599750  0.749596  1
  P  P4  1  0.400250  0.285976  0.749596  1
  P  P5  1  0.714024  0.114275  0.749596  1
  P  P6  1  0.114275  0.400250  0.250404  1
  P  P7  1  0.599750  0.714024  0.250404  1
  P  P8  1  0.285976  0.885725  0.250404  1
  Rh  Rh9  1  0.614925  0.551664  0.750371  1
  Rh  Rh10  1  0.448336  0.063262  0.750371  1
  Rh  Rh11  1  0.936738  0.385075  0.750371  1
  Rh  Rh12  1  0.385075  0.448336  0.249629  1
  Rh  Rh13  1  0.551664  0.936738  0.249629  1
  Rh  Rh14  1  0.063262  0.614925  0.249629  1
  Rh  Rh15  1  0.122145  0.843788  0.752105  1
  Rh  Rh16  1  0.156212  0.278356  0.752105  1
  Rh  Rh17  1  0.721644  0.877855  0.752105  1
  Rh  Rh18  1  0.877855  0.156212  0.247895  1
  Rh  Rh19  1  0.843788  0.721644  0.247895  1
  Rh  Rh20  1  0.278356  0.122145  0.247895  1
