# generated using pymatgen
data_La2Te4MoO14
_symmetry_space_group_name_H-M   'P 1'
_cell_length_a   7.08058543
_cell_length_b   10.20959734
_cell_length_c   10.32474800
_cell_angle_alpha   90.07847196
_cell_angle_beta   72.79157231
_cell_angle_gamma   86.69773874
_symmetry_Int_Tables_number   1
_chemical_formula_structural   La2Te4MoO14
_chemical_formula_sum   'La4 Te8 Mo2 O28'
_cell_volume   711.64716414
_cell_formula_units_Z   2
loop_
 _symmetry_equiv_pos_site_id
 _symmetry_equiv_pos_as_xyz
  1  'x, y, z'
loop_
 _atom_site_type_symbol
 _atom_site_label
 _atom_site_symmetry_multiplicity
 _atom_site_fract_x
 _atom_site_fract_y
 _atom_site_fract_z
 _atom_site_occupancy
  La  La0  1  0.643755  0.692838  0.914740  1
  La  La1  1  0.219427  0.534253  0.783969  1
  La  La2  1  0.780573  0.465747  0.216031  1
  La  La3  1  0.356245  0.307162  0.085260  1
  Te  Te4  1  0.743045  0.390296  0.719295  1
  Te  Te5  1  0.942463  0.209573  0.957017  1
  Te  Te6  1  0.057537  0.790427  0.042983  1
  Te  Te7  1  0.076662  0.834390  0.630617  1
  Te  Te8  1  0.360621  0.272098  0.457569  1
  Te  Te9  1  0.639379  0.727902  0.542431  1
  Te  Te10  1  0.923338  0.165610  0.369383  1
  Te  Te11  1  0.256955  0.609704  0.280705  1
  Mo  Mo12  1  0.524023  0.963124  0.233752  1
  Mo  Mo13  1  0.475977  0.036876  0.766248  1
  O  O14  1  0.707077  0.293915  0.068664  1
  O  O15  1  0.976959  0.775439  0.811811  1
  O  O16  1  0.595017  0.880964  0.070475  1
  O  O17  1  0.747385  0.001474  0.270453  1
  O  O18  1  0.929842  0.721709  0.542036  1
  O  O19  1  0.252615  0.998526  0.729547  1
  O  O20  1  0.304839  0.390740  0.602730  1
  O  O21  1  0.375371  0.114978  0.235051  1
  O  O22  1  0.121154  0.492426  0.204016  1
  O  O23  1  0.388776  0.860232  0.362360  1
  O  O24  1  0.404983  0.119036  0.929525  1
  O  O25  1  0.413345  0.395878  0.313521  1
  O  O26  1  0.611224  0.139768  0.637640  1
  O  O27  1  0.878846  0.507574  0.795984  1
  O  O28  1  0.868412  0.234772  0.790613  1
  O  O29  1  0.101448  0.352819  0.950743  1
  O  O30  1  0.586655  0.604122  0.686479  1
  O  O31  1  0.497273  0.585084  0.136289  1
  O  O32  1  0.898552  0.647181  0.049257  1
  O  O33  1  0.710590  0.294321  0.401488  1
  O  O34  1  0.695161  0.609260  0.397270  1
  O  O35  1  0.023041  0.224561  0.188189  1
  O  O36  1  0.070158  0.278291  0.457964  1
  O  O37  1  0.131588  0.765228  0.209387  1
  O  O38  1  0.502727  0.414916  0.863711  1
  O  O39  1  0.624629  0.885022  0.764949  1
  O  O40  1  0.289410  0.705679  0.598512  1
  O  O41  1  0.292923  0.706085  0.931336  1
