# generated using pymatgen
data_Nd4SiAsPd28
_symmetry_space_group_name_H-M   'P 1'
_cell_length_a   9.00031000
_cell_length_b   9.00031000
_cell_length_c   7.18539000
_cell_angle_alpha   90.00000000
_cell_angle_beta   90.00000000
_cell_angle_gamma   90.00000000
_symmetry_Int_Tables_number   1
_chemical_formula_structural   Nd4SiAsPd28
_chemical_formula_sum   'Nd4 Si1 As1 Pd28'
_cell_volume   582.05668517
_cell_formula_units_Z   1
loop_
 _symmetry_equiv_pos_site_id
 _symmetry_equiv_pos_as_xyz
  1  'x, y, z'
loop_
 _atom_site_type_symbol
 _atom_site_label
 _atom_site_symmetry_multiplicity
 _atom_site_fract_x
 _atom_site_fract_y
 _atom_site_fract_z
 _atom_site_occupancy
  Nd  Nd0  1  0.500000  0.000000  0.935722  1
  Nd  Nd1  1  0.000000  0.500000  0.064987  1
  Nd  Nd2  1  0.000000  0.000000  0.500298  1
  Nd  Nd3  1  0.500000  0.500000  0.500298  1
  Si  Si4  1  0.000000  0.500000  0.550134  1
  As  As5  1  0.500000  0.000000  0.448330  1
  Pd  Pd6  1  0.330634  0.830634  0.620217  1
  Pd  Pd7  1  0.330634  0.169366  0.620217  1
  Pd  Pd8  1  0.669366  0.830634  0.620217  1
  Pd  Pd9  1  0.669366  0.169366  0.620217  1
  Pd  Pd10  1  0.165103  0.665103  0.384192  1
  Pd  Pd11  1  0.165103  0.334897  0.384192  1
  Pd  Pd12  1  0.834897  0.665103  0.384192  1
  Pd  Pd13  1  0.834897  0.334897  0.384192  1
  Pd  Pd14  1  0.500000  0.766110  0.252800  1
  Pd  Pd15  1  0.500000  0.233890  0.252800  1
  Pd  Pd16  1  0.266110  0.000000  0.252800  1
  Pd  Pd17  1  0.733890  0.000000  0.252800  1
  Pd  Pd18  1  0.000000  0.729150  0.742507  1
  Pd  Pd19  1  0.000000  0.270850  0.742507  1
  Pd  Pd20  1  0.229150  0.500000  0.742507  1
  Pd  Pd21  1  0.770850  0.500000  0.742507  1
  Pd  Pd22  1  0.500000  0.348766  0.856304  1
  Pd  Pd23  1  0.500000  0.651234  0.856304  1
  Pd  Pd24  1  0.848766  0.000000  0.856304  1
  Pd  Pd25  1  0.151234  0.000000  0.856304  1
  Pd  Pd26  1  0.000000  0.151244  0.144066  1
  Pd  Pd27  1  0.000000  0.848756  0.144066  1
  Pd  Pd28  1  0.651244  0.500000  0.144066  1
  Pd  Pd29  1  0.348756  0.500000  0.144066  1
  Pd  Pd30  1  0.249181  0.749181  0.999972  1
  Pd  Pd31  1  0.249181  0.250819  0.999972  1
  Pd  Pd32  1  0.750819  0.749181  0.999972  1
  Pd  Pd33  1  0.750819  0.250819  0.999972  1
