# generated using pymatgen
data_Sr3LaMgRuO8
_symmetry_space_group_name_H-M   'P 1'
_cell_length_a   6.93267677
_cell_length_b   6.93267722
_cell_length_c   5.59370700
_cell_angle_alpha   90.00000000
_cell_angle_beta   90.00000000
_cell_angle_gamma   132.56897281
_symmetry_Int_Tables_number   1
_chemical_formula_structural   Sr3LaMgRuO8
_chemical_formula_sum   'Sr3 La1 Mg1 Ru1 O8'
_cell_volume   197.99439177
_cell_formula_units_Z   1
loop_
 _symmetry_equiv_pos_site_id
 _symmetry_equiv_pos_as_xyz
  1  'x, y, z'
loop_
 _atom_site_type_symbol
 _atom_site_label
 _atom_site_symmetry_multiplicity
 _atom_site_fract_x
 _atom_site_fract_y
 _atom_site_fract_z
 _atom_site_occupancy
  Sr  Sr0  1  0.141819  0.858181  0.500000  1
  Sr  Sr1  1  0.644910  0.355090  0.000000  1
  Sr  Sr2  1  0.856677  0.143323  0.500000  1
  La  La3  1  0.356035  0.643965  0.000000  1
  Mg  Mg4  1  0.000565  0.999435  0.000000  1
  Ru  Ru5  1  0.501073  0.498927  0.500000  1
  O  O6  1  0.254084  0.257976  0.747461  1
  O  O7  1  0.742024  0.745916  0.252539  1
  O  O8  1  0.254084  0.257976  0.252539  1
  O  O9  1  0.742024  0.745916  0.747461  1
  O  O10  1  0.833211  0.166789  0.000000  1
  O  O11  1  0.337707  0.662293  0.500000  1
  O  O12  1  0.658572  0.341428  0.500000  1
  O  O13  1  0.177217  0.822783  0.000000  1
