# generated using pymatgen
data_Nb12Ga8Fe3NiC4
_symmetry_space_group_name_H-M   'P 1'
_cell_length_a   8.21548603
_cell_length_b   8.22853028
_cell_length_c   8.22849003
_cell_angle_alpha   60.00350506
_cell_angle_beta   59.95412722
_cell_angle_gamma   59.95246634
_symmetry_Int_Tables_number   1
_chemical_formula_structural   Nb12Ga8Fe3NiC4
_chemical_formula_sum   'Nb12 Ga8 Fe3 Ni1 C4'
_cell_volume   393.06577556
_cell_formula_units_Z   1
loop_
 _symmetry_equiv_pos_site_id
 _symmetry_equiv_pos_as_xyz
  1  'x, y, z'
loop_
 _atom_site_type_symbol
 _atom_site_label
 _atom_site_symmetry_multiplicity
 _atom_site_fract_x
 _atom_site_fract_y
 _atom_site_fract_z
 _atom_site_occupancy
  Nb  Nb0  1  0.803101  0.804666  0.196179  1
  Nb  Nb1  1  0.198775  0.187244  0.806966  1
  Nb  Nb2  1  0.803109  0.196171  0.804656  1
  Nb  Nb3  1  0.198769  0.806975  0.187245  1
  Nb  Nb4  1  0.198854  0.806983  0.806978  1
  Nb  Nb5  1  0.803081  0.196101  0.196114  1
  Nb  Nb6  1  0.446899  0.445334  0.053821  1
  Nb  Nb7  1  0.051225  0.062756  0.443034  1
  Nb  Nb8  1  0.446891  0.053829  0.445344  1
  Nb  Nb9  1  0.051231  0.443025  0.062755  1
  Nb  Nb10  1  0.051146  0.443017  0.443022  1
  Nb  Nb11  1  0.446919  0.053899  0.053886  1
  Ga  Ga12  1  0.746551  0.417753  0.417793  1
  Ga  Ga13  1  0.414640  0.753115  0.416064  1
  Ga  Ga14  1  0.414661  0.416044  0.753102  1
  Ga  Ga15  1  0.414704  0.416081  0.416115  1
  Ga  Ga16  1  0.503449  0.832247  0.832207  1
  Ga  Ga17  1  0.835360  0.496885  0.833936  1
  Ga  Ga18  1  0.835339  0.833956  0.496898  1
  Ga  Ga19  1  0.835296  0.833919  0.833885  1
  Fe  Fe20  1  0.625000  0.125000  0.625000  1
  Fe  Fe21  1  0.625000  0.625000  0.125000  1
  Fe  Fe22  1  0.625000  0.625000  0.625000  1
  Ni  Ni23  1  0.125000  0.625000  0.625000  1
  C  C24  1  0.625000  0.125000  0.125000  1
  C  C25  1  0.125000  0.625000  0.125000  1
  C  C26  1  0.125000  0.125000  0.625000  1
  C  C27  1  0.125000  0.125000  0.125000  1
