# generated using pymatgen
data_Ta6Co14Si7Ni2
_symmetry_space_group_name_H-M   'P 1'
_cell_length_a   7.90793257
_cell_length_b   7.90793285
_cell_length_c   7.90739500
_cell_angle_alpha   60.00225405
_cell_angle_beta   60.00225286
_cell_angle_gamma   59.99939772
_symmetry_Int_Tables_number   1
_chemical_formula_structural   Ta6Co14Si7Ni2
_chemical_formula_sum   'Ta6 Co14 Si7 Ni2'
_cell_volume   349.66903980
_cell_formula_units_Z   1
loop_
 _symmetry_equiv_pos_site_id
 _symmetry_equiv_pos_as_xyz
  1  'x, y, z'
loop_
 _atom_site_type_symbol
 _atom_site_label
 _atom_site_symmetry_multiplicity
 _atom_site_fract_x
 _atom_site_fract_y
 _atom_site_fract_z
 _atom_site_occupancy
  Ta  Ta0  1  0.799683  0.200317  0.791740  1
  Ta  Ta1  1  0.800556  0.792374  0.203535  1
  Ta  Ta2  1  0.203639  0.796361  0.797802  1
  Ta  Ta3  1  0.207626  0.199444  0.796465  1
  Ta  Ta4  1  0.799683  0.200317  0.208260  1
  Ta  Ta5  1  0.203639  0.796361  0.202198  1
  Co  Co6  1  0.163482  0.167707  0.164894  1
  Co  Co7  1  0.618771  0.617964  0.144833  1
  Co  Co8  1  0.382036  0.381229  0.381569  1
  Co  Co9  1  0.164916  0.502559  0.166262  1
  Co  Co10  1  0.163482  0.167707  0.503917  1
  Co  Co11  1  0.143256  0.618437  0.619153  1
  Co  Co12  1  0.618680  0.144413  0.618454  1
  Co  Co13  1  0.832293  0.836518  0.835106  1
  Co  Co14  1  0.855587  0.381320  0.381546  1
  Co  Co15  1  0.382036  0.381229  0.855167  1
  Co  Co16  1  0.381563  0.856744  0.380847  1
  Co  Co17  1  0.497441  0.835084  0.833738  1
  Co  Co18  1  0.618771  0.617964  0.618431  1
  Co  Co19  1  0.832293  0.836518  0.496083  1
  Si  Si20  1  0.000619  0.501294  0.997895  1
  Si  Si21  1  0.499022  0.500978  0.500000  1
  Si  Si22  1  0.499055  0.500945  0.000000  1
  Si  Si23  1  0.498706  0.999381  0.499809  1
  Si  Si24  1  0.000619  0.501294  0.500191  1
  Si  Si25  1  0.003102  0.996898  0.500000  1
  Si  Si26  1  0.498706  0.999381  0.002105  1
  Ni  Ni27  1  0.499303  0.168567  0.166065  1
  Ni  Ni28  1  0.831433  0.500697  0.833935  1
