# generated using pymatgen
data_U4Re5(Ge3Ru)2
_symmetry_space_group_name_H-M   'P 1'
_cell_length_a   7.24104182
_cell_length_b   7.23713749
_cell_length_c   7.24104129
_cell_angle_alpha   109.33336637
_cell_angle_beta   109.37434931
_cell_angle_gamma   109.72814791
_symmetry_Int_Tables_number   1
_chemical_formula_structural   U4Re5(Ge3Ru)2
_chemical_formula_sum   'U4 Re5 Ge6 Ru2'
_cell_volume   292.02718353
_cell_formula_units_Z   1
loop_
 _symmetry_equiv_pos_site_id
 _symmetry_equiv_pos_as_xyz
  1  'x, y, z'
loop_
 _atom_site_type_symbol
 _atom_site_label
 _atom_site_symmetry_multiplicity
 _atom_site_fract_x
 _atom_site_fract_y
 _atom_site_fract_z
 _atom_site_occupancy
  U  U0  1  0.001900  0.997911  0.499979  1
  U  U1  1  0.002112  0.502012  0.004099  1
  U  U2  1  0.497932  0.997911  0.996011  1
  U  U3  1  0.497913  0.502012  0.499900  1
  Re  Re4  1  0.749599  0.499534  0.249904  1
  Re  Re5  1  0.500503  0.250557  0.750053  1
  Re  Re6  1  0.249630  0.499534  0.749934  1
  Re  Re7  1  0.250049  0.749968  0.499919  1
  Re  Re8  1  0.500263  0.750255  0.249991  1
  Ge  Ge9  1  0.694273  0.694302  0.000029  1
  Ge  Ge10  1  0.308405  0.001982  0.306445  1
  Ge  Ge11  1  0.998009  0.304431  0.306422  1
  Ge  Ge12  1  0.305740  0.305726  0.999986  1
  Ge  Ge13  1  0.695536  0.001982  0.693577  1
  Ge  Ge14  1  0.998094  0.691685  0.693591  1
  Ru  Ru15  1  0.750160  0.250420  0.500261  1
  Ru  Ru16  1  0.999881  0.999779  0.999899  1
