# generated using pymatgen
data_Pr8MgSc11Si15As
_symmetry_space_group_name_H-M   'P 1'
_cell_length_a   7.23783542
_cell_length_b   7.55538075
_cell_length_c   14.23781000
_cell_angle_alpha   90.00000000
_cell_angle_beta   90.00000000
_cell_angle_gamma   90.16030378
_symmetry_Int_Tables_number   1
_chemical_formula_structural   Pr8MgSc11Si15As
_chemical_formula_sum   'Pr8 Mg1 Sc11 Si15 As1'
_cell_volume   778.58593180
_cell_formula_units_Z   1
loop_
 _symmetry_equiv_pos_site_id
 _symmetry_equiv_pos_as_xyz
  1  'x, y, z'
loop_
 _atom_site_type_symbol
 _atom_site_label
 _atom_site_symmetry_multiplicity
 _atom_site_fract_x
 _atom_site_fract_y
 _atom_site_fract_z
 _atom_site_occupancy
  Pr  Pr0  1  0.010463  0.175525  0.400837  1
  Pr  Pr1  1  0.516332  0.327796  0.400225  1
  Pr  Pr2  1  0.492153  0.668956  0.904648  1
  Pr  Pr3  1  0.492153  0.668956  0.595352  1
  Pr  Pr4  1  0.990398  0.830203  0.599605  1
  Pr  Pr5  1  0.990398  0.830203  0.900395  1
  Pr  Pr6  1  0.516332  0.327796  0.099775  1
  Pr  Pr7  1  0.010463  0.175525  0.099163  1
  Mg  Mg8  1  0.842557  0.501914  0.250000  1
  Sc  Sc9  1  0.327088  0.174731  0.626122  1
  Sc  Sc10  1  0.672536  0.820596  0.375193  1
  Sc  Sc11  1  0.662038  0.001981  0.750000  1
  Sc  Sc12  1  0.166323  0.675526  0.375205  1
  Sc  Sc13  1  0.827031  0.324817  0.875308  1
  Sc  Sc14  1  0.827031  0.324817  0.624692  1
  Sc  Sc15  1  0.341487  0.997615  0.250000  1
  Sc  Sc16  1  0.327088  0.174731  0.873878  1
  Sc  Sc17  1  0.166323  0.675526  0.124795  1
  Sc  Sc18  1  0.672536  0.820596  0.124807  1
  Sc  Sc19  1  0.157038  0.494088  0.750000  1
  Si  Si20  1  0.456946  0.627223  0.250000  1
  Si  Si21  1  0.022370  0.138686  0.750000  1
  Si  Si22  1  0.531024  0.371823  0.750000  1
  Si  Si23  1  0.151920  0.463300  0.539325  1
  Si  Si24  1  0.966958  0.884301  0.250000  1
  Si  Si25  1  0.708615  0.102412  0.250000  1
  Si  Si26  1  0.847809  0.540658  0.034853  1
  Si  Si27  1  0.347278  0.964952  0.040034  1
  Si  Si28  1  0.151920  0.463300  0.960675  1
  Si  Si29  1  0.650093  0.036079  0.540222  1
  Si  Si30  1  0.347278  0.964952  0.459966  1
  Si  Si31  1  0.847809  0.540658  0.465147  1
  Si  Si32  1  0.790491  0.619204  0.750000  1
  Si  Si33  1  0.221574  0.383618  0.250000  1
  Si  Si34  1  0.650093  0.036079  0.959778  1
  As  As35  1  0.300054  0.870860  0.750000  1
