# generated using pymatgen
data_TbHo15(LuSn4)4
_symmetry_space_group_name_H-M   'P 1'
_cell_length_a   7.97534133
_cell_length_b   8.12244712
_cell_length_c   15.37916145
_cell_angle_alpha   90.00541501
_cell_angle_beta   89.97286067
_cell_angle_gamma   89.98142864
_symmetry_Int_Tables_number   1
_chemical_formula_structural   TbHo15(LuSn4)4
_chemical_formula_sum   'Tb1 Ho15 Lu4 Sn16'
_cell_volume   996.25096273
_cell_formula_units_Z   1
loop_
 _symmetry_equiv_pos_site_id
 _symmetry_equiv_pos_as_xyz
  1  'x, y, z'
loop_
 _atom_site_type_symbol
 _atom_site_label
 _atom_site_symmetry_multiplicity
 _atom_site_fract_x
 _atom_site_fract_y
 _atom_site_fract_z
 _atom_site_occupancy
  Tb  Tb0  1  0.020310  0.179838  0.902801  1
  Ho  Ho1  1  0.367419  0.836557  0.877907  1
  Ho  Ho2  1  0.867397  0.663399  0.622022  1
  Ho  Ho3  1  0.632579  0.163361  0.377912  1
  Ho  Ho4  1  0.132686  0.336704  0.122178  1
  Ho  Ho5  1  0.632685  0.163329  0.122128  1
  Ho  Ho6  1  0.132593  0.336646  0.377908  1
  Ho  Ho7  1  0.367434  0.836597  0.622042  1
  Ho  Ho8  1  0.867369  0.663398  0.877918  1
  Ho  Ho9  1  0.520508  0.320294  0.902697  1
  Ho  Ho10  1  0.020541  0.179814  0.597366  1
  Ho  Ho11  1  0.479507  0.679776  0.402681  1
  Ho  Ho12  1  0.979566  0.820161  0.097352  1
  Ho  Ho13  1  0.479527  0.679816  0.097319  1
  Ho  Ho14  1  0.979492  0.820228  0.402680  1
  Ho  Ho15  1  0.520522  0.320275  0.597243  1
  Lu  Lu16  1  0.198276  0.502868  0.749906  1
  Lu  Lu17  1  0.698097  0.997096  0.749867  1
  Lu  Lu18  1  0.801801  0.497205  0.250046  1
  Lu  Lu19  1  0.301786  0.002767  0.250026  1
  Sn  Sn20  1  0.293139  0.034964  0.042699  1
  Sn  Sn21  1  0.792558  0.464701  0.457593  1
  Sn  Sn22  1  0.707461  0.964791  0.542397  1
  Sn  Sn23  1  0.207747  0.535887  0.957730  1
  Sn  Sn24  1  0.706535  0.964000  0.957817  1
  Sn  Sn25  1  0.207404  0.535304  0.542371  1
  Sn  Sn26  1  0.292589  0.035282  0.457589  1
  Sn  Sn27  1  0.792555  0.464736  0.042409  1
  Sn  Sn28  1  0.563844  0.619115  0.749975  1
  Sn  Sn29  1  0.063866  0.880572  0.749957  1
  Sn  Sn30  1  0.436164  0.380929  0.249995  1
  Sn  Sn31  1  0.936155  0.119151  0.250036  1
  Sn  Sn32  1  0.330153  0.148614  0.749839  1
  Sn  Sn33  1  0.829391  0.351781  0.749572  1
  Sn  Sn34  1  0.670169  0.851410  0.250003  1
  Sn  Sn35  1  0.170174  0.648632  0.250019  1
