# generated using pymatgen
data_DyY11Pb10
_symmetry_space_group_name_H-M   'P 1'
_cell_length_a   11.78766526
_cell_length_b   11.78766523
_cell_length_c   11.78795100
_cell_angle_alpha   146.86230889
_cell_angle_beta   132.76326658
_cell_angle_gamma   58.91114254
_symmetry_Int_Tables_number   1
_chemical_formula_structural   DyY11Pb10
_chemical_formula_sum   'Dy1 Y11 Pb10'
_cell_volume   651.77540251
_cell_formula_units_Z   1
loop_
 _symmetry_equiv_pos_site_id
 _symmetry_equiv_pos_as_xyz
  1  'x, y, z'
loop_
 _atom_site_type_symbol
 _atom_site_label
 _atom_site_symmetry_multiplicity
 _atom_site_fract_x
 _atom_site_fract_y
 _atom_site_fract_z
 _atom_site_occupancy
  Dy  Dy0  1  0.696250  0.446250  0.750000  1
  Y  Y1  1  0.695930  0.945930  0.250000  1
  Y  Y2  1  0.251351  0.638035  0.614021  1
  Y  Y3  1  0.681995  0.941006  0.740967  1
  Y  Y4  1  0.024014  0.137329  0.885979  1
  Y  Y5  1  0.976251  0.862247  0.113801  1
  Y  Y6  1  0.799959  0.558811  0.240972  1
  Y  Y7  1  0.200039  0.441028  0.759033  1
  Y  Y8  1  0.303902  0.053902  0.750000  1
  Y  Y9  1  0.317839  0.058987  0.259028  1
  Y  Y10  1  0.304000  0.554000  0.250000  1
  Y  Y11  1  0.748446  0.362451  0.386199  1
  Pb  Pb12  1  0.481434  0.572664  0.906784  1
  Pb  Pb13  1  0.597584  0.793650  0.803507  1
  Pb  Pb14  1  0.665881  0.074651  0.593216  1
  Pb  Pb15  1  0.999923  0.749923  0.750000  1
  Pb  Pb16  1  0.990142  0.294077  0.696493  1
  Pb  Pb17  1  0.518387  0.426275  0.091680  1
  Pb  Pb18  1  0.009710  0.705659  0.303292  1
  Pb  Pb19  1  0.402367  0.206418  0.196708  1
  Pb  Pb20  1  0.334593  0.926705  0.408320  1
  Pb  Pb21  1  0.000002  0.250002  0.250000  1
