# generated using pymatgen
data_Hf18BeFeRe5Mo3
_symmetry_space_group_name_H-M   'P 1'
_cell_length_a   8.48366800
_cell_length_b   8.61633205
_cell_length_c   8.61023381
_cell_angle_alpha   120.02334384
_cell_angle_beta   90.00000000
_cell_angle_gamma   90.00000000
_symmetry_Int_Tables_number   1
_chemical_formula_structural   Hf18BeFeRe5Mo3
_chemical_formula_sum   'Hf18 Be1 Fe1 Re5 Mo3'
_cell_volume   544.94097172
_cell_formula_units_Z   1
loop_
 _symmetry_equiv_pos_site_id
 _symmetry_equiv_pos_as_xyz
  1  'x, y, z'
loop_
 _atom_site_type_symbol
 _atom_site_label
 _atom_site_symmetry_multiplicity
 _atom_site_fract_x
 _atom_site_fract_y
 _atom_site_fract_z
 _atom_site_occupancy
  Hf  Hf0  1  0.554584  0.802293  0.604587  1
  Hf  Hf1  1  0.553517  0.801277  0.197891  1
  Hf  Hf2  1  0.553508  0.396589  0.197879  1
  Hf  Hf3  1  0.441259  0.201756  0.403513  1
  Hf  Hf4  1  0.442026  0.201570  0.798150  1
  Hf  Hf5  1  0.442039  0.596601  0.798158  1
  Hf  Hf6  1  0.058741  0.201756  0.403513  1
  Hf  Hf7  1  0.057974  0.201570  0.798150  1
  Hf  Hf8  1  0.057961  0.596601  0.798158  1
  Hf  Hf9  1  0.945416  0.802293  0.604587  1
  Hf  Hf10  1  0.946483  0.801277  0.197891  1
  Hf  Hf11  1  0.946492  0.396589  0.197879  1
  Hf  Hf12  1  0.750000  0.460219  0.920455  1
  Hf  Hf13  1  0.750000  0.461867  0.540848  1
  Hf  Hf14  1  0.750000  0.078972  0.540851  1
  Hf  Hf15  1  0.250000  0.540329  0.080648  1
  Hf  Hf16  1  0.250000  0.540817  0.460031  1
  Hf  Hf17  1  0.250000  0.919207  0.460021  1
  Be  Be18  1  0.750000  0.666663  0.333379  1
  Fe  Fe19  1  0.250000  0.333829  0.667593  1
  Re  Re20  1  0.750000  0.111233  0.887200  1
  Re  Re21  1  0.750000  0.775962  0.887206  1
  Re  Re22  1  0.250000  0.888875  0.777720  1
  Re  Re23  1  0.250000  0.888340  0.111445  1
  Re  Re24  1  0.250000  0.223124  0.111445  1
  Mo  Mo25  1  0.750000  0.110844  0.221709  1
  Mo  Mo26  1  0.500439  0.999772  0.999545  1
  Mo  Mo27  1  0.999561  0.999772  0.999545  1
