# generated using pymatgen
data_CaY3(Si4Tc3)2
_symmetry_space_group_name_H-M   'P 1'
_cell_length_a   6.81319007
_cell_length_b   6.73542218
_cell_length_c   6.79633346
_cell_angle_alpha   70.20764679
_cell_angle_beta   90.01309826
_cell_angle_gamma   89.81909205
_symmetry_Int_Tables_number   1
_chemical_formula_structural   CaY3(Si4Tc3)2
_chemical_formula_sum   'Ca1 Y3 Si8 Tc6'
_cell_volume   293.45592576
_cell_formula_units_Z   1
loop_
 _symmetry_equiv_pos_site_id
 _symmetry_equiv_pos_as_xyz
  1  'x, y, z'
loop_
 _atom_site_type_symbol
 _atom_site_label
 _atom_site_symmetry_multiplicity
 _atom_site_fract_x
 _atom_site_fract_y
 _atom_site_fract_z
 _atom_site_occupancy
  Ca  Ca0  1  0.167348  0.943520  0.186674  1
  Y  Y1  1  0.331102  0.440919  0.193133  1
  Y  Y2  1  0.832822  0.057868  0.809237  1
  Y  Y3  1  0.667784  0.559032  0.807396  1
  Si  Si4  1  0.548591  0.119260  0.104856  1
  Si  Si5  1  0.356740  0.634557  0.509956  1
  Si  Si6  1  0.860747  0.869141  0.485165  1
  Si  Si7  1  0.050472  0.379222  0.897474  1
  Si  Si8  1  0.142198  0.128796  0.512184  1
  Si  Si9  1  0.641306  0.368033  0.487906  1
  Si  Si10  1  0.950117  0.620173  0.104410  1
  Si  Si11  1  0.448836  0.880005  0.896571  1
  Tc  Tc12  1  0.844547  0.244588  0.239329  1
  Tc  Tc13  1  0.348829  0.259871  0.759466  1
  Tc  Tc14  1  0.153252  0.755099  0.761611  1
  Tc  Tc15  1  0.652916  0.742424  0.239601  1
  Tc  Tc16  1  0.502840  0.999789  0.503128  1
  Tc  Tc17  1  0.999556  0.497703  0.501903  1
