# generated using pymatgen
data_Lu6Zn20Pd3Se
_symmetry_space_group_name_H-M   'P 1'
_cell_length_a   9.02579555
_cell_length_b   9.02579430
_cell_length_c   9.04894400
_cell_angle_alpha   59.91512686
_cell_angle_beta   59.91513145
_cell_angle_gamma   60.16974587
_symmetry_Int_Tables_number   1
_chemical_formula_structural   Lu6Zn20Pd3Se
_chemical_formula_sum   'Lu6 Zn20 Pd3 Se1'
_cell_volume   521.25245389
_cell_formula_units_Z   1
loop_
 _symmetry_equiv_pos_site_id
 _symmetry_equiv_pos_as_xyz
  1  'x, y, z'
loop_
 _atom_site_type_symbol
 _atom_site_label
 _atom_site_symmetry_multiplicity
 _atom_site_fract_x
 _atom_site_fract_y
 _atom_site_fract_z
 _atom_site_occupancy
  Lu  Lu0  1  0.715779  0.284221  0.284221  1
  Lu  Lu1  1  0.284221  0.715779  0.715779  1
  Lu  Lu2  1  0.284221  0.715779  0.284221  1
  Lu  Lu3  1  0.715779  0.284221  0.715779  1
  Lu  Lu4  1  0.280989  0.280989  0.719011  1
  Lu  Lu5  1  0.719011  0.719011  0.280989  1
  Zn  Zn6  1  0.120111  0.120111  0.127151  1
  Zn  Zn7  1  0.879889  0.879889  0.872849  1
  Zn  Zn8  1  0.120111  0.120111  0.632627  1
  Zn  Zn9  1  0.127151  0.632627  0.120111  1
  Zn  Zn10  1  0.879889  0.879889  0.367373  1
  Zn  Zn11  1  0.872849  0.367373  0.879889  1
  Zn  Zn12  1  0.632627  0.127151  0.120111  1
  Zn  Zn13  1  0.367373  0.872849  0.879889  1
  Zn  Zn14  1  0.500000  0.000000  0.000000  1
  Zn  Zn15  1  0.000000  0.500000  0.500000  1
  Zn  Zn16  1  0.000000  0.500000  0.000000  1
  Zn  Zn17  1  0.500000  0.000000  0.500000  1
  Zn  Zn18  1  0.330232  0.330232  0.332917  1
  Zn  Zn19  1  0.669768  0.669768  0.667083  1
  Zn  Zn20  1  0.330232  0.330232  0.006621  1
  Zn  Zn21  1  0.332917  0.006621  0.330232  1
  Zn  Zn22  1  0.669768  0.669768  0.993379  1
  Zn  Zn23  1  0.667083  0.993379  0.669768  1
  Zn  Zn24  1  0.006621  0.332917  0.330232  1
  Zn  Zn25  1  0.993379  0.667083  0.669768  1
  Pd  Pd26  1  0.000000  0.000000  0.500000  1
  Pd  Pd27  1  0.500000  0.500000  0.000000  1
  Pd  Pd28  1  0.000000  0.000000  0.000000  1
  Se  Se29  1  0.500000  0.500000  0.500000  1
