# generated using pymatgen
data_Ca6YbTmBi6
_symmetry_space_group_name_H-M   'P 1'
_cell_length_a   8.28047996
_cell_length_b   8.36322668
_cell_length_c   8.37005200
_cell_angle_alpha   109.64581876
_cell_angle_beta   109.27670093
_cell_angle_gamma   109.27489017
_symmetry_Int_Tables_number   1
_chemical_formula_structural   Ca6YbTmBi6
_chemical_formula_sum   'Ca6 Yb1 Tm1 Bi6'
_cell_volume   447.38846205
_cell_formula_units_Z   1
loop_
 _symmetry_equiv_pos_site_id
 _symmetry_equiv_pos_as_xyz
  1  'x, y, z'
loop_
 _atom_site_type_symbol
 _atom_site_label
 _atom_site_symmetry_multiplicity
 _atom_site_fract_x
 _atom_site_fract_y
 _atom_site_fract_z
 _atom_site_occupancy
  Ca  Ca0  1  0.649298  0.499986  0.999949  1
  Ca  Ca1  1  0.499564  0.001336  0.651147  1
  Ca  Ca2  1  0.355270  0.352255  0.356079  1
  Ca  Ca3  1  0.503242  0.003748  0.147868  1
  Ca  Ca4  1  0.998202  0.649866  0.498765  1
  Ca  Ca5  1  0.848318  0.848826  0.850181  1
  Yb  Yb6  1  0.999305  0.143941  0.496216  1
  Tm  Tm7  1  0.148072  0.499794  0.999912  1
  Bi  Bi8  1  0.369621  0.623509  0.755827  1
  Bi  Bi9  1  0.883745  0.256519  0.125550  1
  Bi  Bi10  1  0.614151  0.744422  0.367925  1
  Bi  Bi11  1  0.126899  0.868970  0.243622  1
  Bi  Bi12  1  0.245984  0.132283  0.875998  1
  Bi  Bi13  1  0.758331  0.374545  0.630959  1
