# generated using pymatgen
data_Dy(Zr3Pb2)3
_symmetry_space_group_name_H-M   'P 1'
_cell_length_a   8.76427159
_cell_length_b   8.76427222
_cell_length_c   5.92812200
_cell_angle_alpha   90.00000000
_cell_angle_beta   90.00000000
_cell_angle_gamma   120.88873429
_symmetry_Int_Tables_number   1
_chemical_formula_structural   Dy(Zr3Pb2)3
_chemical_formula_sum   'Dy1 Zr9 Pb6'
_cell_volume   390.76895472
_cell_formula_units_Z   1
loop_
 _symmetry_equiv_pos_site_id
 _symmetry_equiv_pos_as_xyz
  1  'x, y, z'
loop_
 _atom_site_type_symbol
 _atom_site_label
 _atom_site_symmetry_multiplicity
 _atom_site_fract_x
 _atom_site_fract_y
 _atom_site_fract_z
 _atom_site_occupancy
  Dy  Dy0  1  0.768501  0.768501  0.250000  1
  Zr  Zr1  1  0.001471  0.251729  0.250000  1
  Zr  Zr2  1  0.750038  0.999789  0.750000  1
  Zr  Zr3  1  0.333107  0.665160  0.500652  1
  Zr  Zr4  1  0.251729  0.001471  0.250000  1
  Zr  Zr5  1  0.665160  0.333107  0.500652  1
  Zr  Zr6  1  0.999789  0.750038  0.750000  1
  Zr  Zr7  1  0.333107  0.665160  0.999348  1
  Zr  Zr8  1  0.236220  0.236220  0.750000  1
  Zr  Zr9  1  0.665160  0.333107  0.999348  1
  Pb  Pb10  1  0.607259  0.607259  0.750000  1
  Pb  Pb11  1  0.389390  0.999080  0.750000  1
  Pb  Pb12  1  0.607336  0.002702  0.250000  1
  Pb  Pb13  1  0.999080  0.389390  0.750000  1
  Pb  Pb14  1  0.389952  0.389952  0.250000  1
  Pb  Pb15  1  0.002702  0.607336  0.250000  1
