# generated using pymatgen
data_LaPr4Nd5(Al2Ru3)2
_symmetry_space_group_name_H-M   'P 1'
_cell_length_a   8.63322975
_cell_length_b   8.56736075
_cell_length_c   8.56736073
_cell_angle_alpha   109.08160708
_cell_angle_beta   109.64687901
_cell_angle_gamma   109.37368986
_symmetry_Int_Tables_number   1
_chemical_formula_structural   LaPr4Nd5(Al2Ru3)2
_chemical_formula_sum   'La1 Pr4 Nd5 Al4 Ru6'
_cell_volume   489.66144445
_cell_formula_units_Z   1
loop_
 _symmetry_equiv_pos_site_id
 _symmetry_equiv_pos_as_xyz
  1  'x, y, z'
loop_
 _atom_site_type_symbol
 _atom_site_label
 _atom_site_symmetry_multiplicity
 _atom_site_fract_x
 _atom_site_fract_y
 _atom_site_fract_z
 _atom_site_occupancy
  La  La0  1  0.250000  0.690578  0.440578  1
  Pr  Pr1  1  0.215228  0.214662  0.215990  1
  Pr  Pr2  1  0.502701  0.000825  0.286072  1
  Pr  Pr3  1  0.284772  0.500762  0.999434  1
  Pr  Pr4  1  0.997299  0.283371  0.498124  1
  Nd  Nd5  1  0.750000  0.815115  0.065115  1
  Nd  Nd6  1  0.435567  0.252415  0.685972  1
  Nd  Nd7  1  0.683105  0.434487  0.249268  1
  Nd  Nd8  1  0.064433  0.750406  0.816849  1
  Nd  Nd9  1  0.816895  0.066163  0.751383  1
  Al  Al10  1  0.592819  0.590966  0.590777  1
  Al  Al11  1  0.500775  0.002207  0.912326  1
  Al  Al12  1  0.907181  0.497957  0.998146  1
  Al  Al13  1  0.999225  0.911551  0.501432  1
  Ru  Ru14  1  0.250000  0.117287  0.867287  1
  Ru  Ru15  1  0.750000  0.381615  0.631615  1
  Ru  Ru16  1  0.864066  0.245584  0.114902  1
  Ru  Ru17  1  0.121629  0.860913  0.253930  1
  Ru  Ru18  1  0.635933  0.750835  0.381517  1
  Ru  Ru19  1  0.378371  0.632301  0.739285  1
