# generated using pymatgen
data_Li3Dy4ZrPt4
_symmetry_space_group_name_H-M   'P 1'
_cell_length_a   4.08998400
_cell_length_b   7.09894429
_cell_length_c   8.65145949
_cell_angle_alpha   87.66664763
_cell_angle_beta   90.00000000
_cell_angle_gamma   90.00000000
_symmetry_Int_Tables_number   1
_chemical_formula_structural   Li3Dy4ZrPt4
_chemical_formula_sum   'Li3 Dy4 Zr1 Pt4'
_cell_volume   250.98312227
_cell_formula_units_Z   1
loop_
 _symmetry_equiv_pos_site_id
 _symmetry_equiv_pos_as_xyz
  1  'x, y, z'
loop_
 _atom_site_type_symbol
 _atom_site_label
 _atom_site_symmetry_multiplicity
 _atom_site_fract_x
 _atom_site_fract_y
 _atom_site_fract_z
 _atom_site_occupancy
  Li  Li0  1  0.250000  0.372930  0.559255  1
  Li  Li1  1  0.250000  0.858781  0.930001  1
  Li  Li2  1  0.750000  0.622885  0.446723  1
  Dy  Dy3  1  0.250000  0.947134  0.332122  1
  Dy  Dy4  1  0.250000  0.473067  0.190862  1
  Dy  Dy5  1  0.750000  0.039770  0.671837  1
  Dy  Dy6  1  0.750000  0.550435  0.819633  1
  Zr  Zr7  1  0.750000  0.126982  0.054027  1
  Pt  Pt8  1  0.250000  0.260746  0.882489  1
  Pt  Pt9  1  0.250000  0.750210  0.626510  1
  Pt  Pt10  1  0.750000  0.754889  0.124069  1
  Pt  Pt11  1  0.750000  0.242168  0.362470  1
