# generated using pymatgen
data_TbDy2CI3
_symmetry_space_group_name_H-M   'P 1'
_cell_length_a   3.91095600
_cell_length_b   8.72991024
_cell_length_c   11.90162533
_cell_angle_alpha   92.23475870
_cell_angle_beta   90.00000000
_cell_angle_gamma   90.00000000
_symmetry_Int_Tables_number   1
_chemical_formula_structural   TbDy2CI3
_chemical_formula_sum   'Tb2 Dy4 C2 I6'
_cell_volume   406.03975009
_cell_formula_units_Z   2
loop_
 _symmetry_equiv_pos_site_id
 _symmetry_equiv_pos_as_xyz
  1  'x, y, z'
loop_
 _atom_site_type_symbol
 _atom_site_label
 _atom_site_symmetry_multiplicity
 _atom_site_fract_x
 _atom_site_fract_y
 _atom_site_fract_z
 _atom_site_occupancy
  Tb  Tb0  1  0.250000  0.918259  0.599666  1
  Tb  Tb1  1  0.750000  0.081741  0.400334  1
  Dy  Dy2  1  0.250000  0.886881  0.187194  1
  Dy  Dy3  1  0.750000  0.113119  0.812806  1
  Dy  Dy4  1  0.250000  0.291645  0.615149  1
  Dy  Dy5  1  0.750000  0.708355  0.384851  1
  C  C6  1  0.250000  0.882337  0.386410  1
  C  C7  1  0.750000  0.117663  0.613590  1
  I  I8  1  0.250000  0.859759  0.873166  1
  I  I9  1  0.750000  0.140241  0.126834  1
  I  I10  1  0.250000  0.374988  0.871169  1
  I  I11  1  0.750000  0.625012  0.128831  1
  I  I12  1  0.250000  0.382558  0.367638  1
  I  I13  1  0.750000  0.617442  0.632362  1
