# generated using pymatgen
data_Nd12AlIrI17
_symmetry_space_group_name_H-M   'P 1'
_cell_length_a   10.06619265
_cell_length_b   12.03785155
_cell_length_c   11.96192549
_cell_angle_alpha   93.84689283
_cell_angle_beta   104.59026706
_cell_angle_gamma   114.66777682
_symmetry_Int_Tables_number   1
_chemical_formula_structural   Nd12AlIrI17
_chemical_formula_sum   'Nd12 Al1 Ir1 I17'
_cell_volume   1250.05380706
_cell_formula_units_Z   1
loop_
 _symmetry_equiv_pos_site_id
 _symmetry_equiv_pos_as_xyz
  1  'x, y, z'
loop_
 _atom_site_type_symbol
 _atom_site_label
 _atom_site_symmetry_multiplicity
 _atom_site_fract_x
 _atom_site_fract_y
 _atom_site_fract_z
 _atom_site_occupancy
  Nd  Nd0  1  0.064106  0.521924  0.328087  1
  Nd  Nd1  1  0.987496  0.809394  0.578014  1
  Nd  Nd2  1  0.631385  0.238007  0.284003  1
  Nd  Nd3  1  0.015149  0.186889  0.424710  1
  Nd  Nd4  1  0.225563  0.669548  0.994492  1
  Nd  Nd5  1  0.264156  0.990001  0.896585  1
  Nd  Nd6  1  0.357803  0.759357  0.714155  1
  Nd  Nd7  1  0.940430  0.484491  0.675534  1
  Nd  Nd8  1  0.728262  0.002150  0.100946  1
  Nd  Nd9  1  0.161763  0.289517  0.148035  1
  Nd  Nd10  1  0.774665  0.334996  0.000488  1
  Nd  Nd11  1  0.847221  0.711727  0.852391  1
  Al  Al12  1  0.894566  0.261858  0.213610  1
  Ir  Ir13  1  0.104593  0.738114  0.785911  1
  I  I14  1  0.781940  0.525704  0.415880  1
  I  I15  1  0.634702  0.418276  0.753165  1
  I  I16  1  0.842730  0.894880  0.324253  1
  I  I17  1  0.325301  0.212797  0.370129  1
  I  I18  1  0.157155  0.104373  0.676055  1
  I  I19  1  0.588709  0.054322  0.842545  1
  I  I20  1  0.753515  0.180799  0.537561  1
  I  I21  1  0.546750  0.700123  0.952341  1
  I  I22  1  0.361894  0.582196  0.244766  1
  I  I23  1  0.216957  0.470226  0.579999  1
  I  I24  1  0.055964  0.366223  0.896340  1
  I  I25  1  0.455293  0.298211  0.045883  1
  I  I26  1  0.999353  0.001400  0.001528  1
  I  I27  1  0.250499  0.824283  0.461857  1
  I  I28  1  0.413245  0.948502  0.161574  1
  I  I29  1  0.674131  0.787250  0.632179  1
  I  I30  1  0.944709  0.632462  0.106988  1
