# generated using pymatgen
data_DyHo3Sc3AlPt4
_symmetry_space_group_name_H-M   'P 1'
_cell_length_a   4.51048600
_cell_length_b   7.02390864
_cell_length_c   8.28305017
_cell_angle_alpha   86.95865170
_cell_angle_beta   90.00000000
_cell_angle_gamma   90.00000000
_symmetry_Int_Tables_number   1
_chemical_formula_structural   DyHo3Sc3AlPt4
_chemical_formula_sum   'Dy1 Ho3 Sc3 Al1 Pt4'
_cell_volume   262.04769992
_cell_formula_units_Z   1
loop_
 _symmetry_equiv_pos_site_id
 _symmetry_equiv_pos_as_xyz
  1  'x, y, z'
loop_
 _atom_site_type_symbol
 _atom_site_label
 _atom_site_symmetry_multiplicity
 _atom_site_fract_x
 _atom_site_fract_y
 _atom_site_fract_z
 _atom_site_occupancy
  Dy  Dy0  1  0.250000  0.040143  0.671565  1
  Ho  Ho1  1  0.250000  0.522262  0.815682  1
  Ho  Ho2  1  0.750000  0.987069  0.339819  1
  Ho  Ho3  1  0.750000  0.468081  0.183958  1
  Sc  Sc4  1  0.250000  0.134244  0.069758  1
  Sc  Sc5  1  0.250000  0.638133  0.436140  1
  Sc  Sc6  1  0.750000  0.863273  0.928983  1
  Al  Al7  1  0.750000  0.359746  0.567727  1
  Pt  Pt8  1  0.250000  0.263305  0.382933  1
  Pt  Pt9  1  0.250000  0.748381  0.101863  1
  Pt  Pt10  1  0.750000  0.729395  0.614728  1
  Pt  Pt11  1  0.750000  0.245969  0.886844  1
