# generated using pymatgen
data_Lu8ReSi16Ru11
_symmetry_space_group_name_H-M   'P 1'
_cell_length_a   9.93473092
_cell_length_b   9.93893214
_cell_length_c   13.41271200
_cell_angle_alpha   53.95891511
_cell_angle_beta   53.94504956
_cell_angle_gamma   31.49346691
_symmetry_Int_Tables_number   1
_chemical_formula_structural   Lu8ReSi16Ru11
_chemical_formula_sum   'Lu8 Re1 Si16 Ru11'
_cell_volume   547.47718053
_cell_formula_units_Z   1
loop_
 _symmetry_equiv_pos_site_id
 _symmetry_equiv_pos_as_xyz
  1  'x, y, z'
loop_
 _atom_site_type_symbol
 _atom_site_label
 _atom_site_symmetry_multiplicity
 _atom_site_fract_x
 _atom_site_fract_y
 _atom_site_fract_z
 _atom_site_occupancy
  Lu  Lu0  1  0.037750  0.287494  0.640874  1
  Lu  Lu1  1  0.713568  0.961613  0.857363  1
  Lu  Lu2  1  0.962439  0.711739  0.358832  1
  Lu  Lu3  1  0.287995  0.038472  0.141141  1
  Lu  Lu4  1  0.300448  0.555579  0.644109  1
  Lu  Lu5  1  0.441624  0.700700  0.857279  1
  Lu  Lu6  1  0.699118  0.443106  0.357516  1
  Lu  Lu7  1  0.558967  0.299251  0.142803  1
  Re  Re8  1  0.894728  0.143255  0.587735  1
  Si  Si9  1  0.978129  0.249904  0.896003  1
  Si  Si10  1  0.748527  0.023612  0.603820  1
  Si  Si11  1  0.022952  0.749741  0.104557  1
  Si  Si12  1  0.249760  0.980083  0.393875  1
  Si  Si13  1  0.139599  0.384146  0.900551  1
  Si  Si14  1  0.615112  0.859672  0.599377  1
  Si  Si15  1  0.860184  0.615013  0.100033  1
  Si  Si16  1  0.385938  0.138738  0.399920  1
  Si  Si17  1  0.080135  0.573801  0.568520  1
  Si  Si18  1  0.426516  0.918425  0.932102  1
  Si  Si19  1  0.919008  0.427580  0.430325  1
  Si  Si20  1  0.574982  0.081118  0.067202  1
  Si  Si21  1  0.614890  0.384058  0.751997  1
  Si  Si22  1  0.383319  0.616916  0.249994  1
  Si  Si23  1  0.129503  0.869960  0.750900  1
  Si  Si24  1  0.869782  0.130092  0.250472  1
  Ru  Ru25  1  0.857282  0.105240  0.914316  1
  Ru  Ru26  1  0.104922  0.856939  0.412644  1
  Ru  Ru27  1  0.142511  0.895748  0.087624  1
  Ru  Ru28  1  0.832982  0.644292  0.782137  1
  Ru  Ru29  1  0.354413  0.164867  0.718710  1
  Ru  Ru30  1  0.168357  0.355339  0.217275  1
  Ru  Ru31  1  0.645941  0.833817  0.280196  1
  Ru  Ru32  1  0.250067  0.504137  0.934550  1
  Ru  Ru33  1  0.493874  0.751063  0.565732  1
  Ru  Ru34  1  0.749841  0.493780  0.066438  1
  Ru  Ru35  1  0.504840  0.250707  0.433076  1
