# generated using pymatgen
data_HfTaBr9
_symmetry_space_group_name_H-M   'P 1'
_cell_length_a   12.48383800
_cell_length_b   7.28635964
_cell_length_c   9.97589869
_cell_angle_alpha   75.66276205
_cell_angle_beta   90.00000000
_cell_angle_gamma   90.00000000
_symmetry_Int_Tables_number   1
_chemical_formula_structural   HfTaBr9
_chemical_formula_sum   'Hf2 Ta2 Br18'
_cell_volume   879.16328069
_cell_formula_units_Z   2
loop_
 _symmetry_equiv_pos_site_id
 _symmetry_equiv_pos_as_xyz
  1  'x, y, z'
loop_
 _atom_site_type_symbol
 _atom_site_label
 _atom_site_symmetry_multiplicity
 _atom_site_fract_x
 _atom_site_fract_y
 _atom_site_fract_z
 _atom_site_occupancy
  Hf  Hf0  1  0.250000  0.757473  0.469884  1
  Hf  Hf1  1  0.750000  0.242527  0.530116  1
  Ta  Ta2  1  0.250000  0.645179  0.856456  1
  Ta  Ta3  1  0.750000  0.354821  0.143544  1
  Br  Br4  1  0.610951  0.440855  0.321487  1
  Br  Br5  1  0.110951  0.559145  0.678513  1
  Br  Br6  1  0.389049  0.559145  0.678513  1
  Br  Br7  1  0.889049  0.440855  0.321487  1
  Br  Br8  1  0.750000  0.684329  0.010908  1
  Br  Br9  1  0.250000  0.315671  0.989092  1
  Br  Br10  1  0.750000  0.513940  0.640232  1
  Br  Br11  1  0.250000  0.486060  0.359768  1
  Br  Br12  1  0.750000  0.025260  0.332406  1
  Br  Br13  1  0.250000  0.974740  0.667594  1
  Br  Br14  1  0.896866  0.245151  0.022455  1
  Br  Br15  1  0.396866  0.754849  0.977545  1
  Br  Br16  1  0.103134  0.754849  0.977545  1
  Br  Br17  1  0.603134  0.245151  0.022455  1
  Br  Br18  1  0.902773  0.056063  0.654452  1
  Br  Br19  1  0.402773  0.943937  0.345548  1
  Br  Br20  1  0.097227  0.943937  0.345548  1
  Br  Br21  1  0.597227  0.056063  0.654452  1
