# generated using pymatgen
data_YSc2(Ni3P2)3
_symmetry_space_group_name_H-M   'P 1'
_cell_length_a   3.69342000
_cell_length_b   10.36827000
_cell_length_c   12.17477700
_cell_angle_alpha   90.00000000
_cell_angle_beta   90.00000000
_cell_angle_gamma   90.00000000
_symmetry_Int_Tables_number   1
_chemical_formula_structural   YSc2(Ni3P2)3
_chemical_formula_sum   'Y2 Sc4 Ni18 P12'
_cell_volume   466.22548552
_cell_formula_units_Z   2
loop_
 _symmetry_equiv_pos_site_id
 _symmetry_equiv_pos_as_xyz
  1  'x, y, z'
loop_
 _atom_site_type_symbol
 _atom_site_label
 _atom_site_symmetry_multiplicity
 _atom_site_fract_x
 _atom_site_fract_y
 _atom_site_fract_z
 _atom_site_occupancy
  Y  Y0  1  0.750000  0.250000  0.475665  1
  Y  Y1  1  0.250000  0.750000  0.524335  1
  Sc  Sc2  1  0.250000  0.930825  0.795541  1
  Sc  Sc3  1  0.250000  0.569175  0.795541  1
  Sc  Sc4  1  0.750000  0.069175  0.204459  1
  Sc  Sc5  1  0.750000  0.430825  0.204459  1
  Ni  Ni6  1  0.250000  0.250000  0.841066  1
  Ni  Ni7  1  0.750000  0.750000  0.158934  1
  Ni  Ni8  1  0.250000  0.250000  0.295895  1
  Ni  Ni9  1  0.750000  0.750000  0.704105  1
  Ni  Ni10  1  0.750000  0.250000  0.013500  1
  Ni  Ni11  1  0.250000  0.750000  0.986500  1
  Ni  Ni12  1  0.250000  0.417651  0.004236  1
  Ni  Ni13  1  0.250000  0.082349  0.004236  1
  Ni  Ni14  1  0.750000  0.582349  0.995764  1
  Ni  Ni15  1  0.750000  0.917651  0.995764  1
  Ni  Ni16  1  0.250000  0.451053  0.570181  1
  Ni  Ni17  1  0.250000  0.048947  0.570181  1
  Ni  Ni18  1  0.750000  0.548947  0.429819  1
  Ni  Ni19  1  0.750000  0.951053  0.429819  1
  Ni  Ni20  1  0.250000  0.873200  0.288358  1
  Ni  Ni21  1  0.250000  0.626800  0.288358  1
  Ni  Ni22  1  0.750000  0.126800  0.711642  1
  Ni  Ni23  1  0.750000  0.373200  0.711642  1
  P  P24  1  0.250000  0.250000  0.122564  1
  P  P25  1  0.750000  0.750000  0.877436  1
  P  P26  1  0.250000  0.250000  0.654644  1
  P  P27  1  0.750000  0.750000  0.345356  1
  P  P28  1  0.250000  0.435862  0.380812  1
  P  P29  1  0.250000  0.064138  0.380812  1
  P  P30  1  0.750000  0.564138  0.619188  1
  P  P31  1  0.750000  0.935862  0.619188  1
  P  P32  1  0.250000  0.906277  0.110288  1
  P  P33  1  0.250000  0.593723  0.110288  1
  P  P34  1  0.750000  0.093723  0.889712  1
  P  P35  1  0.750000  0.406277  0.889712  1
