# generated using pymatgen
data_NdPa2(GaPt)3
_symmetry_space_group_name_H-M   'P 1'
_cell_length_a   7.21166657
_cell_length_b   7.21166604
_cell_length_c   4.09054700
_cell_angle_alpha   90.00000000
_cell_angle_beta   90.00000000
_cell_angle_gamma   120.19594506
_symmetry_Int_Tables_number   1
_chemical_formula_structural   NdPa2(GaPt)3
_chemical_formula_sum   'Nd1 Pa2 Ga3 Pt3'
_cell_volume   183.87486691
_cell_formula_units_Z   1
loop_
 _symmetry_equiv_pos_site_id
 _symmetry_equiv_pos_as_xyz
  1  'x, y, z'
loop_
 _atom_site_type_symbol
 _atom_site_label
 _atom_site_symmetry_multiplicity
 _atom_site_fract_x
 _atom_site_fract_y
 _atom_site_fract_z
 _atom_site_occupancy
  Nd  Nd0  1  0.586483  0.586483  0.500000  1
  Pa  Pa1  1  0.415568  0.997721  0.500000  1
  Pa  Pa2  1  0.997721  0.415568  0.500000  1
  Ga  Ga3  1  0.754337  0.991713  0.000000  1
  Ga  Ga4  1  0.991713  0.754337  0.000000  1
  Ga  Ga5  1  0.251671  0.251671  0.000000  1
  Pt  Pt6  1  0.315415  0.669280  0.000000  1
  Pt  Pt7  1  0.669280  0.315415  0.000000  1
  Pt  Pt8  1  0.017812  0.017812  0.500000  1
