# generated using pymatgen
data_Dy15YCd4Ir3Pt
_symmetry_space_group_name_H-M   'P 1'
_cell_length_a   9.65044429
_cell_length_b   9.65044506
_cell_length_c   9.64950254
_cell_angle_alpha   60.07060793
_cell_angle_beta   60.07060555
_cell_angle_gamma   60.05950642
_symmetry_Int_Tables_number   1
_chemical_formula_structural   Dy15YCd4Ir3Pt
_chemical_formula_sum   'Dy15 Y1 Cd4 Ir3 Pt1'
_cell_volume   636.41819659
_cell_formula_units_Z   1
loop_
 _symmetry_equiv_pos_site_id
 _symmetry_equiv_pos_as_xyz
  1  'x, y, z'
loop_
 _atom_site_type_symbol
 _atom_site_label
 _atom_site_symmetry_multiplicity
 _atom_site_fract_x
 _atom_site_fract_y
 _atom_site_fract_z
 _atom_site_occupancy
  Dy  Dy0  1  0.348116  0.348116  0.348225  1
  Dy  Dy1  1  0.352009  0.352009  0.949691  1
  Dy  Dy2  1  0.352170  0.949692  0.352013  1
  Dy  Dy3  1  0.949692  0.352170  0.352013  1
  Dy  Dy4  1  0.806023  0.190703  0.190443  1
  Dy  Dy5  1  0.188033  0.810389  0.810343  1
  Dy  Dy6  1  0.190703  0.806023  0.190443  1
  Dy  Dy7  1  0.810389  0.188033  0.810343  1
  Dy  Dy8  1  0.190580  0.190580  0.806025  1
  Dy  Dy9  1  0.810395  0.810395  0.187875  1
  Dy  Dy10  1  0.938275  0.562575  0.562854  1
  Dy  Dy11  1  0.563831  0.937243  0.937326  1
  Dy  Dy12  1  0.562575  0.938275  0.562854  1
  Dy  Dy13  1  0.937243  0.563831  0.937326  1
  Dy  Dy14  1  0.562949  0.562949  0.938103  1
  Y  Y15  1  0.937071  0.937071  0.564141  1
  Cd  Cd16  1  0.580689  0.580689  0.580711  1
  Cd  Cd17  1  0.580929  0.580929  0.256389  1
  Cd  Cd18  1  0.580884  0.256517  0.580918  1
  Cd  Cd19  1  0.256517  0.580884  0.580918  1
  Ir  Ir20  1  0.141894  0.141894  0.574571  1
  Ir  Ir21  1  0.141810  0.574557  0.141889  1
  Ir  Ir22  1  0.574557  0.141810  0.141889  1
  Pt  Pt23  1  0.142664  0.142664  0.142695  1
