# generated using pymatgen
data_Y2Er18Cd6TcRu
_symmetry_space_group_name_H-M   'P 1'
_cell_length_a   9.50286781
_cell_length_b   9.50286735
_cell_length_c   9.83547600
_cell_angle_alpha   90.00000000
_cell_angle_beta   90.00000000
_cell_angle_gamma   120.04734018
_symmetry_Int_Tables_number   1
_chemical_formula_structural   Y2Er18Cd6TcRu
_chemical_formula_sum   'Y2 Er18 Cd6 Tc1 Ru1'
_cell_volume   768.82589102
_cell_formula_units_Z   1
loop_
 _symmetry_equiv_pos_site_id
 _symmetry_equiv_pos_as_xyz
  1  'x, y, z'
loop_
 _atom_site_type_symbol
 _atom_site_label
 _atom_site_symmetry_multiplicity
 _atom_site_fract_x
 _atom_site_fract_y
 _atom_site_fract_z
 _atom_site_occupancy
  Y  Y0  1  0.539625  0.079722  0.250000  1
  Y  Y1  1  0.920278  0.460375  0.250000  1
  Er  Er2  1  0.999995  0.000005  0.500166  1
  Er  Er3  1  0.999995  0.000005  0.999834  1
  Er  Er4  1  0.210009  0.789991  0.442072  1
  Er  Er5  1  0.210375  0.419955  0.441933  1
  Er  Er6  1  0.580045  0.789625  0.441933  1
  Er  Er7  1  0.789916  0.210084  0.559263  1
  Er  Er8  1  0.789607  0.579743  0.558988  1
  Er  Er9  1  0.420257  0.210393  0.558988  1
  Er  Er10  1  0.789916  0.210084  0.940737  1
  Er  Er11  1  0.789607  0.579743  0.941012  1
  Er  Er12  1  0.420257  0.210393  0.941012  1
  Er  Er13  1  0.210009  0.789991  0.057928  1
  Er  Er14  1  0.210375  0.419955  0.058067  1
  Er  Er15  1  0.580045  0.789625  0.058067  1
  Er  Er16  1  0.539372  0.460628  0.250000  1
  Er  Er17  1  0.458936  0.541064  0.750000  1
  Er  Er18  1  0.459000  0.917972  0.750000  1
  Er  Er19  1  0.082028  0.541000  0.750000  1
  Cd  Cd20  1  0.885940  0.114060  0.250000  1
  Cd  Cd21  1  0.885372  0.771347  0.250000  1
  Cd  Cd22  1  0.228653  0.114628  0.250000  1
  Cd  Cd23  1  0.114376  0.885624  0.750000  1
  Cd  Cd24  1  0.114381  0.228726  0.750000  1
  Cd  Cd25  1  0.771274  0.885619  0.750000  1
  Tc  Tc26  1  0.333659  0.666341  0.250000  1
  Ru  Ru27  1  0.666700  0.333300  0.750000  1
