# generated using pymatgen
data_Sm4Dy4Sc11Si16Hg
_symmetry_space_group_name_H-M   'P 1'
_cell_length_a   7.09336884
_cell_length_b   7.43958632
_cell_length_c   14.09396109
_cell_angle_alpha   90.02909792
_cell_angle_beta   90.08227998
_cell_angle_gamma   89.87670289
_symmetry_Int_Tables_number   1
_chemical_formula_structural   Sm4Dy4Sc11Si16Hg
_chemical_formula_sum   'Sm4 Dy4 Sc11 Si16 Hg1'
_cell_volume   743.76012259
_cell_formula_units_Z   1
loop_
 _symmetry_equiv_pos_site_id
 _symmetry_equiv_pos_as_xyz
  1  'x, y, z'
loop_
 _atom_site_type_symbol
 _atom_site_label
 _atom_site_symmetry_multiplicity
 _atom_site_fract_x
 _atom_site_fract_y
 _atom_site_fract_z
 _atom_site_occupancy
  Sm  Sm0  1  0.009399  0.172729  0.097395  1
  Sm  Sm1  1  0.991212  0.818111  0.901494  1
  Sm  Sm2  1  0.484552  0.671726  0.901901  1
  Sm  Sm3  1  0.991316  0.817677  0.597660  1
  Dy  Dy4  1  0.510851  0.324307  0.098364  1
  Dy  Dy5  1  0.010740  0.174142  0.402086  1
  Dy  Dy6  1  0.510999  0.323899  0.402502  1
  Dy  Dy7  1  0.484247  0.672997  0.598440  1
  Sc  Sc8  1  0.838053  0.497925  0.250448  1
  Sc  Sc9  1  0.339695  0.002840  0.250395  1
  Sc  Sc10  1  0.657449  0.999438  0.749642  1
  Sc  Sc11  1  0.326104  0.183939  0.625435  1
  Sc  Sc12  1  0.670859  0.823793  0.375213  1
  Sc  Sc13  1  0.170197  0.679434  0.373258  1
  Sc  Sc14  1  0.670877  0.823775  0.125601  1
  Sc  Sc15  1  0.838081  0.325670  0.625176  1
  Sc  Sc16  1  0.326211  0.183491  0.874014  1
  Sc  Sc17  1  0.838399  0.326048  0.873949  1
  Sc  Sc18  1  0.170185  0.678997  0.127393  1
  Si  Si19  1  0.028592  0.099803  0.749567  1
  Si  Si20  1  0.967616  0.885230  0.250868  1
  Si  Si21  1  0.467470  0.617536  0.250392  1
  Si  Si22  1  0.545685  0.377154  0.749189  1
  Si  Si23  1  0.292554  0.892785  0.749064  1
  Si  Si24  1  0.711270  0.127149  0.251292  1
  Si  Si25  1  0.213482  0.374719  0.250974  1
  Si  Si26  1  0.768683  0.627618  0.748688  1
  Si  Si27  1  0.162063  0.457599  0.527972  1
  Si  Si28  1  0.842479  0.533823  0.460388  1
  Si  Si29  1  0.345176  0.966397  0.461567  1
  Si  Si30  1  0.841916  0.535494  0.039217  1
  Si  Si31  1  0.654471  0.034137  0.540224  1
  Si  Si32  1  0.160087  0.458224  0.972023  1
  Si  Si33  1  0.654987  0.035857  0.960004  1
  Si  Si34  1  0.347209  0.966897  0.038589  1
  Hg  Hg35  1  0.156834  0.508641  0.749616  1
