# generated using pymatgen
data_Ho5Er19Ru14
_symmetry_space_group_name_H-M   'P 1'
_cell_length_a   11.21322035
_cell_length_b   8.30186884
_cell_length_c   11.15744017
_cell_angle_alpha   56.55069871
_cell_angle_beta   89.97247129
_cell_angle_gamma   89.98503167
_symmetry_Int_Tables_number   1
_chemical_formula_structural   Ho5Er19Ru14
_chemical_formula_sum   'Ho5 Er19 Ru14'
_cell_volume   866.62545639
_cell_formula_units_Z   1
loop_
 _symmetry_equiv_pos_site_id
 _symmetry_equiv_pos_as_xyz
  1  'x, y, z'
loop_
 _atom_site_type_symbol
 _atom_site_label
 _atom_site_symmetry_multiplicity
 _atom_site_fract_x
 _atom_site_fract_y
 _atom_site_fract_z
 _atom_site_occupancy
  Ho  Ho0  1  0.705050  0.242745  0.530749  1
  Ho  Ho1  1  0.205262  0.757903  0.968718  1
  Ho  Ho2  1  0.844325  0.507976  0.655549  1
  Ho  Ho3  1  0.344550  0.492159  0.844575  1
  Ho  Ho4  1  0.155705  0.492270  0.344919  1
  Er  Er5  1  0.655010  0.507424  0.154640  1
  Er  Er6  1  0.006854  0.851428  0.362375  1
  Er  Er7  1  0.507086  0.148526  0.137776  1
  Er  Er8  1  0.993039  0.149050  0.637322  1
  Er  Er9  1  0.493442  0.850628  0.862842  1
  Er  Er10  1  0.794186  0.242453  0.031249  1
  Er  Er11  1  0.294175  0.757680  0.468914  1
  Er  Er12  1  0.930227  0.777201  0.090863  1
  Er  Er13  1  0.430707  0.222925  0.408974  1
  Er  Er14  1  0.068480  0.222540  0.909630  1
  Er  Er15  1  0.568595  0.777554  0.590362  1
  Er  Er16  1  0.302228  0.241224  0.675039  1
  Er  Er17  1  0.802022  0.758890  0.825185  1
  Er  Er18  1  0.697989  0.758859  0.324851  1
  Er  Er19  1  0.198197  0.240786  0.174976  1
  Er  Er20  1  0.925197  0.279828  0.293303  1
  Er  Er21  1  0.425778  0.720696  0.206346  1
  Er  Er22  1  0.074606  0.720633  0.706039  1
  Er  Er23  1  0.574824  0.278901  0.794225  1
  Ru  Ru24  1  0.499145  0.501088  0.500371  1
  Ru  Ru25  1  0.999624  0.499109  0.999686  1
  Ru  Ru26  1  0.647779  0.923481  0.033913  1
  Ru  Ru27  1  0.147540  0.075488  0.466197  1
  Ru  Ru28  1  0.353007  0.075891  0.966545  1
  Ru  Ru29  1  0.852603  0.924402  0.533245  1
  Ru  Ru30  1  0.398339  0.484102  0.104069  1
  Ru  Ru31  1  0.898089  0.515986  0.396194  1
  Ru  Ru32  1  0.602563  0.515334  0.896671  1
  Ru  Ru33  1  0.102233  0.484052  0.603824  1
  Ru  Ru34  1  0.820763  0.098351  0.849922  1
  Ru  Ru35  1  0.320859  0.901744  0.650207  1
  Ru  Ru36  1  0.180047  0.901964  0.150994  1
  Ru  Ru37  1  0.679875  0.098728  0.348735  1
