# generated using pymatgen
data_Ta12Ga7Co5C2
_symmetry_space_group_name_H-M   'P 1'
_cell_length_a   8.05519558
_cell_length_b   8.05519433
_cell_length_c   8.05519497
_cell_angle_alpha   60.39530858
_cell_angle_beta   60.39531356
_cell_angle_gamma   60.39531413
_symmetry_Int_Tables_number   1
_chemical_formula_structural   Ta12Ga7Co5C2
_chemical_formula_sum   'Ta12 Ga7 Co5 C2'
_cell_volume   372.88812472
_cell_formula_units_Z   1
loop_
 _symmetry_equiv_pos_site_id
 _symmetry_equiv_pos_as_xyz
  1  'x, y, z'
loop_
 _atom_site_type_symbol
 _atom_site_label
 _atom_site_symmetry_multiplicity
 _atom_site_fract_x
 _atom_site_fract_y
 _atom_site_fract_z
 _atom_site_occupancy
  Ta  Ta0  1  0.054707  0.054707  0.441885  1
  Ta  Ta1  1  0.444061  0.056181  0.444061  1
  Ta  Ta2  1  0.056181  0.444061  0.444061  1
  Ta  Ta3  1  0.444061  0.444061  0.056181  1
  Ta  Ta4  1  0.054707  0.441885  0.054707  1
  Ta  Ta5  1  0.441885  0.054707  0.054707  1
  Ta  Ta6  1  0.194457  0.194457  0.805317  1
  Ta  Ta7  1  0.804299  0.189682  0.804299  1
  Ta  Ta8  1  0.189682  0.804299  0.804299  1
  Ta  Ta9  1  0.804299  0.804299  0.189682  1
  Ta  Ta10  1  0.194457  0.805317  0.194457  1
  Ta  Ta11  1  0.805317  0.194457  0.194457  1
  Ga  Ga12  1  0.415653  0.415653  0.752999  1
  Ga  Ga13  1  0.415653  0.752999  0.415653  1
  Ga  Ga14  1  0.752999  0.415653  0.415653  1
  Ga  Ga15  1  0.416438  0.416438  0.416438  1
  Ga  Ga16  1  0.833645  0.833645  0.500665  1
  Ga  Ga17  1  0.833645  0.500665  0.833645  1
  Ga  Ga18  1  0.500665  0.833645  0.833645  1
  Co  Co19  1  0.837413  0.837413  0.837413  1
  Co  Co20  1  0.630009  0.630009  0.120759  1
  Co  Co21  1  0.630009  0.120759  0.630009  1
  Co  Co22  1  0.120759  0.630009  0.630009  1
  Co  Co23  1  0.625133  0.625133  0.625133  1
  C  C24  1  0.250058  0.250058  0.250058  1
  C  C25  1  0.999809  0.999809  0.999809  1
