# generated using pymatgen
data_CeNd6MnBr12
_symmetry_space_group_name_H-M   'P 1'
_cell_length_a   9.66052254
_cell_length_b   9.68535999
_cell_length_c   9.34211200
_cell_angle_alpha   106.24032772
_cell_angle_beta   106.85700453
_cell_angle_gamma   107.00111963
_symmetry_Int_Tables_number   1
_chemical_formula_structural   CeNd6MnBr12
_chemical_formula_sum   'Ce1 Nd6 Mn1 Br12'
_cell_volume   733.81694373
_cell_formula_units_Z   1
loop_
 _symmetry_equiv_pos_site_id
 _symmetry_equiv_pos_as_xyz
  1  'x, y, z'
loop_
 _atom_site_type_symbol
 _atom_site_label
 _atom_site_symmetry_multiplicity
 _atom_site_fract_x
 _atom_site_fract_y
 _atom_site_fract_z
 _atom_site_occupancy
  Ce  Ce0  1  0.594140  0.525545  0.774561  1
  Nd  Nd1  1  0.994201  0.995802  0.991649  1
  Nd  Nd2  1  0.525246  0.813406  0.609593  1
  Nd  Nd3  1  0.814706  0.607017  0.522309  1
  Nd  Nd4  1  0.402144  0.476854  0.208803  1
  Nd  Nd5  1  0.477043  0.185634  0.396986  1
  Nd  Nd6  1  0.185427  0.392769  0.482936  1
  Mn  Mn7  1  0.509415  0.501429  0.528851  1
  Br  Br8  1  0.573215  0.183171  0.721403  1
  Br  Br9  1  0.181058  0.712949  0.565227  1
  Br  Br10  1  0.709933  0.565396  0.173105  1
  Br  Br11  1  0.426389  0.810700  0.279702  1
  Br  Br12  1  0.813985  0.283646  0.422460  1
  Br  Br13  1  0.283644  0.431282  0.823625  1
  Br  Br14  1  0.667227  0.886242  0.968499  1
  Br  Br15  1  0.876468  0.959892  0.650314  1
  Br  Br16  1  0.964906  0.668554  0.881413  1
  Br  Br17  1  0.333631  0.124455  0.039214  1
  Br  Br18  1  0.121627  0.040697  0.337705  1
  Br  Br19  1  0.045592  0.334556  0.121645  1
