# generated using pymatgen
data_YbDyTm6(B6Os)4
_symmetry_space_group_name_H-M   'P 1'
_cell_length_a   3.62269000
_cell_length_b   9.09045761
_cell_length_c   11.47022056
_cell_angle_alpha   89.93916177
_cell_angle_beta   90.00000000
_cell_angle_gamma   90.00000000
_symmetry_Int_Tables_number   1
_chemical_formula_structural   YbDyTm6(B6Os)4
_chemical_formula_sum   'Yb1 Dy1 Tm6 B24 Os4'
_cell_volume   377.73605672
_cell_formula_units_Z   1
loop_
 _symmetry_equiv_pos_site_id
 _symmetry_equiv_pos_as_xyz
  1  'x, y, z'
loop_
 _atom_site_type_symbol
 _atom_site_label
 _atom_site_symmetry_multiplicity
 _atom_site_fract_x
 _atom_site_fract_y
 _atom_site_fract_z
 _atom_site_occupancy
  Yb  Yb0  1  0.000000  0.677840  0.586378  1
  Dy  Dy1  1  0.000000  0.322843  0.414960  1
  Tm  Tm2  1  0.000000  0.820665  0.085021  1
  Tm  Tm3  1  0.000000  0.178623  0.913757  1
  Tm  Tm4  1  0.000000  0.942150  0.372373  1
  Tm  Tm5  1  0.000000  0.055714  0.628496  1
  Tm  Tm6  1  0.000000  0.443791  0.127062  1
  Tm  Tm7  1  0.000000  0.557004  0.871514  1
  B  B8  1  0.500000  0.554481  0.432697  1
  B  B9  1  0.500000  0.446390  0.567777  1
  B  B10  1  0.500000  0.053895  0.066539  1
  B  B11  1  0.500000  0.946834  0.934027  1
  B  B12  1  0.500000  0.748919  0.418672  1
  B  B13  1  0.500000  0.250767  0.581540  1
  B  B14  1  0.500000  0.248913  0.079919  1
  B  B15  1  0.500000  0.751711  0.919724  1
  B  B16  1  0.500000  0.791112  0.264761  1
  B  B17  1  0.500000  0.207993  0.735055  1
  B  B18  1  0.500000  0.290875  0.233467  1
  B  B19  1  0.500000  0.709662  0.766264  1
  B  B20  1  0.500000  0.631041  0.183922  1
  B  B21  1  0.500000  0.368815  0.815174  1
  B  B22  1  0.500000  0.130385  0.314752  1
  B  B23  1  0.500000  0.869399  0.685758  1
  B  B24  1  0.500000  0.981842  0.212420  1
  B  B25  1  0.500000  0.017912  0.788241  1
  B  B26  1  0.500000  0.482904  0.286526  1
  B  B27  1  0.500000  0.517358  0.713045  1
  B  B28  1  0.500000  0.605891  0.028825  1
  B  B29  1  0.500000  0.394080  0.970512  1
  B  B30  1  0.500000  0.103430  0.471559  1
  B  B31  1  0.500000  0.897410  0.528423  1
  Os  Os32  1  0.000000  0.638109  0.319303  1
  Os  Os33  1  0.000000  0.360491  0.680358  1
  Os  Os34  1  0.000000  0.137042  0.178494  1
  Os  Os35  1  0.000000  0.863709  0.822684  1
