# generated using pymatgen
data_Yb2DyEr(Al8Pt3)3
_symmetry_space_group_name_H-M   'P 1'
_cell_length_a   7.53109038
_cell_length_b   7.55333441
_cell_length_c   13.23179496
_cell_angle_alpha   84.63611733
_cell_angle_beta   79.10996758
_cell_angle_gamma   59.81704124
_symmetry_Int_Tables_number   1
_chemical_formula_structural   Yb2DyEr(Al8Pt3)3
_chemical_formula_sum   'Yb2 Dy1 Er1 Al24 Pt9'
_cell_volume   638.92433258
_cell_formula_units_Z   1
loop_
 _symmetry_equiv_pos_site_id
 _symmetry_equiv_pos_as_xyz
  1  'x, y, z'
loop_
 _atom_site_type_symbol
 _atom_site_label
 _atom_site_symmetry_multiplicity
 _atom_site_fract_x
 _atom_site_fract_y
 _atom_site_fract_z
 _atom_site_occupancy
  Yb  Yb0  1  0.605846  0.831273  0.192574  1
  Yb  Yb1  1  0.733739  0.499714  0.807479  1
  Dy  Dy2  1  0.267154  0.500461  0.192155  1
  Er  Er3  1  0.394813  0.167854  0.807334  1
  Al  Al4  1  0.684114  0.833884  0.945396  1
  Al  Al5  1  0.315869  0.165915  0.054977  1
  Al  Al6  1  0.147475  0.831546  0.561008  1
  Al  Al7  1  0.852374  0.168736  0.439227  1
  Al  Al8  1  0.480447  0.165835  0.558677  1
  Al  Al9  1  0.519911  0.834014  0.441301  1
  Al  Al10  1  0.217468  0.164400  0.329590  1
  Al  Al11  1  0.782420  0.834551  0.670974  1
  Al  Al12  1  0.437011  0.507291  0.670557  1
  Al  Al13  1  0.563390  0.493340  0.329630  1
  Al  Al14  1  0.109052  0.160564  0.669020  1
  Al  Al15  1  0.889637  0.839902  0.331376  1
  Al  Al16  1  0.352773  0.499400  0.944510  1
  Al  Al17  1  0.648313  0.500050  0.054004  1
  Al  Al18  1  0.015611  0.167847  0.954161  1
  Al  Al19  1  0.984592  0.832386  0.045335  1
  Al  Al20  1  0.185954  0.500002  0.441424  1
  Al  Al21  1  0.814102  0.500255  0.558816  1
  Al  Al22  1  0.732559  0.167075  0.183242  1
  Al  Al23  1  0.264658  0.838361  0.816898  1
  Al  Al24  1  0.064229  0.629434  0.815663  1
  Al  Al25  1  0.940417  0.368051  0.184283  1
  Al  Al26  1  0.853057  0.040238  0.816199  1
  Al  Al27  1  0.143517  0.957691  0.183684  1
  Pt  Pt28  1  0.120723  0.491530  0.638298  1
  Pt  Pt29  1  0.879639  0.507903  0.361995  1
  Pt  Pt30  1  0.657454  0.171179  0.999676  1
  Pt  Pt31  1  0.342533  0.828826  0.000124  1
  Pt  Pt32  1  0.537700  0.166986  0.361887  1
  Pt  Pt33  1  0.461886  0.833487  0.638243  1
  Pt  Pt34  1  0.779421  0.174541  0.636938  1
  Pt  Pt35  1  0.219871  0.825637  0.363399  1
  Pt  Pt36  1  0.000273  0.499843  0.999947  1
