# generated using pymatgen
data_Ho5Mo3P12Ru9Rh7
_symmetry_space_group_name_H-M   'P 1'
_cell_length_a   12.63060700
_cell_length_b   12.63060629
_cell_length_c   3.95330700
_cell_angle_alpha   90.00000000
_cell_angle_beta   90.00000000
_cell_angle_gamma   119.99999923
_symmetry_Int_Tables_number   1
_chemical_formula_structural   Ho5Mo3P12Ru9Rh7
_chemical_formula_sum   'Ho5 Mo3 P12 Ru9 Rh7'
_cell_volume   546.18478370
_cell_formula_units_Z   1
loop_
 _symmetry_equiv_pos_site_id
 _symmetry_equiv_pos_as_xyz
  1  'x, y, z'
loop_
 _atom_site_type_symbol
 _atom_site_label
 _atom_site_symmetry_multiplicity
 _atom_site_fract_x
 _atom_site_fract_y
 _atom_site_fract_z
 _atom_site_occupancy
  Ho  Ho0  1  0.000000  0.188329  0.500000  1
  Ho  Ho1  1  0.811671  0.811671  0.500000  1
  Ho  Ho2  1  0.188329  0.000000  0.500000  1
  Ho  Ho3  1  0.666667  0.333333  0.000000  1
  Ho  Ho4  1  0.333333  0.666667  0.000000  1
  Mo  Mo5  1  0.000000  0.557201  0.000000  1
  Mo  Mo6  1  0.442799  0.442799  0.000000  1
  Mo  Mo7  1  0.557201  0.000000  0.000000  1
  P  P8  1  0.000000  0.818591  0.000000  1
  P  P9  1  0.181409  0.181409  0.000000  1
  P  P10  1  0.818591  0.000000  0.000000  1
  P  P11  1  0.684633  0.166227  0.500000  1
  P  P12  1  0.833773  0.518407  0.500000  1
  P  P13  1  0.481593  0.315367  0.500000  1
  P  P14  1  0.166227  0.684633  0.500000  1
  P  P15  1  0.518407  0.833773  0.500000  1
  P  P16  1  0.315367  0.481593  0.500000  1
  P  P17  1  0.000000  0.371353  0.000000  1
  P  P18  1  0.628647  0.628647  0.000000  1
  P  P19  1  0.371353  0.000000  0.000000  1
  Ru  Ru20  1  0.000000  0.719480  0.500000  1
  Ru  Ru21  1  0.280520  0.280520  0.500000  1
  Ru  Ru22  1  0.719480  0.000000  0.500000  1
  Ru  Ru23  1  0.871598  0.358694  0.500000  1
  Ru  Ru24  1  0.641306  0.512904  0.500000  1
  Ru  Ru25  1  0.487096  0.128402  0.500000  1
  Ru  Ru26  1  0.358694  0.871598  0.500000  1
  Ru  Ru27  1  0.512904  0.641306  0.500000  1
  Ru  Ru28  1  0.128402  0.487096  0.500000  1
  Rh  Rh29  1  0.809246  0.181581  0.000000  1
  Rh  Rh30  1  0.818419  0.627664  0.000000  1
  Rh  Rh31  1  0.372336  0.190754  0.000000  1
  Rh  Rh32  1  0.181581  0.809246  0.000000  1
  Rh  Rh33  1  0.627664  0.818419  0.000000  1
  Rh  Rh34  1  0.190754  0.372336  0.000000  1
  Rh  Rh35  1  0.000000  0.000000  0.000000  1
