# generated using pymatgen
data_Ca7Y(Sb2O5)4
_symmetry_space_group_name_H-M   'P 1'
_cell_length_a   5.88590900
_cell_length_b   7.38639631
_cell_length_c   14.27781500
_cell_angle_alpha   89.91941320
_cell_angle_beta   90.00000000
_cell_angle_gamma   90.00000000
_symmetry_Int_Tables_number   1
_chemical_formula_structural   Ca7Y(Sb2O5)4
_chemical_formula_sum   'Ca7 Y1 Sb8 O20'
_cell_volume   620.73676646
_cell_formula_units_Z   1
loop_
 _symmetry_equiv_pos_site_id
 _symmetry_equiv_pos_as_xyz
  1  'x, y, z'
loop_
 _atom_site_type_symbol
 _atom_site_label
 _atom_site_symmetry_multiplicity
 _atom_site_fract_x
 _atom_site_fract_y
 _atom_site_fract_z
 _atom_site_occupancy
  Ca  Ca0  1  0.250000  0.627831  0.065357  1
  Ca  Ca1  1  0.750000  0.623780  0.448276  1
  Ca  Ca2  1  0.750000  0.875097  0.945893  1
  Ca  Ca3  1  0.250000  0.873765  0.561946  1
  Ca  Ca4  1  0.250000  0.122962  0.053520  1
  Ca  Ca5  1  0.750000  0.126125  0.436325  1
  Ca  Ca6  1  0.250000  0.376193  0.550891  1
  Y  Y7  1  0.750000  0.373794  0.941279  1
  Sb  Sb8  1  0.250000  0.607478  0.822110  1
  Sb  Sb9  1  0.750000  0.629830  0.684234  1
  Sb  Sb10  1  0.250000  0.882741  0.322383  1
  Sb  Sb11  1  0.750000  0.865810  0.180487  1
  Sb  Sb12  1  0.250000  0.141669  0.816940  1
  Sb  Sb13  1  0.750000  0.117359  0.677834  1
  Sb  Sb14  1  0.250000  0.370322  0.315352  1
  Sb  Sb15  1  0.750000  0.385802  0.178886  1
  O  O16  1  0.250000  0.628706  0.264712  1
  O  O17  1  0.003188  0.616940  0.918859  1
  O  O18  1  0.496812  0.616940  0.918859  1
  O  O19  1  0.509686  0.617613  0.588101  1
  O  O20  1  0.990314  0.617613  0.588101  1
  O  O21  1  0.490606  0.867855  0.417976  1
  O  O22  1  0.250000  0.873646  0.780042  1
  O  O23  1  0.509003  0.880166  0.083513  1
  O  O24  1  0.009394  0.867855  0.417976  1
  O  O25  1  0.990997  0.880166  0.083513  1
  O  O26  1  0.750000  0.127315  0.228361  1
  O  O27  1  0.509461  0.132827  0.582164  1
  O  O28  1  0.990539  0.132827  0.582164  1
  O  O29  1  0.003801  0.132785  0.914377  1
  O  O30  1  0.496199  0.132785  0.914377  1
  O  O31  1  0.750000  0.371577  0.737897  1
  O  O32  1  0.009184  0.381347  0.411098  1
  O  O33  1  0.490816  0.381347  0.411098  1
  O  O34  1  0.516662  0.369568  0.077550  1
  O  O35  1  0.983338  0.369568  0.077550  1
