# generated using pymatgen
data_ZnRe4AgO16
_symmetry_space_group_name_H-M   'P 1'
_cell_length_a   5.88357088
_cell_length_b   10.11481299
_cell_length_c   6.73594100
_cell_angle_alpha   90.50247961
_cell_angle_beta   88.76267658
_cell_angle_gamma   90.92853655
_symmetry_Int_Tables_number   1
_chemical_formula_structural   ZnRe4AgO16
_chemical_formula_sum   'Zn1 Re4 Ag1 O16'
_cell_volume   400.70374896
_cell_formula_units_Z   1
loop_
 _symmetry_equiv_pos_site_id
 _symmetry_equiv_pos_as_xyz
  1  'x, y, z'
loop_
 _atom_site_type_symbol
 _atom_site_label
 _atom_site_symmetry_multiplicity
 _atom_site_fract_x
 _atom_site_fract_y
 _atom_site_fract_z
 _atom_site_occupancy
  Zn  Zn0  1  0.000015  0.000007  0.999983  1
  Re  Re1  1  0.012071  0.324260  0.283043  1
  Re  Re2  1  0.496041  0.840045  0.270959  1
  Re  Re3  1  0.503985  0.159968  0.729008  1
  Re  Re4  1  0.987902  0.675729  0.716989  1
  Ag  Ag5  1  0.499972  0.499984  0.000034  1
  O  O6  1  0.508438  0.156190  0.471486  1
  O  O7  1  0.989323  0.678848  0.459474  1
  O  O8  1  0.010602  0.321122  0.540557  1
  O  O9  1  0.491591  0.843834  0.528483  1
  O  O10  1  0.742111  0.079006  0.819468  1
  O  O11  1  0.226012  0.590603  0.790022  1
  O  O12  1  0.999875  0.162724  0.182804  1
  O  O13  1  0.487790  0.673658  0.194378  1
  O  O14  1  0.260092  0.408612  0.197694  1
  O  O15  1  0.747695  0.916214  0.179958  1
  O  O16  1  0.773967  0.409388  0.209995  1
  O  O17  1  0.257929  0.921012  0.180487  1
  O  O18  1  0.512221  0.326352  0.805598  1
  O  O19  1  0.000124  0.837276  0.817191  1
  O  O20  1  0.252332  0.083796  0.820008  1
  O  O21  1  0.739911  0.591371  0.802383  1
