# generated using pymatgen
data_TaTi2Nb(ReB2)2
_symmetry_space_group_name_H-M   'P 1'
_cell_length_a   5.99863709
_cell_length_b   6.00104705
_cell_length_c   3.25196600
_cell_angle_alpha   90.00000000
_cell_angle_beta   90.00000000
_cell_angle_gamma   89.99642994
_symmetry_Int_Tables_number   1
_chemical_formula_structural   TaTi2Nb(ReB2)2
_chemical_formula_sum   'Ta1 Ti2 Nb1 Re2 B4'
_cell_volume   117.06460812
_cell_formula_units_Z   1
loop_
 _symmetry_equiv_pos_site_id
 _symmetry_equiv_pos_as_xyz
  1  'x, y, z'
loop_
 _atom_site_type_symbol
 _atom_site_label
 _atom_site_symmetry_multiplicity
 _atom_site_fract_x
 _atom_site_fract_y
 _atom_site_fract_z
 _atom_site_occupancy
  Ta  Ta0  1  0.321712  0.823483  0.500000  1
  Ti  Ti1  1  0.178668  0.321373  0.500000  1
  Ti  Ti2  1  0.677593  0.178677  0.500000  1
  Nb  Nb3  1  0.822799  0.676336  0.500000  1
  Re  Re4  1  0.497958  0.495079  0.000000  1
  Re  Re5  1  0.998943  0.005477  0.000000  1
  B  B6  1  0.112250  0.606204  0.000000  1
  B  B7  1  0.609314  0.894373  0.000000  1
  B  B8  1  0.389673  0.113351  0.000000  1
  B  B9  1  0.891092  0.385647  0.000000  1
