# generated using pymatgen
data_Lu12ZnCo4Ru
_symmetry_space_group_name_H-M   'P 1'
_cell_length_a   8.05850621
_cell_length_b   8.05850684
_cell_length_c   8.05850676
_cell_angle_alpha   111.37413182
_cell_angle_beta   110.87808591
_cell_angle_gamma   106.21026292
_symmetry_Int_Tables_number   1
_chemical_formula_structural   Lu12ZnCo4Ru
_chemical_formula_sum   'Lu12 Zn1 Co4 Ru1'
_cell_volume   401.86891767
_cell_formula_units_Z   1
loop_
 _symmetry_equiv_pos_site_id
 _symmetry_equiv_pos_as_xyz
  1  'x, y, z'
loop_
 _atom_site_type_symbol
 _atom_site_label
 _atom_site_symmetry_multiplicity
 _atom_site_fract_x
 _atom_site_fract_y
 _atom_site_fract_z
 _atom_site_occupancy
  Lu  Lu0  1  0.418184  0.224914  0.193270  1
  Lu  Lu1  1  0.581816  0.775086  0.806730  1
  Lu  Lu2  1  0.031643  0.224914  0.806730  1
  Lu  Lu3  1  0.968357  0.775086  0.193270  1
  Lu  Lu4  1  0.183829  0.280296  0.464125  1
  Lu  Lu5  1  0.816171  0.719704  0.535875  1
  Lu  Lu6  1  0.183829  0.719704  0.903535  1
  Lu  Lu7  1  0.816171  0.280296  0.096465  1
  Lu  Lu8  1  0.314846  0.619380  0.304532  1
  Lu  Lu9  1  0.685154  0.380620  0.695468  1
  Lu  Lu10  1  0.314846  0.010314  0.695468  1
  Lu  Lu11  1  0.685154  0.989686  0.304532  1
  Zn  Zn12  1  0.500000  0.500000  0.000000  1
  Co  Co13  1  0.371978  0.000000  0.371978  1
  Co  Co14  1  0.628022  0.000000  0.628022  1
  Co  Co15  1  0.113997  0.613997  0.500000  1
  Co  Co16  1  0.886003  0.386003  0.500000  1
  Ru  Ru17  1  0.000000  0.000000  0.000000  1
