# generated using pymatgen
data_Ca2YHo(ReB4)4
_symmetry_space_group_name_H-M   'P 1'
_cell_length_a   3.60589600
_cell_length_b   5.99153509
_cell_length_c   11.59117077
_cell_angle_alpha   90.00295144
_cell_angle_beta   90.00000000
_cell_angle_gamma   90.00000000
_symmetry_Int_Tables_number   1
_chemical_formula_structural   Ca2YHo(ReB4)4
_chemical_formula_sum   'Ca2 Y1 Ho1 Re4 B16'
_cell_volume   250.42553372
_cell_formula_units_Z   1
loop_
 _symmetry_equiv_pos_site_id
 _symmetry_equiv_pos_as_xyz
  1  'x, y, z'
loop_
 _atom_site_type_symbol
 _atom_site_label
 _atom_site_symmetry_multiplicity
 _atom_site_fract_x
 _atom_site_fract_y
 _atom_site_fract_z
 _atom_site_occupancy
  Ca  Ca0  1  0.000000  0.372843  0.849532  1
  Ca  Ca1  1  0.000000  0.127111  0.349794  1
  Y  Y2  1  0.000000  0.627399  0.150374  1
  Ho  Ho3  1  0.000000  0.872602  0.650212  1
  Re  Re4  1  0.000000  0.632183  0.415811  1
  Re  Re5  1  0.000000  0.368847  0.585163  1
  Re  Re6  1  0.000000  0.130815  0.084742  1
  Re  Re7  1  0.000000  0.868416  0.915131  1
  B  B8  1  0.500000  0.976793  0.192160  1
  B  B9  1  0.500000  0.022192  0.807634  1
  B  B10  1  0.500000  0.477433  0.308270  1
  B  B11  1  0.500000  0.523580  0.692224  1
  B  B12  1  0.500000  0.785059  0.315548  1
  B  B13  1  0.500000  0.214042  0.684358  1
  B  B14  1  0.500000  0.285373  0.184340  1
  B  B15  1  0.500000  0.715098  0.814954  1
  B  B16  1  0.500000  0.863973  0.468673  1
  B  B17  1  0.500000  0.136234  0.532161  1
  B  B18  1  0.500000  0.363521  0.031703  1
  B  B19  1  0.500000  0.636146  0.967987  1
  B  B20  1  0.500000  0.886949  0.046968  1
  B  B21  1  0.500000  0.114255  0.952155  1
  B  B22  1  0.500000  0.385714  0.452643  1
  B  B23  1  0.500000  0.613421  0.547463  1
