# generated using pymatgen
data_Rb3W2Br10N
_symmetry_space_group_name_H-M   'P 1'
_cell_length_a   7.44075200
_cell_length_b   7.44075200
_cell_length_c   19.58012600
_cell_angle_alpha   90.00000000
_cell_angle_beta   90.00000000
_cell_angle_gamma   90.00000000
_symmetry_Int_Tables_number   1
_chemical_formula_structural   Rb3W2Br10N
_chemical_formula_sum   'Rb6 W4 Br20 N2'
_cell_volume   1084.04957054
_cell_formula_units_Z   2
loop_
 _symmetry_equiv_pos_site_id
 _symmetry_equiv_pos_as_xyz
  1  'x, y, z'
loop_
 _atom_site_type_symbol
 _atom_site_label
 _atom_site_symmetry_multiplicity
 _atom_site_fract_x
 _atom_site_fract_y
 _atom_site_fract_z
 _atom_site_occupancy
  Rb  Rb0  1  0.500000  0.500000  0.000000  1
  Rb  Rb1  1  0.000000  0.000000  0.500000  1
  Rb  Rb2  1  0.000000  0.500000  0.250000  1
  Rb  Rb3  1  0.500000  0.000000  0.750000  1
  Rb  Rb4  1  0.500000  0.000000  0.250000  1
  Rb  Rb5  1  0.000000  0.500000  0.750000  1
  W  W6  1  0.500000  0.500000  0.405779  1
  W  W7  1  0.000000  0.000000  0.905779  1
  W  W8  1  0.500000  0.500000  0.594221  1
  W  W9  1  0.000000  0.000000  0.094221  1
  Br  Br10  1  0.783116  0.686594  0.395742  1
  Br  Br11  1  0.216884  0.313406  0.395742  1
  Br  Br12  1  0.716884  0.186594  0.895742  1
  Br  Br13  1  0.283116  0.813406  0.895742  1
  Br  Br14  1  0.686594  0.216884  0.395742  1
  Br  Br15  1  0.313406  0.783116  0.395742  1
  Br  Br16  1  0.186594  0.283116  0.895742  1
  Br  Br17  1  0.813406  0.716884  0.895742  1
  Br  Br18  1  0.216884  0.313406  0.604258  1
  Br  Br19  1  0.783116  0.686594  0.604258  1
  Br  Br20  1  0.283116  0.813406  0.104258  1
  Br  Br21  1  0.716884  0.186594  0.104258  1
  Br  Br22  1  0.313406  0.783116  0.604258  1
  Br  Br23  1  0.686594  0.216884  0.604258  1
  Br  Br24  1  0.813406  0.716884  0.104258  1
  Br  Br25  1  0.186594  0.283116  0.104258  1
  Br  Br26  1  0.500000  0.500000  0.264400  1
  Br  Br27  1  0.000000  0.000000  0.764400  1
  Br  Br28  1  0.500000  0.500000  0.735600  1
  Br  Br29  1  0.000000  0.000000  0.235600  1
  N  N30  1  0.500000  0.500000  0.500000  1
  N  N31  1  0.000000  0.000000  0.000000  1
