# generated using pymatgen
data_Yb4Si3Pd4
_symmetry_space_group_name_H-M   'P 1'
_cell_length_a   10.71617572
_cell_length_b   10.71617643
_cell_length_c   7.80932292
_cell_angle_alpha   70.85056822
_cell_angle_beta   70.85056579
_cell_angle_gamma   30.92103400
_symmetry_Int_Tables_number   1
_chemical_formula_structural   Yb4Si3Pd4
_chemical_formula_sum   'Yb8 Si6 Pd8'
_cell_volume   433.31206418
_cell_formula_units_Z   2
loop_
 _symmetry_equiv_pos_site_id
 _symmetry_equiv_pos_as_xyz
  1  'x, y, z'
loop_
 _atom_site_type_symbol
 _atom_site_label
 _atom_site_symmetry_multiplicity
 _atom_site_fract_x
 _atom_site_fract_y
 _atom_site_fract_z
 _atom_site_occupancy
  Yb  Yb0  1  0.927192  0.205668  0.330955  1
  Yb  Yb1  1  0.072808  0.794332  0.669045  1
  Yb  Yb2  1  0.794332  0.072808  0.169045  1
  Yb  Yb3  1  0.451523  0.208256  0.904538  1
  Yb  Yb4  1  0.791744  0.548477  0.595462  1
  Yb  Yb5  1  0.208256  0.451523  0.404538  1
  Yb  Yb6  1  0.205668  0.927192  0.830955  1
  Yb  Yb7  1  0.548477  0.791744  0.095462  1
  Si  Si8  1  0.297738  0.045075  0.435051  1
  Si  Si9  1  0.371640  0.628360  0.250000  1
  Si  Si10  1  0.045075  0.297738  0.935051  1
  Si  Si11  1  0.702262  0.954925  0.564949  1
  Si  Si12  1  0.954925  0.702262  0.064949  1
  Si  Si13  1  0.628360  0.371640  0.750000  1
  Pd  Pd14  1  0.572102  0.301821  0.525749  1
  Pd  Pd15  1  0.698179  0.427898  0.974251  1
  Pd  Pd16  1  0.301821  0.572102  0.025749  1
  Pd  Pd17  1  0.427898  0.698179  0.474251  1
  Pd  Pd18  1  0.640360  0.917290  0.320068  1
  Pd  Pd19  1  0.917290  0.640360  0.820068  1
  Pd  Pd20  1  0.359640  0.082710  0.679932  1
  Pd  Pd21  1  0.082710  0.359640  0.179932  1
