# generated using pymatgen
data_Dy2Co11Si7Rh
_symmetry_space_group_name_H-M   'P 1'
_cell_length_a   9.18002167
_cell_length_b   9.14726389
_cell_length_c   3.66375217
_cell_angle_alpha   90.03006724
_cell_angle_beta   90.00439104
_cell_angle_gamma   119.75110328
_symmetry_Int_Tables_number   1
_chemical_formula_structural   Dy2Co11Si7Rh
_chemical_formula_sum   'Dy2 Co11 Si7 Rh1'
_cell_volume   267.10088056
_cell_formula_units_Z   1
loop_
 _symmetry_equiv_pos_site_id
 _symmetry_equiv_pos_as_xyz
  1  'x, y, z'
loop_
 _atom_site_type_symbol
 _atom_site_label
 _atom_site_symmetry_multiplicity
 _atom_site_fract_x
 _atom_site_fract_y
 _atom_site_fract_z
 _atom_site_occupancy
  Dy  Dy0  1  0.335347  0.669055  0.738164  1
  Dy  Dy1  1  0.667439  0.334489  0.238165  1
  Co  Co2  1  0.433732  0.055447  0.738077  1
  Co  Co3  1  0.944064  0.380946  0.737994  1
  Co  Co4  1  0.619865  0.562695  0.738375  1
  Co  Co5  1  0.563155  0.944727  0.238131  1
  Co  Co6  1  0.051469  0.620562  0.238127  1
  Co  Co7  1  0.381505  0.432130  0.238166  1
  Co  Co8  1  0.154380  0.280491  0.738107  1
  Co  Co9  1  0.721281  0.869928  0.738155  1
  Co  Co10  1  0.126827  0.849564  0.738014  1
  Co  Co11  1  0.876785  0.771985  0.238101  1
  Co  Co12  1  0.227151  0.105279  0.237989  1
  Si  Si13  1  0.001874  0.999253  0.737815  1
  Si  Si14  1  0.398956  0.286351  0.738121  1
  Si  Si15  1  0.706036  0.108391  0.737976  1
  Si  Si16  1  0.888525  0.602745  0.738235  1
  Si  Si17  1  0.599422  0.705870  0.238332  1
  Si  Si18  1  0.291005  0.892128  0.237995  1
  Si  Si19  1  0.113397  0.407331  0.238058  1
  Rh  Rh20  1  0.897786  0.120632  0.237903  1
