# generated using pymatgen
data_DyNp7CrSe17
_symmetry_space_group_name_H-M   'P 1'
_cell_length_a   8.18034007
_cell_length_b   8.19768677
_cell_length_c   10.87105600
_cell_angle_alpha   80.62167812
_cell_angle_beta   80.62134666
_cell_angle_gamma   65.21151459
_symmetry_Int_Tables_number   1
_chemical_formula_structural   DyNp7CrSe17
_chemical_formula_sum   'Dy1 Np7 Cr1 Se17'
_cell_volume   649.34060238
_cell_formula_units_Z   1
loop_
 _symmetry_equiv_pos_site_id
 _symmetry_equiv_pos_as_xyz
  1  'x, y, z'
loop_
 _atom_site_type_symbol
 _atom_site_label
 _atom_site_symmetry_multiplicity
 _atom_site_fract_x
 _atom_site_fract_y
 _atom_site_fract_z
 _atom_site_occupancy
  Dy  Dy0  1  0.815931  0.308536  0.299646  1
  Np  Np1  1  0.301169  0.820873  0.297888  1
  Np  Np2  1  0.179658  0.697774  0.700556  1
  Np  Np3  1  0.697140  0.181642  0.702393  1
  Np  Np4  1  0.204262  0.204220  0.543500  1
  Np  Np5  1  0.795719  0.795999  0.454602  1
  Np  Np6  1  0.678845  0.674408  0.981416  1
  Np  Np7  1  0.321516  0.321016  0.019431  1
  Cr  Cr8  1  0.002088  0.997757  0.999917  1
  Se  Se9  1  0.822414  0.431909  0.538854  1
  Se  Se10  1  0.433840  0.819876  0.536099  1
  Se  Se11  1  0.178198  0.566454  0.463594  1
  Se  Se12  1  0.569499  0.175151  0.467958  1
  Se  Se13  1  0.946300  0.320442  0.025191  1
  Se  Se14  1  0.322006  0.949119  0.029337  1
  Se  Se15  1  0.052382  0.677892  0.970269  1
  Se  Se16  1  0.679417  0.053394  0.971379  1
  Se  Se17  1  0.217093  0.210943  0.279742  1
  Se  Se18  1  0.788047  0.785839  0.721016  1
  Se  Se19  1  0.059055  0.053535  0.772826  1
  Se  Se20  1  0.942653  0.946408  0.226981  1
  Se  Se21  1  0.298775  0.301213  0.756493  1
  Se  Se22  1  0.695733  0.706609  0.241550  1
  Se  Se23  1  0.520260  0.521613  0.828296  1
  Se  Se24  1  0.473920  0.483552  0.168081  1
  Se  Se25  1  0.004078  0.993826  0.502985  1
