# generated using pymatgen
data_Be7Ru2
_symmetry_space_group_name_H-M   'P 1'
_cell_length_a   4.25657899
_cell_length_b   4.25657839
_cell_length_c   10.51270900
_cell_angle_alpha   90.00000000
_cell_angle_beta   90.00000000
_cell_angle_gamma   57.92207641
_symmetry_Int_Tables_number   1
_chemical_formula_structural   Be7Ru2
_chemical_formula_sum   'Be14 Ru4'
_cell_volume   161.39379045
_cell_formula_units_Z   2
loop_
 _symmetry_equiv_pos_site_id
 _symmetry_equiv_pos_as_xyz
  1  'x, y, z'
loop_
 _atom_site_type_symbol
 _atom_site_label
 _atom_site_symmetry_multiplicity
 _atom_site_fract_x
 _atom_site_fract_y
 _atom_site_fract_z
 _atom_site_occupancy
  Be  Be0  1  0.068018  0.604371  0.078626  1
  Be  Be1  1  0.395629  0.931982  0.078626  1
  Be  Be2  1  0.228198  0.268330  0.250000  1
  Be  Be3  1  0.235696  0.764304  0.250000  1
  Be  Be4  1  0.731670  0.771803  0.250000  1
  Be  Be5  1  0.068018  0.604371  0.421374  1
  Be  Be6  1  0.395629  0.931982  0.421374  1
  Be  Be7  1  0.604371  0.068018  0.578627  1
  Be  Be8  1  0.931982  0.395629  0.578627  1
  Be  Be9  1  0.268330  0.228198  0.750000  1
  Be  Be10  1  0.764304  0.235696  0.750000  1
  Be  Be11  1  0.771803  0.731670  0.750000  1
  Be  Be12  1  0.604371  0.068018  0.921374  1
  Be  Be13  1  0.931982  0.395629  0.921374  1
  Ru  Ru14  1  0.736140  0.263860  0.112524  1
  Ru  Ru15  1  0.736140  0.263860  0.387476  1
  Ru  Ru16  1  0.263860  0.736140  0.612525  1
  Ru  Ru17  1  0.263860  0.736140  0.887476  1
