# generated using pymatgen
data_Mo2Os2Ru3Rh
_symmetry_space_group_name_H-M   'P 1'
_cell_length_a   5.53035036
_cell_length_b   5.53034977
_cell_length_c   4.37460900
_cell_angle_alpha   90.00000000
_cell_angle_beta   90.00000000
_cell_angle_gamma   120.06355073
_symmetry_Int_Tables_number   1
_chemical_formula_structural   Mo2Os2Ru3Rh
_chemical_formula_sum   'Mo2 Os2 Ru3 Rh1'
_cell_volume   115.79682430
_cell_formula_units_Z   1
loop_
 _symmetry_equiv_pos_site_id
 _symmetry_equiv_pos_as_xyz
  1  'x, y, z'
loop_
 _atom_site_type_symbol
 _atom_site_label
 _atom_site_symmetry_multiplicity
 _atom_site_fract_x
 _atom_site_fract_y
 _atom_site_fract_z
 _atom_site_occupancy
  Mo  Mo0  1  0.664946  0.335054  0.250000  1
  Mo  Mo1  1  0.336549  0.663451  0.750000  1
  Os  Os2  1  0.333210  0.173149  0.750000  1
  Os  Os3  1  0.826851  0.666790  0.750000  1
  Ru  Ru4  1  0.167152  0.832848  0.250000  1
  Ru  Ru5  1  0.667165  0.830626  0.250000  1
  Ru  Ru6  1  0.169374  0.332835  0.250000  1
  Rh  Rh7  1  0.834754  0.165246  0.750000  1
