# generated using pymatgen
data_Li8Hg3Pd2
_symmetry_space_group_name_H-M   'P 1'
_cell_length_a   8.27170414
_cell_length_b   8.27170539
_cell_length_c   8.27170500
_cell_angle_alpha   109.47122702
_cell_angle_beta   109.47123008
_cell_angle_gamma   109.47121159
_symmetry_Int_Tables_number   1
_chemical_formula_structural   Li8Hg3Pd2
_chemical_formula_sum   'Li16 Hg6 Pd4'
_cell_volume   435.67552264
_cell_formula_units_Z   2
loop_
 _symmetry_equiv_pos_site_id
 _symmetry_equiv_pos_as_xyz
  1  'x, y, z'
loop_
 _atom_site_type_symbol
 _atom_site_label
 _atom_site_symmetry_multiplicity
 _atom_site_fract_x
 _atom_site_fract_y
 _atom_site_fract_z
 _atom_site_occupancy
  Li  Li0  1  0.381067  0.654068  0.654068  1
  Li  Li1  1  0.618933  0.273001  0.273001  1
  Li  Li2  1  0.000000  0.345932  0.726999  1
  Li  Li3  1  0.654068  0.654068  0.381067  1
  Li  Li4  1  0.000000  0.726999  0.345932  1
  Li  Li5  1  0.273001  0.273001  0.618933  1
  Li  Li6  1  0.345932  0.726999  0.000000  1
  Li  Li7  1  0.726999  0.345932  0.000000  1
  Li  Li8  1  0.654068  0.381067  0.654068  1
  Li  Li9  1  0.726999  0.000000  0.345932  1
  Li  Li10  1  0.345932  0.000000  0.726999  1
  Li  Li11  1  0.273001  0.618933  0.273001  1
  Li  Li12  1  0.782860  0.782860  0.782860  1
  Li  Li13  1  0.217140  0.000000  0.000000  1
  Li  Li14  1  0.000000  0.217140  0.000000  1
  Li  Li15  1  0.000000  0.000000  0.217140  1
  Hg  Hg16  1  0.651549  0.651549  0.000000  1
  Hg  Hg17  1  0.348451  0.348451  0.000000  1
  Hg  Hg18  1  0.651549  0.000000  0.651549  1
  Hg  Hg19  1  0.348451  0.000000  0.348451  1
  Hg  Hg20  1  0.000000  0.651549  0.651549  1
  Hg  Hg21  1  0.000000  0.348451  0.348451  1
  Pd  Pd22  1  0.345813  0.345813  0.345813  1
  Pd  Pd23  1  0.654187  0.000000  0.000000  1
  Pd  Pd24  1  0.000000  0.654187  0.000000  1
  Pd  Pd25  1  0.000000  0.000000  0.654187  1
