# generated using pymatgen
data_Tb8Ti7Nb4Si16W
_symmetry_space_group_name_H-M   'P 1'
_cell_length_a   7.06108162
_cell_length_b   7.04988255
_cell_length_c   13.00417778
_cell_angle_alpha   89.90927716
_cell_angle_beta   90.14704900
_cell_angle_gamma   89.96850437
_symmetry_Int_Tables_number   1
_chemical_formula_structural   Tb8Ti7Nb4Si16W
_chemical_formula_sum   'Tb8 Ti7 Nb4 Si16 W1'
_cell_volume   647.34227544
_cell_formula_units_Z   1
loop_
 _symmetry_equiv_pos_site_id
 _symmetry_equiv_pos_as_xyz
  1  'x, y, z'
loop_
 _atom_site_type_symbol
 _atom_site_label
 _atom_site_symmetry_multiplicity
 _atom_site_fract_x
 _atom_site_fract_y
 _atom_site_fract_z
 _atom_site_occupancy
  Tb  Tb0  1  0.341114  0.001357  0.466700  1
  Tb  Tb1  1  0.497844  0.840578  0.718528  1
  Tb  Tb2  1  0.501571  0.159308  0.215933  1
  Tb  Tb3  1  0.839756  0.497566  0.282976  1
  Tb  Tb4  1  0.160168  0.502410  0.782996  1
  Tb  Tb5  1  0.659042  0.997030  0.966906  1
  Tb  Tb6  1  0.001907  0.339663  0.533718  1
  Tb  Tb7  1  0.998257  0.661163  0.031694  1
  Ti  Ti8  1  0.489475  0.654879  0.123836  1
  Ti  Ti9  1  0.508055  0.345254  0.626984  1
  Ti  Ti10  1  0.653943  0.490482  0.874401  1
  Ti  Ti11  1  0.346870  0.509018  0.375041  1
  Ti  Ti12  1  0.846662  0.990996  0.375308  1
  Ti  Ti13  1  0.007246  0.152510  0.125231  1
  Ti  Ti14  1  0.991305  0.845115  0.624650  1
  Nb  Nb15  1  0.324949  0.326257  0.999153  1
  Nb  Nb16  1  0.171469  0.828254  0.249215  1
  Nb  Nb17  1  0.829989  0.171135  0.751211  1
  Nb  Nb18  1  0.673407  0.672539  0.500074  1
  Si  Si19  1  0.203112  0.128856  0.686080  1
  Si  Si20  1  0.370250  0.705523  0.933050  1
  Si  Si21  1  0.629425  0.297387  0.435379  1
  Si  Si22  1  0.702525  0.370894  0.065046  1
  Si  Si23  1  0.298256  0.629332  0.565478  1
  Si  Si24  1  0.796904  0.869873  0.184612  1
  Si  Si25  1  0.129836  0.202839  0.315118  1
  Si  Si26  1  0.872203  0.798971  0.816562  1
  Si  Si27  1  0.291360  0.954415  0.062866  1
  Si  Si28  1  0.546269  0.791498  0.313455  1
  Si  Si29  1  0.452460  0.208832  0.814089  1
  Si  Si30  1  0.792527  0.546454  0.686218  1
  Si  Si31  1  0.208177  0.453317  0.186025  1
  Si  Si32  1  0.709034  0.046344  0.564218  1
  Si  Si33  1  0.954213  0.291170  0.936085  1
  Si  Si34  1  0.046533  0.707993  0.436071  1
  W  W35  1  0.153884  0.010790  0.875093  1
