# generated using pymatgen
data_TiVSi4(MoIr2)2
_symmetry_space_group_name_H-M   'P 1'
_cell_length_a   3.85115600
_cell_length_b   6.23911244
_cell_length_c   7.18792565
_cell_angle_alpha   89.73794126
_cell_angle_beta   90.00000000
_cell_angle_gamma   90.00000000
_symmetry_Int_Tables_number   1
_chemical_formula_structural   TiVSi4(MoIr2)2
_chemical_formula_sum   'Ti1 V1 Si4 Mo2 Ir4'
_cell_volume   172.70819976
_cell_formula_units_Z   1
loop_
 _symmetry_equiv_pos_site_id
 _symmetry_equiv_pos_as_xyz
  1  'x, y, z'
loop_
 _atom_site_type_symbol
 _atom_site_label
 _atom_site_symmetry_multiplicity
 _atom_site_fract_x
 _atom_site_fract_y
 _atom_site_fract_z
 _atom_site_occupancy
  Ti  Ti0  1  0.750000  0.474447  0.322248  1
  V  V1  1  0.750000  0.974617  0.173853  1
  Si  Si2  1  0.250000  0.767742  0.375966  1
  Si  Si3  1  0.250000  0.254143  0.119236  1
  Si  Si4  1  0.750000  0.234318  0.626860  1
  Si  Si5  1  0.750000  0.740152  0.879407  1
  Mo  Mo6  1  0.250000  0.024692  0.824630  1
  Mo  Mo7  1  0.250000  0.527156  0.676345  1
  Ir  Ir8  1  0.250000  0.151124  0.436421  1
  Ir  Ir9  1  0.250000  0.646504  0.065117  1
  Ir  Ir10  1  0.750000  0.851960  0.559323  1
  Ir  Ir11  1  0.750000  0.353145  0.940597  1
