# generated using pymatgen
data_TbNd3TmP12Ru19
_symmetry_space_group_name_H-M   'P 1'
_cell_length_a   4.00478100
_cell_length_b   12.59886033
_cell_length_c   12.59926200
_cell_angle_alpha   119.99507113
_cell_angle_beta   90.00000000
_cell_angle_gamma   90.00000000
_symmetry_Int_Tables_number   1
_chemical_formula_structural   TbNd3TmP12Ru19
_chemical_formula_sum   'Tb1 Nd3 Tm1 P12 Ru19'
_cell_volume   550.56340355
_cell_formula_units_Z   1
loop_
 _symmetry_equiv_pos_site_id
 _symmetry_equiv_pos_as_xyz
  1  'x, y, z'
loop_
 _atom_site_type_symbol
 _atom_site_label
 _atom_site_symmetry_multiplicity
 _atom_site_fract_x
 _atom_site_fract_y
 _atom_site_fract_z
 _atom_site_occupancy
  Tb  Tb0  1  0.000000  0.666645  0.333315  1
  Nd  Nd1  1  0.500000  0.000030  0.183818  1
  Nd  Nd2  1  0.500000  0.183790  0.999972  1
  Nd  Nd3  1  0.500000  0.816185  0.816219  1
  Tm  Tm4  1  0.000000  0.333330  0.666673  1
  P  P5  1  0.000000  0.000138  0.812363  1
  P  P6  1  0.000000  0.812229  0.999860  1
  P  P7  1  0.000000  0.187632  0.187776  1
  P  P8  1  0.500000  0.305551  0.479093  1
  P  P9  1  0.500000  0.173528  0.694448  1
  P  P10  1  0.500000  0.520906  0.826459  1
  P  P11  1  0.500000  0.827077  0.521641  1
  P  P12  1  0.500000  0.478343  0.305427  1
  P  P13  1  0.500000  0.694562  0.172923  1
  P  P14  1  0.000000  0.999902  0.373913  1
  P  P15  1  0.000000  0.374036  0.000097  1
  P  P16  1  0.000000  0.626071  0.625978  1
  Ru  Ru17  1  0.000000  0.999986  0.554127  1
  Ru  Ru18  1  0.000000  0.554116  0.000010  1
  Ru  Ru19  1  0.000000  0.445882  0.445877  1
  Ru  Ru20  1  0.500000  0.000279  0.713711  1
  Ru  Ru21  1  0.500000  0.713416  0.999711  1
  Ru  Ru22  1  0.500000  0.286307  0.286587  1
  Ru  Ru23  1  0.000000  0.195588  0.381212  1
  Ru  Ru24  1  0.000000  0.185638  0.804421  1
  Ru  Ru25  1  0.000000  0.618798  0.814371  1
  Ru  Ru26  1  0.000000  0.814892  0.619764  1
  Ru  Ru27  1  0.000000  0.380217  0.195124  1
  Ru  Ru28  1  0.000000  0.804862  0.185085  1
  Ru  Ru29  1  0.500000  0.126814  0.494054  1
  Ru  Ru30  1  0.500000  0.367223  0.873183  1
  Ru  Ru31  1  0.500000  0.505944  0.632763  1
  Ru  Ru32  1  0.500000  0.632642  0.507295  1
  Ru  Ru33  1  0.500000  0.492709  0.125370  1
  Ru  Ru34  1  0.500000  0.874638  0.367357  1
  Ru  Ru35  1  0.000000  0.999992  0.000003  1
