# generated using pymatgen
data_HfZrSbP
_symmetry_space_group_name_H-M   'P 1'
_cell_length_a   3.81869800
_cell_length_b   3.81869759
_cell_length_c   13.34482300
_cell_angle_alpha   90.00000000
_cell_angle_beta   90.00000000
_cell_angle_gamma   120.00000358
_symmetry_Int_Tables_number   1
_chemical_formula_structural   HfZrSbP
_chemical_formula_sum   'Hf2 Zr2 Sb2 P2'
_cell_volume   168.52875574
_cell_formula_units_Z   2
loop_
 _symmetry_equiv_pos_site_id
 _symmetry_equiv_pos_as_xyz
  1  'x, y, z'
loop_
 _atom_site_type_symbol
 _atom_site_label
 _atom_site_symmetry_multiplicity
 _atom_site_fract_x
 _atom_site_fract_y
 _atom_site_fract_z
 _atom_site_occupancy
  Hf  Hf0  1  0.666667  0.333333  0.600954  1
  Hf  Hf1  1  0.333333  0.666667  0.100954  1
  Zr  Zr2  1  0.666667  0.333333  0.898505  1
  Zr  Zr3  1  0.333333  0.666667  0.398505  1
  Sb  Sb4  1  0.333333  0.666667  0.748525  1
  Sb  Sb5  1  0.666667  0.333333  0.248525  1
  P  P6  1  0.000000  0.000000  0.002016  1
  P  P7  1  0.000000  0.000000  0.502016  1
