# generated using pymatgen
data_HoEr9In8(PdAu)2
_symmetry_space_group_name_H-M   'P 1'
_cell_length_a   3.62358000
_cell_length_b   8.13561300
_cell_length_c   18.25110509
_cell_angle_alpha   90.00409093
_cell_angle_beta   90.00000000
_cell_angle_gamma   90.00000000
_symmetry_Int_Tables_number   1
_chemical_formula_structural   HoEr9In8(PdAu)2
_chemical_formula_sum   'Ho1 Er9 In8 Pd2 Au2'
_cell_volume   538.04339022
_cell_formula_units_Z   1
loop_
 _symmetry_equiv_pos_site_id
 _symmetry_equiv_pos_as_xyz
  1  'x, y, z'
loop_
 _atom_site_type_symbol
 _atom_site_label
 _atom_site_symmetry_multiplicity
 _atom_site_fract_x
 _atom_site_fract_y
 _atom_site_fract_z
 _atom_site_occupancy
  Ho  Ho0  1  0.000000  0.500000  0.500000  1
  Er  Er1  1  0.000000  0.000000  0.000000  1
  Er  Er2  1  0.000000  0.745596  0.282250  1
  Er  Er3  1  0.000000  0.254404  0.717750  1
  Er  Er4  1  0.000000  0.767320  0.779157  1
  Er  Er5  1  0.000000  0.232680  0.220843  1
  Er  Er6  1  0.000000  0.617837  0.079985  1
  Er  Er7  1  0.000000  0.382163  0.920015  1
  Er  Er8  1  0.000000  0.886425  0.582500  1
  Er  Er9  1  0.000000  0.113575  0.417500  1
  In  In10  1  0.500000  0.713150  0.932338  1
  In  In11  1  0.500000  0.286850  0.067662  1
  In  In12  1  0.500000  0.789105  0.432373  1
  In  In13  1  0.500000  0.210895  0.567627  1
  In  In14  1  0.500000  0.583770  0.647286  1
  In  In15  1  0.500000  0.416230  0.352714  1
  In  In16  1  0.500000  0.920729  0.148351  1
  In  In17  1  0.500000  0.079271  0.851649  1
  Pd  Pd18  1  0.500000  0.975313  0.696039  1
  Pd  Pd19  1  0.500000  0.024687  0.303961  1
  Au  Au20  1  0.500000  0.525884  0.196895  1
  Au  Au21  1  0.500000  0.474116  0.803105  1
