# generated using pymatgen
data_Y2Ho4Al24Os5Pd3
_symmetry_space_group_name_H-M   'P 1'
_cell_length_a   8.82777588
_cell_length_b   8.84200596
_cell_length_c   9.54970198
_cell_angle_alpha   90.08302794
_cell_angle_beta   89.70284146
_cell_angle_gamma   119.48075409
_symmetry_Int_Tables_number   1
_chemical_formula_structural   Y2Ho4Al24Os5Pd3
_chemical_formula_sum   'Y2 Ho4 Al24 Os5 Pd3'
_cell_volume   648.88092868
_cell_formula_units_Z   1
loop_
 _symmetry_equiv_pos_site_id
 _symmetry_equiv_pos_as_xyz
  1  'x, y, z'
loop_
 _atom_site_type_symbol
 _atom_site_label
 _atom_site_symmetry_multiplicity
 _atom_site_fract_x
 _atom_site_fract_y
 _atom_site_fract_z
 _atom_site_occupancy
  Y  Y0  1  0.187527  0.382538  0.250718  1
  Y  Y1  1  0.812473  0.617462  0.749282  1
  Ho  Ho2  1  0.612754  0.814607  0.252871  1
  Ho  Ho3  1  0.387246  0.185393  0.747129  1
  Ho  Ho4  1  0.196139  0.808732  0.251826  1
  Ho  Ho5  1  0.803861  0.191268  0.748174  1
  Al  Al6  1  0.335234  0.671077  0.028643  1
  Al  Al7  1  0.664766  0.328923  0.971357  1
  Al  Al8  1  0.669494  0.331783  0.526595  1
  Al  Al9  1  0.330506  0.668217  0.473405  1
  Al  Al10  1  0.157244  0.325082  0.576134  1
  Al  Al11  1  0.842756  0.674918  0.423866  1
  Al  Al12  1  0.673887  0.841429  0.576301  1
  Al  Al13  1  0.836834  0.676729  0.079591  1
  Al  Al14  1  0.326113  0.158571  0.423699  1
  Al  Al15  1  0.163166  0.323271  0.920409  1
  Al  Al16  1  0.163752  0.834938  0.575656  1
  Al  Al17  1  0.325385  0.158253  0.076527  1
  Al  Al18  1  0.836248  0.165062  0.424344  1
  Al  Al19  1  0.674615  0.841747  0.923473  1
  Al  Al20  1  0.831071  0.158692  0.078183  1
  Al  Al21  1  0.168929  0.841308  0.921817  1
  Al  Al22  1  0.561206  0.125463  0.249824  1
  Al  Al23  1  0.438794  0.874537  0.750176  1
  Al  Al24  1  0.874369  0.437924  0.252516  1
  Al  Al25  1  0.125631  0.562076  0.747484  1
  Al  Al26  1  0.561833  0.437749  0.249810  1
  Al  Al27  1  0.438167  0.562251  0.750190  1
  Al  Al28  1  0.997847  0.001395  0.250327  1
  Al  Al29  1  0.002153  0.998605  0.749673  1
  Os  Os30  1  0.500000  0.000000  0.000000  1
  Os  Os31  1  0.500000  0.000000  0.500000  1
  Os  Os32  1  0.000000  0.500000  0.500000  1
  Os  Os33  1  0.000000  0.000000  0.000000  1
  Os  Os34  1  0.000000  0.000000  0.500000  1
  Pd  Pd35  1  0.000000  0.500000  0.000000  1
  Pd  Pd36  1  0.500000  0.500000  0.000000  1
  Pd  Pd37  1  0.500000  0.500000  0.500000  1
