# generated using pymatgen
data_Li2YThSi3
_symmetry_space_group_name_H-M   'P 1'
_cell_length_a   9.31605067
_cell_length_b   9.31605061
_cell_length_c   6.80937900
_cell_angle_alpha   90.00000000
_cell_angle_beta   90.00000000
_cell_angle_gamma   152.91406763
_symmetry_Int_Tables_number   1
_chemical_formula_structural   Li2YThSi3
_chemical_formula_sum   'Li4 Y2 Th2 Si6'
_cell_volume   269.08776173
_cell_formula_units_Z   2
loop_
 _symmetry_equiv_pos_site_id
 _symmetry_equiv_pos_as_xyz
  1  'x, y, z'
loop_
 _atom_site_type_symbol
 _atom_site_label
 _atom_site_symmetry_multiplicity
 _atom_site_fract_x
 _atom_site_fract_y
 _atom_site_fract_z
 _atom_site_occupancy
  Li  Li0  1  0.190598  0.809402  0.061389  1
  Li  Li1  1  0.190598  0.809402  0.438611  1
  Li  Li2  1  0.809402  0.190598  0.938611  1
  Li  Li3  1  0.809402  0.190598  0.561389  1
  Y  Y4  1  0.346260  0.653740  0.250000  1
  Y  Y5  1  0.653740  0.346260  0.750000  1
  Th  Th6  1  0.553081  0.446919  0.250000  1
  Th  Th7  1  0.446919  0.553081  0.750000  1
  Si  Si8  1  0.722383  0.277617  0.250000  1
  Si  Si9  1  0.277617  0.722383  0.750000  1
  Si  Si10  1  0.059970  0.940030  0.929307  1
  Si  Si11  1  0.940030  0.059970  0.070693  1
  Si  Si12  1  0.940030  0.059970  0.429307  1
  Si  Si13  1  0.059970  0.940030  0.570693  1
