# generated using pymatgen
data_ScNb6SnS12
_symmetry_space_group_name_H-M   'P 1'
_cell_length_a   5.83415200
_cell_length_b   5.83415214
_cell_length_c   13.96468000
_cell_angle_alpha   90.00000000
_cell_angle_beta   90.00000000
_cell_angle_gamma   119.99999922
_symmetry_Int_Tables_number   1
_chemical_formula_structural   ScNb6SnS12
_chemical_formula_sum   'Sc1 Nb6 Sn1 S12'
_cell_volume   411.63956754
_cell_formula_units_Z   1
loop_
 _symmetry_equiv_pos_site_id
 _symmetry_equiv_pos_as_xyz
  1  'x, y, z'
loop_
 _atom_site_type_symbol
 _atom_site_label
 _atom_site_symmetry_multiplicity
 _atom_site_fract_x
 _atom_site_fract_y
 _atom_site_fract_z
 _atom_site_occupancy
  Sc  Sc0  1  0.000000  0.000000  0.000000  1
  Nb  Nb1  1  0.000000  0.000000  0.765143  1
  Nb  Nb2  1  0.000000  0.000000  0.234857  1
  Nb  Nb3  1  0.333333  0.666667  0.234133  1
  Nb  Nb4  1  0.666667  0.333333  0.765867  1
  Nb  Nb5  1  0.666667  0.333333  0.234133  1
  Nb  Nb6  1  0.333333  0.666667  0.765867  1
  Sn  Sn7  1  0.000000  0.000000  0.500000  1
  S  S8  1  0.334162  0.000000  0.121207  1
  S  S9  1  0.000000  0.334162  0.121207  1
  S  S10  1  0.665838  0.665838  0.121207  1
  S  S11  1  0.336037  0.336037  0.653115  1
  S  S12  1  0.663963  0.663963  0.346885  1
  S  S13  1  0.663963  0.000000  0.653115  1
  S  S14  1  0.000000  0.663963  0.653115  1
  S  S15  1  0.000000  0.665838  0.878793  1
  S  S16  1  0.334162  0.334162  0.878793  1
  S  S17  1  0.000000  0.336037  0.346885  1
  S  S18  1  0.336037  0.000000  0.346885  1
  S  S19  1  0.665838  0.000000  0.878793  1
