# generated using pymatgen
data_Pr12FePBr17
_symmetry_space_group_name_H-M   'P 1'
_cell_length_a   9.54997790
_cell_length_b   11.45593908
_cell_length_c   11.47569490
_cell_angle_alpha   93.61959168
_cell_angle_beta   104.75669376
_cell_angle_gamma   114.57442553
_symmetry_Int_Tables_number   1
_chemical_formula_structural   Pr12FePBr17
_chemical_formula_sum   'Pr12 Fe1 P1 Br17'
_cell_volume   1083.51302405
_cell_formula_units_Z   1
loop_
 _symmetry_equiv_pos_site_id
 _symmetry_equiv_pos_as_xyz
  1  'x, y, z'
loop_
 _atom_site_type_symbol
 _atom_site_label
 _atom_site_symmetry_multiplicity
 _atom_site_fract_x
 _atom_site_fract_y
 _atom_site_fract_z
 _atom_site_occupancy
  Pr  Pr0  1  0.061140  0.519001  0.323218  1
  Pr  Pr1  1  0.981612  0.810992  0.572784  1
  Pr  Pr2  1  0.637316  0.238765  0.287844  1
  Pr  Pr3  1  0.017552  0.190778  0.424972  1
  Pr  Pr4  1  0.228938  0.669647  0.998275  1
  Pr  Pr5  1  0.265643  0.995808  0.898629  1
  Pr  Pr6  1  0.368276  0.761469  0.714108  1
  Pr  Pr7  1  0.936434  0.477796  0.673883  1
  Pr  Pr8  1  0.738258  0.005472  0.106303  1
  Pr  Pr9  1  0.158151  0.287519  0.146594  1
  Pr  Pr10  1  0.770096  0.328274  0.002648  1
  Pr  Pr11  1  0.840799  0.713147  0.855688  1
  Fe  Fe12  1  0.895637  0.261381  0.213628  1
  P  P13  1  0.103784  0.737984  0.783918  1
  Br  Br14  1  0.789265  0.528840  0.423975  1
  Br  Br15  1  0.645141  0.426462  0.753397  1
  Br  Br16  1  0.845869  0.898429  0.327419  1
  Br  Br17  1  0.321657  0.214448  0.367582  1
  Br  Br18  1  0.155069  0.096883  0.678250  1
  Br  Br19  1  0.580343  0.047260  0.843069  1
  Br  Br20  1  0.756008  0.181871  0.537953  1
  Br  Br21  1  0.538634  0.697855  0.948192  1
  Br  Br22  1  0.358660  0.579647  0.241735  1
  Br  Br23  1  0.212358  0.476547  0.582960  1
  Br  Br24  1  0.056787  0.374840  0.896455  1
  Br  Br25  1  0.455098  0.293743  0.047153  1
  Br  Br26  1  0.998561  0.998228  0.995525  1
  Br  Br27  1  0.246562  0.822569  0.469741  1
  Br  Br28  1  0.410434  0.945715  0.151480  1
  Br  Br29  1  0.678974  0.786978  0.633769  1
  Br  Br30  1  0.946942  0.631654  0.098855  1
