# generated using pymatgen
data_YHo9Er6(In3Co)2
_symmetry_space_group_name_H-M   'P 1'
_cell_length_a   10.28790100
_cell_length_b   10.29893449
_cell_length_c   6.97890800
_cell_angle_alpha   90.01705806
_cell_angle_beta   90.00000000
_cell_angle_gamma   119.96455760
_symmetry_Int_Tables_number   1
_chemical_formula_structural   YHo9Er6(In3Co)2
_chemical_formula_sum   'Y1 Ho9 Er6 In6 Co2'
_cell_volume   640.60768600
_cell_formula_units_Z   1
loop_
 _symmetry_equiv_pos_site_id
 _symmetry_equiv_pos_as_xyz
  1  'x, y, z'
loop_
 _atom_site_type_symbol
 _atom_site_label
 _atom_site_symmetry_multiplicity
 _atom_site_fract_x
 _atom_site_fract_y
 _atom_site_fract_z
 _atom_site_occupancy
  Y  Y0  1  0.534266  0.068531  0.791149  1
  Ho  Ho1  1  0.929560  0.464675  0.791441  1
  Ho  Ho2  1  0.535115  0.464675  0.791441  1
  Ho  Ho3  1  0.464366  0.928732  0.291474  1
  Ho  Ho4  1  0.070486  0.535520  0.292094  1
  Ho  Ho5  1  0.465035  0.535520  0.292094  1
  Ho  Ho6  1  0.821986  0.643972  0.498310  1
  Ho  Ho7  1  0.356745  0.178970  0.497115  1
  Ho  Ho8  1  0.822226  0.178970  0.497115  1
  Ho  Ho9  1  0.178470  0.356939  0.999166  1
  Er  Er10  1  0.643459  0.820909  0.999200  1
  Er  Er11  1  0.177451  0.820909  0.999200  1
  Er  Er12  1  0.666882  0.333762  0.182192  1
  Er  Er13  1  0.333066  0.666133  0.682830  1
  Er  Er14  1  0.000107  0.000214  0.779645  1
  Er  Er15  1  0.999856  0.999711  0.279336  1
  In  In16  1  0.836750  0.673500  0.038921  1
  In  In17  1  0.325300  0.162231  0.039388  1
  In  In18  1  0.836931  0.162231  0.039388  1
  In  In19  1  0.163341  0.326681  0.540776  1
  In  In20  1  0.674390  0.837563  0.540702  1
  In  In21  1  0.163174  0.837563  0.540702  1
  Co  Co22  1  0.667588  0.335174  0.565107  1
  Co  Co23  1  0.333454  0.666910  0.067118  1
