# generated using pymatgen
data_Tc2PtCl12
_symmetry_space_group_name_H-M   'P 1'
_cell_length_a   8.80854085
_cell_length_b   8.80854092
_cell_length_c   6.54427950
_cell_angle_alpha   73.95674388
_cell_angle_beta   73.95674353
_cell_angle_gamma   82.56527307
_symmetry_Int_Tables_number   1
_chemical_formula_structural   Tc2PtCl12
_chemical_formula_sum   'Tc2 Pt1 Cl12'
_cell_volume   468.21790690
_cell_formula_units_Z   1
loop_
 _symmetry_equiv_pos_site_id
 _symmetry_equiv_pos_as_xyz
  1  'x, y, z'
loop_
 _atom_site_type_symbol
 _atom_site_label
 _atom_site_symmetry_multiplicity
 _atom_site_fract_x
 _atom_site_fract_y
 _atom_site_fract_z
 _atom_site_occupancy
  Tc  Tc0  1  0.260725  0.260725  0.739229  1
  Tc  Tc1  1  0.739275  0.739275  0.260771  1
  Pt  Pt2  1  0.000000  0.000000  0.000000  1
  Cl  Cl3  1  0.971813  0.245433  0.749565  1
  Cl  Cl4  1  0.245433  0.971813  0.749565  1
  Cl  Cl5  1  0.028187  0.754567  0.250435  1
  Cl  Cl6  1  0.754567  0.028187  0.250435  1
  Cl  Cl7  1  0.218859  0.508402  0.784599  1
  Cl  Cl8  1  0.508402  0.218859  0.784599  1
  Cl  Cl9  1  0.781141  0.491598  0.215401  1
  Cl  Cl10  1  0.491598  0.781141  0.215401  1
  Cl  Cl11  1  0.139678  0.139678  0.144247  1
  Cl  Cl12  1  0.860322  0.860322  0.855753  1
  Cl  Cl13  1  0.669211  0.669211  0.632016  1
  Cl  Cl14  1  0.330789  0.330789  0.367984  1
