# generated using pymatgen
data_Pa4Ir3RhPb2
_symmetry_space_group_name_H-M   'P 1'
_cell_length_a   7.83540724
_cell_length_b   7.83540724
_cell_length_c   3.59532300
_cell_angle_alpha   90.00000000
_cell_angle_beta   90.00000000
_cell_angle_gamma   89.83386179
_symmetry_Int_Tables_number   1
_chemical_formula_structural   Pa4Ir3RhPb2
_chemical_formula_sum   'Pa4 Ir3 Rh1 Pb2'
_cell_volume   220.72891769
_cell_formula_units_Z   1
loop_
 _symmetry_equiv_pos_site_id
 _symmetry_equiv_pos_as_xyz
  1  'x, y, z'
loop_
 _atom_site_type_symbol
 _atom_site_label
 _atom_site_symmetry_multiplicity
 _atom_site_fract_x
 _atom_site_fract_y
 _atom_site_fract_z
 _atom_site_occupancy
  Pa  Pa0  1  0.333131  0.170998  0.500001  1
  Pa  Pa1  1  0.830849  0.330850  0.500001  1
  Pa  Pa2  1  0.167243  0.667242  0.500001  1
  Pa  Pa3  1  0.670997  0.833130  0.500001  1
  Ir  Ir4  1  0.628318  0.128319  0.000000  1
  Ir  Ir5  1  0.131567  0.368951  0.000000  1
  Ir  Ir6  1  0.868952  0.631566  0.000000  1
  Rh  Rh7  1  0.365552  0.865553  0.000000  1
  Pb  Pb8  1  0.003454  0.999937  0.000000  1
  Pb  Pb9  1  0.499938  0.503455  0.000000  1
