# generated using pymatgen
data_Ta3CrRe2Si2Ge
_symmetry_space_group_name_H-M   'P 1'
_cell_length_a   6.84248576
_cell_length_b   6.84764143
_cell_length_c   3.32116700
_cell_angle_alpha   90.00000000
_cell_angle_beta   90.00000000
_cell_angle_gamma   120.29093618
_symmetry_Int_Tables_number   1
_chemical_formula_structural   Ta3CrRe2Si2Ge
_chemical_formula_sum   'Ta3 Cr1 Re2 Si2 Ge1'
_cell_volume   134.36791326
_cell_formula_units_Z   1
loop_
 _symmetry_equiv_pos_site_id
 _symmetry_equiv_pos_as_xyz
  1  'x, y, z'
loop_
 _atom_site_type_symbol
 _atom_site_label
 _atom_site_symmetry_multiplicity
 _atom_site_fract_x
 _atom_site_fract_y
 _atom_site_fract_z
 _atom_site_occupancy
  Ta  Ta0  1  0.404269  0.413332  0.500000  1
  Ta  Ta1  1  0.597238  0.985867  0.500000  1
  Ta  Ta2  1  0.004300  0.605306  0.500000  1
  Cr  Cr3  1  0.742739  0.748791  0.000000  1
  Re  Re4  1  0.251881  0.996344  0.000000  1
  Re  Re5  1  0.006539  0.256835  0.000000  1
  Si  Si6  1  0.336048  0.667787  0.000000  1
  Si  Si7  1  0.989086  0.989054  0.500000  1
  Ge  Ge8  1  0.667902  0.336685  0.000000  1
