# generated using pymatgen
data_Ho9LuHg3Bi2Au
_symmetry_space_group_name_H-M   'P 1'
_cell_length_a   8.73409175
_cell_length_b   8.73409220
_cell_length_c   8.75867338
_cell_angle_alpha   123.91872298
_cell_angle_beta   123.94057878
_cell_angle_gamma   83.13727773
_symmetry_Int_Tables_number   1
_chemical_formula_structural   Ho9LuHg3Bi2Au
_chemical_formula_sum   'Ho9 Lu1 Hg3 Bi2 Au1'
_cell_volume   441.71782250
_cell_formula_units_Z   1
loop_
 _symmetry_equiv_pos_site_id
 _symmetry_equiv_pos_as_xyz
  1  'x, y, z'
loop_
 _atom_site_type_symbol
 _atom_site_label
 _atom_site_symmetry_multiplicity
 _atom_site_fract_x
 _atom_site_fract_y
 _atom_site_fract_z
 _atom_site_occupancy
  Ho  Ho0  1  0.504269  0.501932  0.006201  1
  Ho  Ho1  1  0.002249  0.509338  0.800861  1
  Ho  Ho2  1  0.702077  0.207751  0.199149  1
  Ho  Ho3  1  0.515549  0.698414  0.500756  1
  Ho  Ho4  1  0.201019  0.007320  0.499415  1
  Ho  Ho5  1  0.991398  0.497072  0.199149  1
  Ho  Ho6  1  0.291523  0.798612  0.800861  1
  Ho  Ho7  1  0.492094  0.298396  0.499415  1
  Ho  Ho8  1  0.802342  0.985207  0.500756  1
  Lu  Lu9  1  0.997975  0.995542  0.993516  1
  Hg  Hg10  1  0.640811  0.140554  0.781364  1
  Hg  Hg11  1  0.358638  0.859900  0.218539  1
  Hg  Hg12  1  0.140003  0.359333  0.499336  1
  Bi  Bi13  1  0.749083  0.752005  0.999991  1
  Bi  Bi14  1  0.247986  0.250908  0.999991  1
  Au  Au15  1  0.862987  0.637714  0.500702  1
