# generated using pymatgen
data_TmLu(Al3Ir)3
_symmetry_space_group_name_H-M   'P 1'
_cell_length_a   7.52931356
_cell_length_b   7.53117036
_cell_length_c   9.41201700
_cell_angle_alpha   89.99963475
_cell_angle_beta   90.00063614
_cell_angle_gamma   119.52711536
_symmetry_Int_Tables_number   1
_chemical_formula_structural   TmLu(Al3Ir)3
_chemical_formula_sum   'Tm2 Lu2 Al18 Ir6'
_cell_volume   464.38799709
_cell_formula_units_Z   2
loop_
 _symmetry_equiv_pos_site_id
 _symmetry_equiv_pos_as_xyz
  1  'x, y, z'
loop_
 _atom_site_type_symbol
 _atom_site_label
 _atom_site_symmetry_multiplicity
 _atom_site_fract_x
 _atom_site_fract_y
 _atom_site_fract_z
 _atom_site_occupancy
  Tm  Tm0  1  0.994744  0.671488  0.249997  1
  Tm  Tm1  1  0.005256  0.328512  0.750003  1
  Lu  Lu2  1  0.671161  0.994835  0.250014  1
  Lu  Lu3  1  0.328839  0.005165  0.749986  1
  Al  Al4  1  0.129476  0.129606  0.250000  1
  Al  Al5  1  0.870524  0.870394  0.750000  1
  Al  Al6  1  0.000222  0.334781  0.075013  1
  Al  Al7  1  0.999778  0.665219  0.924987  1
  Al  Al8  1  0.999777  0.665218  0.575015  1
  Al  Al9  1  0.335462  0.000568  0.425463  1
  Al  Al10  1  0.000223  0.334782  0.424985  1
  Al  Al11  1  0.664538  0.999432  0.574537  1
  Al  Al12  1  0.664534  0.999432  0.925467  1
  Al  Al13  1  0.335466  0.000568  0.074533  1
  Al  Al14  1  0.333047  0.332701  0.552094  1
  Al  Al15  1  0.666953  0.667299  0.447906  1
  Al  Al16  1  0.666952  0.667300  0.052094  1
  Al  Al17  1  0.333048  0.332700  0.947906  1
  Al  Al18  1  0.340788  0.550113  0.250000  1
  Al  Al19  1  0.659212  0.449887  0.750000  1
  Al  Al20  1  0.549465  0.339720  0.250000  1
  Al  Al21  1  0.450535  0.660280  0.750000  1
  Ir  Ir22  1  0.672154  0.327645  0.999974  1
  Ir  Ir23  1  0.327846  0.672355  0.000026  1
  Ir  Ir24  1  0.327843  0.672355  0.499971  1
  Ir  Ir25  1  0.672157  0.327645  0.500029  1
  Ir  Ir26  1  0.000000  0.000000  0.000000  1
  Ir  Ir27  1  0.000000  0.000000  0.500000  1
