# generated using pymatgen
data_ZrI8
_symmetry_space_group_name_H-M   'P 1'
_cell_length_a   9.90794800
_cell_length_b   9.35086968
_cell_length_c   15.99895272
_cell_angle_alpha   44.31497311
_cell_angle_beta   90.00000000
_cell_angle_gamma   90.00000000
_symmetry_Int_Tables_number   1
_chemical_formula_structural   ZrI8
_chemical_formula_sum   'Zr2 I16'
_cell_volume   1035.51712406
_cell_formula_units_Z   2
loop_
 _symmetry_equiv_pos_site_id
 _symmetry_equiv_pos_as_xyz
  1  'x, y, z'
loop_
 _atom_site_type_symbol
 _atom_site_label
 _atom_site_symmetry_multiplicity
 _atom_site_fract_x
 _atom_site_fract_y
 _atom_site_fract_z
 _atom_site_occupancy
  Zr  Zr0  1  0.000000  0.000000  0.000000  1
  Zr  Zr1  1  0.500000  0.000000  0.500000  1
  I  I2  1  0.419720  0.714169  0.237759  1
  I  I3  1  0.919720  0.285831  0.262241  1
  I  I4  1  0.080280  0.714169  0.737759  1
  I  I5  1  0.580280  0.285831  0.762241  1
  I  I6  1  0.916671  0.363741  0.940710  1
  I  I7  1  0.435261  0.228705  0.263875  1
  I  I8  1  0.564739  0.771295  0.736125  1
  I  I9  1  0.275986  0.078833  0.027538  1
  I  I10  1  0.416671  0.636259  0.559290  1
  I  I11  1  0.224014  0.078833  0.527538  1
  I  I12  1  0.083329  0.636259  0.059290  1
  I  I13  1  0.775986  0.921167  0.472462  1
  I  I14  1  0.724014  0.921167  0.972462  1
  I  I15  1  0.935261  0.771295  0.236125  1
  I  I16  1  0.064739  0.228705  0.763875  1
  I  I17  1  0.583329  0.363741  0.440710  1
