# generated using pymatgen
data_DyEr2Zn(SiRh3)2
_symmetry_space_group_name_H-M   'P 1'
_cell_length_a   5.55234400
_cell_length_b   5.55234217
_cell_length_c   15.23459500
_cell_angle_alpha   90.00000000
_cell_angle_beta   90.00000000
_cell_angle_gamma   119.99998705
_symmetry_Int_Tables_number   1
_chemical_formula_structural   DyEr2Zn(SiRh3)2
_chemical_formula_sum   'Dy2 Er4 Zn2 Si4 Rh12'
_cell_volume   406.73747620
_cell_formula_units_Z   2
loop_
 _symmetry_equiv_pos_site_id
 _symmetry_equiv_pos_as_xyz
  1  'x, y, z'
loop_
 _atom_site_type_symbol
 _atom_site_label
 _atom_site_symmetry_multiplicity
 _atom_site_fract_x
 _atom_site_fract_y
 _atom_site_fract_z
 _atom_site_occupancy
  Dy  Dy0  1  0.333333  0.666667  0.750000  1
  Dy  Dy1  1  0.666667  0.333333  0.250000  1
  Er  Er2  1  0.333333  0.666667  0.536979  1
  Er  Er3  1  0.666667  0.333333  0.463021  1
  Er  Er4  1  0.666667  0.333333  0.036979  1
  Er  Er5  1  0.333333  0.666667  0.963021  1
  Zn  Zn6  1  0.000000  0.000000  0.000000  1
  Zn  Zn7  1  0.000000  0.000000  0.500000  1
  Si  Si8  1  0.000000  0.000000  0.250000  1
  Si  Si9  1  0.000000  0.000000  0.750000  1
  Si  Si10  1  0.333333  0.666667  0.250000  1
  Si  Si11  1  0.666667  0.333333  0.750000  1
  Rh  Rh12  1  0.167923  0.335846  0.133558  1
  Rh  Rh13  1  0.832077  0.664154  0.866442  1
  Rh  Rh14  1  0.664154  0.832077  0.133558  1
  Rh  Rh15  1  0.832077  0.664154  0.633558  1
  Rh  Rh16  1  0.335846  0.167923  0.866442  1
  Rh  Rh17  1  0.167923  0.335846  0.366442  1
  Rh  Rh18  1  0.167923  0.832077  0.133558  1
  Rh  Rh19  1  0.335846  0.167923  0.633558  1
  Rh  Rh20  1  0.832077  0.167923  0.866442  1
  Rh  Rh21  1  0.664154  0.832077  0.366442  1
  Rh  Rh22  1  0.832077  0.167923  0.633558  1
  Rh  Rh23  1  0.167923  0.832077  0.366442  1
