# generated using pymatgen
data_Sc8Ta2Ti7Ge16Mo3
_symmetry_space_group_name_H-M   'P 1'
_cell_length_a   6.79645139
_cell_length_b   6.93182881
_cell_length_c   13.17031715
_cell_angle_alpha   89.94799728
_cell_angle_beta   90.18291511
_cell_angle_gamma   90.01135454
_symmetry_Int_Tables_number   1
_chemical_formula_structural   Sc8Ta2Ti7Ge16Mo3
_chemical_formula_sum   'Sc8 Ta2 Ti7 Ge16 Mo3'
_cell_volume   620.47441259
_cell_formula_units_Z   1
loop_
 _symmetry_equiv_pos_site_id
 _symmetry_equiv_pos_as_xyz
  1  'x, y, z'
loop_
 _atom_site_type_symbol
 _atom_site_label
 _atom_site_symmetry_multiplicity
 _atom_site_fract_x
 _atom_site_fract_y
 _atom_site_fract_z
 _atom_site_occupancy
  Sc  Sc0  1  0.493926  0.678701  0.594517  1
  Sc  Sc1  1  0.993991  0.823353  0.905906  1
  Sc  Sc2  1  0.506787  0.322455  0.095246  1
  Sc  Sc3  1  0.006152  0.176905  0.404823  1
  Sc  Sc4  1  0.507438  0.321835  0.405684  1
  Sc  Sc5  1  0.006246  0.177184  0.095430  1
  Sc  Sc6  1  0.493812  0.677870  0.905922  1
  Sc  Sc7  1  0.991960  0.825622  0.594257  1
  Ta  Ta8  1  0.658666  0.169515  0.627124  1
  Ta  Ta9  1  0.833568  0.488275  0.749390  1
  Ti  Ti10  1  0.160059  0.329935  0.873816  1
  Ti  Ti11  1  0.338960  0.830585  0.127813  1
  Ti  Ti12  1  0.841633  0.668162  0.371878  1
  Ti  Ti13  1  0.339528  0.830202  0.371865  1
  Ti  Ti14  1  0.839888  0.668551  0.127433  1
  Ti  Ti15  1  0.660064  0.167589  0.873398  1
  Ti  Ti16  1  0.160942  0.328770  0.626349  1
  Ge  Ge17  1  0.680286  0.959267  0.457246  1
  Ge  Ge18  1  0.179525  0.537506  0.041480  1
  Ge  Ge19  1  0.321572  0.038088  0.959266  1
  Ge  Ge20  1  0.821417  0.466717  0.538730  1
  Ge  Ge21  1  0.318480  0.036732  0.539366  1
  Ge  Ge22  1  0.820411  0.462362  0.960170  1
  Ge  Ge23  1  0.679489  0.961549  0.041415  1
  Ge  Ge24  1  0.180728  0.536660  0.458482  1
  Ge  Ge25  1  0.456598  0.385003  0.752411  1
  Ge  Ge26  1  0.965677  0.115337  0.751525  1
  Ge  Ge27  1  0.538430  0.616391  0.249912  1
  Ge  Ge28  1  0.037066  0.884295  0.249673  1
  Ge  Ge29  1  0.693727  0.852389  0.751071  1
  Ge  Ge30  1  0.194006  0.649289  0.749573  1
  Ge  Ge31  1  0.306222  0.147471  0.249998  1
  Ge  Ge32  1  0.806374  0.352620  0.249972  1
  Mo  Mo33  1  0.336824  0.011479  0.749562  1
  Mo  Mo34  1  0.165079  0.512224  0.249804  1
  Mo  Mo35  1  0.664466  0.989116  0.249493  1
