# generated using pymatgen
data_PdRu3Pb4O13
_symmetry_space_group_name_H-M   'P 1'
_cell_length_a   7.36941063
_cell_length_b   7.32440477
_cell_length_c   7.36941100
_cell_angle_alpha   59.79653063
_cell_angle_beta   60.00000283
_cell_angle_gamma   59.79652706
_symmetry_Int_Tables_number   1
_chemical_formula_structural   PdRu3Pb4O13
_chemical_formula_sum   'Pd1 Ru3 Pb4 O13'
_cell_volume   280.40151531
_cell_formula_units_Z   1
loop_
 _symmetry_equiv_pos_site_id
 _symmetry_equiv_pos_as_xyz
  1  'x, y, z'
loop_
 _atom_site_type_symbol
 _atom_site_label
 _atom_site_symmetry_multiplicity
 _atom_site_fract_x
 _atom_site_fract_y
 _atom_site_fract_z
 _atom_site_occupancy
  Pd  Pd0  1  0.873752  0.378744  0.873752  1
  Ru  Ru1  1  0.873300  0.878927  0.374472  1
  Ru  Ru2  1  0.873300  0.878927  0.873300  1
  Ru  Ru3  1  0.374472  0.878927  0.873300  1
  Pb  Pb4  1  0.879364  0.376793  0.371921  1
  Pb  Pb5  1  0.371921  0.376793  0.371921  1
  Pb  Pb6  1  0.371921  0.376793  0.879364  1
  Pb  Pb7  1  0.373166  0.880503  0.373166  1
  O  O8  1  0.200342  0.804681  0.794635  1
  O  O9  1  0.200342  0.804681  0.200342  1
  O  O10  1  0.557746  0.933773  0.950735  1
  O  O11  1  0.557746  0.933773  0.557746  1
  O  O12  1  0.950735  0.933773  0.557746  1
  O  O13  1  0.794635  0.804681  0.200342  1
  O  O14  1  0.538239  0.553661  0.954050  1
  O  O15  1  0.795098  0.199365  0.795098  1
  O  O16  1  0.795098  0.199365  0.210438  1
  O  O17  1  0.954050  0.553661  0.954050  1
  O  O18  1  0.954050  0.553661  0.538239  1
  O  O19  1  0.210438  0.199365  0.795098  1
  O  O20  1  0.500284  0.499148  0.500284  1
