# generated using pymatgen
data_Er8In2PdRh
_symmetry_space_group_name_H-M   'P 1'
_cell_length_a   9.61400290
_cell_length_b   9.60989811
_cell_length_c   9.60989749
_cell_angle_alpha   59.96841525
_cell_angle_beta   59.98587346
_cell_angle_gamma   59.98587101
_symmetry_Int_Tables_number   1
_chemical_formula_structural   Er8In2PdRh
_chemical_formula_sum   'Er16 In4 Pd2 Rh2'
_cell_volume   627.52392225
_cell_formula_units_Z   2
loop_
 _symmetry_equiv_pos_site_id
 _symmetry_equiv_pos_as_xyz
  1  'x, y, z'
loop_
 _atom_site_type_symbol
 _atom_site_label
 _atom_site_symmetry_multiplicity
 _atom_site_fract_x
 _atom_site_fract_y
 _atom_site_fract_z
 _atom_site_occupancy
  Er  Er0  1  0.193151  0.185320  0.810583  1
  Er  Er1  1  0.438252  0.061748  0.061748  1
  Er  Er2  1  0.436202  0.063154  0.438600  1
  Er  Er3  1  0.062044  0.438600  0.063154  1
  Er  Er4  1  0.647820  0.051703  0.652657  1
  Er  Er5  1  0.188649  0.811351  0.811351  1
  Er  Er6  1  0.062044  0.063154  0.438600  1
  Er  Er7  1  0.810089  0.189911  0.189911  1
  Er  Er8  1  0.810946  0.810583  0.185320  1
  Er  Er9  1  0.647820  0.652657  0.051703  1
  Er  Er10  1  0.644878  0.650650  0.650650  1
  Er  Er11  1  0.063286  0.436714  0.436714  1
  Er  Er12  1  0.053822  0.650650  0.650650  1
  Er  Er13  1  0.810946  0.185320  0.810583  1
  Er  Er14  1  0.436202  0.438600  0.063154  1
  Er  Er15  1  0.193151  0.810583  0.185320  1
  In  In16  1  0.416707  0.749693  0.416892  1
  In  In17  1  0.416707  0.416892  0.749693  1
  In  In18  1  0.750567  0.416491  0.416491  1
  In  In19  1  0.416452  0.416491  0.416491  1
  Pd  Pd20  1  0.856894  0.429863  0.856349  1
  Pd  Pd21  1  0.856894  0.856349  0.429863  1
  Rh  Rh22  1  0.429436  0.856762  0.856762  1
  Rh  Rh23  1  0.857040  0.856762  0.856762  1
