# generated using pymatgen
data_TlPtF5
_symmetry_space_group_name_H-M   'P 1'
_cell_length_a   5.72122000
_cell_length_b   8.06102000
_cell_length_c   10.65868000
_cell_angle_alpha   90.00000000
_cell_angle_beta   90.00000000
_cell_angle_gamma   90.00000000
_symmetry_Int_Tables_number   1
_chemical_formula_structural   TlPtF5
_chemical_formula_sum   'Tl4 Pt4 F20'
_cell_volume   491.56626497
_cell_formula_units_Z   4
loop_
 _symmetry_equiv_pos_site_id
 _symmetry_equiv_pos_as_xyz
  1  'x, y, z'
loop_
 _atom_site_type_symbol
 _atom_site_label
 _atom_site_symmetry_multiplicity
 _atom_site_fract_x
 _atom_site_fract_y
 _atom_site_fract_z
 _atom_site_occupancy
  Tl  Tl0  1  0.500000  0.892455  0.959069  1
  Tl  Tl1  1  0.500000  0.107545  0.459069  1
  Tl  Tl2  1  0.000000  0.331091  0.125598  1
  Tl  Tl3  1  0.000000  0.668909  0.625598  1
  Pt  Pt4  1  0.000000  0.849516  0.236402  1
  Pt  Pt5  1  0.500000  0.577721  0.338296  1
  Pt  Pt6  1  0.500000  0.422279  0.838296  1
  Pt  Pt7  1  0.000000  0.150484  0.736402  1
  F  F8  1  0.260367  0.523308  0.940679  1
  F  F9  1  0.749423  0.670413  0.218947  1
  F  F10  1  0.238735  0.020333  0.240206  1
  F  F11  1  0.749423  0.329587  0.718947  1
  F  F12  1  0.500000  0.225631  0.947647  1
  F  F13  1  0.761265  0.979667  0.740206  1
  F  F14  1  0.500000  0.622927  0.732314  1
  F  F15  1  0.238735  0.979667  0.740206  1
  F  F16  1  0.000000  0.859187  0.052331  1
  F  F17  1  0.761265  0.020333  0.240206  1
  F  F18  1  0.500000  0.377073  0.232314  1
  F  F19  1  0.739633  0.476692  0.440679  1
  F  F20  1  0.250577  0.670413  0.218947  1
  F  F21  1  0.000000  0.839173  0.420186  1
  F  F22  1  0.000000  0.140813  0.552331  1
  F  F23  1  0.250577  0.329587  0.718947  1
  F  F24  1  0.000000  0.160827  0.920186  1
  F  F25  1  0.260367  0.476692  0.440679  1
  F  F26  1  0.500000  0.774369  0.447647  1
  F  F27  1  0.739633  0.523308  0.940679  1
