# generated using pymatgen
data_V12CrCo3(Si2C)4
_symmetry_space_group_name_H-M   'P 1'
_cell_length_a   7.66159360
_cell_length_b   7.65157515
_cell_length_c   7.65157400
_cell_angle_alpha   59.99999632
_cell_angle_beta   60.04324261
_cell_angle_gamma   60.04324278
_symmetry_Int_Tables_number   1
_chemical_formula_structural   V12CrCo3(Si2C)4
_chemical_formula_sum   'V12 Cr1 Co3 Si8 C4'
_cell_volume   317.38710928
_cell_formula_units_Z   1
loop_
 _symmetry_equiv_pos_site_id
 _symmetry_equiv_pos_as_xyz
  1  'x, y, z'
loop_
 _atom_site_type_symbol
 _atom_site_label
 _atom_site_symmetry_multiplicity
 _atom_site_fract_x
 _atom_site_fract_y
 _atom_site_fract_z
 _atom_site_occupancy
  V  V0  1  0.812336  0.811713  0.187975  1
  V  V1  1  0.183838  0.195816  0.810173  1
  V  V2  1  0.812336  0.187975  0.811713  1
  V  V3  1  0.183838  0.810173  0.195816  1
  V  V4  1  0.183838  0.810173  0.810173  1
  V  V5  1  0.812336  0.187975  0.187975  1
  V  V6  1  0.437664  0.438287  0.062025  1
  V  V7  1  0.066162  0.054184  0.439827  1
  V  V8  1  0.437664  0.062025  0.438287  1
  V  V9  1  0.066162  0.439827  0.054184  1
  V  V10  1  0.066162  0.439827  0.439827  1
  V  V11  1  0.437664  0.062025  0.062025  1
  Cr  Cr12  1  0.125000  0.625000  0.625000  1
  Co  Co13  1  0.625000  0.125000  0.625000  1
  Co  Co14  1  0.625000  0.625000  0.125000  1
  Co  Co15  1  0.625000  0.625000  0.625000  1
  Si  Si16  1  0.765088  0.411638  0.411638  1
  Si  Si17  1  0.419091  0.759379  0.410766  1
  Si  Si18  1  0.419091  0.410766  0.759379  1
  Si  Si19  1  0.419091  0.410766  0.410766  1
  Si  Si20  1  0.484912  0.838362  0.838362  1
  Si  Si21  1  0.830909  0.490621  0.839234  1
  Si  Si22  1  0.830909  0.839234  0.490621  1
  Si  Si23  1  0.830909  0.839234  0.839234  1
  C  C24  1  0.625000  0.125000  0.125000  1
  C  C25  1  0.125000  0.625000  0.125000  1
  C  C26  1  0.125000  0.125000  0.625000  1
  C  C27  1  0.125000  0.125000  0.125000  1
