# generated using pymatgen
data_Dy4Y2Al24Co3Os5
_symmetry_space_group_name_H-M   'P 1'
_cell_length_a   8.74204527
_cell_length_b   8.77647952
_cell_length_c   9.47193300
_cell_angle_alpha   89.99891554
_cell_angle_beta   89.72615513
_cell_angle_gamma   120.12834068
_symmetry_Int_Tables_number   1
_chemical_formula_structural   Dy4Y2Al24Co3Os5
_chemical_formula_sum   'Dy4 Y2 Al24 Co3 Os5'
_cell_volume   628.53994526
_cell_formula_units_Z   1
loop_
 _symmetry_equiv_pos_site_id
 _symmetry_equiv_pos_as_xyz
  1  'x, y, z'
loop_
 _atom_site_type_symbol
 _atom_site_label
 _atom_site_symmetry_multiplicity
 _atom_site_fract_x
 _atom_site_fract_y
 _atom_site_fract_z
 _atom_site_occupancy
  Dy  Dy0  1  0.610719  0.805365  0.247990  1
  Dy  Dy1  1  0.389281  0.194635  0.752010  1
  Dy  Dy2  1  0.196379  0.808532  0.250343  1
  Dy  Dy3  1  0.803621  0.191468  0.749657  1
  Y  Y4  1  0.196365  0.387864  0.250330  1
  Y  Y5  1  0.803635  0.612136  0.749670  1
  Al  Al6  1  0.326914  0.663458  0.015723  1
  Al  Al7  1  0.673086  0.336542  0.984277  1
  Al  Al8  1  0.666612  0.333304  0.515080  1
  Al  Al9  1  0.333388  0.666696  0.484920  1
  Al  Al10  1  0.159179  0.319374  0.576130  1
  Al  Al11  1  0.840821  0.680626  0.423870  1
  Al  Al12  1  0.680800  0.840406  0.574939  1
  Al  Al13  1  0.841489  0.679328  0.074869  1
  Al  Al14  1  0.319200  0.159594  0.425061  1
  Al  Al15  1  0.158511  0.320672  0.925131  1
  Al  Al16  1  0.159184  0.839810  0.576108  1
  Al  Al17  1  0.321237  0.160612  0.075052  1
  Al  Al18  1  0.840816  0.160190  0.423892  1
  Al  Al19  1  0.678763  0.839388  0.924948  1
  Al  Al20  1  0.841479  0.162153  0.074846  1
  Al  Al21  1  0.158521  0.837847  0.925154  1
  Al  Al22  1  0.563211  0.124468  0.249004  1
  Al  Al23  1  0.436789  0.875532  0.750996  1
  Al  Al24  1  0.881651  0.440838  0.244257  1
  Al  Al25  1  0.118349  0.559162  0.755743  1
  Al  Al26  1  0.563225  0.438749  0.249004  1
  Al  Al27  1  0.436775  0.561251  0.750996  1
  Al  Al28  1  0.000768  0.000348  0.250189  1
  Al  Al29  1  0.999232  0.999652  0.749811  1
  Co  Co30  1  0.000000  0.500000  0.000000  1
  Co  Co31  1  0.000000  0.000000  0.000000  1
  Co  Co32  1  0.000000  0.000000  0.500000  1
  Os  Os33  1  0.500000  0.000000  0.000000  1
  Os  Os34  1  0.500000  0.000000  0.500000  1
  Os  Os35  1  0.500000  0.500000  0.000000  1
  Os  Os36  1  0.000000  0.500000  0.500000  1
  Os  Os37  1  0.500000  0.500000  0.500000  1
