# generated using pymatgen
data_LiPr3Tl2InPd2
_symmetry_space_group_name_H-M   'P 1'
_cell_length_a   7.93835853
_cell_length_b   7.90485554
_cell_length_c   4.06134800
_cell_angle_alpha   90.00000000
_cell_angle_beta   90.00000000
_cell_angle_gamma   119.86050145
_symmetry_Int_Tables_number   1
_chemical_formula_structural   LiPr3Tl2InPd2
_chemical_formula_sum   'Li1 Pr3 Tl2 In1 Pd2'
_cell_volume   221.02136023
_cell_formula_units_Z   1
loop_
 _symmetry_equiv_pos_site_id
 _symmetry_equiv_pos_as_xyz
  1  'x, y, z'
loop_
 _atom_site_type_symbol
 _atom_site_label
 _atom_site_symmetry_multiplicity
 _atom_site_fract_x
 _atom_site_fract_y
 _atom_site_fract_z
 _atom_site_occupancy
  Li  Li0  1  0.000000  0.000280  0.500000  1
  Pr  Pr1  1  0.417473  0.418476  0.500000  1
  Pr  Pr2  1  0.582527  0.001003  0.500000  1
  Pr  Pr3  1  0.000000  0.580874  0.500000  1
  Tl  Tl4  1  0.751045  0.753544  0.000000  1
  Tl  Tl5  1  0.248955  0.002499  0.000000  1
  In  In6  1  0.000000  0.249896  0.000000  1
  Pd  Pd7  1  0.670942  0.332184  0.000000  1
  Pd  Pd8  1  0.329058  0.661243  0.000000  1
