# generated using pymatgen
data_Th3Al2ZnPt3
_symmetry_space_group_name_H-M   'P 1'
_cell_length_a   7.29835467
_cell_length_b   7.29835485
_cell_length_c   4.16870000
_cell_angle_alpha   90.00000000
_cell_angle_beta   90.00000000
_cell_angle_gamma   119.22093536
_symmetry_Int_Tables_number   1
_chemical_formula_structural   Th3Al2ZnPt3
_chemical_formula_sum   'Th3 Al2 Zn1 Pt3'
_cell_volume   193.79266438
_cell_formula_units_Z   1
loop_
 _symmetry_equiv_pos_site_id
 _symmetry_equiv_pos_as_xyz
  1  'x, y, z'
loop_
 _atom_site_type_symbol
 _atom_site_label
 _atom_site_symmetry_multiplicity
 _atom_site_fract_x
 _atom_site_fract_y
 _atom_site_fract_z
 _atom_site_occupancy
  Th  Th0  1  0.422194  0.422194  0.500000  1
  Th  Th1  1  0.584170  0.996591  0.500000  1
  Th  Th2  1  0.996591  0.584170  0.500000  1
  Al  Al3  1  0.231759  0.000116  0.000000  1
  Al  Al4  1  0.000116  0.231759  0.000000  1
  Zn  Zn5  1  0.761461  0.761461  0.000000  1
  Pt  Pt6  1  0.665689  0.322730  0.000000  1
  Pt  Pt7  1  0.322730  0.665689  0.000000  1
  Pt  Pt8  1  0.015290  0.015290  0.500000  1
