# generated using pymatgen
data_Y2Ho3Fe2Co17P12
_symmetry_space_group_name_H-M   'P 1'
_cell_length_a   12.01688913
_cell_length_b   12.00217978
_cell_length_c   3.67831800
_cell_angle_alpha   90.00000000
_cell_angle_beta   90.00000000
_cell_angle_gamma   119.96302265
_symmetry_Int_Tables_number   1
_chemical_formula_structural   Y2Ho3Fe2Co17P12
_chemical_formula_sum   'Y2 Ho3 Fe2 Co17 P12'
_cell_volume   459.61456948
_cell_formula_units_Z   1
loop_
 _symmetry_equiv_pos_site_id
 _symmetry_equiv_pos_as_xyz
  1  'x, y, z'
loop_
 _atom_site_type_symbol
 _atom_site_label
 _atom_site_symmetry_multiplicity
 _atom_site_fract_x
 _atom_site_fract_y
 _atom_site_fract_z
 _atom_site_occupancy
  Y  Y0  1  0.665991  0.332919  0.000000  1
  Y  Y1  1  0.812056  0.812253  0.500000  1
  Ho  Ho2  1  0.333974  0.666728  0.000000  1
  Ho  Ho3  1  0.188195  0.000549  0.500000  1
  Ho  Ho4  1  0.999956  0.187799  0.500000  1
  Fe  Fe5  1  0.445685  0.446131  0.000000  1
  Fe  Fe6  1  0.553680  0.000130  0.000000  1
  Co  Co7  1  0.874908  0.358597  0.500000  1
  Co  Co8  1  0.642373  0.517043  0.500000  1
  Co  Co9  1  0.483220  0.125704  0.500000  1
  Co  Co10  1  0.357577  0.874157  0.500000  1
  Co  Co11  1  0.515627  0.642098  0.500000  1
  Co  Co12  1  0.125793  0.484277  0.500000  1
  Co  Co13  1  0.000553  0.552944  0.000000  1
  Co  Co14  1  0.800516  0.178365  0.000000  1
  Co  Co15  1  0.823292  0.622232  0.000000  1
  Co  Co16  1  0.376748  0.199267  0.000000  1
  Co  Co17  1  0.177795  0.799663  0.000000  1
  Co  Co18  1  0.622228  0.822149  0.000000  1
  Co  Co19  1  0.199354  0.377987  0.000000  1
  Co  Co20  1  0.283187  0.283769  0.500000  1
  Co  Co21  1  0.716257  0.000165  0.500000  1
  Co  Co22  1  0.000762  0.715208  0.500000  1
  Co  Co23  1  0.000382  0.999772  0.000000  1
  P  P24  1  0.684747  0.164543  0.500000  1
  P  P25  1  0.834287  0.520371  0.500000  1
  P  P26  1  0.479037  0.314992  0.500000  1
  P  P27  1  0.166785  0.686252  0.500000  1
  P  P28  1  0.520116  0.835163  0.500000  1
  P  P29  1  0.314797  0.480046  0.500000  1
  P  P30  1  0.180339  0.180684  0.000000  1
  P  P31  1  0.819588  0.000535  0.000000  1
  P  P32  1  0.000925  0.819339  0.000000  1
  P  P33  1  0.630395  0.630433  0.000000  1
  P  P34  1  0.368884  0.999960  0.000000  1
  P  P35  1  0.999992  0.367776  0.000000  1
