# generated using pymatgen
data_Ho4CrMoOs6
_symmetry_space_group_name_H-M   'P 1'
_cell_length_a   5.20644020
_cell_length_b   5.20643925
_cell_length_c   8.88551800
_cell_angle_alpha   90.00000000
_cell_angle_beta   90.00000000
_cell_angle_gamma   116.29650658
_symmetry_Int_Tables_number   1
_chemical_formula_structural   Ho4CrMoOs6
_chemical_formula_sum   'Ho4 Cr1 Mo1 Os6'
_cell_volume   215.93410830
_cell_formula_units_Z   1
loop_
 _symmetry_equiv_pos_site_id
 _symmetry_equiv_pos_as_xyz
  1  'x, y, z'
loop_
 _atom_site_type_symbol
 _atom_site_label
 _atom_site_symmetry_multiplicity
 _atom_site_fract_x
 _atom_site_fract_y
 _atom_site_fract_z
 _atom_site_occupancy
  Ho  Ho0  1  0.328950  0.671050  0.436776  1
  Ho  Ho1  1  0.667518  0.332482  0.566448  1
  Ho  Ho2  1  0.667518  0.332482  0.933552  1
  Ho  Ho3  1  0.328950  0.671050  0.063224  1
  Cr  Cr4  1  0.173597  0.826403  0.750000  1
  Mo  Mo5  1  0.836016  0.163984  0.250000  1
  Os  Os6  1  0.000346  0.999654  0.506815  1
  Os  Os7  1  0.000346  0.999654  0.993185  1
  Os  Os8  1  0.826542  0.653326  0.250000  1
  Os  Os9  1  0.346674  0.173458  0.250000  1
  Os  Os10  1  0.171771  0.348231  0.750000  1
  Os  Os11  1  0.651769  0.828229  0.750000  1
