# generated using pymatgen
data_Zr4CuSe
_symmetry_space_group_name_H-M   'P 1'
_cell_length_a   5.38572137
_cell_length_b   5.38572235
_cell_length_c   5.38572218
_cell_angle_alpha   104.76720936
_cell_angle_beta   104.76721131
_cell_angle_gamma   119.35471887
_symmetry_Int_Tables_number   1
_chemical_formula_structural   Zr4CuSe
_chemical_formula_sum   'Zr4 Cu1 Se1'
_cell_volume   117.53284949
_cell_formula_units_Z   1
loop_
 _symmetry_equiv_pos_site_id
 _symmetry_equiv_pos_as_xyz
  1  'x, y, z'
loop_
 _atom_site_type_symbol
 _atom_site_label
 _atom_site_symmetry_multiplicity
 _atom_site_fract_x
 _atom_site_fract_y
 _atom_site_fract_z
 _atom_site_occupancy
  Zr  Zr0  1  0.405267  0.905267  0.810534  1
  Zr  Zr1  1  0.094733  0.594733  0.189466  1
  Zr  Zr2  1  0.594733  0.405267  0.500000  1
  Zr  Zr3  1  0.905267  0.094733  0.500000  1
  Cu  Cu4  1  0.500000  0.500000  0.000000  1
  Se  Se5  1  0.000000  0.000000  0.000000  1
