# generated using pymatgen
data_Ti6SiAsO2
_symmetry_space_group_name_H-M   'P 1'
_cell_length_a   5.41785300
_cell_length_b   5.41785282
_cell_length_c   7.98033100
_cell_angle_alpha   90.00000000
_cell_angle_beta   90.00000000
_cell_angle_gamma   145.27492168
_symmetry_Int_Tables_number   1
_chemical_formula_structural   Ti6SiAsO2
_chemical_formula_sum   'Ti6 Si1 As1 O2'
_cell_volume   133.43669758
_cell_formula_units_Z   1
loop_
 _symmetry_equiv_pos_site_id
 _symmetry_equiv_pos_as_xyz
  1  'x, y, z'
loop_
 _atom_site_type_symbol
 _atom_site_label
 _atom_site_symmetry_multiplicity
 _atom_site_fract_x
 _atom_site_fract_y
 _atom_site_fract_z
 _atom_site_occupancy
  Ti  Ti0  1  0.638220  0.361780  0.950736  1
  Ti  Ti1  1  0.362311  0.637689  0.445688  1
  Ti  Ti2  1  0.362311  0.637689  0.054312  1
  Ti  Ti3  1  0.638220  0.361780  0.549264  1
  Ti  Ti4  1  0.948232  0.051768  0.750000  1
  Ti  Ti5  1  0.052059  0.947941  0.250000  1
  Si  Si6  1  0.743020  0.256980  0.250000  1
  As  As7  1  0.255018  0.744982  0.750000  1
  O  O8  1  0.000306  0.999694  0.999340  1
  O  O9  1  0.000306  0.999694  0.500660  1
