# generated using pymatgen
data_Th5Tc2Hg
_symmetry_space_group_name_H-M   'P 1'
_cell_length_a   7.95273265
_cell_length_b   7.95355585
_cell_length_c   8.87910764
_cell_angle_alpha   116.60778358
_cell_angle_beta   116.60479258
_cell_angle_gamma   90.00001990
_symmetry_Int_Tables_number   1
_chemical_formula_structural   Th5Tc2Hg
_chemical_formula_sum   'Th10 Tc4 Hg2'
_cell_volume   434.61551660
_cell_formula_units_Z   2
loop_
 _symmetry_equiv_pos_site_id
 _symmetry_equiv_pos_as_xyz
  1  'x, y, z'
loop_
 _atom_site_type_symbol
 _atom_site_label
 _atom_site_symmetry_multiplicity
 _atom_site_fract_x
 _atom_site_fract_y
 _atom_site_fract_z
 _atom_site_occupancy
  Th  Th0  1  0.500000  0.500000  0.000000  1
  Th  Th1  1  0.000000  0.000000  0.000000  1
  Th  Th2  1  0.977866  0.793091  0.271015  1
  Th  Th3  1  0.293079  0.477609  0.270884  1
  Th  Th4  1  0.793150  0.293091  0.271015  1
  Th  Th5  1  0.477804  0.977609  0.270884  1
  Th  Th6  1  0.022134  0.206909  0.728985  1
  Th  Th7  1  0.706921  0.522391  0.729116  1
  Th  Th8  1  0.206850  0.706909  0.728985  1
  Th  Th9  1  0.522196  0.022391  0.729116  1
  Tc  Tc10  1  0.640270  0.859887  0.000123  1
  Tc  Tc11  1  0.359730  0.140113  0.999877  1
  Tc  Tc12  1  0.859854  0.359887  0.000123  1
  Tc  Tc13  1  0.140146  0.640113  0.999877  1
  Hg  Hg14  1  0.749961  0.750000  0.500000  1
  Hg  Hg15  1  0.250039  0.250000  0.500000  1
