# generated using pymatgen
data_Rb3Ho(BiSe3)2
_symmetry_space_group_name_H-M   'P 1'
_cell_length_a   7.46768968
_cell_length_b   7.46769143
_cell_length_c   8.36223500
_cell_angle_alpha   81.44177459
_cell_angle_beta   81.44177257
_cell_angle_gamma   120.01344529
_symmetry_Int_Tables_number   1
_chemical_formula_structural   Rb3Ho(BiSe3)2
_chemical_formula_sum   'Rb3 Ho1 Bi2 Se6'
_cell_volume   385.49324417
_cell_formula_units_Z   1
loop_
 _symmetry_equiv_pos_site_id
 _symmetry_equiv_pos_as_xyz
  1  'x, y, z'
loop_
 _atom_site_type_symbol
 _atom_site_label
 _atom_site_symmetry_multiplicity
 _atom_site_fract_x
 _atom_site_fract_y
 _atom_site_fract_z
 _atom_site_occupancy
  Rb  Rb0  1  0.668429  0.331571  0.500000  1
  Rb  Rb1  1  0.331571  0.668429  0.500000  1
  Rb  Rb2  1  0.000000  0.000000  0.500000  1
  Ho  Ho3  1  0.500000  0.500000  0.000000  1
  Bi  Bi4  1  0.833372  0.166628  0.000000  1
  Bi  Bi5  1  0.166628  0.833372  0.000000  1
  Se  Se6  1  0.758100  0.758100  0.199572  1
  Se  Se7  1  0.241900  0.241900  0.800428  1
  Se  Se8  1  0.433306  0.108990  0.199731  1
  Se  Se9  1  0.566694  0.891010  0.800269  1
  Se  Se10  1  0.891010  0.566694  0.800269  1
  Se  Se11  1  0.108990  0.433306  0.199731  1
