# generated using pymatgen
data_La4TbDy(RuI3)2
_symmetry_space_group_name_H-M   'P 1'
_cell_length_a   4.36952000
_cell_length_b   9.52378050
_cell_length_c   12.53144800
_cell_angle_alpha   86.86283627
_cell_angle_beta   90.00000000
_cell_angle_gamma   90.00000000
_symmetry_Int_Tables_number   1
_chemical_formula_structural   La4TbDy(RuI3)2
_chemical_formula_sum   'La4 Tb1 Dy1 Ru2 I6'
_cell_volume   520.70654429
_cell_formula_units_Z   1
loop_
 _symmetry_equiv_pos_site_id
 _symmetry_equiv_pos_as_xyz
  1  'x, y, z'
loop_
 _atom_site_type_symbol
 _atom_site_label
 _atom_site_symmetry_multiplicity
 _atom_site_fract_x
 _atom_site_fract_y
 _atom_site_fract_z
 _atom_site_occupancy
  La  La0  1  0.750000  0.687216  0.115369  1
  La  La1  1  0.250000  0.313604  0.884304  1
  La  La2  1  0.250000  0.887739  0.327627  1
  La  La3  1  0.750000  0.111867  0.672403  1
  Tb  Tb4  1  0.250000  0.914437  0.899340  1
  Dy  Dy5  1  0.750000  0.085390  0.100517  1
  Ru  Ru6  1  0.250000  0.889576  0.125832  1
  Ru  Ru7  1  0.750000  0.111467  0.874308  1
  I  I8  1  0.250000  0.862536  0.624980  1
  I  I9  1  0.750000  0.136391  0.375905  1
  I  I10  1  0.750000  0.635120  0.376797  1
  I  I11  1  0.250000  0.364149  0.622748  1
  I  I12  1  0.250000  0.389382  0.137671  1
  I  I13  1  0.750000  0.611125  0.862199  1
