# generated using pymatgen
data_Lu2Cr3Co9As7
_symmetry_space_group_name_H-M   'P 1'
_cell_length_a   9.39520339
_cell_length_b   9.39384439
_cell_length_c   3.71776500
_cell_angle_alpha   90.00000000
_cell_angle_beta   90.00000000
_cell_angle_gamma   119.97382132
_symmetry_Int_Tables_number   1
_chemical_formula_structural   Lu2Cr3Co9As7
_chemical_formula_sum   'Lu2 Cr3 Co9 As7'
_cell_volume   284.23438672
_cell_formula_units_Z   1
loop_
 _symmetry_equiv_pos_site_id
 _symmetry_equiv_pos_as_xyz
  1  'x, y, z'
loop_
 _atom_site_type_symbol
 _atom_site_label
 _atom_site_symmetry_multiplicity
 _atom_site_fract_x
 _atom_site_fract_y
 _atom_site_fract_z
 _atom_site_occupancy
  Lu  Lu0  1  0.666455  0.333076  0.000000  1
  Lu  Lu1  1  0.000200  0.000087  0.500000  1
  Cr  Cr2  1  0.557522  0.772134  0.500000  1
  Cr  Cr3  1  0.227661  0.785133  0.500000  1
  Cr  Cr4  1  0.214479  0.442590  0.500000  1
  Co  Co5  1  0.765338  0.727603  0.000000  1
  Co  Co6  1  0.272173  0.037792  0.000000  1
  Co  Co7  1  0.962321  0.234629  0.000000  1
  Co  Co8  1  0.492626  0.947762  0.000000  1
  Co  Co9  1  0.052446  0.544679  0.000000  1
  Co  Co10  1  0.455194  0.507643  0.000000  1
  Co  Co11  1  0.716892  0.102816  0.500000  1
  Co  Co12  1  0.897356  0.614091  0.500000  1
  Co  Co13  1  0.386062  0.283239  0.500000  1
  As  As14  1  0.453276  0.077993  0.500000  1
  As  As15  1  0.921676  0.375239  0.500000  1
  As  As16  1  0.624758  0.546419  0.500000  1
  As  As17  1  0.747971  0.964991  0.000000  1
  As  As18  1  0.035073  0.783034  0.000000  1
  As  As19  1  0.217137  0.252231  0.000000  1
  As  As20  1  0.333383  0.666819  0.000000  1
