# generated using pymatgen
data_HoTh5PtCl15
_symmetry_space_group_name_H-M   'P 1'
_cell_length_a   9.81441846
_cell_length_b   9.81448176
_cell_length_c   9.81448258
_cell_angle_alpha   110.20041300
_cell_angle_beta   109.10786755
_cell_angle_gamma   109.10786881
_symmetry_Int_Tables_number   1
_chemical_formula_structural   HoTh5PtCl15
_chemical_formula_sum   'Ho1 Th5 Pt1 Cl15'
_cell_volume   727.65334505
_cell_formula_units_Z   1
loop_
 _symmetry_equiv_pos_site_id
 _symmetry_equiv_pos_as_xyz
  1  'x, y, z'
loop_
 _atom_site_type_symbol
 _atom_site_label
 _atom_site_symmetry_multiplicity
 _atom_site_fract_x
 _atom_site_fract_y
 _atom_site_fract_z
 _atom_site_occupancy
  Ho  Ho0  1  0.999985  0.248270  0.248270  1
  Th  Th1  1  0.999999  0.743314  0.743314  1
  Th  Th2  1  0.248692  0.004591  0.253286  1
  Th  Th3  1  0.751312  0.004599  0.755893  1
  Th  Th4  1  0.248692  0.253286  0.004591  1
  Th  Th5  1  0.751312  0.755893  0.004599  1
  Pt  Pt6  1  0.999998  0.995648  0.995648  1
  Cl  Cl7  1  0.491172  0.245815  0.245815  1
  Cl  Cl8  1  0.508834  0.754644  0.754644  1
  Cl  Cl9  1  0.000000  0.245811  0.754648  1
  Cl  Cl10  1  0.000000  0.754648  0.245811  1
  Cl  Cl11  1  0.239037  0.487764  0.248726  1
  Cl  Cl12  1  0.760963  0.009693  0.248730  1
  Cl  Cl13  1  0.754294  0.507944  0.753649  1
  Cl  Cl14  1  0.245705  0.999352  0.753654  1
  Cl  Cl15  1  0.239037  0.248726  0.487764  1
  Cl  Cl16  1  0.754294  0.753649  0.507944  1
  Cl  Cl17  1  0.760963  0.248730  0.009693  1
  Cl  Cl18  1  0.245705  0.753654  0.999352  1
  Cl  Cl19  1  0.999998  0.492204  0.492204  1
  Cl  Cl20  1  0.500004  0.995882  0.495883  1
  Cl  Cl21  1  0.500004  0.495883  0.995882  1
