# generated using pymatgen
data_LuZr(Mn2Si)4
_symmetry_space_group_name_H-M   'P 1'
_cell_length_a   6.57089846
_cell_length_b   7.25383949
_cell_length_c   3.86226500
_cell_angle_alpha   90.00000000
_cell_angle_beta   90.00000000
_cell_angle_gamma   90.04261281
_symmetry_Int_Tables_number   1
_chemical_formula_structural   LuZr(Mn2Si)4
_chemical_formula_sum   'Lu1 Zr1 Mn8 Si4'
_cell_volume   184.09188569
_cell_formula_units_Z   1
loop_
 _symmetry_equiv_pos_site_id
 _symmetry_equiv_pos_as_xyz
  1  'x, y, z'
loop_
 _atom_site_type_symbol
 _atom_site_label
 _atom_site_symmetry_multiplicity
 _atom_site_fract_x
 _atom_site_fract_y
 _atom_site_fract_z
 _atom_site_occupancy
  Lu  Lu0  1  0.000000  0.000000  0.500000  1
  Zr  Zr1  1  0.500000  0.500000  0.000000  1
  Mn  Mn2  1  0.855037  0.388149  0.500000  1
  Mn  Mn3  1  0.144963  0.611851  0.500000  1
  Mn  Mn4  1  0.642591  0.887442  0.000000  1
  Mn  Mn5  1  0.357409  0.112558  0.000000  1
  Mn  Mn6  1  0.568725  0.151652  0.500000  1
  Mn  Mn7  1  0.431275  0.848348  0.500000  1
  Mn  Mn8  1  0.928332  0.651736  0.000000  1
  Mn  Mn9  1  0.071668  0.348264  0.000000  1
  Si  Si10  1  0.266151  0.310637  0.500000  1
  Si  Si11  1  0.733849  0.689363  0.500000  1
  Si  Si12  1  0.238407  0.806816  0.000000  1
  Si  Si13  1  0.761593  0.193184  0.000000  1
