# generated using pymatgen
data_Ce2Fe3Ni7P6
_symmetry_space_group_name_H-M   'P 1'
_cell_length_a   3.74645800
_cell_length_b   10.36982000
_cell_length_c   11.84585700
_cell_angle_alpha   90.00000000
_cell_angle_beta   90.00000000
_cell_angle_gamma   90.00000000
_symmetry_Int_Tables_number   1
_chemical_formula_structural   Ce2Fe3Ni7P6
_chemical_formula_sum   'Ce4 Fe6 Ni14 P12'
_cell_volume   460.21267096
_cell_formula_units_Z   2
loop_
 _symmetry_equiv_pos_site_id
 _symmetry_equiv_pos_as_xyz
  1  'x, y, z'
loop_
 _atom_site_type_symbol
 _atom_site_label
 _atom_site_symmetry_multiplicity
 _atom_site_fract_x
 _atom_site_fract_y
 _atom_site_fract_z
 _atom_site_occupancy
  Ce  Ce0  1  0.250000  0.575598  0.704990  1
  Ce  Ce1  1  0.250000  0.924402  0.204990  1
  Ce  Ce2  1  0.750000  0.418945  0.294916  1
  Ce  Ce3  1  0.750000  0.081055  0.794916  1
  Fe  Fe4  1  0.750000  0.124563  0.299072  1
  Fe  Fe5  1  0.750000  0.375437  0.799072  1
  Fe  Fe6  1  0.250000  0.468058  0.932051  1
  Fe  Fe7  1  0.250000  0.031942  0.432051  1
  Fe  Fe8  1  0.750000  0.536833  0.069348  1
  Fe  Fe9  1  0.750000  0.963167  0.569348  1
  Ni  Ni10  1  0.250000  0.713201  0.995415  1
  Ni  Ni11  1  0.250000  0.786799  0.495415  1
  Ni  Ni12  1  0.750000  0.292136  0.008818  1
  Ni  Ni13  1  0.750000  0.207864  0.508818  1
  Ni  Ni14  1  0.250000  0.404768  0.484985  1
  Ni  Ni15  1  0.250000  0.095232  0.984985  1
  Ni  Ni16  1  0.750000  0.591002  0.513123  1
  Ni  Ni17  1  0.750000  0.908998  0.013123  1
  Ni  Ni18  1  0.250000  0.224899  0.171996  1
  Ni  Ni19  1  0.250000  0.275101  0.671996  1
  Ni  Ni20  1  0.750000  0.774651  0.824938  1
  Ni  Ni21  1  0.750000  0.725349  0.324938  1
  Ni  Ni22  1  0.250000  0.873805  0.701240  1
  Ni  Ni23  1  0.250000  0.626195  0.201240  1
  P  P24  1  0.250000  0.428640  0.111653  1
  P  P25  1  0.250000  0.071360  0.611653  1
  P  P26  1  0.750000  0.571012  0.887808  1
  P  P27  1  0.750000  0.928988  0.387808  1
  P  P28  1  0.250000  0.276385  0.864761  1
  P  P29  1  0.250000  0.223615  0.364761  1
  P  P30  1  0.750000  0.730950  0.131422  1
  P  P31  1  0.750000  0.769050  0.631422  1
  P  P32  1  0.250000  0.605689  0.394861  1
  P  P33  1  0.250000  0.894311  0.894861  1
  P  P34  1  0.750000  0.389947  0.608605  1
  P  P35  1  0.750000  0.110053  0.108605  1
