# generated using pymatgen
data_K6Si2S7
_symmetry_space_group_name_H-M   'P 1'
_cell_length_a   7.55776446
_cell_length_b   7.55776493
_cell_length_c   16.52363955
_cell_angle_alpha   79.59635114
_cell_angle_beta   79.59635045
_cell_angle_gamma   97.35315635
_symmetry_Int_Tables_number   1
_chemical_formula_structural   K6Si2S7
_chemical_formula_sum   'K12 Si4 S14'
_cell_volume   900.38000061
_cell_formula_units_Z   2
loop_
 _symmetry_equiv_pos_site_id
 _symmetry_equiv_pos_as_xyz
  1  'x, y, z'
loop_
 _atom_site_type_symbol
 _atom_site_label
 _atom_site_symmetry_multiplicity
 _atom_site_fract_x
 _atom_site_fract_y
 _atom_site_fract_z
 _atom_site_occupancy
  K  K0  1  0.584055  0.415945  0.750000  1
  K  K1  1  0.415945  0.584055  0.250000  1
  K  K2  1  0.500000  0.500000  0.000000  1
  K  K3  1  0.500000  0.500000  0.500000  1
  K  K4  1  0.270161  0.983634  0.921865  1
  K  K5  1  0.016366  0.729839  0.578135  1
  K  K6  1  0.729839  0.016366  0.078135  1
  K  K7  1  0.983634  0.270161  0.421865  1
  K  K8  1  0.517678  0.953262  0.639959  1
  K  K9  1  0.046738  0.482322  0.860041  1
  K  K10  1  0.482322  0.046738  0.360041  1
  K  K11  1  0.953262  0.517678  0.139959  1
  Si  Si12  1  0.776146  0.927034  0.854896  1
  Si  Si13  1  0.072966  0.223854  0.645104  1
  Si  Si14  1  0.927034  0.776146  0.354896  1
  Si  Si15  1  0.223854  0.072966  0.145104  1
  S  S16  1  0.022894  0.977106  0.750000  1
  S  S17  1  0.977106  0.022894  0.250000  1
  S  S18  1  0.706272  0.170694  0.889283  1
  S  S19  1  0.829306  0.293728  0.610717  1
  S  S20  1  0.293728  0.829306  0.110717  1
  S  S21  1  0.170694  0.706272  0.389283  1
  S  S22  1  0.869177  0.761609  0.953336  1
  S  S23  1  0.238391  0.130823  0.546664  1
  S  S24  1  0.130823  0.238391  0.046664  1
  S  S25  1  0.761609  0.869177  0.453336  1
  S  S26  1  0.552304  0.774008  0.820912  1
  S  S27  1  0.225992  0.447696  0.679088  1
  S  S28  1  0.447696  0.225992  0.179088  1
  S  S29  1  0.774008  0.552304  0.320912  1
