# generated using pymatgen
data_SrLa5PrIrBr12
_symmetry_space_group_name_H-M   'P 1'
_cell_length_a   9.77596560
_cell_length_b   9.77041051
_cell_length_c   9.61691188
_cell_angle_alpha   106.42479565
_cell_angle_beta   106.34301637
_cell_angle_gamma   106.25986461
_symmetry_Int_Tables_number   1
_chemical_formula_structural   SrLa5PrIrBr12
_chemical_formula_sum   'Sr1 La5 Pr1 Ir1 Br12'
_cell_volume   778.29739603
_cell_formula_units_Z   1
loop_
 _symmetry_equiv_pos_site_id
 _symmetry_equiv_pos_as_xyz
  1  'x, y, z'
loop_
 _atom_site_type_symbol
 _atom_site_label
 _atom_site_symmetry_multiplicity
 _atom_site_fract_x
 _atom_site_fract_y
 _atom_site_fract_z
 _atom_site_occupancy
  Sr  Sr0  1  0.500428  0.499892  0.500699  1
  La  La1  1  0.106772  0.319403  0.020121  1
  La  La2  1  0.316558  0.020468  0.107732  1
  La  La3  1  0.020193  0.102404  0.305622  1
  La  La4  1  0.979571  0.896359  0.693773  1
  La  La5  1  0.683564  0.979843  0.892329  1
  Pr  Pr6  1  0.893455  0.684148  0.979276  1
  Ir  Ir7  1  0.000213  0.000730  0.999661  1
  Br  Br8  1  0.215120  0.680884  0.072734  1
  Br  Br9  1  0.450119  0.367257  0.153646  1
  Br  Br10  1  0.680255  0.073627  0.218826  1
  Br  Br11  1  0.926413  0.781276  0.318745  1
  Br  Br12  1  0.156215  0.450822  0.370153  1
  Br  Br13  1  0.369446  0.156897  0.453559  1
  Br  Br14  1  0.630508  0.842549  0.546428  1
  Br  Br15  1  0.844406  0.548874  0.632777  1
  Br  Br16  1  0.072636  0.216100  0.678041  1
  Br  Br17  1  0.319738  0.925989  0.781166  1
  Br  Br18  1  0.551997  0.632439  0.847864  1
  Br  Br19  1  0.782397  0.320041  0.926851  1
