# generated using pymatgen
data_K4Cr3FeF14
_symmetry_space_group_name_H-M   'P 1'
_cell_length_a   7.79790296
_cell_length_b   7.79790197
_cell_length_c   7.85570052
_cell_angle_alpha   121.40639000
_cell_angle_beta   117.14219953
_cell_angle_gamma   90.88531541
_symmetry_Int_Tables_number   1
_chemical_formula_structural   K4Cr3FeF14
_chemical_formula_sum   'K4 Cr3 Fe1 F14'
_cell_volume   342.05158371
_cell_formula_units_Z   1
loop_
 _symmetry_equiv_pos_site_id
 _symmetry_equiv_pos_as_xyz
  1  'x, y, z'
loop_
 _atom_site_type_symbol
 _atom_site_label
 _atom_site_symmetry_multiplicity
 _atom_site_fract_x
 _atom_site_fract_y
 _atom_site_fract_z
 _atom_site_occupancy
  K  K0  1  0.500000  0.500000  0.000000  1
  K  K1  1  0.000000  0.000000  0.000000  1
  K  K2  1  0.000000  0.500000  0.000000  1
  K  K3  1  0.000000  0.000000  0.500000  1
  Cr  Cr4  1  0.500000  0.000000  0.000000  1
  Cr  Cr5  1  0.000000  0.500000  0.500000  1
  Cr  Cr6  1  0.500000  0.000000  0.500000  1
  Fe  Fe7  1  0.500000  0.500000  0.500000  1
  F  F8  1  0.876732  0.585685  0.290800  1
  F  F9  1  0.205115  0.914067  0.290800  1
  F  F10  1  0.180588  0.797705  0.755051  1
  F  F11  1  0.460643  0.701879  0.390400  1
  F  F12  1  0.457345  0.074464  0.755051  1
  F  F13  1  0.188523  0.429758  0.390400  1
  F  F14  1  0.811477  0.570242  0.609600  1
  F  F15  1  0.542655  0.925536  0.244949  1
  F  F16  1  0.539357  0.298121  0.609600  1
  F  F17  1  0.819412  0.202295  0.244949  1
  F  F18  1  0.404892  0.247259  0.152151  1
  F  F19  1  0.123268  0.414315  0.709200  1
  F  F20  1  0.794885  0.085933  0.709200  1
  F  F21  1  0.595108  0.752741  0.847849  1
