# generated using pymatgen
data_Pr6SnHgI6
_symmetry_space_group_name_H-M   'P 1'
_cell_length_a   11.12923778
_cell_length_b   11.12923723
_cell_length_c   11.11579763
_cell_angle_alpha   109.46601868
_cell_angle_beta   109.46602067
_cell_angle_gamma   109.53054549
_symmetry_Int_Tables_number   1
_chemical_formula_structural   Pr6SnHgI6
_chemical_formula_sum   'Pr12 Sn2 Hg2 I12'
_cell_volume   1059.22185038
_cell_formula_units_Z   2
loop_
 _symmetry_equiv_pos_site_id
 _symmetry_equiv_pos_as_xyz
  1  'x, y, z'
loop_
 _atom_site_type_symbol
 _atom_site_label
 _atom_site_symmetry_multiplicity
 _atom_site_fract_x
 _atom_site_fract_y
 _atom_site_fract_z
 _atom_site_occupancy
  Pr  Pr0  1  0.479115  0.488037  0.240217  1
  Pr  Pr1  1  0.747820  0.238897  0.259783  1
  Pr  Pr2  1  0.746524  0.007738  0.487715  1
  Pr  Pr3  1  0.241191  0.479978  0.487715  1
  Pr  Pr4  1  0.261103  0.752180  0.240217  1
  Pr  Pr5  1  0.020022  0.258809  0.012285  1
  Pr  Pr6  1  0.011963  0.020885  0.259783  1
  Pr  Pr7  1  0.492262  0.753476  0.012285  1
  Pr  Pr8  1  0.488008  0.238008  0.476017  1
  Pr  Pr9  1  0.009542  0.490458  0.750000  1
  Pr  Pr10  1  0.261992  0.011992  0.023983  1
  Pr  Pr11  1  0.240458  0.259542  0.750000  1
  Sn  Sn12  1  0.999733  0.249733  0.499466  1
  Sn  Sn13  1  0.250267  0.500267  0.000534  1
  Hg  Hg14  1  0.249721  0.250279  0.250000  1
  Hg  Hg15  1  0.500279  0.999721  0.250000  1
  I  I16  1  0.250002  0.754855  0.744182  1
  I  I17  1  0.510672  0.505820  0.755818  1
  I  I18  1  0.987838  0.743836  0.993323  1
  I  I19  1  0.745145  0.249998  0.755818  1
  I  I20  1  0.994180  0.989328  0.744182  1
  I  I21  1  0.250514  0.994514  0.506677  1
  I  I22  1  0.756164  0.512162  0.506677  1
  I  I23  1  0.505486  0.249486  0.993323  1
  I  I24  1  0.755857  0.744143  0.250000  1
  I  I25  1  0.744348  0.994348  0.988698  1
  I  I26  1  0.994143  0.505857  0.250000  1
  I  I27  1  0.505652  0.755652  0.511302  1
