# generated using pymatgen
data_La6CoAuI6
_symmetry_space_group_name_H-M   'P 1'
_cell_length_a   11.13816973
_cell_length_b   11.13816787
_cell_length_c   10.91804582
_cell_angle_alpha   109.32495275
_cell_angle_beta   109.32495604
_cell_angle_gamma   110.56252784
_symmetry_Int_Tables_number   1
_chemical_formula_structural   La6CoAuI6
_chemical_formula_sum   'La12 Co2 Au2 I12'
_cell_volume   1032.15197606
_cell_formula_units_Z   2
loop_
 _symmetry_equiv_pos_site_id
 _symmetry_equiv_pos_as_xyz
  1  'x, y, z'
loop_
 _atom_site_type_symbol
 _atom_site_label
 _atom_site_symmetry_multiplicity
 _atom_site_fract_x
 _atom_site_fract_y
 _atom_site_fract_z
 _atom_site_occupancy
  La  La0  1  0.459312  0.489278  0.222195  1
  La  La1  1  0.767084  0.237118  0.277805  1
  La  La2  1  0.771996  0.032752  0.490040  1
  La  La3  1  0.218044  0.457286  0.490040  1
  La  La4  1  0.262882  0.732916  0.222195  1
  La  La5  1  0.042714  0.281956  0.009960  1
  La  La6  1  0.010722  0.040688  0.277805  1
  La  La7  1  0.467248  0.728004  0.009960  1
  La  La8  1  0.485210  0.235210  0.470420  1
  La  La9  1  0.022116  0.477884  0.750000  1
  La  La10  1  0.264790  0.014790  0.029580  1
  La  La11  1  0.227884  0.272116  0.750000  1
  Co  Co12  1  0.999973  0.249973  0.499946  1
  Co  Co13  1  0.250027  0.500027  0.000054  1
  Au  Au14  1  0.249228  0.250772  0.250000  1
  Au  Au15  1  0.500772  0.999228  0.250000  1
  I  I16  1  0.251277  0.761246  0.741697  1
  I  I17  1  0.519550  0.509582  0.758303  1
  I  I18  1  0.984585  0.741990  0.992916  1
  I  I19  1  0.738754  0.248723  0.758303  1
  I  I20  1  0.990418  0.980450  0.741697  1
  I  I21  1  0.249073  0.991669  0.507084  1
  I  I22  1  0.758010  0.515415  0.507084  1
  I  I23  1  0.508331  0.250927  0.992916  1
  I  I24  1  0.759572  0.740428  0.250000  1
  I  I25  1  0.741927  0.991927  0.983852  1
  I  I26  1  0.990428  0.509572  0.250000  1
  I  I27  1  0.508073  0.758073  0.516148  1
