# generated using pymatgen
data_Pr2Os2I
_symmetry_space_group_name_H-M   'P 1'
_cell_length_a   4.32409800
_cell_length_b   4.32409825
_cell_length_c   17.89595900
_cell_angle_alpha   90.00000000
_cell_angle_beta   90.00000000
_cell_angle_gamma   119.99999812
_symmetry_Int_Tables_number   1
_chemical_formula_structural   Pr2Os2I
_chemical_formula_sum   'Pr4 Os4 I2'
_cell_volume   289.78553071
_cell_formula_units_Z   2
loop_
 _symmetry_equiv_pos_site_id
 _symmetry_equiv_pos_as_xyz
  1  'x, y, z'
loop_
 _atom_site_type_symbol
 _atom_site_label
 _atom_site_symmetry_multiplicity
 _atom_site_fract_x
 _atom_site_fract_y
 _atom_site_fract_z
 _atom_site_occupancy
  Pr  Pr0  1  0.000000  0.000000  0.107782  1
  Pr  Pr1  1  0.000000  0.000000  0.392218  1
  Pr  Pr2  1  0.000000  0.000000  0.892218  1
  Pr  Pr3  1  0.000000  0.000000  0.607782  1
  Os  Os4  1  0.333333  0.666667  0.003156  1
  Os  Os5  1  0.666667  0.333333  0.996844  1
  Os  Os6  1  0.333333  0.666667  0.496844  1
  Os  Os7  1  0.666667  0.333333  0.503156  1
  I  I8  1  0.333333  0.666667  0.750000  1
  I  I9  1  0.666667  0.333333  0.250000  1
