# generated using pymatgen
data_Ba4LuU3F24
_symmetry_space_group_name_H-M   'P 1'
_cell_length_a   7.58351514
_cell_length_b   8.80683048
_cell_length_c   8.94772100
_cell_angle_alpha   102.20038833
_cell_angle_beta   96.51381483
_cell_angle_gamma   114.63457902
_symmetry_Int_Tables_number   1
_chemical_formula_structural   Ba4LuU3F24
_chemical_formula_sum   'Ba4 Lu1 U3 F24'
_cell_volume   517.09128972
_cell_formula_units_Z   1
loop_
 _symmetry_equiv_pos_site_id
 _symmetry_equiv_pos_as_xyz
  1  'x, y, z'
loop_
 _atom_site_type_symbol
 _atom_site_label
 _atom_site_symmetry_multiplicity
 _atom_site_fract_x
 _atom_site_fract_y
 _atom_site_fract_z
 _atom_site_occupancy
  Ba  Ba0  1  0.297596  0.771784  0.547821  1
  Ba  Ba1  1  0.298562  0.310116  0.772143  1
  Ba  Ba2  1  0.707968  0.238714  0.463994  1
  Ba  Ba3  1  0.708087  0.671613  0.227765  1
  Lu  Lu4  1  0.767088  0.220876  0.929372  1
  U  U5  1  0.172068  0.259834  0.275113  1
  U  U6  1  0.241194  0.781651  0.063755  1
  U  U7  1  0.814770  0.745436  0.723185  1
  F  F8  1  0.082160  0.959213  0.701726  1
  F  F9  1  0.408146  0.632007  0.004643  1
  F  F10  1  0.916543  0.035062  0.295910  1
  F  F11  1  0.231176  0.036117  0.149242  1
  F  F12  1  0.765269  0.964552  0.854002  1
  F  F13  1  0.093515  0.761305  0.271246  1
  F  F14  1  0.884198  0.616649  0.502305  1
  F  F15  1  0.127732  0.712927  0.799503  1
  F  F16  1  0.486112  0.627763  0.702765  1
  F  F17  1  0.308154  0.189901  0.472324  1
  F  F18  1  0.109904  0.239110  0.021890  1
  F  F19  1  0.300238  0.543151  0.288803  1
  F  F20  1  0.695582  0.464687  0.709258  1
  F  F21  1  0.603568  0.363572  0.993383  1
  F  F22  1  0.868069  0.275840  0.190824  1
  F  F23  1  0.523993  0.104879  0.716977  1
  F  F24  1  0.489021  0.986631  0.998169  1
  F  F25  1  0.897736  0.761548  0.978560  1
  F  F26  1  0.915666  0.249053  0.737392  1
  F  F27  1  0.480005  0.900580  0.287974  1
  F  F28  1  0.504596  0.372450  0.298830  1
  F  F29  1  0.005841  0.503501  0.001196  1
  F  F30  1  0.111257  0.388558  0.495815  1
  F  F31  1  0.684185  0.810920  0.524115  1
