# generated using pymatgen
data_TmLu3(ScIr)4
_symmetry_space_group_name_H-M   'P 1'
_cell_length_a   4.25838900
_cell_length_b   7.07978946
_cell_length_c   8.51668303
_cell_angle_alpha   90.18881758
_cell_angle_beta   90.00000000
_cell_angle_gamma   90.00000000
_symmetry_Int_Tables_number   1
_chemical_formula_structural   TmLu3(ScIr)4
_chemical_formula_sum   'Tm1 Lu3 Sc4 Ir4'
_cell_volume   256.76380315
_cell_formula_units_Z   1
loop_
 _symmetry_equiv_pos_site_id
 _symmetry_equiv_pos_as_xyz
  1  'x, y, z'
loop_
 _atom_site_type_symbol
 _atom_site_label
 _atom_site_symmetry_multiplicity
 _atom_site_fract_x
 _atom_site_fract_y
 _atom_site_fract_z
 _atom_site_occupancy
  Tm  Tm0  1  0.750000  0.518065  0.828750  1
  Lu  Lu1  1  0.250000  0.980555  0.329415  1
  Lu  Lu2  1  0.250000  0.480556  0.170904  1
  Lu  Lu3  1  0.750000  0.019907  0.669776  1
  Sc  Sc4  1  0.250000  0.358121  0.565559  1
  Sc  Sc5  1  0.250000  0.857622  0.933367  1
  Sc  Sc6  1  0.750000  0.643291  0.432392  1
  Sc  Sc7  1  0.750000  0.142083  0.067941  1
  Ir  Ir8  1  0.250000  0.240642  0.892252  1
  Ir  Ir9  1  0.250000  0.744127  0.608158  1
  Ir  Ir10  1  0.750000  0.757560  0.109989  1
  Ir  Ir11  1  0.750000  0.257472  0.391498  1
