# generated using pymatgen
data_CeY4Pt9
_symmetry_space_group_name_H-M   'P 1'
_cell_length_a   9.85303300
_cell_length_b   9.85303300
_cell_length_c   5.79508600
_cell_angle_alpha   90.00000000
_cell_angle_beta   90.00000000
_cell_angle_gamma   90.00000000
_symmetry_Int_Tables_number   1
_chemical_formula_structural   CeY4Pt9
_chemical_formula_sum   'Ce2 Y8 Pt18'
_cell_volume   562.60004171
_cell_formula_units_Z   2
loop_
 _symmetry_equiv_pos_site_id
 _symmetry_equiv_pos_as_xyz
  1  'x, y, z'
loop_
 _atom_site_type_symbol
 _atom_site_label
 _atom_site_symmetry_multiplicity
 _atom_site_fract_x
 _atom_site_fract_y
 _atom_site_fract_z
 _atom_site_occupancy
  Ce  Ce0  1  0.500000  0.500000  0.500000  1
  Ce  Ce1  1  0.000000  0.000000  0.000000  1
  Y  Y2  1  0.455554  0.807728  0.000000  1
  Y  Y3  1  0.544446  0.192272  0.000000  1
  Y  Y4  1  0.192272  0.544446  0.000000  1
  Y  Y5  1  0.807728  0.455554  0.000000  1
  Y  Y6  1  0.307728  0.044446  0.500000  1
  Y  Y7  1  0.692272  0.955554  0.500000  1
  Y  Y8  1  0.955554  0.692272  0.500000  1
  Y  Y9  1  0.044446  0.307728  0.500000  1
  Pt  Pt10  1  0.195891  0.804109  0.249539  1
  Pt  Pt11  1  0.804109  0.195891  0.750461  1
  Pt  Pt12  1  0.804109  0.195891  0.249539  1
  Pt  Pt13  1  0.195891  0.804109  0.750461  1
  Pt  Pt14  1  0.443383  0.778714  0.500000  1
  Pt  Pt15  1  0.556617  0.221286  0.500000  1
  Pt  Pt16  1  0.221286  0.556617  0.500000  1
  Pt  Pt17  1  0.778714  0.443383  0.500000  1
  Pt  Pt18  1  0.304109  0.304109  0.250461  1
  Pt  Pt19  1  0.695891  0.695891  0.749539  1
  Pt  Pt20  1  0.695891  0.695891  0.250461  1
  Pt  Pt21  1  0.304109  0.304109  0.749539  1
  Pt  Pt22  1  0.278714  0.056617  0.000000  1
  Pt  Pt23  1  0.721286  0.943383  0.000000  1
  Pt  Pt24  1  0.943383  0.721286  0.000000  1
  Pt  Pt25  1  0.056617  0.278714  0.000000  1
  Pt  Pt26  1  0.000000  0.000000  0.500000  1
  Pt  Pt27  1  0.500000  0.500000  0.000000  1
