# generated using pymatgen
data_Ba9Sm(PN5)2
_symmetry_space_group_name_H-M   'P 1'
_cell_length_a   7.89167893
_cell_length_b   7.89167854
_cell_length_c   8.97092431
_cell_angle_alpha   75.84247093
_cell_angle_beta   75.84247664
_cell_angle_gamma   93.88346580
_symmetry_Int_Tables_number   1
_chemical_formula_structural   Ba9Sm(PN5)2
_chemical_formula_sum   'Ba9 Sm1 P2 N10'
_cell_volume   520.41687574
_cell_formula_units_Z   1
loop_
 _symmetry_equiv_pos_site_id
 _symmetry_equiv_pos_as_xyz
  1  'x, y, z'
loop_
 _atom_site_type_symbol
 _atom_site_label
 _atom_site_symmetry_multiplicity
 _atom_site_fract_x
 _atom_site_fract_y
 _atom_site_fract_z
 _atom_site_occupancy
  Ba  Ba0  1  0.603743  0.603743  0.627664  1
  Ba  Ba1  1  0.680309  0.680309  0.993516  1
  Ba  Ba2  1  0.326794  0.326794  0.000217  1
  Ba  Ba3  1  0.924007  0.924007  0.208643  1
  Ba  Ba4  1  0.076468  0.076468  0.786968  1
  Ba  Ba5  1  0.560839  0.087739  0.751664  1
  Ba  Ba6  1  0.914188  0.434016  0.252752  1
  Ba  Ba7  1  0.434016  0.914188  0.252752  1
  Ba  Ba8  1  0.087739  0.560839  0.751664  1
  Sm  Sm9  1  0.424002  0.424002  0.352156  1
  P  P10  1  0.752704  0.243369  0.006058  1
  P  P11  1  0.243369  0.752704  0.006058  1
  N  N12  1  0.637984  0.637984  0.316069  1
  N  N13  1  0.351077  0.351077  0.640498  1
  N  N14  1  0.716339  0.032942  0.001900  1
  N  N15  1  0.963706  0.275751  0.013745  1
  N  N16  1  0.275751  0.963706  0.013745  1
  N  N17  1  0.032942  0.716339  0.001900  1
  N  N18  1  0.380900  0.723921  0.841941  1
  N  N19  1  0.280654  0.608548  0.169074  1
  N  N20  1  0.608548  0.280654  0.169074  1
  N  N21  1  0.723921  0.380900  0.841941  1
