# generated using pymatgen
data_La8LuU3Se20
_symmetry_space_group_name_H-M   'P 1'
_cell_length_a   7.93084461
_cell_length_b   8.53415000
_cell_length_c   12.55854728
_cell_angle_alpha   90.00000000
_cell_angle_beta   90.37754978
_cell_angle_gamma   90.00000000
_symmetry_Int_Tables_number   1
_chemical_formula_structural   La8LuU3Se20
_chemical_formula_sum   'La8 Lu1 U3 Se20'
_cell_volume   849.98192141
_cell_formula_units_Z   1
loop_
 _symmetry_equiv_pos_site_id
 _symmetry_equiv_pos_as_xyz
  1  'x, y, z'
loop_
 _atom_site_type_symbol
 _atom_site_label
 _atom_site_symmetry_multiplicity
 _atom_site_fract_x
 _atom_site_fract_y
 _atom_site_fract_z
 _atom_site_occupancy
  La  La0  1  0.530684  0.501752  0.324499  1
  La  La1  1  0.970014  0.999475  0.821926  1
  La  La2  1  0.471185  0.999693  0.674197  1
  La  La3  1  0.028702  0.501314  0.179507  1
  La  La4  1  0.471185  0.500307  0.674197  1
  La  La5  1  0.028702  0.998686  0.179507  1
  La  La6  1  0.530684  0.998248  0.324499  1
  La  La7  1  0.970014  0.500525  0.821926  1
  Lu  Lu8  1  0.068779  0.750000  0.495423  1
  U  U9  1  0.428004  0.750000  0.990397  1
  U  U10  1  0.938604  0.250000  0.505715  1
  U  U11  1  0.570542  0.250000  0.009269  1
  Se  Se12  1  0.833088  0.964102  0.592714  1
  Se  Se13  1  0.664172  0.542545  0.091236  1
  Se  Se14  1  0.163623  0.460729  0.409928  1
  Se  Se15  1  0.335737  0.042840  0.907505  1
  Se  Se16  1  0.163623  0.039271  0.409928  1
  Se  Se17  1  0.335737  0.457160  0.907505  1
  Se  Se18  1  0.833088  0.535898  0.592714  1
  Se  Se19  1  0.664172  0.957455  0.091236  1
  Se  Se20  1  0.837284  0.750000  0.314316  1
  Se  Se21  1  0.662634  0.750000  0.813628  1
  Se  Se22  1  0.164688  0.250000  0.686461  1
  Se  Se23  1  0.337713  0.250000  0.186429  1
  Se  Se24  1  0.450693  0.750000  0.496111  1
  Se  Se25  1  0.046257  0.750000  0.998671  1
  Se  Se26  1  0.549072  0.250000  0.500034  1
  Se  Se27  1  0.952788  0.250000  0.001837  1
  Se  Se28  1  0.188372  0.750000  0.712321  1
  Se  Se29  1  0.312140  0.750000  0.210828  1
  Se  Se30  1  0.810048  0.250000  0.286711  1
  Se  Se31  1  0.687970  0.250000  0.788822  1
