# generated using pymatgen
data_Tm3Lu7Si5Sn
_symmetry_space_group_name_H-M   'P 1'
_cell_length_a   8.34101800
_cell_length_b   8.36056322
_cell_length_c   6.21895900
_cell_angle_alpha   90.00000000
_cell_angle_beta   90.00000000
_cell_angle_gamma   119.92270459
_symmetry_Int_Tables_number   1
_chemical_formula_structural   Tm3Lu7Si5Sn
_chemical_formula_sum   'Tm3 Lu7 Si5 Sn1'
_cell_volume   375.87258930
_cell_formula_units_Z   1
loop_
 _symmetry_equiv_pos_site_id
 _symmetry_equiv_pos_as_xyz
  1  'x, y, z'
loop_
 _atom_site_type_symbol
 _atom_site_label
 _atom_site_symmetry_multiplicity
 _atom_site_fract_x
 _atom_site_fract_y
 _atom_site_fract_z
 _atom_site_occupancy
  Tm  Tm0  1  0.757052  0.758130  0.250000  1
  Tm  Tm1  1  0.998921  0.241870  0.250000  1
  Tm  Tm2  1  0.240096  0.000000  0.250000  1
  Lu  Lu3  1  0.673492  0.341802  0.002912  1
  Lu  Lu4  1  0.331688  0.658198  0.497088  1
  Lu  Lu5  1  0.331688  0.658198  0.002912  1
  Lu  Lu6  1  0.673492  0.341802  0.497088  1
  Lu  Lu7  1  0.766042  0.000000  0.750000  1
  Lu  Lu8  1  0.989389  0.750110  0.750000  1
  Lu  Lu9  1  0.239278  0.249890  0.750000  1
  Si  Si10  1  0.394343  0.393239  0.250000  1
  Si  Si11  1  0.001104  0.606761  0.250000  1
  Si  Si12  1  0.998890  0.394589  0.750000  1
  Si  Si13  1  0.604301  0.605411  0.750000  1
  Si  Si14  1  0.605178  0.000000  0.250000  1
  Sn  Sn15  1  0.395047  0.000000  0.750000  1
