# generated using pymatgen
data_Zr5SnBi2B
_symmetry_space_group_name_H-M   'P 1'
_cell_length_a   8.65992839
_cell_length_b   8.65992826
_cell_length_c   5.87696300
_cell_angle_alpha   90.00000000
_cell_angle_beta   90.00000000
_cell_angle_gamma   119.73944052
_symmetry_Int_Tables_number   1
_chemical_formula_structural   Zr5SnBi2B
_chemical_formula_sum   'Zr10 Sn2 Bi4 B2'
_cell_volume   382.68943835
_cell_formula_units_Z   2
loop_
 _symmetry_equiv_pos_site_id
 _symmetry_equiv_pos_as_xyz
  1  'x, y, z'
loop_
 _atom_site_type_symbol
 _atom_site_label
 _atom_site_symmetry_multiplicity
 _atom_site_fract_x
 _atom_site_fract_y
 _atom_site_fract_z
 _atom_site_occupancy
  Zr  Zr0  1  0.667321  0.331359  0.002973  1
  Zr  Zr1  1  0.331359  0.667321  0.002973  1
  Zr  Zr2  1  0.331359  0.667321  0.497027  1
  Zr  Zr3  1  0.667321  0.331359  0.497027  1
  Zr  Zr4  1  0.773904  0.773904  0.750000  1
  Zr  Zr5  1  0.227565  0.998931  0.750000  1
  Zr  Zr6  1  0.998931  0.227565  0.750000  1
  Zr  Zr7  1  0.225997  0.225997  0.250000  1
  Zr  Zr8  1  0.772638  0.005121  0.250000  1
  Zr  Zr9  1  0.005121  0.772638  0.250000  1
  Sn  Sn10  1  0.398811  0.000773  0.250000  1
  Sn  Sn11  1  0.000773  0.398811  0.250000  1
  Bi  Bi12  1  0.398462  0.398462  0.750000  1
  Bi  Bi13  1  0.597614  0.999469  0.750000  1
  Bi  Bi14  1  0.999469  0.597614  0.750000  1
  Bi  Bi15  1  0.603877  0.603877  0.250000  1
  B  B16  1  0.999738  0.999738  0.000179  1
  B  B17  1  0.999738  0.999738  0.499821  1
