# generated using pymatgen
data_Hf6AlGa5(OsPd2)2
_symmetry_space_group_name_H-M   'P 1'
_cell_length_a   7.39769012
_cell_length_b   7.39601257
_cell_length_c   6.60175501
_cell_angle_alpha   89.99554602
_cell_angle_beta   90.00679518
_cell_angle_gamma   120.14213647
_symmetry_Int_Tables_number   1
_chemical_formula_structural   Hf6AlGa5(OsPd2)2
_chemical_formula_sum   'Hf6 Al1 Ga5 Os2 Pd4'
_cell_volume   312.36329937
_cell_formula_units_Z   1
loop_
 _symmetry_equiv_pos_site_id
 _symmetry_equiv_pos_as_xyz
  1  'x, y, z'
loop_
 _atom_site_type_symbol
 _atom_site_label
 _atom_site_symmetry_multiplicity
 _atom_site_fract_x
 _atom_site_fract_y
 _atom_site_fract_z
 _atom_site_occupancy
  Hf  Hf0  1  0.602012  0.614080  0.249486  1
  Hf  Hf1  1  0.013476  0.399890  0.750527  1
  Hf  Hf2  1  0.387944  0.987350  0.249905  1
  Hf  Hf3  1  0.011367  0.399761  0.249559  1
  Hf  Hf4  1  0.385880  0.985140  0.750058  1
  Hf  Hf5  1  0.601855  0.616076  0.750491  1
  Al  Al6  1  0.273088  0.269139  0.499921  1
  Ga  Ga7  1  0.728594  0.005910  0.499905  1
  Ga  Ga8  1  0.996005  0.723693  0.499917  1
  Ga  Ga9  1  0.728066  0.005171  0.000079  1
  Ga  Ga10  1  0.277598  0.272549  0.000089  1
  Ga  Ga11  1  0.995166  0.722993  0.000089  1
  Os  Os12  1  0.333136  0.662949  0.499336  1
  Os  Os13  1  0.333196  0.666462  0.000698  1
  Pd  Pd14  1  0.001556  0.001548  0.749807  1
  Pd  Pd15  1  0.001553  0.001527  0.250187  1
  Pd  Pd16  1  0.663213  0.332738  0.502776  1
  Pd  Pd17  1  0.666296  0.333024  0.997171  1
