# generated using pymatgen
data_Yb6ZnCu3Ru8
_symmetry_space_group_name_H-M   'P 1'
_cell_length_a   5.30951449
_cell_length_b   5.33855360
_cell_length_c   12.79388916
_cell_angle_alpha   90.01885587
_cell_angle_beta   92.24379640
_cell_angle_gamma   121.36314572
_symmetry_Int_Tables_number   1
_chemical_formula_structural   Yb6ZnCu3Ru8
_chemical_formula_sum   'Yb6 Zn1 Cu3 Ru8'
_cell_volume   309.32835838
_cell_formula_units_Z   1
loop_
 _symmetry_equiv_pos_site_id
 _symmetry_equiv_pos_as_xyz
  1  'x, y, z'
loop_
 _atom_site_type_symbol
 _atom_site_label
 _atom_site_symmetry_multiplicity
 _atom_site_fract_x
 _atom_site_fract_y
 _atom_site_fract_z
 _atom_site_occupancy
  Yb  Yb0  1  0.328897  0.677632  0.913843  1
  Yb  Yb1  1  0.992375  0.994017  0.256004  1
  Yb  Yb2  1  0.663701  0.332137  0.584699  1
  Yb  Yb3  1  0.336299  0.667863  0.665301  1
  Yb  Yb4  1  0.007625  0.005983  0.993996  1
  Yb  Yb5  1  0.671103  0.322368  0.336157  1
  Zn  Zn6  1  0.500000  0.500000  0.125000  1
  Cu  Cu7  1  0.164184  0.827786  0.458720  1
  Cu  Cu8  1  0.835816  0.172214  0.791280  1
  Cu  Cu9  1  0.500000  0.000000  0.125000  1
  Ru  Ru10  1  0.168465  0.329982  0.461666  1
  Ru  Ru11  1  0.831535  0.670018  0.788334  1
  Ru  Ru12  1  0.321815  0.650650  0.286965  1
  Ru  Ru13  1  0.000000  0.000000  0.625000  1
  Ru  Ru14  1  0.678185  0.349350  0.963035  1
  Ru  Ru15  1  0.000000  0.500000  0.125000  1
  Ru  Ru16  1  0.655247  0.817258  0.458293  1
  Ru  Ru17  1  0.344753  0.182742  0.791707  1
