# generated using pymatgen
data_SrFeSbAs2O7
_symmetry_space_group_name_H-M   'P 1'
_cell_length_a   13.09300718
_cell_length_b   13.09300707
_cell_length_c   13.09300688
_cell_angle_alpha   100.52421081
_cell_angle_beta   100.52420959
_cell_angle_gamma   129.39759174
_symmetry_Int_Tables_number   1
_chemical_formula_structural   SrFeSbAs2O7
_chemical_formula_sum   'Sr8 Fe8 Sb8 As16 O56'
_cell_volume   1568.07471871
_cell_formula_units_Z   8
loop_
 _symmetry_equiv_pos_site_id
 _symmetry_equiv_pos_as_xyz
  1  'x, y, z'
loop_
 _atom_site_type_symbol
 _atom_site_label
 _atom_site_symmetry_multiplicity
 _atom_site_fract_x
 _atom_site_fract_y
 _atom_site_fract_z
 _atom_site_occupancy
  Sr  Sr0  1  0.797703  0.457252  0.958030  1
  Sr  Sr1  1  0.707252  0.249222  0.159549  1
  Sr  Sr2  1  0.160327  0.202297  0.659549  1
  Sr  Sr3  1  0.542748  0.500778  0.340451  1
  Sr  Sr4  1  0.452297  0.292748  0.541970  1
  Sr  Sr5  1  0.750778  0.910327  0.458030  1
  Sr  Sr6  1  0.089673  0.547703  0.840451  1
  Sr  Sr7  1  0.499222  0.839673  0.041970  1
  Fe  Fe8  1  0.352851  0.098407  0.728087  1
  Fe  Fe9  1  0.370320  0.624764  0.271913  1
  Fe  Fe10  1  0.375236  0.647149  0.745556  1
  Fe  Fe11  1  0.348407  0.120320  0.245556  1
  Fe  Fe12  1  0.874764  0.102851  0.754444  1
  Fe  Fe13  1  0.897149  0.651593  0.771913  1
  Fe  Fe14  1  0.901593  0.629680  0.254444  1
  Fe  Fe15  1  0.879680  0.125236  0.228087  1
  Sb  Sb16  1  0.942247  0.791529  0.496676  1
  Sb  Sb17  1  0.294853  0.445572  0.503324  1
  Sb  Sb18  1  0.307753  0.958471  0.003324  1
  Sb  Sb19  1  0.554428  0.057753  0.849280  1
  Sb  Sb20  1  0.955147  0.304428  0.996676  1
  Sb  Sb21  1  0.695572  0.692247  0.650720  1
  Sb  Sb22  1  0.208471  0.705147  0.150720  1
  Sb  Sb23  1  0.041529  0.044853  0.349280  1
  As  As24  1  0.267548  0.935321  0.432630  1
  As  As25  1  0.531673  0.365658  0.042603  1
  As  As26  1  0.926946  0.260930  0.542603  1
  As  As27  1  0.084918  0.017548  0.832227  1
  As  As28  1  0.739070  0.281673  0.666016  1
  As  As29  1  0.502691  0.834918  0.567370  1
  As  As30  1  0.064679  0.497309  0.332227  1
  As  As31  1  0.510930  0.468327  0.833984  1
  As  As32  1  0.185321  0.252691  0.167773  1
  As  As33  1  0.747309  0.915082  0.932630  1
  As  As34  1  0.718327  0.384342  0.457397  1
  As  As35  1  0.615658  0.073054  0.333984  1
  As  As36  1  0.982452  0.814679  0.067370  1
  As  As37  1  0.323054  0.489070  0.957397  1
  As  As38  1  0.634342  0.676946  0.166016  1
  As  As39  1  0.165082  0.732452  0.667773  1
  O  O40  1  0.571293  0.695854  0.269672  1
  O  O41  1  0.731314  0.097803  0.459209  1
  O  O42  1  0.302555  0.460513  0.660776  1
  O  O43  1  0.764375  0.997997  0.069765  1
  O  O44  1  0.710513  0.549737  0.657958  1
  O  O45  1  0.358221  0.697445  0.157958  1
  O  O46  1  0.074141  0.813893  0.390113  1
  O  O47  1  0.321768  0.055389  0.569765  1
  O  O48  1  0.751767  0.729779  0.519751  1
  O  O49  1  0.944611  0.514375  0.266378  1
  O  O50  1  0.270221  0.789973  0.021988  1
  O  O51  1  0.002003  0.071768  0.766378  1
  O  O52  1  0.518686  0.652197  0.040791  1
  O  O53  1  0.891779  0.052555  0.342042  1
  O  O54  1  0.551622  0.321293  0.375439  1
  O  O55  1  0.691088  0.933272  0.635166  1
  O  O56  1  0.611405  0.477894  0.959209  1
  O  O57  1  0.826220  0.065972  0.890113  1
  O  O58  1  0.698378  0.428707  0.124561  1
  O  O59  1  0.678707  0.054146  0.230328  1
  O  O60  1  0.186107  0.576220  0.260248  1
  O  O61  1  0.638595  0.272106  0.540791  1
  O  O62  1  0.485625  0.752003  0.430235  1
  O  O63  1  0.823818  0.448378  0.769672  1
  O  O64  1  0.951895  0.694078  0.135166  1
  O  O65  1  0.979779  0.960027  0.478012  1
  O  O66  1  0.210027  0.232015  0.480249  1
  O  O67  1  0.183272  0.048105  0.742183  1
  O  O68  1  0.767985  0.248233  0.978012  1
  O  O69  1  0.522106  0.481314  0.133510  1
  O  O70  1  0.498233  0.020221  0.980249  1
  O  O71  1  0.063893  0.173780  0.239752  1
  O  O72  1  0.066728  0.701895  0.757817  1
  O  O73  1  0.347803  0.388595  0.866490  1
  O  O74  1  0.247997  0.678232  0.733622  1
  O  O75  1  0.315972  0.925859  0.739752  1
  O  O76  1  0.947445  0.289487  0.839224  1
  O  O77  1  0.944078  0.308912  0.242183  1
  O  O78  1  0.305922  0.441088  0.257817  1
  O  O79  1  0.450263  0.108221  0.160776  1
  O  O80  1  0.175859  0.936107  0.109887  1
  O  O81  1  0.799737  0.641779  0.339224  1
  O  O82  1  0.482015  0.501767  0.521988  1
  O  O83  1  0.934028  0.824141  0.760248  1
  O  O84  1  0.558912  0.816728  0.864834  1
  O  O85  1  0.426182  0.301622  0.730328  1
  O  O86  1  0.298105  0.055922  0.364834  1
  O  O87  1  0.902197  0.361405  0.633510  1
  O  O88  1  0.928232  0.694611  0.930235  1
  O  O89  1  0.423780  0.684028  0.609887  1
  O  O90  1  0.945854  0.176182  0.624561  1
  O  O91  1  0.304146  0.573818  0.875439  1
  O  O92  1  0.539487  0.200263  0.842042  1
  O  O93  1  0.727894  0.268686  0.366490  1
  O  O94  1  0.039973  0.517985  0.019751  1
  O  O95  1  0.305389  0.235625  0.233622  1
