# generated using pymatgen
data_Th4ReP8Os7
_symmetry_space_group_name_H-M   'P 1'
_cell_length_a   4.20217000
_cell_length_b   7.59273315
_cell_length_c   10.53684633
_cell_angle_alpha   90.05232068
_cell_angle_beta   90.00000000
_cell_angle_gamma   90.00000000
_symmetry_Int_Tables_number   1
_chemical_formula_structural   Th4ReP8Os7
_chemical_formula_sum   'Th4 Re1 P8 Os7'
_cell_volume   336.18800962
_cell_formula_units_Z   1
loop_
 _symmetry_equiv_pos_site_id
 _symmetry_equiv_pos_as_xyz
  1  'x, y, z'
loop_
 _atom_site_type_symbol
 _atom_site_label
 _atom_site_symmetry_multiplicity
 _atom_site_fract_x
 _atom_site_fract_y
 _atom_site_fract_z
 _atom_site_occupancy
  Th  Th0  1  0.250000  0.266360  0.669748  1
  Th  Th1  1  0.750000  0.732419  0.330013  1
  Th  Th2  1  0.250000  0.765837  0.830345  1
  Th  Th3  1  0.750000  0.233487  0.169861  1
  Re  Re4  1  0.750000  0.630412  0.633313  1
  P  P5  1  0.250000  0.094006  0.966740  1
  P  P6  1  0.750000  0.905657  0.032398  1
  P  P7  1  0.250000  0.593675  0.534219  1
  P  P8  1  0.750000  0.406461  0.468538  1
  P  P9  1  0.250000  0.531762  0.160919  1
  P  P10  1  0.750000  0.468593  0.837239  1
  P  P11  1  0.250000  0.032537  0.339170  1
  P  P12  1  0.750000  0.964363  0.661063  1
  Os  Os13  1  0.750000  0.109952  0.450825  1
  Os  Os14  1  0.250000  0.891960  0.546292  1
  Os  Os15  1  0.750000  0.609802  0.048447  1
  Os  Os16  1  0.250000  0.389547  0.953919  1
  Os  Os17  1  0.250000  0.871938  0.132019  1
  Os  Os18  1  0.750000  0.129344  0.868278  1
  Os  Os19  1  0.250000  0.371887  0.366653  1
