# generated using pymatgen
data_Dy4TiAl5Pt8
_symmetry_space_group_name_H-M   'P 1'
_cell_length_a   8.15451088
_cell_length_b   8.15451187
_cell_length_c   7.66429911
_cell_angle_alpha   89.74778012
_cell_angle_beta   90.25222127
_cell_angle_gamma   140.08245082
_symmetry_Int_Tables_number   1
_chemical_formula_structural   Dy4TiAl5Pt8
_chemical_formula_sum   'Dy4 Ti1 Al5 Pt8'
_cell_volume   327.02817407
_cell_formula_units_Z   1
loop_
 _symmetry_equiv_pos_site_id
 _symmetry_equiv_pos_as_xyz
  1  'x, y, z'
loop_
 _atom_site_type_symbol
 _atom_site_label
 _atom_site_symmetry_multiplicity
 _atom_site_fract_x
 _atom_site_fract_y
 _atom_site_fract_z
 _atom_site_occupancy
  Dy  Dy0  1  0.607058  0.392942  0.910496  1
  Dy  Dy1  1  0.392942  0.607058  0.089504  1
  Dy  Dy2  1  0.893411  0.106589  0.404322  1
  Dy  Dy3  1  0.106589  0.893411  0.595678  1
  Ti  Ti4  1  0.500000  0.500000  0.500000  1
  Al  Al5  1  0.000000  0.000000  0.000000  1
  Al  Al6  1  0.523459  0.979163  0.749102  1
  Al  Al7  1  0.979163  0.523459  0.250898  1
  Al  Al8  1  0.476541  0.020837  0.250898  1
  Al  Al9  1  0.020837  0.476541  0.749102  1
  Pt  Pt10  1  0.691574  0.812333  0.750737  1
  Pt  Pt11  1  0.812333  0.691574  0.249263  1
  Pt  Pt12  1  0.308426  0.187667  0.249263  1
  Pt  Pt13  1  0.187667  0.308426  0.750737  1
  Pt  Pt14  1  0.680844  0.319156  0.526288  1
  Pt  Pt15  1  0.319156  0.680844  0.473712  1
  Pt  Pt16  1  0.815095  0.184905  0.028575  1
  Pt  Pt17  1  0.184905  0.815095  0.971425  1
