# generated using pymatgen
data_NaTb4Y2RuI12
_symmetry_space_group_name_H-M   'P 1'
_cell_length_a   9.82025826
_cell_length_b   9.82379340
_cell_length_c   9.82727637
_cell_angle_alpha   106.92393915
_cell_angle_beta   106.95011997
_cell_angle_gamma   106.92145987
_symmetry_Int_Tables_number   1
_chemical_formula_structural   NaTb4Y2RuI12
_chemical_formula_sum   'Na1 Tb4 Y2 Ru1 I12'
_cell_volume   791.01589513
_cell_formula_units_Z   1
loop_
 _symmetry_equiv_pos_site_id
 _symmetry_equiv_pos_as_xyz
  1  'x, y, z'
loop_
 _atom_site_type_symbol
 _atom_site_label
 _atom_site_symmetry_multiplicity
 _atom_site_fract_x
 _atom_site_fract_y
 _atom_site_fract_z
 _atom_site_occupancy
  Na  Na0  1  0.500029  0.500005  0.500007  1
  Tb  Tb1  1  0.697820  0.970093  0.899474  1
  Tb  Tb2  1  0.100486  0.302029  0.029759  1
  Tb  Tb3  1  0.029784  0.100449  0.302053  1
  Tb  Tb4  1  0.302120  0.029742  0.100428  1
  Y  Y5  1  0.899423  0.697546  0.969946  1
  Y  Y6  1  0.970040  0.899353  0.697569  1
  Ru  Ru7  1  0.000193  0.000625  0.000533  1
  I  I8  1  0.626486  0.856867  0.548094  1
  I  I9  1  0.548337  0.626339  0.856967  1
  I  I10  1  0.856971  0.548375  0.626518  1
  I  I11  1  0.373704  0.143110  0.451958  1
  I  I12  1  0.451982  0.373683  0.143122  1
  I  I13  1  0.143132  0.451977  0.373706  1
  I  I14  1  0.683515  0.074622  0.223683  1
  I  I15  1  0.223417  0.683496  0.074542  1
  I  I16  1  0.074550  0.223410  0.683492  1
  I  I17  1  0.316331  0.925317  0.776227  1
  I  I18  1  0.776324  0.316703  0.925363  1
  I  I19  1  0.925353  0.776260  0.316558  1
