# generated using pymatgen
data_Tm3Lu5(InIr)2
_symmetry_space_group_name_H-M   'P 1'
_cell_length_a   9.50248216
_cell_length_b   9.50248216
_cell_length_c   9.50248300
_cell_angle_alpha   60.00000055
_cell_angle_beta   60.00000057
_cell_angle_gamma   59.99999634
_symmetry_Int_Tables_number   1
_chemical_formula_structural   Tm3Lu5(InIr)2
_chemical_formula_sum   'Tm6 Lu10 In4 Ir4'
_cell_volume   606.73105033
_cell_formula_units_Z   2
loop_
 _symmetry_equiv_pos_site_id
 _symmetry_equiv_pos_as_xyz
  1  'x, y, z'
loop_
 _atom_site_type_symbol
 _atom_site_label
 _atom_site_symmetry_multiplicity
 _atom_site_fract_x
 _atom_site_fract_y
 _atom_site_fract_z
 _atom_site_occupancy
  Tm  Tm0  1  0.190325  0.809675  0.809675  1
  Tm  Tm1  1  0.809675  0.190325  0.190325  1
  Tm  Tm2  1  0.809675  0.190325  0.809675  1
  Tm  Tm3  1  0.190325  0.809675  0.190325  1
  Tm  Tm4  1  0.809675  0.809675  0.190325  1
  Tm  Tm5  1  0.190325  0.190325  0.809675  1
  Lu  Lu6  1  0.598571  0.598571  0.598571  1
  Lu  Lu7  1  0.598571  0.598571  0.204286  1
  Lu  Lu8  1  0.598571  0.204286  0.598571  1
  Lu  Lu9  1  0.204286  0.598571  0.598571  1
  Lu  Lu10  1  0.060113  0.439887  0.439887  1
  Lu  Lu11  1  0.439887  0.060113  0.060113  1
  Lu  Lu12  1  0.439887  0.060113  0.439887  1
  Lu  Lu13  1  0.060113  0.439887  0.060113  1
  Lu  Lu14  1  0.439887  0.439887  0.060113  1
  Lu  Lu15  1  0.060113  0.060113  0.439887  1
  In  In16  1  0.833325  0.833325  0.833325  1
  In  In17  1  0.833325  0.833325  0.500025  1
  In  In18  1  0.833325  0.500025  0.833325  1
  In  In19  1  0.500025  0.833325  0.833325  1
  Ir  Ir20  1  0.391103  0.391103  0.391103  1
  Ir  Ir21  1  0.391103  0.391103  0.826691  1
  Ir  Ir22  1  0.391103  0.826691  0.391103  1
  Ir  Ir23  1  0.826691  0.391103  0.391103  1
