# generated using pymatgen
data_CaTaRuF12
_symmetry_space_group_name_H-M   'P 1'
_cell_length_a   11.74945737
_cell_length_b   5.85863831
_cell_length_c   5.86847131
_cell_angle_alpha   57.48736733
_cell_angle_beta   57.39226808
_cell_angle_gamma   57.34271948
_symmetry_Int_Tables_number   1
_chemical_formula_structural   CaTaRuF12
_chemical_formula_sum   'Ca1 Ta1 Ru1 F12'
_cell_volume   268.60237914
_cell_formula_units_Z   1
loop_
 _symmetry_equiv_pos_site_id
 _symmetry_equiv_pos_as_xyz
  1  'x, y, z'
loop_
 _atom_site_type_symbol
 _atom_site_label
 _atom_site_symmetry_multiplicity
 _atom_site_fract_x
 _atom_site_fract_y
 _atom_site_fract_z
 _atom_site_occupancy
  Ca  Ca0  1  0.751347  0.494584  0.503469  1
  Ta  Ta1  1  0.485295  0.015197  0.005630  1
  Ru  Ru2  1  0.007239  0.989872  0.999533  1
  F  F3  1  0.159811  0.123819  0.778392  1
  F  F4  1  0.658756  0.136125  0.777438  1
  F  F5  1  0.062015  0.778090  0.321120  1
  F  F6  1  0.572385  0.770914  0.310950  1
  F  F7  1  0.111309  0.675654  0.877324  1
  F  F8  1  0.615441  0.683347  0.862293  1
  F  F9  1  0.441131  0.220714  0.667698  1
  F  F10  1  0.934847  0.222148  0.681207  1
  F  F11  1  0.334835  0.870666  0.233749  1
  F  F12  1  0.840106  0.865874  0.225300  1
  F  F13  1  0.388013  0.333647  0.123847  1
  F  F14  1  0.887469  0.319347  0.132051  1
