# generated using pymatgen
data_ErZn2InCuIr
_symmetry_space_group_name_H-M   'P 1'
_cell_length_a   5.34824846
_cell_length_b   5.25127915
_cell_length_c   5.25127926
_cell_angle_alpha   59.53048065
_cell_angle_beta   58.71100179
_cell_angle_gamma   58.71100679
_symmetry_Int_Tables_number   1
_chemical_formula_structural   ErZn2InCuIr
_chemical_formula_sum   'Er1 Zn2 In1 Cu1 Ir1'
_cell_volume   101.85506395
_cell_formula_units_Z   1
loop_
 _symmetry_equiv_pos_site_id
 _symmetry_equiv_pos_as_xyz
  1  'x, y, z'
loop_
 _atom_site_type_symbol
 _atom_site_label
 _atom_site_symmetry_multiplicity
 _atom_site_fract_x
 _atom_site_fract_y
 _atom_site_fract_z
 _atom_site_occupancy
  Er  Er0  1  0.249426  0.254367  0.254367  1
  Zn  Zn1  1  0.628185  0.622462  0.123139  1
  Zn  Zn2  1  0.628185  0.123139  0.622462  1
  In  In3  1  0.998416  0.000300  0.000300  1
  Cu  Cu4  1  0.124395  0.624278  0.624278  1
  Ir  Ir5  1  0.621392  0.625454  0.625454  1
