# generated using pymatgen
data_Cr2Ir3Ru2Rh
_symmetry_space_group_name_H-M   'P 1'
_cell_length_a   5.42369100
_cell_length_b   5.41715081
_cell_length_c   4.28528400
_cell_angle_alpha   90.00000000
_cell_angle_beta   90.00000000
_cell_angle_gamma   120.03993947
_symmetry_Int_Tables_number   1
_chemical_formula_structural   Cr2Ir3Ru2Rh
_chemical_formula_sum   'Cr2 Ir3 Ru2 Rh1'
_cell_volume   108.99364609
_cell_formula_units_Z   1
loop_
 _symmetry_equiv_pos_site_id
 _symmetry_equiv_pos_as_xyz
  1  'x, y, z'
loop_
 _atom_site_type_symbol
 _atom_site_label
 _atom_site_symmetry_multiplicity
 _atom_site_fract_x
 _atom_site_fract_y
 _atom_site_fract_z
 _atom_site_occupancy
  Cr  Cr0  1  0.333911  0.667822  0.750000  1
  Cr  Cr1  1  0.666145  0.332290  0.250000  1
  Ir  Ir2  1  0.831205  0.662413  0.750000  1
  Ir  Ir3  1  0.337132  0.168010  0.750000  1
  Ir  Ir4  1  0.830876  0.168010  0.750000  1
  Ru  Ru5  1  0.659679  0.831450  0.250000  1
  Ru  Ru6  1  0.171772  0.831450  0.250000  1
  Rh  Rh7  1  0.169278  0.338555  0.250000  1
