# generated using pymatgen
data_Dy8Ho3Sc5(In3Co)2
_symmetry_space_group_name_H-M   'P 1'
_cell_length_a   10.08431085
_cell_length_b   10.08431165
_cell_length_c   6.99168989
_cell_angle_alpha   89.87362338
_cell_angle_beta   90.12637529
_cell_angle_gamma   120.10166140
_symmetry_Int_Tables_number   1
_chemical_formula_structural   Dy8Ho3Sc5(In3Co)2
_chemical_formula_sum   'Dy8 Ho3 Sc5 In6 Co2'
_cell_volume   615.11746553
_cell_formula_units_Z   1
loop_
 _symmetry_equiv_pos_site_id
 _symmetry_equiv_pos_as_xyz
  1  'x, y, z'
loop_
 _atom_site_type_symbol
 _atom_site_label
 _atom_site_symmetry_multiplicity
 _atom_site_fract_x
 _atom_site_fract_y
 _atom_site_fract_z
 _atom_site_occupancy
  Dy  Dy0  1  0.534018  0.071967  0.500072  1
  Dy  Dy1  1  0.928033  0.465982  0.500072  1
  Dy  Dy2  1  0.538368  0.461632  0.500288  1
  Dy  Dy3  1  0.465366  0.937932  0.002456  1
  Dy  Dy4  1  0.062068  0.534634  0.002456  1
  Dy  Dy5  1  0.469320  0.530680  0.007155  1
  Dy  Dy6  1  0.178848  0.355816  0.712321  1
  Dy  Dy7  1  0.644184  0.821152  0.712321  1
  Ho  Ho8  1  0.332023  0.667977  0.392206  1
  Ho  Ho9  1  0.001651  0.998349  0.489589  1
  Ho  Ho10  1  0.001468  0.998532  0.999071  1
  Sc  Sc11  1  0.179711  0.820289  0.711896  1
  Sc  Sc12  1  0.819949  0.640694  0.207157  1
  Sc  Sc13  1  0.359306  0.180051  0.207157  1
  Sc  Sc14  1  0.819979  0.180021  0.208671  1
  Sc  Sc15  1  0.666440  0.333560  0.908415  1
  In  In16  1  0.840972  0.669315  0.765131  1
  In  In17  1  0.330685  0.159028  0.765131  1
  In  In18  1  0.832382  0.167618  0.766320  1
  In  In19  1  0.159561  0.319423  0.249847  1
  In  In20  1  0.680577  0.840439  0.249847  1
  In  In21  1  0.159559  0.840441  0.257367  1
  Co  Co22  1  0.666350  0.333650  0.265625  1
  Co  Co23  1  0.329181  0.670819  0.777468  1
