# generated using pymatgen
data_Nb10Ga5SiB2
_symmetry_space_group_name_H-M   'P 1'
_cell_length_a   7.80854689
_cell_length_b   7.79913299
_cell_length_c   5.35616500
_cell_angle_alpha   90.00000000
_cell_angle_beta   90.00000000
_cell_angle_gamma   119.96013927
_symmetry_Int_Tables_number   1
_chemical_formula_structural   Nb10Ga5SiB2
_chemical_formula_sum   'Nb10 Ga5 Si1 B2'
_cell_volume   282.60212764
_cell_formula_units_Z   1
loop_
 _symmetry_equiv_pos_site_id
 _symmetry_equiv_pos_as_xyz
  1  'x, y, z'
loop_
 _atom_site_type_symbol
 _atom_site_label
 _atom_site_symmetry_multiplicity
 _atom_site_fract_x
 _atom_site_fract_y
 _atom_site_fract_z
 _atom_site_occupancy
  Nb  Nb0  1  0.670168  0.333946  0.500600  1
  Nb  Nb1  1  0.329832  0.663779  0.500600  1
  Nb  Nb2  1  0.329832  0.663779  0.999400  1
  Nb  Nb3  1  0.670168  0.333946  0.999400  1
  Nb  Nb4  1  0.758009  0.757331  0.250000  1
  Nb  Nb5  1  0.241991  0.999322  0.250000  1
  Nb  Nb6  1  0.000000  0.244841  0.250000  1
  Nb  Nb7  1  0.239358  0.243766  0.750000  1
  Nb  Nb8  1  0.760642  0.004408  0.750000  1
  Nb  Nb9  1  0.000000  0.755117  0.750000  1
  Ga  Ga10  1  0.401573  0.399916  0.250000  1
  Ga  Ga11  1  0.598427  0.998343  0.250000  1
  Ga  Ga12  1  0.000000  0.600705  0.250000  1
  Ga  Ga13  1  0.599921  0.600221  0.750000  1
  Ga  Ga14  1  0.400079  0.000300  0.750000  1
  Si  Si15  1  0.000000  0.402282  0.750000  1
  B  B16  1  0.000000  0.998999  0.499645  1
  B  B17  1  0.000000  0.998999  0.000355  1
