# generated using pymatgen
data_Tb2Lu3Ga4
_symmetry_space_group_name_H-M   'P 1'
_cell_length_a   7.41112400
_cell_length_b   7.76605700
_cell_length_c   14.97679600
_cell_angle_alpha   90.00000000
_cell_angle_beta   90.00000000
_cell_angle_gamma   90.00000000
_symmetry_Int_Tables_number   1
_chemical_formula_structural   Tb2Lu3Ga4
_chemical_formula_sum   'Tb8 Lu12 Ga16'
_cell_volume   861.99266015
_cell_formula_units_Z   4
loop_
 _symmetry_equiv_pos_site_id
 _symmetry_equiv_pos_as_xyz
  1  'x, y, z'
loop_
 _atom_site_type_symbol
 _atom_site_label
 _atom_site_symmetry_multiplicity
 _atom_site_fract_x
 _atom_site_fract_y
 _atom_site_fract_z
 _atom_site_occupancy
  Tb  Tb0  1  0.013338  0.180917  0.095056  1
  Tb  Tb1  1  0.986662  0.819083  0.904944  1
  Tb  Tb2  1  0.486662  0.680917  0.904944  1
  Tb  Tb3  1  0.986662  0.819083  0.595056  1
  Tb  Tb4  1  0.513338  0.319083  0.095056  1
  Tb  Tb5  1  0.013338  0.180917  0.404944  1
  Tb  Tb6  1  0.513338  0.319083  0.404944  1
  Tb  Tb7  1  0.486662  0.680917  0.595056  1
  Lu  Lu8  1  0.164259  0.508890  0.750000  1
  Lu  Lu9  1  0.835741  0.491110  0.250000  1
  Lu  Lu10  1  0.335741  0.008890  0.250000  1
  Lu  Lu11  1  0.664259  0.991110  0.750000  1
  Lu  Lu12  1  0.328229  0.174744  0.622298  1
  Lu  Lu13  1  0.671771  0.825256  0.377702  1
  Lu  Lu14  1  0.171771  0.674744  0.377702  1
  Lu  Lu15  1  0.671771  0.825256  0.122298  1
  Lu  Lu16  1  0.828229  0.325256  0.622298  1
  Lu  Lu17  1  0.328229  0.174744  0.877702  1
  Lu  Lu18  1  0.828229  0.325256  0.877702  1
  Lu  Lu19  1  0.171771  0.674744  0.122298  1
  Ga  Ga20  1  0.033552  0.112713  0.750000  1
  Ga  Ga21  1  0.966448  0.887287  0.250000  1
  Ga  Ga22  1  0.466448  0.612713  0.250000  1
  Ga  Ga23  1  0.533552  0.387287  0.750000  1
  Ga  Ga24  1  0.279148  0.872053  0.750000  1
  Ga  Ga25  1  0.720852  0.127947  0.250000  1
  Ga  Ga26  1  0.220852  0.372053  0.250000  1
  Ga  Ga27  1  0.779148  0.627947  0.750000  1
  Ga  Ga28  1  0.160332  0.470082  0.540156  1
  Ga  Ga29  1  0.839668  0.529918  0.459844  1
  Ga  Ga30  1  0.339668  0.970082  0.459844  1
  Ga  Ga31  1  0.839668  0.529918  0.040156  1
  Ga  Ga32  1  0.660332  0.029918  0.540156  1
  Ga  Ga33  1  0.160332  0.470082  0.959844  1
  Ga  Ga34  1  0.660332  0.029918  0.959844  1
  Ga  Ga35  1  0.339668  0.970082  0.040156  1
