# generated using pymatgen
data_Ba6LuPd4O15
_symmetry_space_group_name_H-M   'P 1'
_cell_length_a   7.53692504
_cell_length_b   7.60691045
_cell_length_c   7.46415212
_cell_angle_alpha   86.44227049
_cell_angle_beta   86.20533858
_cell_angle_gamma   85.26645298
_symmetry_Int_Tables_number   1
_chemical_formula_structural   Ba6LuPd4O15
_chemical_formula_sum   'Ba6 Lu1 Pd4 O15'
_cell_volume   424.85579089
_cell_formula_units_Z   1
loop_
 _symmetry_equiv_pos_site_id
 _symmetry_equiv_pos_as_xyz
  1  'x, y, z'
loop_
 _atom_site_type_symbol
 _atom_site_label
 _atom_site_symmetry_multiplicity
 _atom_site_fract_x
 _atom_site_fract_y
 _atom_site_fract_z
 _atom_site_occupancy
  Ba  Ba0  1  0.330166  0.676184  0.001535  1
  Ba  Ba1  1  0.005516  0.331725  0.671915  1
  Ba  Ba2  1  0.668643  0.996093  0.329104  1
  Ba  Ba3  1  0.140999  0.860577  0.495824  1
  Ba  Ba4  1  0.499219  0.149515  0.864182  1
  Ba  Ba5  1  0.862724  0.497212  0.141453  1
  Lu  Lu6  1  0.500770  0.497744  0.501057  1
  Pd  Pd7  1  0.297058  0.300428  0.293688  1
  Pd  Pd8  1  0.703054  0.704128  0.702895  1
  Pd  Pd9  1  0.095591  0.097944  0.099025  1
  Pd  Pd10  1  0.900789  0.897675  0.903544  1
  O  O11  1  0.145503  0.994560  0.847780  1
  O  O12  1  0.843386  0.141612  0.002733  1
  O  O13  1  0.989917  0.822839  0.149708  1
  O  O14  1  0.039654  0.209991  0.344467  1
  O  O15  1  0.344873  0.042842  0.202427  1
  O  O16  1  0.214725  0.363950  0.032478  1
  O  O17  1  0.794419  0.959776  0.654885  1
  O  O18  1  0.656559  0.799104  0.962485  1
  O  O19  1  0.961504  0.657029  0.793244  1
  O  O20  1  0.376337  0.241439  0.550622  1
  O  O21  1  0.550049  0.374124  0.239135  1
  O  O22  1  0.240193  0.549576  0.379207  1
  O  O23  1  0.759155  0.620515  0.451514  1
  O  O24  1  0.450601  0.759194  0.622180  1
  O  O25  1  0.628597  0.454222  0.762912  1
