# generated using pymatgen
data_TaTi3(MnB2)2
_symmetry_space_group_name_H-M   'P 1'
_cell_length_a   5.79044053
_cell_length_b   5.79044118
_cell_length_c   3.18545200
_cell_angle_alpha   90.00000000
_cell_angle_beta   90.00000000
_cell_angle_gamma   89.89629036
_symmetry_Int_Tables_number   1
_chemical_formula_structural   TaTi3(MnB2)2
_chemical_formula_sum   'Ta1 Ti3 Mn2 B4'
_cell_volume   106.80549922
_cell_formula_units_Z   1
loop_
 _symmetry_equiv_pos_site_id
 _symmetry_equiv_pos_as_xyz
  1  'x, y, z'
loop_
 _atom_site_type_symbol
 _atom_site_label
 _atom_site_symmetry_multiplicity
 _atom_site_fract_x
 _atom_site_fract_y
 _atom_site_fract_z
 _atom_site_occupancy
  Ta  Ta0  1  0.318734  0.818734  0.500000  1
  Ti  Ti1  1  0.819031  0.679556  0.500000  1
  Ti  Ti2  1  0.179556  0.319031  0.500000  1
  Ti  Ti3  1  0.682036  0.182036  0.500000  1
  Mn  Mn4  1  0.501505  0.497780  0.000000  1
  Mn  Mn5  1  0.997780  0.001505  0.000000  1
  B  B6  1  0.106986  0.606986  0.000000  1
  B  B7  1  0.888960  0.388960  0.000000  1
  B  B8  1  0.614549  0.890864  0.000000  1
  B  B9  1  0.390864  0.114549  0.000000  1
