# generated using pymatgen
data_Hf2MnAgF11
_symmetry_space_group_name_H-M   'P 1'
_cell_length_a   5.88606510
_cell_length_b   5.88606507
_cell_length_c   7.84011525
_cell_angle_alpha   69.46963375
_cell_angle_beta   69.46963392
_cell_angle_gamma   73.30394219
_symmetry_Int_Tables_number   1
_chemical_formula_structural   Hf2MnAgF11
_chemical_formula_sum   'Hf2 Mn1 Ag1 F11'
_cell_volume   234.00075829
_cell_formula_units_Z   1
loop_
 _symmetry_equiv_pos_site_id
 _symmetry_equiv_pos_as_xyz
  1  'x, y, z'
loop_
 _atom_site_type_symbol
 _atom_site_label
 _atom_site_symmetry_multiplicity
 _atom_site_fract_x
 _atom_site_fract_y
 _atom_site_fract_z
 _atom_site_occupancy
  Hf  Hf0  1  0.492012  0.492012  0.237913  1
  Hf  Hf1  1  0.507988  0.507988  0.762087  1
  Mn  Mn2  1  0.000000  0.000000  0.500000  1
  Ag  Ag3  1  0.000000  0.000000  0.000000  1
  F  F4  1  0.203435  0.768077  0.310791  1
  F  F5  1  0.231923  0.796565  0.689209  1
  F  F6  1  0.796565  0.231923  0.689209  1
  F  F7  1  0.768077  0.203435  0.310791  1
  F  F8  1  0.500000  0.500000  0.500000  1
  F  F9  1  0.661351  0.338649  0.000000  1
  F  F10  1  0.338649  0.661351  0.000000  1
  F  F11  1  0.745598  0.745598  0.648833  1
  F  F12  1  0.254402  0.254402  0.351167  1
  F  F13  1  0.721735  0.721735  0.112517  1
  F  F14  1  0.278265  0.278265  0.887483  1
