# generated using pymatgen
data_Ga(Ni4Sb)3
_symmetry_space_group_name_H-M   'P 1'
_cell_length_a   5.22731700
_cell_length_b   5.22731734
_cell_length_c   8.48449100
_cell_angle_alpha   90.00000000
_cell_angle_beta   90.00000000
_cell_angle_gamma   119.99999150
_symmetry_Int_Tables_number   1
_chemical_formula_structural   Ga(Ni4Sb)3
_chemical_formula_sum   'Ga1 Ni12 Sb3'
_cell_volume   200.77709502
_cell_formula_units_Z   1
loop_
 _symmetry_equiv_pos_site_id
 _symmetry_equiv_pos_as_xyz
  1  'x, y, z'
loop_
 _atom_site_type_symbol
 _atom_site_label
 _atom_site_symmetry_multiplicity
 _atom_site_fract_x
 _atom_site_fract_y
 _atom_site_fract_z
 _atom_site_occupancy
  Ga  Ga0  1  0.666667  0.333333  0.500000  1
  Ni  Ni1  1  0.174158  0.825842  0.500000  1
  Ni  Ni2  1  0.174158  0.348316  0.500000  1
  Ni  Ni3  1  0.651684  0.825842  0.500000  1
  Ni  Ni4  1  0.827002  0.172998  0.000000  1
  Ni  Ni5  1  0.827002  0.654005  0.000000  1
  Ni  Ni6  1  0.345995  0.172998  0.000000  1
  Ni  Ni7  1  0.996422  0.498211  0.744396  1
  Ni  Ni8  1  0.501789  0.498211  0.744396  1
  Ni  Ni9  1  0.501789  0.003578  0.744396  1
  Ni  Ni10  1  0.996422  0.498211  0.255604  1
  Ni  Ni11  1  0.501789  0.498211  0.255604  1
  Ni  Ni12  1  0.501789  0.003578  0.255604  1
  Sb  Sb13  1  0.333333  0.666667  0.000000  1
  Sb  Sb14  1  0.000000  0.000000  0.746411  1
  Sb  Sb15  1  0.000000  0.000000  0.253589  1
