# generated using pymatgen
data_Tm2LuZr(Ga3Ir)6
_symmetry_space_group_name_H-M   'P 1'
_cell_length_a   7.54866524
_cell_length_b   7.54343473
_cell_length_c   9.42814600
_cell_angle_alpha   90.00000000
_cell_angle_beta   90.00000000
_cell_angle_gamma   119.86016085
_symmetry_Int_Tables_number   1
_chemical_formula_structural   Tm2LuZr(Ga3Ir)6
_chemical_formula_sum   'Tm2 Lu1 Zr1 Ga18 Ir6'
_cell_volume   465.59304126
_cell_formula_units_Z   1
loop_
 _symmetry_equiv_pos_site_id
 _symmetry_equiv_pos_as_xyz
  1  'x, y, z'
loop_
 _atom_site_type_symbol
 _atom_site_label
 _atom_site_symmetry_multiplicity
 _atom_site_fract_x
 _atom_site_fract_y
 _atom_site_fract_z
 _atom_site_occupancy
  Tm  Tm0  1  0.003614  0.328718  0.750000  1
  Tm  Tm1  1  0.329767  0.003531  0.750000  1
  Lu  Lu2  1  0.670643  0.998579  0.250000  1
  Zr  Zr3  1  0.997329  0.669707  0.250000  1
  Ga  Ga4  1  0.125900  0.126087  0.250000  1
  Ga  Ga5  1  0.870305  0.869737  0.750000  1
  Ga  Ga6  1  0.998163  0.336767  0.083961  1
  Ga  Ga7  1  0.001473  0.665038  0.920730  1
  Ga  Ga8  1  0.001473  0.665038  0.579270  1
  Ga  Ga9  1  0.332564  0.996764  0.415692  1
  Ga  Ga10  1  0.998163  0.336767  0.416039  1
  Ga  Ga11  1  0.665089  0.000689  0.580804  1
  Ga  Ga12  1  0.665089  0.000689  0.919196  1
  Ga  Ga13  1  0.332564  0.996764  0.084308  1
  Ga  Ga14  1  0.332336  0.332178  0.565967  1
  Ga  Ga15  1  0.670642  0.669419  0.428886  1
  Ga  Ga16  1  0.670642  0.669419  0.071114  1
  Ga  Ga17  1  0.332336  0.332178  0.934033  1
  Ga  Ga18  1  0.338983  0.548918  0.250000  1
  Ga  Ga19  1  0.660664  0.452793  0.750000  1
  Ga  Ga20  1  0.550710  0.340083  0.250000  1
  Ga  Ga21  1  0.451382  0.659610  0.750000  1
  Ir  Ir22  1  0.672306  0.328579  0.000967  1
  Ir  Ir23  1  0.327875  0.672194  0.001607  1
  Ir  Ir24  1  0.327875  0.672194  0.498393  1
  Ir  Ir25  1  0.672306  0.328579  0.499033  1
  Ir  Ir26  1  0.999903  0.999492  0.000797  1
  Ir  Ir27  1  0.999903  0.999492  0.499203  1
