# generated using pymatgen
data_Zr10Al3Zn2Te3
_symmetry_space_group_name_H-M   'P 1'
_cell_length_a   8.57295900
_cell_length_b   8.57296074
_cell_length_c   5.81552700
_cell_angle_alpha   90.00000000
_cell_angle_beta   90.00000000
_cell_angle_gamma   119.99999714
_symmetry_Int_Tables_number   1
_chemical_formula_structural   Zr10Al3Zn2Te3
_chemical_formula_sum   'Zr10 Al3 Zn2 Te3'
_cell_volume   370.15302437
_cell_formula_units_Z   1
loop_
 _symmetry_equiv_pos_site_id
 _symmetry_equiv_pos_as_xyz
  1  'x, y, z'
loop_
 _atom_site_type_symbol
 _atom_site_label
 _atom_site_symmetry_multiplicity
 _atom_site_fract_x
 _atom_site_fract_y
 _atom_site_fract_z
 _atom_site_occupancy
  Zr  Zr0  1  0.735178  0.735178  0.250000  1
  Zr  Zr1  1  0.264822  0.000000  0.250000  1
  Zr  Zr2  1  0.000000  0.264822  0.250000  1
  Zr  Zr3  1  0.280906  0.280906  0.750000  1
  Zr  Zr4  1  0.719094  0.000000  0.750000  1
  Zr  Zr5  1  0.000000  0.719094  0.750000  1
  Zr  Zr6  1  0.666667  0.333333  0.508947  1
  Zr  Zr7  1  0.333333  0.666667  0.508947  1
  Zr  Zr8  1  0.333333  0.666667  0.991053  1
  Zr  Zr9  1  0.666667  0.333333  0.991053  1
  Al  Al10  1  0.625698  0.625698  0.750000  1
  Al  Al11  1  0.374302  0.000000  0.750000  1
  Al  Al12  1  0.000000  0.374302  0.750000  1
  Zn  Zn13  1  0.000000  0.000000  0.520844  1
  Zn  Zn14  1  0.000000  0.000000  0.979156  1
  Te  Te15  1  0.390710  0.390710  0.250000  1
  Te  Te16  1  0.609290  0.000000  0.250000  1
  Te  Te17  1  0.000000  0.609290  0.250000  1
