# generated using pymatgen
data_Ho6CoP12Rh15W2
_symmetry_space_group_name_H-M   'P 1'
_cell_length_a   3.90811400
_cell_length_b   11.10359700
_cell_length_c   12.78359400
_cell_angle_alpha   90.00000000
_cell_angle_beta   90.00000000
_cell_angle_gamma   90.00000000
_symmetry_Int_Tables_number   1
_chemical_formula_structural   Ho6CoP12Rh15W2
_chemical_formula_sum   'Ho6 Co1 P12 Rh15 W2'
_cell_volume   554.73284896
_cell_formula_units_Z   1
loop_
 _symmetry_equiv_pos_site_id
 _symmetry_equiv_pos_as_xyz
  1  'x, y, z'
loop_
 _atom_site_type_symbol
 _atom_site_label
 _atom_site_symmetry_multiplicity
 _atom_site_fract_x
 _atom_site_fract_y
 _atom_site_fract_z
 _atom_site_occupancy
  Ho  Ho0  1  0.000000  0.500000  0.522216  1
  Ho  Ho1  1  0.500000  0.000000  0.477382  1
  Ho  Ho2  1  0.500000  0.818824  0.201833  1
  Ho  Ho3  1  0.500000  0.181176  0.201833  1
  Ho  Ho4  1  0.000000  0.685380  0.798461  1
  Ho  Ho5  1  0.000000  0.314620  0.798461  1
  Co  Co6  1  0.500000  0.000000  0.008069  1
  P  P7  1  0.500000  0.314719  0.618250  1
  P  P8  1  0.500000  0.685281  0.618250  1
  P  P9  1  0.000000  0.184413  0.381566  1
  P  P10  1  0.000000  0.815587  0.381566  1
  P  P11  1  0.500000  0.500000  0.875176  1
  P  P12  1  0.000000  0.000000  0.122171  1
  P  P13  1  0.500000  0.852200  0.891378  1
  P  P14  1  0.500000  0.147800  0.891378  1
  P  P15  1  0.000000  0.654080  0.111694  1
  P  P16  1  0.000000  0.345920  0.111694  1
  P  P17  1  0.500000  0.500000  0.346714  1
  P  P18  1  0.000000  0.000000  0.653177  1
  Rh  Rh19  1  0.000000  0.500000  0.987286  1
  Rh  Rh20  1  0.500000  0.295015  0.431773  1
  Rh  Rh21  1  0.500000  0.704985  0.431773  1
  Rh  Rh22  1  0.000000  0.204799  0.568462  1
  Rh  Rh23  1  0.000000  0.795201  0.568462  1
  Rh  Rh24  1  0.500000  0.874939  0.710150  1
  Rh  Rh25  1  0.500000  0.125061  0.710150  1
  Rh  Rh26  1  0.000000  0.625431  0.290492  1
  Rh  Rh27  1  0.000000  0.374569  0.290492  1
  Rh  Rh28  1  0.500000  0.330494  0.986121  1
  Rh  Rh29  1  0.500000  0.669506  0.986121  1
  Rh  Rh30  1  0.000000  0.163839  0.013986  1
  Rh  Rh31  1  0.000000  0.836161  0.013986  1
  Rh  Rh32  1  0.500000  0.500000  0.698523  1
  Rh  Rh33  1  0.000000  0.000000  0.299869  1
  W  W34  1  0.500000  0.500000  0.157556  1
  W  W35  1  0.000000  0.000000  0.843526  1
