# generated using pymatgen
data_Zr3Co7(NiP3)2
_symmetry_space_group_name_H-M   'P 1'
_cell_length_a   3.62462900
_cell_length_b   10.29978400
_cell_length_c   11.92572200
_cell_angle_alpha   90.00000000
_cell_angle_beta   90.00000000
_cell_angle_gamma   90.00000000
_symmetry_Int_Tables_number   1
_chemical_formula_structural   Zr3Co7(NiP3)2
_chemical_formula_sum   'Zr6 Co14 Ni4 P12'
_cell_volume   445.22173653
_cell_formula_units_Z   2
loop_
 _symmetry_equiv_pos_site_id
 _symmetry_equiv_pos_as_xyz
  1  'x, y, z'
loop_
 _atom_site_type_symbol
 _atom_site_label
 _atom_site_symmetry_multiplicity
 _atom_site_fract_x
 _atom_site_fract_y
 _atom_site_fract_z
 _atom_site_occupancy
  Zr  Zr0  1  0.000000  0.500000  0.523244  1
  Zr  Zr1  1  0.500000  0.000000  0.476756  1
  Zr  Zr2  1  0.500000  0.818836  0.206520  1
  Zr  Zr3  1  0.500000  0.181164  0.206520  1
  Zr  Zr4  1  0.000000  0.681164  0.793480  1
  Zr  Zr5  1  0.000000  0.318836  0.793480  1
  Co  Co6  1  0.000000  0.500000  0.986695  1
  Co  Co7  1  0.500000  0.000000  0.013305  1
  Co  Co8  1  0.500000  0.332393  0.994865  1
  Co  Co9  1  0.500000  0.667607  0.994865  1
  Co  Co10  1  0.000000  0.167607  0.005135  1
  Co  Co11  1  0.000000  0.832393  0.005135  1
  Co  Co12  1  0.500000  0.299431  0.432366  1
  Co  Co13  1  0.500000  0.700569  0.432366  1
  Co  Co14  1  0.000000  0.200569  0.567634  1
  Co  Co15  1  0.000000  0.799431  0.567634  1
  Co  Co16  1  0.500000  0.874218  0.707511  1
  Co  Co17  1  0.500000  0.125782  0.707511  1
  Co  Co18  1  0.000000  0.625782  0.292489  1
  Co  Co19  1  0.000000  0.374218  0.292489  1
  Ni  Ni20  1  0.500000  0.500000  0.161788  1
  Ni  Ni21  1  0.000000  0.000000  0.838212  1
  Ni  Ni22  1  0.500000  0.500000  0.701996  1
  Ni  Ni23  1  0.000000  0.000000  0.298004  1
  P  P24  1  0.500000  0.500000  0.880465  1
  P  P25  1  0.000000  0.000000  0.119535  1
  P  P26  1  0.500000  0.500000  0.349010  1
  P  P27  1  0.000000  0.000000  0.650990  1
  P  P28  1  0.500000  0.314982  0.616259  1
  P  P29  1  0.500000  0.685018  0.616259  1
  P  P30  1  0.000000  0.185018  0.383741  1
  P  P31  1  0.000000  0.814982  0.383741  1
  P  P32  1  0.500000  0.844516  0.890122  1
  P  P33  1  0.500000  0.155484  0.890122  1
  P  P34  1  0.000000  0.655484  0.109878  1
  P  P35  1  0.000000  0.344516  0.109878  1
