# generated using pymatgen
data_Pr4Nd2ZrCo17P12
_symmetry_space_group_name_H-M   'P 1'
_cell_length_a   3.77295200
_cell_length_b   10.72471400
_cell_length_c   12.54370400
_cell_angle_alpha   90.00000000
_cell_angle_beta   90.00000000
_cell_angle_gamma   90.00000000
_symmetry_Int_Tables_number   1
_chemical_formula_structural   Pr4Nd2ZrCo17P12
_chemical_formula_sum   'Pr4 Nd2 Zr1 Co17 P12'
_cell_volume   507.56632047
_cell_formula_units_Z   1
loop_
 _symmetry_equiv_pos_site_id
 _symmetry_equiv_pos_as_xyz
  1  'x, y, z'
loop_
 _atom_site_type_symbol
 _atom_site_label
 _atom_site_symmetry_multiplicity
 _atom_site_fract_x
 _atom_site_fract_y
 _atom_site_fract_z
 _atom_site_occupancy
  Pr  Pr0  1  0.000000  0.500000  0.529523  1
  Pr  Pr1  1  0.500000  0.000000  0.478910  1
  Pr  Pr2  1  0.500000  0.819481  0.207794  1
  Pr  Pr3  1  0.500000  0.180519  0.207794  1
  Nd  Nd4  1  0.000000  0.683721  0.795170  1
  Nd  Nd5  1  0.000000  0.316279  0.795170  1
  Zr  Zr6  1  0.500000  0.500000  0.152078  1
  Co  Co7  1  0.000000  0.000000  0.838588  1
  Co  Co8  1  0.500000  0.500000  0.705098  1
  Co  Co9  1  0.000000  0.000000  0.294524  1
  Co  Co10  1  0.000000  0.500000  0.982701  1
  Co  Co11  1  0.500000  0.000000  0.011663  1
  Co  Co12  1  0.500000  0.327206  0.988327  1
  Co  Co13  1  0.500000  0.672794  0.988327  1
  Co  Co14  1  0.000000  0.161090  0.000091  1
  Co  Co15  1  0.000000  0.838910  0.000091  1
  Co  Co16  1  0.500000  0.295210  0.434917  1
  Co  Co17  1  0.500000  0.704790  0.434917  1
  Co  Co18  1  0.000000  0.201945  0.571264  1
  Co  Co19  1  0.000000  0.798055  0.571264  1
  Co  Co20  1  0.500000  0.882480  0.709496  1
  Co  Co21  1  0.500000  0.117520  0.709496  1
  Co  Co22  1  0.000000  0.619383  0.300286  1
  Co  Co23  1  0.000000  0.380617  0.300286  1
  P  P24  1  0.500000  0.500000  0.883947  1
  P  P25  1  0.000000  0.000000  0.112010  1
  P  P26  1  0.500000  0.500000  0.356840  1
  P  P27  1  0.000000  0.000000  0.660101  1
  P  P28  1  0.500000  0.303519  0.616561  1
  P  P29  1  0.500000  0.696481  0.616561  1
  P  P30  1  0.000000  0.193976  0.389389  1
  P  P31  1  0.000000  0.806024  0.389389  1
  P  P32  1  0.500000  0.854057  0.890416  1
  P  P33  1  0.500000  0.145943  0.890416  1
  P  P34  1  0.000000  0.662762  0.093299  1
  P  P35  1  0.000000  0.337238  0.093299  1
