# generated using pymatgen
data_CeHoTmSe3
_symmetry_space_group_name_H-M   'P 1'
_cell_length_a   4.06092800
_cell_length_b   4.06092816
_cell_length_c   10.23427000
_cell_angle_alpha   90.00000000
_cell_angle_beta   90.00000000
_cell_angle_gamma   119.99999867
_symmetry_Int_Tables_number   1
_chemical_formula_structural   CeHoTmSe3
_chemical_formula_sum   'Ce1 Ho1 Tm1 Se3'
_cell_volume   146.16322082
_cell_formula_units_Z   1
loop_
 _symmetry_equiv_pos_site_id
 _symmetry_equiv_pos_as_xyz
  1  'x, y, z'
loop_
 _atom_site_type_symbol
 _atom_site_label
 _atom_site_symmetry_multiplicity
 _atom_site_fract_x
 _atom_site_fract_y
 _atom_site_fract_z
 _atom_site_occupancy
  Ce  Ce0  1  0.000000  0.000000  0.999531  1
  Ho  Ho1  1  0.666667  0.333333  0.333996  1
  Tm  Tm2  1  0.333333  0.666667  0.666654  1
  Se  Se3  1  0.333333  0.666667  0.178561  1
  Se  Se4  1  0.666667  0.333333  0.818590  1
  Se  Se5  1  0.000000  0.000000  0.502669  1
