# generated using pymatgen
data_YHo2Si3Ru2
_symmetry_space_group_name_H-M   'P 1'
_cell_length_a   5.73810649
_cell_length_b   5.73810485
_cell_length_c   13.76704000
_cell_angle_alpha   90.00000000
_cell_angle_beta   90.00000000
_cell_angle_gamma   137.33954523
_symmetry_Int_Tables_number   1
_chemical_formula_structural   YHo2Si3Ru2
_chemical_formula_sum   'Y2 Ho4 Si6 Ru4'
_cell_volume   307.17407409
_cell_formula_units_Z   2
loop_
 _symmetry_equiv_pos_site_id
 _symmetry_equiv_pos_as_xyz
  1  'x, y, z'
loop_
 _atom_site_type_symbol
 _atom_site_label
 _atom_site_symmetry_multiplicity
 _atom_site_fract_x
 _atom_site_fract_y
 _atom_site_fract_z
 _atom_site_occupancy
  Y  Y0  1  0.642762  0.357238  0.250000  1
  Y  Y1  1  0.357238  0.642762  0.750000  1
  Ho  Ho2  1  0.923972  0.076028  0.385562  1
  Ho  Ho3  1  0.076028  0.923972  0.614438  1
  Ho  Ho4  1  0.923972  0.076028  0.114438  1
  Ho  Ho5  1  0.076028  0.923972  0.885562  1
  Si  Si6  1  0.617442  0.382558  0.461817  1
  Si  Si7  1  0.382558  0.617442  0.538183  1
  Si  Si8  1  0.617442  0.382558  0.038183  1
  Si  Si9  1  0.382558  0.617442  0.961817  1
  Si  Si10  1  0.331046  0.668954  0.250000  1
  Si  Si11  1  0.668954  0.331046  0.750000  1
  Ru  Ru12  1  0.786581  0.213419  0.919520  1
  Ru  Ru13  1  0.213419  0.786581  0.080480  1
  Ru  Ru14  1  0.786581  0.213419  0.580480  1
  Ru  Ru15  1  0.213419  0.786581  0.419520  1
