# generated using pymatgen
data_LiTb3(Co4P3)2
_symmetry_space_group_name_H-M   'P 1'
_cell_length_a   3.72640700
_cell_length_b   10.58770600
_cell_length_c   12.21809300
_cell_angle_alpha   90.00000000
_cell_angle_beta   90.00000000
_cell_angle_gamma   90.00000000
_symmetry_Int_Tables_number   1
_chemical_formula_structural   LiTb3(Co4P3)2
_chemical_formula_sum   'Li2 Tb6 Co16 P12'
_cell_volume   482.05388444
_cell_formula_units_Z   2
loop_
 _symmetry_equiv_pos_site_id
 _symmetry_equiv_pos_as_xyz
  1  'x, y, z'
loop_
 _atom_site_type_symbol
 _atom_site_label
 _atom_site_symmetry_multiplicity
 _atom_site_fract_x
 _atom_site_fract_y
 _atom_site_fract_z
 _atom_site_occupancy
  Li  Li0  1  0.500000  0.500000  0.153345  1
  Li  Li1  1  0.000000  0.000000  0.846655  1
  Tb  Tb2  1  0.000000  0.500000  0.522934  1
  Tb  Tb3  1  0.500000  0.000000  0.477066  1
  Tb  Tb4  1  0.500000  0.818842  0.206086  1
  Tb  Tb5  1  0.500000  0.181158  0.206086  1
  Tb  Tb6  1  0.000000  0.681158  0.793914  1
  Tb  Tb7  1  0.000000  0.318842  0.793914  1
  Co  Co8  1  0.500000  0.500000  0.703921  1
  Co  Co9  1  0.000000  0.000000  0.296079  1
  Co  Co10  1  0.000000  0.500000  0.986429  1
  Co  Co11  1  0.500000  0.000000  0.013571  1
  Co  Co12  1  0.500000  0.333113  0.996691  1
  Co  Co13  1  0.500000  0.666887  0.996691  1
  Co  Co14  1  0.000000  0.166887  0.003309  1
  Co  Co15  1  0.000000  0.833113  0.003309  1
  Co  Co16  1  0.500000  0.296686  0.431008  1
  Co  Co17  1  0.500000  0.703314  0.431008  1
  Co  Co18  1  0.000000  0.203314  0.568992  1
  Co  Co19  1  0.000000  0.796686  0.568992  1
  Co  Co20  1  0.500000  0.879087  0.706754  1
  Co  Co21  1  0.500000  0.120913  0.706754  1
  Co  Co22  1  0.000000  0.620913  0.293246  1
  Co  Co23  1  0.000000  0.379087  0.293246  1
  P  P24  1  0.500000  0.500000  0.884640  1
  P  P25  1  0.000000  0.000000  0.115360  1
  P  P26  1  0.500000  0.500000  0.345603  1
  P  P27  1  0.000000  0.000000  0.654397  1
  P  P28  1  0.500000  0.308908  0.615608  1
  P  P29  1  0.500000  0.691092  0.615608  1
  P  P30  1  0.000000  0.191092  0.384392  1
  P  P31  1  0.000000  0.808908  0.384392  1
  P  P32  1  0.500000  0.843916  0.894449  1
  P  P33  1  0.500000  0.156084  0.894449  1
  P  P34  1  0.000000  0.656084  0.105551  1
  P  P35  1  0.000000  0.343916  0.105551  1
