# generated using pymatgen
data_Ac7Sm(Si3Pt)4
_symmetry_space_group_name_H-M   'P 1'
_cell_length_a   8.45965900
_cell_length_b   8.45966010
_cell_length_c   8.89365900
_cell_angle_alpha   90.00000000
_cell_angle_beta   90.00000000
_cell_angle_gamma   120.01000265
_symmetry_Int_Tables_number   1
_chemical_formula_structural   Ac7Sm(Si3Pt)4
_chemical_formula_sum   'Ac7 Sm1 Si12 Pt4'
_cell_volume   551.15416523
_cell_formula_units_Z   1
loop_
 _symmetry_equiv_pos_site_id
 _symmetry_equiv_pos_as_xyz
  1  'x, y, z'
loop_
 _atom_site_type_symbol
 _atom_site_label
 _atom_site_symmetry_multiplicity
 _atom_site_fract_x
 _atom_site_fract_y
 _atom_site_fract_z
 _atom_site_occupancy
  Ac  Ac0  1  0.500218  0.499782  0.250000  1
  Ac  Ac1  1  0.000719  0.500388  0.750000  1
  Ac  Ac2  1  0.999574  0.499809  0.249999  1
  Ac  Ac3  1  0.499612  0.999281  0.750000  1
  Ac  Ac4  1  0.500191  0.000426  0.249999  1
  Ac  Ac5  1  0.000036  0.999964  0.750001  1
  Ac  Ac6  1  0.999978  0.000022  0.249999  1
  Sm  Sm7  1  0.499823  0.500177  0.750000  1
  Si  Si8  1  0.834159  0.165841  0.000085  1
  Si  Si9  1  0.165807  0.834193  0.000115  1
  Si  Si10  1  0.332946  0.168590  0.996740  1
  Si  Si11  1  0.165807  0.834193  0.499884  1
  Si  Si12  1  0.667012  0.831386  0.996586  1
  Si  Si13  1  0.834159  0.165841  0.499915  1
  Si  Si14  1  0.831410  0.667054  0.996740  1
  Si  Si15  1  0.667012  0.831386  0.503414  1
  Si  Si16  1  0.168614  0.332988  0.996586  1
  Si  Si17  1  0.332947  0.168590  0.503260  1
  Si  Si18  1  0.168614  0.332988  0.503414  1
  Si  Si19  1  0.831410  0.667053  0.503260  1
  Pt  Pt20  1  0.665434  0.334566  0.994518  1
  Pt  Pt21  1  0.334542  0.665458  0.995678  1
  Pt  Pt22  1  0.334542  0.665458  0.504322  1
  Pt  Pt23  1  0.665434  0.334566  0.505483  1
