# generated using pymatgen
data_Lu2TaNb(SnPt)4
_symmetry_space_group_name_H-M   'P 1'
_cell_length_a   6.41323707
_cell_length_b   4.52458500
_cell_length_c   9.06145709
_cell_angle_alpha   90.00000000
_cell_angle_beta   89.98353029
_cell_angle_gamma   90.00000000
_symmetry_Int_Tables_number   1
_chemical_formula_structural   Lu2TaNb(SnPt)4
_chemical_formula_sum   'Lu2 Ta1 Nb1 Sn4 Pt4'
_cell_volume   262.93843022
_cell_formula_units_Z   1
loop_
 _symmetry_equiv_pos_site_id
 _symmetry_equiv_pos_as_xyz
  1  'x, y, z'
loop_
 _atom_site_type_symbol
 _atom_site_label
 _atom_site_symmetry_multiplicity
 _atom_site_fract_x
 _atom_site_fract_y
 _atom_site_fract_z
 _atom_site_occupancy
  Lu  Lu0  1  0.003270  0.000000  0.376356  1
  Lu  Lu1  1  0.503574  0.500001  0.623738  1
  Ta  Ta2  1  0.997363  0.000000  0.876021  1
  Nb  Nb3  1  0.497304  0.500001  0.124353  1
  Sn  Sn4  1  0.988218  0.500001  0.126301  1
  Sn  Sn5  1  0.510023  0.000000  0.374046  1
  Sn  Sn6  1  0.009379  0.500001  0.625468  1
  Sn  Sn7  1  0.487946  0.000000  0.873981  1
  Pt  Pt8  1  0.739920  0.000000  0.112110  1
  Pt  Pt9  1  0.263118  0.500001  0.360939  1
  Pt  Pt10  1  0.764553  0.000000  0.640576  1
  Pt  Pt11  1  0.235327  0.500001  0.886115  1
