# generated using pymatgen
data_Na2Tc6SnO24
_symmetry_space_group_name_H-M   'P 1'
_cell_length_a   9.81919708
_cell_length_b   9.81919774
_cell_length_c   9.81919900
_cell_angle_alpha   56.50893807
_cell_angle_beta   56.50894253
_cell_angle_gamma   56.50895022
_symmetry_Int_Tables_number   1
_chemical_formula_structural   Na2Tc6SnO24
_chemical_formula_sum   'Na2 Tc6 Sn1 O24'
_cell_volume   615.42662738
_cell_formula_units_Z   1
loop_
 _symmetry_equiv_pos_site_id
 _symmetry_equiv_pos_as_xyz
  1  'x, y, z'
loop_
 _atom_site_type_symbol
 _atom_site_label
 _atom_site_symmetry_multiplicity
 _atom_site_fract_x
 _atom_site_fract_y
 _atom_site_fract_z
 _atom_site_occupancy
  Na  Na0  1  0.362316  0.362316  0.362316  1
  Na  Na1  1  0.640559  0.640559  0.640559  1
  Tc  Tc2  1  0.045680  0.461449  0.753204  1
  Tc  Tc3  1  0.461449  0.753204  0.045680  1
  Tc  Tc4  1  0.753204  0.045680  0.461449  1
  Tc  Tc5  1  0.237786  0.955823  0.545220  1
  Tc  Tc6  1  0.545220  0.237786  0.955823  1
  Tc  Tc7  1  0.955823  0.545220  0.237786  1
  Sn  Sn8  1  0.850065  0.850065  0.850065  1
  O  O9  1  0.107854  0.517856  0.296659  1
  O  O10  1  0.296659  0.107854  0.517856  1
  O  O11  1  0.987025  0.338503  0.970182  1
  O  O12  1  0.517856  0.296659  0.107854  1
  O  O13  1  0.013556  0.679215  0.715012  1
  O  O14  1  0.261350  0.357602  0.646482  1
  O  O15  1  0.357602  0.646482  0.261350  1
  O  O16  1  0.338503  0.970182  0.987025  1
  O  O17  1  0.646482  0.261350  0.357602  1
  O  O18  1  0.008965  0.996125  0.684651  1
  O  O19  1  0.278017  0.974275  0.343919  1
  O  O20  1  0.343919  0.278017  0.974275  1
  O  O21  1  0.679215  0.715012  0.013556  1
  O  O22  1  0.715012  0.013556  0.679215  1
  O  O23  1  0.970182  0.987025  0.338503  1
  O  O24  1  0.361976  0.747916  0.643330  1
  O  O25  1  0.684651  0.008965  0.996125  1
  O  O26  1  0.643330  0.361976  0.747916  1
  O  O27  1  0.747916  0.643330  0.361976  1
  O  O28  1  0.974275  0.343919  0.278017  1
  O  O29  1  0.484152  0.670607  0.915022  1
  O  O30  1  0.996125  0.684651  0.008965  1
  O  O31  1  0.670607  0.915022  0.484152  1
  O  O32  1  0.915022  0.484152  0.670607  1
