# generated using pymatgen
data_Tb2Yb2Sb6Rh7
_symmetry_space_group_name_H-M   'P 1'
_cell_length_a   7.60951724
_cell_length_b   7.61297187
_cell_length_c   7.61297223
_cell_angle_alpha   109.38353191
_cell_angle_beta   109.52430489
_cell_angle_gamma   109.52430639
_symmetry_Int_Tables_number   1
_chemical_formula_structural   Tb2Yb2Sb6Rh7
_chemical_formula_sum   'Tb2 Yb2 Sb6 Rh7'
_cell_volume   339.42508461
_cell_formula_units_Z   1
loop_
 _symmetry_equiv_pos_site_id
 _symmetry_equiv_pos_as_xyz
  1  'x, y, z'
loop_
 _atom_site_type_symbol
 _atom_site_label
 _atom_site_symmetry_multiplicity
 _atom_site_fract_x
 _atom_site_fract_y
 _atom_site_fract_z
 _atom_site_occupancy
  Tb  Tb0  1  0.500000  0.000000  0.000000  1
  Tb  Tb1  1  0.500000  0.500000  0.500000  1
  Yb  Yb2  1  0.000000  0.500000  0.000000  1
  Yb  Yb3  1  0.000000  0.000000  0.500000  1
  Sb  Sb4  1  0.000000  0.318379  0.318379  1
  Sb  Sb5  1  0.684689  0.002756  0.681933  1
  Sb  Sb6  1  0.684689  0.681933  0.002756  1
  Sb  Sb7  1  0.000000  0.681621  0.681621  1
  Sb  Sb8  1  0.315311  0.997244  0.318067  1
  Sb  Sb9  1  0.315311  0.318067  0.997244  1
  Rh  Rh10  1  0.000000  0.000000  0.000000  1
  Rh  Rh11  1  0.500000  0.750000  0.250000  1
  Rh  Rh12  1  0.746828  0.496850  0.249979  1
  Rh  Rh13  1  0.253172  0.750021  0.503150  1
  Rh  Rh14  1  0.253172  0.503150  0.750021  1
  Rh  Rh15  1  0.500000  0.250000  0.750000  1
  Rh  Rh16  1  0.746828  0.249979  0.496850  1
