# generated using pymatgen
data_Ca6PrDy(Si3Pd)4
_symmetry_space_group_name_H-M   'P 1'
_cell_length_a   8.25387500
_cell_length_b   8.25387574
_cell_length_c   8.35709900
_cell_angle_alpha   90.00000000
_cell_angle_beta   90.00000000
_cell_angle_gamma   120.00000103
_symmetry_Int_Tables_number   1
_chemical_formula_structural   Ca6PrDy(Si3Pd)4
_chemical_formula_sum   'Ca6 Pr1 Dy1 Si12 Pd4'
_cell_volume   493.06251681
_cell_formula_units_Z   1
loop_
 _symmetry_equiv_pos_site_id
 _symmetry_equiv_pos_as_xyz
  1  'x, y, z'
loop_
 _atom_site_type_symbol
 _atom_site_label
 _atom_site_symmetry_multiplicity
 _atom_site_fract_x
 _atom_site_fract_y
 _atom_site_fract_z
 _atom_site_occupancy
  Ca  Ca0  1  0.499561  0.500439  0.750000  1
  Ca  Ca1  1  0.500458  0.499542  0.250000  1
  Ca  Ca2  1  0.000878  0.500439  0.750000  1
  Ca  Ca3  1  0.999086  0.499542  0.250000  1
  Ca  Ca4  1  0.499561  0.999122  0.750000  1
  Ca  Ca5  1  0.500458  0.000914  0.250000  1
  Pr  Pr6  1  0.000000  0.000000  0.250000  1
  Dy  Dy7  1  0.000000  0.000000  0.750000  1
  Si  Si8  1  0.835044  0.164956  0.996249  1
  Si  Si9  1  0.164957  0.835043  0.996036  1
  Si  Si10  1  0.329913  0.164956  0.996249  1
  Si  Si11  1  0.164957  0.835043  0.503964  1
  Si  Si12  1  0.670085  0.835043  0.996036  1
  Si  Si13  1  0.835044  0.164956  0.503751  1
  Si  Si14  1  0.835044  0.670087  0.996249  1
  Si  Si15  1  0.670085  0.835043  0.503964  1
  Si  Si16  1  0.164957  0.329915  0.996036  1
  Si  Si17  1  0.329913  0.164956  0.503751  1
  Si  Si18  1  0.164957  0.329915  0.503964  1
  Si  Si19  1  0.835044  0.670087  0.503751  1
  Pd  Pd20  1  0.666667  0.333333  0.998449  1
  Pd  Pd21  1  0.333333  0.666667  0.000142  1
  Pd  Pd22  1  0.333333  0.666667  0.499858  1
  Pd  Pd23  1  0.666667  0.333333  0.501551  1
