# generated using pymatgen
data_LiBe2As3O10
_symmetry_space_group_name_H-M   'P 1'
_cell_length_a   7.98146188
_cell_length_b   7.98146154
_cell_length_c   9.32693196
_cell_angle_alpha   59.04569624
_cell_angle_beta   59.04569678
_cell_angle_gamma   63.70652072
_symmetry_Int_Tables_number   1
_chemical_formula_structural   LiBe2As3O10
_chemical_formula_sum   'Li2 Be4 As6 O20'
_cell_volume   423.91658222
_cell_formula_units_Z   2
loop_
 _symmetry_equiv_pos_site_id
 _symmetry_equiv_pos_as_xyz
  1  'x, y, z'
loop_
 _atom_site_type_symbol
 _atom_site_label
 _atom_site_symmetry_multiplicity
 _atom_site_fract_x
 _atom_site_fract_y
 _atom_site_fract_z
 _atom_site_occupancy
  Li  Li0  1  0.592225  0.407775  0.250000  1
  Li  Li1  1  0.407775  0.592225  0.750000  1
  Be  Be2  1  0.707771  0.747134  0.958359  1
  Be  Be3  1  0.292229  0.252866  0.041641  1
  Be  Be4  1  0.252866  0.292229  0.541641  1
  Be  Be5  1  0.747134  0.707771  0.458359  1
  As  As6  1  0.850318  0.452999  0.788206  1
  As  As7  1  0.452999  0.850318  0.288206  1
  As  As8  1  0.149682  0.547001  0.211794  1
  As  As9  1  0.061244  0.938756  0.250000  1
  As  As10  1  0.938756  0.061244  0.750000  1
  As  As11  1  0.547001  0.149682  0.711794  1
  O  O12  1  0.592694  0.688767  0.176772  1
  O  O13  1  0.407306  0.311233  0.823228  1
  O  O14  1  0.311233  0.407306  0.323228  1
  O  O15  1  0.905541  0.557399  0.349029  1
  O  O16  1  0.801552  0.178069  0.606080  1
  O  O17  1  0.175239  0.088352  0.619437  1
  O  O18  1  0.821931  0.198448  0.893920  1
  O  O19  1  0.232603  0.483704  0.034287  1
  O  O20  1  0.688767  0.592694  0.676772  1
  O  O21  1  0.198448  0.821931  0.393920  1
  O  O22  1  0.557399  0.905541  0.849029  1
  O  O23  1  0.911648  0.824761  0.880563  1
  O  O24  1  0.442601  0.094459  0.150971  1
  O  O25  1  0.094459  0.442601  0.650971  1
  O  O26  1  0.516296  0.767397  0.465713  1
  O  O27  1  0.824761  0.911648  0.380563  1
  O  O28  1  0.178069  0.801552  0.106080  1
  O  O29  1  0.483704  0.232603  0.534287  1
  O  O30  1  0.767397  0.516296  0.965713  1
  O  O31  1  0.088352  0.175239  0.119437  1
