# generated using pymatgen
data_TbEu(AgSb2)2
_symmetry_space_group_name_H-M   'P 1'
_cell_length_a   4.43418900
_cell_length_b   4.43418900
_cell_length_c   10.47381000
_cell_angle_alpha   90.00000000
_cell_angle_beta   90.00000000
_cell_angle_gamma   90.00000000
_symmetry_Int_Tables_number   1
_chemical_formula_structural   TbEu(AgSb2)2
_chemical_formula_sum   'Tb1 Eu1 Ag2 Sb4'
_cell_volume   205.93638830
_cell_formula_units_Z   1
loop_
 _symmetry_equiv_pos_site_id
 _symmetry_equiv_pos_as_xyz
  1  'x, y, z'
loop_
 _atom_site_type_symbol
 _atom_site_label
 _atom_site_symmetry_multiplicity
 _atom_site_fract_x
 _atom_site_fract_y
 _atom_site_fract_z
 _atom_site_occupancy
  Tb  Tb0  1  0.500000  0.000000  0.239133  1
  Eu  Eu1  1  0.000000  0.500000  0.761138  1
  Ag  Ag2  1  0.000000  0.000000  0.497225  1
  Ag  Ag3  1  0.500000  0.500000  0.497225  1
  Sb  Sb4  1  0.000000  0.000000  0.006628  1
  Sb  Sb5  1  0.500000  0.500000  0.006628  1
  Sb  Sb6  1  0.000000  0.500000  0.318755  1
  Sb  Sb7  1  0.500000  0.000000  0.673269  1
