# generated using pymatgen
data_UTeO6
_symmetry_space_group_name_H-M   'P 1'
_cell_length_a   5.63269900
_cell_length_b   5.54403958
_cell_length_c   9.64977811
_cell_angle_alpha   54.93224099
_cell_angle_beta   90.00000000
_cell_angle_gamma   90.00000000
_symmetry_Int_Tables_number   1
_chemical_formula_structural   UTeO6
_chemical_formula_sum   'U2 Te2 O12'
_cell_volume   246.64063510
_cell_formula_units_Z   2
loop_
 _symmetry_equiv_pos_site_id
 _symmetry_equiv_pos_as_xyz
  1  'x, y, z'
loop_
 _atom_site_type_symbol
 _atom_site_label
 _atom_site_symmetry_multiplicity
 _atom_site_fract_x
 _atom_site_fract_y
 _atom_site_fract_z
 _atom_site_occupancy
  U  U0  1  0.000000  0.000000  0.500000  1
  U  U1  1  0.500000  0.000000  0.000000  1
  Te  Te2  1  0.000000  0.500000  0.000000  1
  Te  Te3  1  0.500000  0.500000  0.500000  1
  O  O4  1  0.288177  0.739127  0.533664  1
  O  O5  1  0.788177  0.260873  0.966336  1
  O  O6  1  0.711823  0.260873  0.466336  1
  O  O7  1  0.211823  0.739127  0.033664  1
  O  O8  1  0.229084  0.321195  0.468062  1
  O  O9  1  0.729084  0.678805  0.031938  1
  O  O10  1  0.770916  0.678805  0.531938  1
  O  O11  1  0.270916  0.321195  0.968062  1
  O  O12  1  0.493533  0.192695  0.741220  1
  O  O13  1  0.993533  0.807305  0.758780  1
  O  O14  1  0.006467  0.192695  0.241220  1
  O  O15  1  0.506467  0.807305  0.258780  1
