# generated using pymatgen
data_LaTbFe5Co3B8
_symmetry_space_group_name_H-M   'P 1'
_cell_length_a   7.02574890
_cell_length_b   7.04015262
_cell_length_c   3.80907974
_cell_angle_alpha   90.06237802
_cell_angle_beta   90.03502334
_cell_angle_gamma   90.04621532
_symmetry_Int_Tables_number   1
_chemical_formula_structural   LaTbFe5Co3B8
_chemical_formula_sum   'La1 Tb1 Fe5 Co3 B8'
_cell_volume   188.40580620
_cell_formula_units_Z   1
loop_
 _symmetry_equiv_pos_site_id
 _symmetry_equiv_pos_as_xyz
  1  'x, y, z'
loop_
 _atom_site_type_symbol
 _atom_site_label
 _atom_site_symmetry_multiplicity
 _atom_site_fract_x
 _atom_site_fract_y
 _atom_site_fract_z
 _atom_site_occupancy
  La  La0  1  0.501232  0.498716  0.502567  1
  Tb  Tb1  1  0.000140  0.001001  0.002145  1
  Fe  Fe2  1  0.385019  0.129485  0.894536  1
  Fe  Fe3  1  0.615493  0.869429  0.893104  1
  Fe  Fe4  1  0.365432  0.886495  0.394751  1
  Fe  Fe5  1  0.635381  0.112513  0.394392  1
  Fe  Fe6  1  0.113126  0.365015  0.606983  1
  Co  Co7  1  0.886763  0.639661  0.606347  1
  Co  Co8  1  0.132546  0.617536  0.107586  1
  Co  Co9  1  0.865116  0.385811  0.107437  1
  B  B10  1  0.801258  0.668091  0.101194  1
  B  B11  1  0.197544  0.330915  0.103457  1
  B  B12  1  0.842225  0.286430  0.604334  1
  B  B13  1  0.163587  0.706190  0.605395  1
  B  B14  1  0.703244  0.838320  0.391342  1
  B  B15  1  0.292581  0.162736  0.394144  1
  B  B16  1  0.667109  0.193919  0.895016  1
  B  B17  1  0.332203  0.807736  0.895270  1
