# generated using pymatgen
data_Ho9Er5Lu6(CoBi2)4
_symmetry_space_group_name_H-M   'P 1'
_cell_length_a   7.86818652
_cell_length_b   8.86342163
_cell_length_c   12.35870417
_cell_angle_alpha   89.94719919
_cell_angle_beta   90.04575906
_cell_angle_gamma   90.05153471
_symmetry_Int_Tables_number   1
_chemical_formula_structural   Ho9Er5Lu6(CoBi2)4
_chemical_formula_sum   'Ho9 Er5 Lu6 Co4 Bi8'
_cell_volume   861.88335554
_cell_formula_units_Z   1
loop_
 _symmetry_equiv_pos_site_id
 _symmetry_equiv_pos_as_xyz
  1  'x, y, z'
loop_
 _atom_site_type_symbol
 _atom_site_label
 _atom_site_symmetry_multiplicity
 _atom_site_fract_x
 _atom_site_fract_y
 _atom_site_fract_z
 _atom_site_occupancy
  Ho  Ho0  1  0.653307  0.749711  0.699802  1
  Ho  Ho1  1  0.346727  0.250295  0.300148  1
  Ho  Ho2  1  0.152878  0.249973  0.799975  1
  Ho  Ho3  1  0.847195  0.750049  0.200098  1
  Ho  Ho4  1  0.120378  0.750907  0.815016  1
  Ho  Ho5  1  0.879605  0.249066  0.184991  1
  Ho  Ho6  1  0.619851  0.251635  0.685462  1
  Ho  Ho7  1  0.380143  0.748332  0.314527  1
  Ho  Ho8  1  0.556456  0.749723  0.996719  1
  Er  Er9  1  0.443491  0.250253  0.003326  1
  Er  Er10  1  0.054415  0.251718  0.502853  1
  Er  Er11  1  0.945506  0.748338  0.497095  1
  Er  Er12  1  0.674645  0.036286  0.435859  1
  Er  Er13  1  0.325367  0.963752  0.564095  1
  Lu  Lu14  1  0.828938  0.463411  0.936006  1
  Lu  Lu15  1  0.171146  0.536384  0.063945  1
  Lu  Lu16  1  0.328790  0.537471  0.564256  1
  Lu  Lu17  1  0.171329  0.963393  0.063895  1
  Lu  Lu18  1  0.671178  0.462497  0.435711  1
  Lu  Lu19  1  0.828680  0.036817  0.936113  1
  Co  Co20  1  0.937531  0.749981  0.993981  1
  Co  Co21  1  0.062582  0.250015  0.006052  1
  Co  Co22  1  0.436014  0.251433  0.506700  1
  Co  Co23  1  0.564026  0.748541  0.493284  1
  Bi  Bi24  1  0.932297  0.007756  0.672848  1
  Bi  Bi25  1  0.067694  0.992286  0.327157  1
  Bi  Bi26  1  0.434924  0.993448  0.827171  1
  Bi  Bi27  1  0.065435  0.506868  0.326430  1
  Bi  Bi28  1  0.565016  0.006892  0.172855  1
  Bi  Bi29  1  0.934545  0.493105  0.673585  1
  Bi  Bi30  1  0.566017  0.492432  0.172886  1
  Bi  Bi31  1  0.433893  0.507234  0.827159  1
