# generated using pymatgen
data_HoTl2Bi3(SbO7)2
_symmetry_space_group_name_H-M   'P 1'
_cell_length_a   6.61856034
_cell_length_b   6.53162678
_cell_length_c   7.72951545
_cell_angle_alpha   107.35883044
_cell_angle_beta   89.52041485
_cell_angle_gamma   98.35623842
_symmetry_Int_Tables_number   1
_chemical_formula_structural   HoTl2Bi3(SbO7)2
_chemical_formula_sum   'Ho1 Tl2 Bi3 Sb2 O14'
_cell_volume   315.32543418
_cell_formula_units_Z   1
loop_
 _symmetry_equiv_pos_site_id
 _symmetry_equiv_pos_as_xyz
  1  'x, y, z'
loop_
 _atom_site_type_symbol
 _atom_site_label
 _atom_site_symmetry_multiplicity
 _atom_site_fract_x
 _atom_site_fract_y
 _atom_site_fract_z
 _atom_site_occupancy
  Ho  Ho0  1  0.253599  0.536121  0.884645  1
  Tl  Tl1  1  0.535342  0.997181  0.751603  1
  Tl  Tl2  1  0.465206  0.000632  0.251797  1
  Bi  Bi3  1  0.746860  0.471802  0.113360  1
  Bi  Bi4  1  0.734672  0.467295  0.613997  1
  Bi  Bi5  1  0.255457  0.529101  0.387277  1
  Sb  Sb6  1  0.002696  0.005902  0.501954  1
  Sb  Sb7  1  0.004065  0.000982  0.999346  1
  O  O8  1  0.439373  0.650722  0.166112  1
  O  O9  1  0.544531  0.346371  0.823796  1
  O  O10  1  0.285799  0.921901  0.952855  1
  O  O11  1  0.716190  0.057513  0.045204  1
  O  O12  1  0.282210  0.919080  0.506757  1
  O  O13  1  0.719522  0.084197  0.495270  1
  O  O14  1  0.532148  0.350145  0.347456  1
  O  O15  1  0.456551  0.646863  0.661375  1
  O  O16  1  0.935599  0.675575  0.953740  1
  O  O17  1  0.084242  0.320128  0.037651  1
  O  O18  1  0.096524  0.323269  0.624055  1
  O  O19  1  0.905891  0.687724  0.380545  1
  O  O20  1  0.915969  0.936610  0.733743  1
  O  O21  1  0.087551  0.070887  0.267464  1
