# generated using pymatgen
data_Ho9Tm3(ReSi2)8
_symmetry_space_group_name_H-M   'P 1'
_cell_length_a   10.54938675
_cell_length_b   10.54810995
_cell_length_c   14.28501931
_cell_angle_alpha   55.07160928
_cell_angle_beta   55.08380293
_cell_angle_gamma   30.57440644
_symmetry_Int_Tables_number   1
_chemical_formula_structural   Ho9Tm3(ReSi2)8
_chemical_formula_sum   'Ho9 Tm3 Re8 Si16'
_cell_volume   650.77110234
_cell_formula_units_Z   1
loop_
 _symmetry_equiv_pos_site_id
 _symmetry_equiv_pos_as_xyz
  1  'x, y, z'
loop_
 _atom_site_type_symbol
 _atom_site_label
 _atom_site_symmetry_multiplicity
 _atom_site_fract_x
 _atom_site_fract_y
 _atom_site_fract_z
 _atom_site_occupancy
  Ho  Ho0  1  0.752914  0.484325  0.049024  1
  Ho  Ho1  1  0.536925  0.306881  0.154124  1
  Ho  Ho2  1  0.516050  0.247654  0.450945  1
  Ho  Ho3  1  0.462918  0.692972  0.845984  1
  Ho  Ho4  1  0.293133  0.039844  0.138754  1
  Ho  Ho5  1  0.959771  0.706822  0.361847  1
  Ho  Ho6  1  0.707007  0.960231  0.861367  1
  Ho  Ho7  1  0.040254  0.292862  0.638098  1
  Ho  Ho8  1  0.247168  0.515658  0.950893  1
  Tm  Tm9  1  0.484318  0.752703  0.548599  1
  Tm  Tm10  1  0.306798  0.537041  0.653466  1
  Tm  Tm11  1  0.693665  0.462842  0.346625  1
  Re  Re12  1  0.640752  0.829862  0.282001  1
  Re  Re13  1  0.830616  0.641211  0.781096  1
  Re  Re14  1  0.358750  0.169989  0.718399  1
  Re  Re15  1  0.169279  0.358394  0.219232  1
  Re  Re16  1  0.137827  0.911727  0.077936  1
  Re  Re17  1  0.088658  0.862463  0.422392  1
  Re  Re18  1  0.862230  0.088349  0.921683  1
  Re  Re19  1  0.911809  0.137360  0.577489  1
  Si  Si20  1  0.905036  0.095066  0.250264  1
  Si  Si21  1  0.096493  0.904259  0.749081  1
  Si  Si22  1  0.343217  0.657099  0.250299  1
  Si  Si23  1  0.656500  0.343729  0.749178  1
  Si  Si24  1  0.000013  0.228577  0.877623  1
  Si  Si25  1  0.771349  0.999843  0.622577  1
  Si  Si26  1  0.999998  0.771274  0.122361  1
  Si  Si27  1  0.228896  0.999809  0.378043  1
  Si  Si28  1  0.607986  0.045663  0.075592  1
  Si  Si29  1  0.952093  0.393548  0.424881  1
  Si  Si30  1  0.392089  0.954327  0.924474  1
  Si  Si31  1  0.046165  0.608084  0.575382  1
  Si  Si32  1  0.382763  0.160068  0.380606  1
  Si  Si33  1  0.838562  0.616510  0.121046  1
  Si  Si34  1  0.616537  0.839428  0.619646  1
  Si  Si35  1  0.161460  0.383522  0.878993  1
