# generated using pymatgen
data_TbTh3(SnPd2)2
_symmetry_space_group_name_H-M   'P 1'
_cell_length_a   3.83635400
_cell_length_b   7.88624803
_cell_length_c   7.88624791
_cell_angle_alpha   90.00488962
_cell_angle_beta   90.00000000
_cell_angle_gamma   90.00000000
_symmetry_Int_Tables_number   1
_chemical_formula_structural   TbTh3(SnPd2)2
_chemical_formula_sum   'Tb1 Th3 Sn2 Pd4'
_cell_volume   238.59400680
_cell_formula_units_Z   1
loop_
 _symmetry_equiv_pos_site_id
 _symmetry_equiv_pos_as_xyz
  1  'x, y, z'
loop_
 _atom_site_type_symbol
 _atom_site_label
 _atom_site_symmetry_multiplicity
 _atom_site_fract_x
 _atom_site_fract_y
 _atom_site_fract_z
 _atom_site_occupancy
  Tb  Tb0  1  0.500000  0.675662  0.824338  1
  Th  Th1  1  0.500000  0.174273  0.676496  1
  Th  Th2  1  0.500000  0.823504  0.325727  1
  Th  Th3  1  0.500000  0.327839  0.172161  1
  Sn  Sn4  1  0.000000  0.993527  0.997246  1
  Sn  Sn5  1  0.000000  0.502754  0.506473  1
  Pd  Pd6  1  0.000000  0.626414  0.128291  1
  Pd  Pd7  1  0.000000  0.371709  0.873586  1
  Pd  Pd8  1  0.000000  0.875059  0.624941  1
  Pd  Pd9  1  0.000000  0.129259  0.370741  1
