# generated using pymatgen
data_Dy2Ta2Co7P6Ru
_symmetry_space_group_name_H-M   'P 1'
_cell_length_a   3.69702800
_cell_length_b   10.62265500
_cell_length_c   12.09930000
_cell_angle_alpha   90.00000000
_cell_angle_beta   90.00000000
_cell_angle_gamma   90.00000000
_symmetry_Int_Tables_number   1
_chemical_formula_structural   Dy2Ta2Co7P6Ru
_chemical_formula_sum   'Dy4 Ta4 Co14 P12 Ru2'
_cell_volume   475.16677035
_cell_formula_units_Z   2
loop_
 _symmetry_equiv_pos_site_id
 _symmetry_equiv_pos_as_xyz
  1  'x, y, z'
loop_
 _atom_site_type_symbol
 _atom_site_label
 _atom_site_symmetry_multiplicity
 _atom_site_fract_x
 _atom_site_fract_y
 _atom_site_fract_z
 _atom_site_occupancy
  Dy  Dy0  1  0.250000  0.583892  0.707037  1
  Dy  Dy1  1  0.250000  0.916108  0.207037  1
  Dy  Dy2  1  0.750000  0.417452  0.290993  1
  Dy  Dy3  1  0.750000  0.082548  0.790993  1
  Ta  Ta4  1  0.250000  0.705727  0.988586  1
  Ta  Ta5  1  0.250000  0.794273  0.488586  1
  Ta  Ta6  1  0.750000  0.297216  0.011790  1
  Ta  Ta7  1  0.750000  0.202784  0.511790  1
  Co  Co8  1  0.750000  0.600309  0.512388  1
  Co  Co9  1  0.750000  0.899691  0.012388  1
  Co  Co10  1  0.250000  0.226553  0.179143  1
  Co  Co11  1  0.250000  0.273447  0.679143  1
  Co  Co12  1  0.750000  0.777108  0.821736  1
  Co  Co13  1  0.750000  0.722892  0.321736  1
  Co  Co14  1  0.250000  0.885468  0.698365  1
  Co  Co15  1  0.250000  0.614532  0.198365  1
  Co  Co16  1  0.750000  0.111928  0.300595  1
  Co  Co17  1  0.750000  0.388072  0.800595  1
  Co  Co18  1  0.250000  0.465648  0.933758  1
  Co  Co19  1  0.250000  0.034352  0.433758  1
  Co  Co20  1  0.750000  0.536592  0.065784  1
  Co  Co21  1  0.750000  0.963408  0.565784  1
  P  P22  1  0.250000  0.424401  0.116298  1
  P  P23  1  0.250000  0.075599  0.616298  1
  P  P24  1  0.750000  0.578315  0.883706  1
  P  P25  1  0.750000  0.921685  0.383706  1
  P  P26  1  0.250000  0.271257  0.861006  1
  P  P27  1  0.250000  0.228743  0.361006  1
  P  P28  1  0.750000  0.731430  0.137710  1
  P  P29  1  0.750000  0.768570  0.637710  1
  P  P30  1  0.250000  0.595338  0.385136  1
  P  P31  1  0.250000  0.904662  0.885136  1
  P  P32  1  0.750000  0.410227  0.614773  1
  P  P33  1  0.750000  0.089773  0.114773  1
  Ru  Ru34  1  0.250000  0.407297  0.491195  1
  Ru  Ru35  1  0.250000  0.092703  0.991195  1
