# generated using pymatgen
data_Er12Mn2In3
_symmetry_space_group_name_H-M   'P 1'
_cell_length_a   8.38996017
_cell_length_b   8.38996059
_cell_length_c   8.38996016
_cell_angle_alpha   110.15322880
_cell_angle_beta   110.15322554
_cell_angle_gamma   108.11565679
_symmetry_Int_Tables_number   1
_chemical_formula_structural   Er12Mn2In3
_chemical_formula_sum   'Er12 Mn2 In3'
_cell_volume   454.43939301
_cell_formula_units_Z   1
loop_
 _symmetry_equiv_pos_site_id
 _symmetry_equiv_pos_as_xyz
  1  'x, y, z'
loop_
 _atom_site_type_symbol
 _atom_site_label
 _atom_site_symmetry_multiplicity
 _atom_site_fract_x
 _atom_site_fract_y
 _atom_site_fract_z
 _atom_site_occupancy
  Er  Er0  1  0.303525  0.303525  0.607049  1
  Er  Er1  1  0.696475  0.696475  0.392951  1
  Er  Er2  1  0.303525  0.696475  0.000000  1
  Er  Er3  1  0.696475  0.303525  0.000000  1
  Er  Er4  1  0.457050  0.210322  0.246728  1
  Er  Er5  1  0.542950  0.789678  0.753272  1
  Er  Er6  1  0.963594  0.210322  0.753272  1
  Er  Er7  1  0.210322  0.963594  0.753272  1
  Er  Er8  1  0.036406  0.789678  0.246728  1
  Er  Er9  1  0.789678  0.036406  0.246728  1
  Er  Er10  1  0.210322  0.457050  0.246728  1
  Er  Er11  1  0.789678  0.542950  0.753272  1
  Mn  Mn12  1  0.393483  0.393483  0.000000  1
  Mn  Mn13  1  0.606517  0.606517  0.000000  1
  In  In14  1  0.000000  0.000000  0.000000  1
  In  In15  1  0.500000  0.000000  0.500000  1
  In  In16  1  0.000000  0.500000  0.500000  1
