# generated using pymatgen
data_Nd3YPaPd15
_symmetry_space_group_name_H-M   'P 1'
_cell_length_a   4.18148500
_cell_length_b   4.18148500
_cell_length_c   20.85781900
_cell_angle_alpha   90.00000000
_cell_angle_beta   90.00000000
_cell_angle_gamma   90.00000000
_symmetry_Int_Tables_number   1
_chemical_formula_structural   Nd3YPaPd15
_chemical_formula_sum   'Nd3 Y1 Pa1 Pd15'
_cell_volume   364.69514417
_cell_formula_units_Z   1
loop_
 _symmetry_equiv_pos_site_id
 _symmetry_equiv_pos_as_xyz
  1  'x, y, z'
loop_
 _atom_site_type_symbol
 _atom_site_label
 _atom_site_symmetry_multiplicity
 _atom_site_fract_x
 _atom_site_fract_y
 _atom_site_fract_z
 _atom_site_occupancy
  Nd  Nd0  1  0.000000  0.000000  0.201475  1
  Nd  Nd1  1  0.000000  0.000000  0.400356  1
  Nd  Nd2  1  0.000000  0.000000  0.602215  1
  Y  Y3  1  0.000000  0.000000  0.798243  1
  Pa  Pa4  1  0.000000  0.000000  0.997993  1
  Pd  Pd5  1  0.500000  0.500000  0.998143  1
  Pd  Pd6  1  0.500000  0.500000  0.195441  1
  Pd  Pd7  1  0.500000  0.500000  0.399008  1
  Pd  Pd8  1  0.500000  0.500000  0.602989  1
  Pd  Pd9  1  0.500000  0.500000  0.803837  1
  Pd  Pd10  1  0.500000  0.000000  0.092082  1
  Pd  Pd11  1  0.500000  0.000000  0.298511  1
  Pd  Pd12  1  0.500000  0.000000  0.500912  1
  Pd  Pd13  1  0.500000  0.000000  0.704822  1
  Pd  Pd14  1  0.500000  0.000000  0.903823  1
  Pd  Pd15  1  0.000000  0.500000  0.092082  1
  Pd  Pd16  1  0.000000  0.500000  0.298511  1
  Pd  Pd17  1  0.000000  0.500000  0.500912  1
  Pd  Pd18  1  0.000000  0.500000  0.704822  1
  Pd  Pd19  1  0.000000  0.500000  0.903823  1
