# generated using pymatgen
data_YTm9Zn3Co
_symmetry_space_group_name_H-M   'P 1'
_cell_length_a   9.30305817
_cell_length_b   9.30305865
_cell_length_c   9.40413300
_cell_angle_alpha   90.00000000
_cell_angle_beta   90.00000000
_cell_angle_gamma   119.97795725
_symmetry_Int_Tables_number   1
_chemical_formula_structural   YTm9Zn3Co
_chemical_formula_sum   'Y2 Tm18 Zn6 Co2'
_cell_volume   705.01330180
_cell_formula_units_Z   2
loop_
 _symmetry_equiv_pos_site_id
 _symmetry_equiv_pos_as_xyz
  1  'x, y, z'
loop_
 _atom_site_type_symbol
 _atom_site_label
 _atom_site_symmetry_multiplicity
 _atom_site_fract_x
 _atom_site_fract_y
 _atom_site_fract_z
 _atom_site_occupancy
  Y  Y0  1  0.458324  0.915620  0.750000  1
  Y  Y1  1  0.084380  0.541676  0.750000  1
  Tm  Tm2  1  0.000000  0.000000  0.500134  1
  Tm  Tm3  1  0.000000  0.000000  0.999866  1
  Tm  Tm4  1  0.542522  0.457478  0.250000  1
  Tm  Tm5  1  0.542443  0.084756  0.250000  1
  Tm  Tm6  1  0.915244  0.457557  0.250000  1
  Tm  Tm7  1  0.458502  0.541498  0.750000  1
  Tm  Tm8  1  0.209151  0.790849  0.436037  1
  Tm  Tm9  1  0.209871  0.418611  0.436576  1
  Tm  Tm10  1  0.581389  0.790129  0.436576  1
  Tm  Tm11  1  0.790452  0.209548  0.561799  1
  Tm  Tm12  1  0.789582  0.580987  0.562187  1
  Tm  Tm13  1  0.419013  0.210418  0.562187  1
  Tm  Tm14  1  0.790452  0.209548  0.938201  1
  Tm  Tm15  1  0.789582  0.580987  0.937813  1
  Tm  Tm16  1  0.419013  0.210418  0.937813  1
  Tm  Tm17  1  0.209151  0.790849  0.063963  1
  Tm  Tm18  1  0.209871  0.418611  0.063424  1
  Tm  Tm19  1  0.581389  0.790129  0.063424  1
  Zn  Zn20  1  0.885313  0.114687  0.250000  1
  Zn  Zn21  1  0.885077  0.770528  0.250000  1
  Zn  Zn22  1  0.229472  0.114923  0.250000  1
  Zn  Zn23  1  0.113709  0.886291  0.750000  1
  Zn  Zn24  1  0.114815  0.228353  0.750000  1
  Zn  Zn25  1  0.771647  0.885185  0.750000  1
  Co  Co26  1  0.333180  0.666820  0.250000  1
  Co  Co27  1  0.666455  0.333545  0.750000  1
