# generated using pymatgen
data_Nb12Ga8CoTc3C4
_symmetry_space_group_name_H-M   'P 1'
_cell_length_a   8.33539998
_cell_length_b   8.32101558
_cell_length_c   8.32101500
_cell_angle_alpha   60.00000629
_cell_angle_beta   60.05707558
_cell_angle_gamma   60.05707127
_symmetry_Int_Tables_number   1
_chemical_formula_structural   Nb12Ga8CoTc3C4
_chemical_formula_sum   'Nb12 Ga8 Co1 Tc3 C4'
_cell_volume   408.44936017
_cell_formula_units_Z   1
loop_
 _symmetry_equiv_pos_site_id
 _symmetry_equiv_pos_as_xyz
  1  'x, y, z'
loop_
 _atom_site_type_symbol
 _atom_site_label
 _atom_site_symmetry_multiplicity
 _atom_site_fract_x
 _atom_site_fract_y
 _atom_site_fract_z
 _atom_site_occupancy
  Nb  Nb0  1  0.698461  0.305229  0.691081  1
  Nb  Nb1  1  0.948447  0.551980  0.551980  1
  Nb  Nb2  1  0.551539  0.944771  0.944771  1
  Nb  Nb3  1  0.948447  0.551980  0.947594  1
  Nb  Nb4  1  0.551539  0.558919  0.944771  1
  Nb  Nb5  1  0.948447  0.947594  0.551980  1
  Nb  Nb6  1  0.698461  0.691081  0.305229  1
  Nb  Nb7  1  0.301553  0.698020  0.698020  1
  Nb  Nb8  1  0.698461  0.305229  0.305229  1
  Nb  Nb9  1  0.301553  0.302406  0.698020  1
  Nb  Nb10  1  0.551539  0.944771  0.558919  1
  Nb  Nb11  1  0.301553  0.698020  0.302406  1
  Ga  Ga12  1  0.347069  0.330991  0.330991  1
  Ga  Ga13  1  0.258613  0.913795  0.913795  1
  Ga  Ga14  1  0.902931  0.259050  0.919009  1
  Ga  Ga15  1  0.902931  0.919009  0.259050  1
  Ga  Ga16  1  0.347069  0.990950  0.330991  1
  Ga  Ga17  1  0.347069  0.330991  0.990950  1
  Ga  Ga18  1  0.991387  0.336205  0.336205  1
  Ga  Ga19  1  0.902931  0.919009  0.919009  1
  Co  Co20  1  0.625000  0.125000  0.125000  1
  Tc  Tc21  1  0.125000  0.125000  0.125000  1
  Tc  Tc22  1  0.125000  0.625000  0.125000  1
  Tc  Tc23  1  0.125000  0.125000  0.625000  1
  C  C24  1  0.625000  0.625000  0.625000  1
  C  C25  1  0.125000  0.625000  0.625000  1
  C  C26  1  0.625000  0.125000  0.625000  1
  C  C27  1  0.625000  0.625000  0.125000  1
