# generated using pymatgen
data_Ac9Pr10HoPb16
_symmetry_space_group_name_H-M   'P 1'
_cell_length_a   8.69033098
_cell_length_b   16.71210100
_cell_length_c   8.76119565
_cell_angle_alpha   90.00000000
_cell_angle_beta   89.83775569
_cell_angle_gamma   90.00000000
_symmetry_Int_Tables_number   1
_chemical_formula_structural   Ac9Pr10HoPb16
_chemical_formula_sum   'Ac9 Pr10 Ho1 Pb16'
_cell_volume   1272.41566398
_cell_formula_units_Z   1
loop_
 _symmetry_equiv_pos_site_id
 _symmetry_equiv_pos_as_xyz
  1  'x, y, z'
loop_
 _atom_site_type_symbol
 _atom_site_label
 _atom_site_symmetry_multiplicity
 _atom_site_fract_x
 _atom_site_fract_y
 _atom_site_fract_z
 _atom_site_occupancy
  Ac  Ac0  1  0.470599  0.600239  0.677891  1
  Ac  Ac1  1  0.970826  0.901249  0.820447  1
  Ac  Ac2  1  0.530007  0.098338  0.319584  1
  Ac  Ac3  1  0.028511  0.401288  0.177404  1
  Ac  Ac4  1  0.530007  0.401662  0.319584  1
  Ac  Ac5  1  0.028511  0.098712  0.177404  1
  Ac  Ac6  1  0.470599  0.899761  0.677891  1
  Ac  Ac7  1  0.970826  0.598751  0.820447  1
  Ac  Ac8  1  0.210494  0.250000  0.503188  1
  Pr  Pr9  1  0.624970  0.618724  0.156731  1
  Pr  Pr10  1  0.125345  0.880454  0.343377  1
  Pr  Pr11  1  0.376397  0.118253  0.844064  1
  Pr  Pr12  1  0.873411  0.381605  0.656469  1
  Pr  Pr13  1  0.376397  0.381747  0.844064  1
  Pr  Pr14  1  0.873411  0.118395  0.656469  1
  Pr  Pr15  1  0.624970  0.881276  0.156731  1
  Pr  Pr16  1  0.125345  0.619546  0.343377  1
  Pr  Pr17  1  0.789560  0.750000  0.496598  1
  Pr  Pr18  1  0.288226  0.750000  0.003128  1
  Ho  Ho19  1  0.711521  0.250000  0.995207  1
  Pb  Pb20  1  0.713205  0.451653  0.963670  1
  Pb  Pb21  1  0.211743  0.042510  0.540979  1
  Pb  Pb22  1  0.287786  0.954233  0.037866  1
  Pb  Pb23  1  0.787400  0.545319  0.461077  1
  Pb  Pb24  1  0.287786  0.545767  0.037866  1
  Pb  Pb25  1  0.787400  0.954681  0.461077  1
  Pb  Pb26  1  0.713205  0.048347  0.963670  1
  Pb  Pb27  1  0.211743  0.457490  0.540979  1
  Pb  Pb28  1  0.426808  0.750000  0.368374  1
  Pb  Pb29  1  0.926081  0.750000  0.131296  1
  Pb  Pb30  1  0.581753  0.250000  0.637836  1
  Pb  Pb31  1  0.066905  0.250000  0.879636  1
  Pb  Pb32  1  0.661856  0.750000  0.859098  1
  Pb  Pb33  1  0.161956  0.750000  0.643041  1
  Pb  Pb34  1  0.345349  0.250000  0.132723  1
  Pb  Pb35  1  0.829092  0.250000  0.350759  1
