# generated using pymatgen
data_Tb3Tm5(ThRu)4
_symmetry_space_group_name_H-M   'P 1'
_cell_length_a   6.31244121
_cell_length_b   7.21340075
_cell_length_c   9.53165957
_cell_angle_alpha   90.04086997
_cell_angle_beta   89.84492351
_cell_angle_gamma   89.96578823
_symmetry_Int_Tables_number   1
_chemical_formula_structural   Tb3Tm5(ThRu)4
_chemical_formula_sum   'Tb3 Tm5 Th4 Ru4'
_cell_volume   434.01441230
_cell_formula_units_Z   1
loop_
 _symmetry_equiv_pos_site_id
 _symmetry_equiv_pos_as_xyz
  1  'x, y, z'
loop_
 _atom_site_type_symbol
 _atom_site_label
 _atom_site_symmetry_multiplicity
 _atom_site_fract_x
 _atom_site_fract_y
 _atom_site_fract_z
 _atom_site_occupancy
  Tb  Tb0  1  0.168138  0.175911  0.067977  1
  Tb  Tb1  1  0.832640  0.824125  0.932907  1
  Tb  Tb2  1  0.667236  0.324125  0.933196  1
  Tm  Tm3  1  0.834449  0.823132  0.565717  1
  Tm  Tm4  1  0.332951  0.675699  0.068450  1
  Tm  Tm5  1  0.164526  0.176647  0.434205  1
  Tm  Tm6  1  0.334897  0.676545  0.433012  1
  Tm  Tm7  1  0.664623  0.324409  0.565833  1
  Th  Th8  1  0.651876  0.044621  0.253445  1
  Th  Th9  1  0.346240  0.954092  0.746988  1
  Th  Th10  1  0.152484  0.454660  0.746751  1
  Th  Th11  1  0.848182  0.546405  0.252958  1
  Ru  Ru12  1  0.467382  0.369203  0.255280  1
  Ru  Ru13  1  0.531949  0.631402  0.746559  1
  Ru  Ru14  1  0.966697  0.131596  0.741657  1
  Ru  Ru15  1  0.035732  0.867430  0.255065  1
