# generated using pymatgen
data_Ce2YSb3Au2
_symmetry_space_group_name_H-M   'P 1'
_cell_length_a   4.59495400
_cell_length_b   4.59495323
_cell_length_c   24.03766100
_cell_angle_alpha   90.00000000
_cell_angle_beta   90.00000000
_cell_angle_gamma   120.00000557
_symmetry_Int_Tables_number   1
_chemical_formula_structural   Ce2YSb3Au2
_chemical_formula_sum   'Ce4 Y2 Sb6 Au4'
_cell_volume   439.52651175
_cell_formula_units_Z   2
loop_
 _symmetry_equiv_pos_site_id
 _symmetry_equiv_pos_as_xyz
  1  'x, y, z'
loop_
 _atom_site_type_symbol
 _atom_site_label
 _atom_site_symmetry_multiplicity
 _atom_site_fract_x
 _atom_site_fract_y
 _atom_site_fract_z
 _atom_site_occupancy
  Ce  Ce0  1  0.666667  0.333333  0.924199  1
  Ce  Ce1  1  0.333333  0.666667  0.075801  1
  Ce  Ce2  1  0.333333  0.666667  0.424199  1
  Ce  Ce3  1  0.666667  0.333333  0.575801  1
  Y  Y4  1  0.333333  0.666667  0.250000  1
  Y  Y5  1  0.666667  0.333333  0.750000  1
  Sb  Sb6  1  0.333333  0.666667  0.652673  1
  Sb  Sb7  1  0.000000  0.000000  0.500000  1
  Sb  Sb8  1  0.666667  0.333333  0.347327  1
  Sb  Sb9  1  0.333333  0.666667  0.847327  1
  Sb  Sb10  1  0.666667  0.333333  0.152673  1
  Sb  Sb11  1  0.000000  0.000000  0.000000  1
  Au  Au12  1  0.000000  0.000000  0.810293  1
  Au  Au13  1  0.000000  0.000000  0.189707  1
  Au  Au14  1  0.000000  0.000000  0.310293  1
  Au  Au15  1  0.000000  0.000000  0.689707  1
