# generated using pymatgen
data_Sm3Al9Tc3Os4
_symmetry_space_group_name_H-M   'P 1'
_cell_length_a   8.87764400
_cell_length_b   8.87764330
_cell_length_c   9.64429300
_cell_angle_alpha   90.00000000
_cell_angle_beta   90.00000000
_cell_angle_gamma   119.99999515
_symmetry_Int_Tables_number   1
_chemical_formula_structural   Sm3Al9Tc3Os4
_chemical_formula_sum   'Sm6 Al18 Tc6 Os8'
_cell_volume   658.25848485
_cell_formula_units_Z   2
loop_
 _symmetry_equiv_pos_site_id
 _symmetry_equiv_pos_as_xyz
  1  'x, y, z'
loop_
 _atom_site_type_symbol
 _atom_site_label
 _atom_site_symmetry_multiplicity
 _atom_site_fract_x
 _atom_site_fract_y
 _atom_site_fract_z
 _atom_site_occupancy
  Sm  Sm0  1  0.195920  0.391839  0.250000  1
  Sm  Sm1  1  0.804080  0.608161  0.750000  1
  Sm  Sm2  1  0.608161  0.804080  0.250000  1
  Sm  Sm3  1  0.391839  0.195920  0.750000  1
  Sm  Sm4  1  0.195920  0.804080  0.250000  1
  Sm  Sm5  1  0.804080  0.195920  0.750000  1
  Al  Al6  1  0.333333  0.666667  0.008971  1
  Al  Al7  1  0.666667  0.333333  0.991029  1
  Al  Al8  1  0.666667  0.333333  0.508971  1
  Al  Al9  1  0.333333  0.666667  0.491029  1
  Al  Al10  1  0.165608  0.331218  0.576140  1
  Al  Al11  1  0.834392  0.668782  0.423860  1
  Al  Al12  1  0.668782  0.834392  0.576140  1
  Al  Al13  1  0.834392  0.668782  0.076140  1
  Al  Al14  1  0.331218  0.165608  0.423860  1
  Al  Al15  1  0.165608  0.331218  0.923860  1
  Al  Al16  1  0.165608  0.834392  0.576140  1
  Al  Al17  1  0.331218  0.165608  0.076140  1
  Al  Al18  1  0.834392  0.165608  0.423860  1
  Al  Al19  1  0.668782  0.834392  0.923860  1
  Al  Al20  1  0.834392  0.165608  0.076140  1
  Al  Al21  1  0.165608  0.834392  0.923860  1
  Al  Al22  1  0.000000  0.000000  0.250000  1
  Al  Al23  1  0.000000  0.000000  0.750000  1
  Tc  Tc24  1  0.573946  0.147892  0.250000  1
  Tc  Tc25  1  0.426054  0.852108  0.750000  1
  Tc  Tc26  1  0.852108  0.426054  0.250000  1
  Tc  Tc27  1  0.147892  0.573946  0.750000  1
  Tc  Tc28  1  0.573946  0.426054  0.250000  1
  Tc  Tc29  1  0.426054  0.573946  0.750000  1
  Os  Os30  1  0.500000  0.000000  0.000000  1
  Os  Os31  1  0.000000  0.500000  0.000000  1
  Os  Os32  1  0.500000  0.000000  0.500000  1
  Os  Os33  1  0.500000  0.500000  0.000000  1
  Os  Os34  1  0.000000  0.500000  0.500000  1
  Os  Os35  1  0.500000  0.500000  0.500000  1
  Os  Os36  1  0.000000  0.000000  0.000000  1
  Os  Os37  1  0.000000  0.000000  0.500000  1
