# generated using pymatgen
data_Tb3Sm4Dy3Sn8
_symmetry_space_group_name_H-M   'P 1'
_cell_length_a   8.09251100
_cell_length_b   8.25132330
_cell_length_c   15.58694300
_cell_angle_alpha   89.98456387
_cell_angle_beta   90.00000000
_cell_angle_gamma   90.00000000
_symmetry_Int_Tables_number   1
_chemical_formula_structural   Tb3Sm4Dy3Sn8
_chemical_formula_sum   'Tb6 Sm8 Dy6 Sn16'
_cell_volume   1040.80131831
_cell_formula_units_Z   2
loop_
 _symmetry_equiv_pos_site_id
 _symmetry_equiv_pos_as_xyz
  1  'x, y, z'
loop_
 _atom_site_type_symbol
 _atom_site_label
 _atom_site_symmetry_multiplicity
 _atom_site_fract_x
 _atom_site_fract_y
 _atom_site_fract_z
 _atom_site_occupancy
  Tb  Tb0  1  0.365965  0.835725  0.878002  1
  Tb  Tb1  1  0.865965  0.664275  0.621998  1
  Tb  Tb2  1  0.634146  0.164381  0.377996  1
  Tb  Tb3  1  0.134146  0.335619  0.122004  1
  Tb  Tb4  1  0.634181  0.164340  0.121773  1
  Tb  Tb5  1  0.134181  0.335660  0.378227  1
  Sm  Sm6  1  0.518637  0.320736  0.902034  1
  Sm  Sm7  1  0.018637  0.179264  0.597966  1
  Sm  Sm8  1  0.481395  0.679403  0.402343  1
  Sm  Sm9  1  0.981395  0.820597  0.097657  1
  Sm  Sm10  1  0.481359  0.679436  0.097804  1
  Sm  Sm11  1  0.981359  0.820564  0.402196  1
  Sm  Sm12  1  0.518617  0.320658  0.597880  1
  Sm  Sm13  1  0.018617  0.179342  0.902120  1
  Dy  Dy14  1  0.365708  0.835804  0.622300  1
  Dy  Dy15  1  0.865708  0.664196  0.877700  1
  Dy  Dy16  1  0.198013  0.502867  0.749948  1
  Dy  Dy17  1  0.698013  0.997133  0.750052  1
  Dy  Dy18  1  0.802011  0.497377  0.249934  1
  Dy  Dy19  1  0.302011  0.002623  0.250066  1
  Sn  Sn20  1  0.296128  0.037052  0.042062  1
  Sn  Sn21  1  0.796128  0.462948  0.457938  1
  Sn  Sn22  1  0.703031  0.962775  0.542174  1
  Sn  Sn23  1  0.203031  0.537225  0.957826  1
  Sn  Sn24  1  0.704409  0.962214  0.957823  1
  Sn  Sn25  1  0.204409  0.537786  0.542177  1
  Sn  Sn26  1  0.296350  0.036672  0.458414  1
  Sn  Sn27  1  0.796350  0.463328  0.041586  1
  Sn  Sn28  1  0.564440  0.620810  0.750032  1
  Sn  Sn29  1  0.064440  0.879190  0.749968  1
  Sn  Sn30  1  0.435538  0.379561  0.249990  1
  Sn  Sn31  1  0.935538  0.120439  0.250010  1
  Sn  Sn32  1  0.326849  0.144389  0.749838  1
  Sn  Sn33  1  0.826849  0.355611  0.750162  1
  Sn  Sn34  1  0.673224  0.855376  0.250021  1
  Sn  Sn35  1  0.173224  0.644624  0.249979  1
