# generated using pymatgen
data_LiTm3Al2Ge2Pt
_symmetry_space_group_name_H-M   'P 1'
_cell_length_a   6.95065700
_cell_length_b   6.86012591
_cell_length_c   4.26290600
_cell_angle_alpha   90.00000000
_cell_angle_beta   90.00000000
_cell_angle_gamma   120.43751716
_symmetry_Int_Tables_number   1
_chemical_formula_structural   LiTm3Al2Ge2Pt
_chemical_formula_sum   'Li1 Tm3 Al2 Ge2 Pt1'
_cell_volume   175.25189393
_cell_formula_units_Z   1
loop_
 _symmetry_equiv_pos_site_id
 _symmetry_equiv_pos_as_xyz
  1  'x, y, z'
loop_
 _atom_site_type_symbol
 _atom_site_label
 _atom_site_symmetry_multiplicity
 _atom_site_fract_x
 _atom_site_fract_y
 _atom_site_fract_z
 _atom_site_occupancy
  Li  Li0  1  0.762175  0.000000  0.499999  1
  Tm  Tm1  1  0.421898  0.000000  0.000000  1
  Tm  Tm2  1  0.996410  0.412243  0.000000  1
  Tm  Tm3  1  0.584166  0.587757  0.000000  1
  Al  Al4  1  0.227679  0.232397  0.499999  1
  Al  Al5  1  0.995281  0.767603  0.499999  1
  Ge  Ge6  1  0.664916  0.335180  0.499999  1
  Ge  Ge7  1  0.329736  0.664820  0.499999  1
  Pt  Pt8  1  0.017738  0.000000  0.000000  1
