# generated using pymatgen
data_Y13Th3Cd4(FeNi)2
_symmetry_space_group_name_H-M   'P 1'
_cell_length_a   9.61275007
_cell_length_b   9.62214574
_cell_length_c   9.67522900
_cell_angle_alpha   59.81733451
_cell_angle_beta   59.78475794
_cell_angle_gamma   59.96506580
_symmetry_Int_Tables_number   1
_chemical_formula_structural   Y13Th3Cd4(FeNi)2
_chemical_formula_sum   'Y13 Th3 Cd4 Fe2 Ni2'
_cell_volume   630.72362500
_cell_formula_units_Z   1
loop_
 _symmetry_equiv_pos_site_id
 _symmetry_equiv_pos_as_xyz
  1  'x, y, z'
loop_
 _atom_site_type_symbol
 _atom_site_label
 _atom_site_symmetry_multiplicity
 _atom_site_fract_x
 _atom_site_fract_y
 _atom_site_fract_z
 _atom_site_occupancy
  Y  Y0  1  0.203099  0.598321  0.599291  1
  Y  Y1  1  0.066670  0.437649  0.438275  1
  Y  Y2  1  0.438427  0.065253  0.058829  1
  Y  Y3  1  0.438427  0.065253  0.437492  1
  Y  Y4  1  0.066670  0.437649  0.057406  1
  Y  Y5  1  0.438842  0.436167  0.062496  1
  Y  Y6  1  0.060731  0.063328  0.437971  1
  Y  Y7  1  0.186204  0.812173  0.816517  1
  Y  Y8  1  0.810920  0.185720  0.186954  1
  Y  Y9  1  0.810920  0.185720  0.816406  1
  Y  Y10  1  0.186204  0.812173  0.185104  1
  Y  Y11  1  0.812187  0.811488  0.188163  1
  Y  Y12  1  0.186011  0.186382  0.813803  1
  Th  Th13  1  0.588525  0.591459  0.605555  1
  Th  Th14  1  0.588525  0.591459  0.214460  1
  Th  Th15  1  0.586396  0.218580  0.597512  1
  Cd  Cd16  1  0.831450  0.829516  0.831290  1
  Cd  Cd17  1  0.831450  0.829516  0.507742  1
  Cd  Cd18  1  0.831980  0.504522  0.831748  1
  Cd  Cd19  1  0.504484  0.830695  0.832410  1
  Fe  Fe20  1  0.407112  0.394106  0.387034  1
  Fe  Fe21  1  0.407112  0.394106  0.811749  1
  Ni  Ni22  1  0.397182  0.822655  0.390082  1
  Ni  Ni23  1  0.820469  0.396112  0.391710  1
