# generated using pymatgen
data_Zr10GaSi3Bi4
_symmetry_space_group_name_H-M   'P 1'
_cell_length_a   8.06264655
_cell_length_b   8.06264694
_cell_length_c   7.39678700
_cell_angle_alpha   89.89496137
_cell_angle_beta   89.89496847
_cell_angle_gamma   125.48231837
_symmetry_Int_Tables_number   1
_chemical_formula_structural   Zr10GaSi3Bi4
_chemical_formula_sum   'Zr10 Ga1 Si3 Bi4'
_cell_volume   391.54032664
_cell_formula_units_Z   1
loop_
 _symmetry_equiv_pos_site_id
 _symmetry_equiv_pos_as_xyz
  1  'x, y, z'
loop_
 _atom_site_type_symbol
 _atom_site_label
 _atom_site_symmetry_multiplicity
 _atom_site_fract_x
 _atom_site_fract_y
 _atom_site_fract_z
 _atom_site_occupancy
  Zr  Zr0  1  0.040707  0.282390  0.332186  1
  Zr  Zr1  1  0.954775  0.714886  0.671458  1
  Zr  Zr2  1  0.452235  0.210386  0.823132  1
  Zr  Zr3  1  0.793831  0.552058  0.173170  1
  Zr  Zr4  1  0.552058  0.793831  0.173170  1
  Zr  Zr5  1  0.210386  0.452235  0.823132  1
  Zr  Zr6  1  0.714886  0.954775  0.671458  1
  Zr  Zr7  1  0.282390  0.040707  0.332186  1
  Zr  Zr8  1  0.997531  0.997531  0.997543  1
  Zr  Zr9  1  0.501678  0.501678  0.502795  1
  Ga  Ga10  1  0.372638  0.372638  0.124690  1
  Si  Si11  1  0.623647  0.623647  0.879008  1
  Si  Si12  1  0.125422  0.125422  0.622444  1
  Si  Si13  1  0.873907  0.873907  0.378162  1
  Bi  Bi14  1  0.789903  0.214955  0.999026  1
  Bi  Bi15  1  0.214955  0.789903  0.999026  1
  Bi  Bi16  1  0.710493  0.288554  0.498708  1
  Bi  Bi17  1  0.288554  0.710493  0.498708  1
