# generated using pymatgen
data_Tb4Y3Ho(WO6)4
_symmetry_space_group_name_H-M   'P 1'
_cell_length_a   5.41763703
_cell_length_b   7.73196212
_cell_length_c   11.49265117
_cell_angle_alpha   75.54497344
_cell_angle_beta   90.00375613
_cell_angle_gamma   89.99087633
_symmetry_Int_Tables_number   1
_chemical_formula_structural   Tb4Y3Ho(WO6)4
_chemical_formula_sum   'Tb4 Y3 Ho1 W4 O24'
_cell_volume   466.17550377
_cell_formula_units_Z   1
loop_
 _symmetry_equiv_pos_site_id
 _symmetry_equiv_pos_as_xyz
  1  'x, y, z'
loop_
 _atom_site_type_symbol
 _atom_site_label
 _atom_site_symmetry_multiplicity
 _atom_site_fract_x
 _atom_site_fract_y
 _atom_site_fract_z
 _atom_site_occupancy
  Tb  Tb0  1  0.739788  0.000088  0.749854  1
  Tb  Tb1  1  0.260231  0.000146  0.250144  1
  Tb  Tb2  1  0.683433  0.499979  0.749991  1
  Tb  Tb3  1  0.316614  0.499816  0.250123  1
  Y  Y4  1  0.185320  0.794867  0.578025  1
  Y  Y5  1  0.814605  0.794703  0.078072  1
  Y  Y6  1  0.185358  0.205307  0.921896  1
  Ho  Ho7  1  0.814688  0.205516  0.421793  1
  W  W8  1  0.254734  0.723176  0.885778  1
  W  W9  1  0.745281  0.723038  0.385815  1
  W  W10  1  0.254817  0.276655  0.613968  1
  W  W11  1  0.745372  0.276767  0.114376  1
  O  O12  1  0.044221  0.938784  0.895931  1
  O  O13  1  0.530623  0.846982  0.931189  1
  O  O14  1  0.954939  0.939824  0.396015  1
  O  O15  1  0.458044  0.789218  0.728255  1
  O  O16  1  0.469342  0.846860  0.431174  1
  O  O17  1  0.981974  0.710486  0.772109  1
  O  O18  1  0.541930  0.789125  0.228293  1
  O  O19  1  0.849927  0.634865  0.548212  1
  O  O20  1  0.360634  0.490677  0.886652  1
  O  O21  1  0.018027  0.710601  0.272179  1
  O  O22  1  0.360492  0.509198  0.613277  1
  O  O23  1  0.849900  0.365161  0.951796  1
  O  O24  1  0.150093  0.634791  0.048270  1
  O  O25  1  0.640185  0.489996  0.386736  1
  O  O26  1  0.982111  0.289520  0.727852  1
  O  O27  1  0.639336  0.509285  0.113339  1
  O  O28  1  0.148574  0.364507  0.451640  1
  O  O29  1  0.458049  0.210722  0.771646  1
  O  O30  1  0.017538  0.289306  0.228421  1
  O  O31  1  0.531728  0.153523  0.568110  1
  O  O32  1  0.543093  0.210650  0.272397  1
  O  O33  1  0.043788  0.061539  0.603667  1
  O  O34  1  0.469397  0.153072  0.068940  1
  O  O35  1  0.955814  0.061250  0.104064  1
