# generated using pymatgen
data_Mn4CdInPd10
_symmetry_space_group_name_H-M   'P 1'
_cell_length_a   4.09660500
_cell_length_b   5.57727156
_cell_length_c   11.08552275
_cell_angle_alpha   91.45503882
_cell_angle_beta   90.00000000
_cell_angle_gamma   90.00000000
_symmetry_Int_Tables_number   1
_chemical_formula_structural   Mn4CdInPd10
_chemical_formula_sum   'Mn4 Cd1 In1 Pd10'
_cell_volume   253.19900930
_cell_formula_units_Z   1
loop_
 _symmetry_equiv_pos_site_id
 _symmetry_equiv_pos_as_xyz
  1  'x, y, z'
loop_
 _atom_site_type_symbol
 _atom_site_label
 _atom_site_symmetry_multiplicity
 _atom_site_fract_x
 _atom_site_fract_y
 _atom_site_fract_z
 _atom_site_occupancy
  Mn  Mn0  1  0.500000  0.300544  0.863925  1
  Mn  Mn1  1  0.500000  0.794377  0.633892  1
  Mn  Mn2  1  0.500000  0.699456  0.136075  1
  Mn  Mn3  1  0.500000  0.205623  0.366108  1
  Cd  Cd4  1  0.000000  0.500000  0.500000  1
  In  In5  1  0.000000  0.000000  0.000000  1
  Pd  Pd6  1  0.500000  0.721432  0.377951  1
  Pd  Pd7  1  0.500000  0.278568  0.622049  1
  Pd  Pd8  1  0.000000  0.047600  0.752416  1
  Pd  Pd9  1  0.500000  0.783999  0.880382  1
  Pd  Pd10  1  0.000000  0.452875  0.250860  1
  Pd  Pd11  1  0.000000  0.952400  0.247584  1
  Pd  Pd12  1  0.000000  0.547125  0.749140  1
  Pd  Pd13  1  0.000000  0.500000  0.000000  1
  Pd  Pd14  1  0.000000  0.000000  0.500000  1
  Pd  Pd15  1  0.500000  0.216001  0.119618  1
