# generated using pymatgen
data_CaYSi7Rh12
_symmetry_space_group_name_H-M   'P 1'
_cell_length_a   9.76863200
_cell_length_b   9.76863146
_cell_length_c   3.85975300
_cell_angle_alpha   90.00000000
_cell_angle_beta   90.00000000
_cell_angle_gamma   119.99998829
_symmetry_Int_Tables_number   1
_chemical_formula_structural   CaYSi7Rh12
_chemical_formula_sum   'Ca1 Y1 Si7 Rh12'
_cell_volume   318.97575269
_cell_formula_units_Z   1
loop_
 _symmetry_equiv_pos_site_id
 _symmetry_equiv_pos_as_xyz
  1  'x, y, z'
loop_
 _atom_site_type_symbol
 _atom_site_label
 _atom_site_symmetry_multiplicity
 _atom_site_fract_x
 _atom_site_fract_y
 _atom_site_fract_z
 _atom_site_occupancy
  Ca  Ca0  1  0.333333  0.666667  0.748926  1
  Y  Y1  1  0.666667  0.333333  0.250890  1
  Si  Si2  1  0.000000  0.000000  0.500195  1
  Si  Si3  1  0.399793  0.290477  0.750944  1
  Si  Si4  1  0.709523  0.109316  0.750944  1
  Si  Si5  1  0.890684  0.600207  0.750944  1
  Si  Si6  1  0.600298  0.710567  0.249157  1
  Si  Si7  1  0.289433  0.889731  0.249157  1
  Si  Si8  1  0.110269  0.399702  0.249157  1
  Rh  Rh9  1  0.443514  0.063491  0.751929  1
  Rh  Rh10  1  0.936509  0.380022  0.751929  1
  Rh  Rh11  1  0.619978  0.556486  0.751929  1
  Rh  Rh12  1  0.557056  0.938580  0.248176  1
  Rh  Rh13  1  0.061420  0.618475  0.248176  1
  Rh  Rh14  1  0.381525  0.442944  0.248176  1
  Rh  Rh15  1  0.142108  0.260785  0.744093  1
  Rh  Rh16  1  0.739215  0.881322  0.744093  1
  Rh  Rh17  1  0.118678  0.857892  0.744093  1
  Rh  Rh18  1  0.856646  0.738457  0.255697  1
  Rh  Rh19  1  0.261543  0.118189  0.255697  1
  Rh  Rh20  1  0.881811  0.143354  0.255697  1
