# generated using pymatgen
data_LaNdRh2F14
_symmetry_space_group_name_H-M   'P 1'
_cell_length_a   5.71198800
_cell_length_b   9.25509388
_cell_length_c   12.33351501
_cell_angle_alpha   62.12189716
_cell_angle_beta   90.00000000
_cell_angle_gamma   90.00000000
_symmetry_Int_Tables_number   1
_chemical_formula_structural   LaNdRh2F14
_chemical_formula_sum   'La2 Nd2 Rh4 F28'
_cell_volume   576.34154894
_cell_formula_units_Z   2
loop_
 _symmetry_equiv_pos_site_id
 _symmetry_equiv_pos_as_xyz
  1  'x, y, z'
loop_
 _atom_site_type_symbol
 _atom_site_label
 _atom_site_symmetry_multiplicity
 _atom_site_fract_x
 _atom_site_fract_y
 _atom_site_fract_z
 _atom_site_occupancy
  La  La0  1  0.239692  0.191364  0.733841  1
  La  La1  1  0.739692  0.808636  0.766159  1
  Nd  Nd2  1  0.760420  0.811328  0.265701  1
  Nd  Nd3  1  0.260420  0.188672  0.234299  1
  Rh  Rh4  1  0.245003  0.727596  0.540464  1
  Rh  Rh5  1  0.745003  0.272404  0.959536  1
  Rh  Rh6  1  0.756201  0.276762  0.452881  1
  Rh  Rh7  1  0.256201  0.723238  0.047119  1
  F  F8  1  0.959494  0.715088  0.456131  1
  F  F9  1  0.459494  0.284912  0.043869  1
  F  F10  1  0.038749  0.288157  0.538196  1
  F  F11  1  0.538749  0.711843  0.961804  1
  F  F12  1  0.061725  0.706451  0.923584  1
  F  F13  1  0.561725  0.293549  0.576416  1
  F  F14  1  0.941164  0.290955  0.082124  1
  F  F15  1  0.441164  0.709045  0.417876  1
  F  F16  1  0.739374  0.508116  0.863863  1
  F  F17  1  0.239374  0.491884  0.636137  1
  F  F18  1  0.260885  0.487371  0.141057  1
  F  F19  1  0.760885  0.512629  0.358943  1
  F  F20  1  0.740327  0.036061  0.050994  1
  F  F21  1  0.240327  0.963939  0.449006  1
  F  F22  1  0.260563  0.958208  0.954733  1
  F  F23  1  0.760563  0.041792  0.545267  1
  F  F24  1  0.053284  0.743292  0.665932  1
  F  F25  1  0.553284  0.256708  0.834068  1
  F  F26  1  0.950072  0.258909  0.328840  1
  F  F27  1  0.450072  0.741091  0.171160  1
  F  F28  1  0.025036  0.266767  0.870677  1
  F  F29  1  0.525036  0.733233  0.629323  1
  F  F30  1  0.976576  0.731475  0.135481  1
  F  F31  1  0.476576  0.268525  0.364519  1
  F  F32  1  0.086981  0.970455  0.230701  1
  F  F33  1  0.586981  0.029545  0.269299  1
  F  F34  1  0.904454  0.032952  0.770171  1
  F  F35  1  0.404454  0.967048  0.729829  1
