# generated using pymatgen
data_Y16Er4Si15Pt
_symmetry_space_group_name_H-M   'P 1'
_cell_length_a   7.39110912
_cell_length_b   7.72516102
_cell_length_c   14.62392900
_cell_angle_alpha   90.00000000
_cell_angle_beta   90.00000000
_cell_angle_gamma   90.07700561
_symmetry_Int_Tables_number   1
_chemical_formula_structural   Y16Er4Si15Pt
_chemical_formula_sum   'Y16 Er4 Si15 Pt1'
_cell_volume   834.98914995
_cell_formula_units_Z   1
loop_
 _symmetry_equiv_pos_site_id
 _symmetry_equiv_pos_as_xyz
  1  'x, y, z'
loop_
 _atom_site_type_symbol
 _atom_site_label
 _atom_site_symmetry_multiplicity
 _atom_site_fract_x
 _atom_site_fract_y
 _atom_site_fract_z
 _atom_site_occupancy
  Y  Y0  1  0.679900  0.178904  0.623137  1
  Y  Y1  1  0.186722  0.323630  0.876527  1
  Y  Y2  1  0.317842  0.820136  0.123543  1
  Y  Y3  1  0.817335  0.677927  0.376189  1
  Y  Y4  1  0.317842  0.820136  0.376457  1
  Y  Y5  1  0.817335  0.677927  0.123811  1
  Y  Y6  1  0.679900  0.178904  0.876863  1
  Y  Y7  1  0.186722  0.323630  0.623473  1
  Y  Y8  1  0.525357  0.681962  0.594499  1
  Y  Y9  1  0.027171  0.817567  0.904099  1
  Y  Y10  1  0.473142  0.316055  0.097836  1
  Y  Y11  1  0.972884  0.182761  0.402180  1
  Y  Y12  1  0.473142  0.316055  0.402164  1
  Y  Y13  1  0.972884  0.182761  0.097820  1
  Y  Y14  1  0.525357  0.681962  0.905501  1
  Y  Y15  1  0.027171  0.817567  0.595901  1
  Er  Er16  1  0.843554  0.510050  0.750000  1
  Er  Er17  1  0.355575  0.983954  0.750000  1
  Er  Er18  1  0.148748  0.485537  0.250000  1
  Er  Er19  1  0.648726  0.013231  0.250000  1
  Si  Si20  1  0.646492  0.972118  0.458763  1
  Si  Si21  1  0.146120  0.527538  0.040621  1
  Si  Si22  1  0.351898  0.026099  0.960114  1
  Si  Si23  1  0.852485  0.472595  0.540016  1
  Si  Si24  1  0.351898  0.026099  0.539886  1
  Si  Si25  1  0.852485  0.472595  0.959984  1
  Si  Si26  1  0.646492  0.972118  0.041237  1
  Si  Si27  1  0.146120  0.527538  0.459379  1
  Si  Si28  1  0.980979  0.101225  0.750000  1
  Si  Si29  1  0.520339  0.602591  0.250000  1
  Si  Si30  1  0.020181  0.895988  0.250000  1
  Si  Si31  1  0.740737  0.874963  0.750000  1
  Si  Si32  1  0.228719  0.632135  0.750000  1
  Si  Si33  1  0.267455  0.128224  0.250000  1
  Si  Si34  1  0.767176  0.371561  0.250000  1
  Pt  Pt35  1  0.483115  0.405957  0.750000  1
