# generated using pymatgen
data_Y8CoNiAg2
_symmetry_space_group_name_H-M   'P 1'
_cell_length_a   9.46852056
_cell_length_b   9.46852159
_cell_length_c   9.45348200
_cell_angle_alpha   60.05252923
_cell_angle_beta   60.05252562
_cell_angle_gamma   60.15460842
_symmetry_Int_Tables_number   1
_chemical_formula_structural   Y8CoNiAg2
_chemical_formula_sum   'Y16 Co2 Ni2 Ag4'
_cell_volume   600.46976973
_cell_formula_units_Z   2
loop_
 _symmetry_equiv_pos_site_id
 _symmetry_equiv_pos_as_xyz
  1  'x, y, z'
loop_
 _atom_site_type_symbol
 _atom_site_label
 _atom_site_symmetry_multiplicity
 _atom_site_fract_x
 _atom_site_fract_y
 _atom_site_fract_z
 _atom_site_occupancy
  Y  Y0  1  0.599792  0.599792  0.600287  1
  Y  Y1  1  0.599792  0.599792  0.200128  1
  Y  Y2  1  0.598322  0.202984  0.599347  1
  Y  Y3  1  0.202984  0.598322  0.599347  1
  Y  Y4  1  0.064003  0.437276  0.439493  1
  Y  Y5  1  0.437276  0.064003  0.059227  1
  Y  Y6  1  0.437276  0.064003  0.439493  1
  Y  Y7  1  0.064003  0.437276  0.059227  1
  Y  Y8  1  0.437592  0.437592  0.062408  1
  Y  Y9  1  0.060192  0.060192  0.439808  1
  Y  Y10  1  0.185624  0.812473  0.814576  1
  Y  Y11  1  0.812473  0.185624  0.187327  1
  Y  Y12  1  0.812473  0.185624  0.814576  1
  Y  Y13  1  0.185624  0.812473  0.187327  1
  Y  Y14  1  0.812701  0.812701  0.187299  1
  Y  Y15  1  0.186390  0.186390  0.813610  1
  Co  Co16  1  0.393256  0.393256  0.390487  1
  Co  Co17  1  0.393256  0.393256  0.823003  1
  Ni  Ni18  1  0.394039  0.822863  0.391550  1
  Ni  Ni19  1  0.822863  0.394039  0.391550  1
  Ag  Ag20  1  0.831170  0.831170  0.831194  1
  Ag  Ag21  1  0.831170  0.831170  0.506465  1
  Ag  Ag22  1  0.831208  0.506520  0.831136  1
  Ag  Ag23  1  0.506520  0.831208  0.831136  1
