# generated using pymatgen
data_Ho2GaNiI2
_symmetry_space_group_name_H-M   'P 1'
_cell_length_a   4.14631900
_cell_length_b   4.14631911
_cell_length_c   11.93425100
_cell_angle_alpha   90.00000000
_cell_angle_beta   90.00000000
_cell_angle_gamma   119.99999116
_symmetry_Int_Tables_number   1
_chemical_formula_structural   Ho2GaNiI2
_chemical_formula_sum   'Ho2 Ga1 Ni1 I2'
_cell_volume   177.68520717
_cell_formula_units_Z   1
loop_
 _symmetry_equiv_pos_site_id
 _symmetry_equiv_pos_as_xyz
  1  'x, y, z'
loop_
 _atom_site_type_symbol
 _atom_site_label
 _atom_site_symmetry_multiplicity
 _atom_site_fract_x
 _atom_site_fract_y
 _atom_site_fract_z
 _atom_site_occupancy
  Ho  Ho0  1  0.000000  0.000000  0.153241  1
  Ho  Ho1  1  0.000000  0.000000  0.848294  1
  Ga  Ga2  1  0.666667  0.333333  0.003790  1
  Ni  Ni3  1  0.333333  0.666666  0.995124  1
  I  I4  1  0.333333  0.666666  0.326460  1
  I  I5  1  0.666667  0.333333  0.673091  1
