# generated using pymatgen
data_Cs2NaSb(AsSe2)6
_symmetry_space_group_name_H-M   'P 1'
_cell_length_a   10.10993200
_cell_length_b   10.10993255
_cell_length_c   7.94101700
_cell_angle_alpha   90.00000000
_cell_angle_beta   90.00000000
_cell_angle_gamma   119.99999908
_symmetry_Int_Tables_number   1
_chemical_formula_structural   Cs2NaSb(AsSe2)6
_chemical_formula_sum   'Cs2 Na1 Sb1 As6 Se12'
_cell_volume   702.91571699
_cell_formula_units_Z   1
loop_
 _symmetry_equiv_pos_site_id
 _symmetry_equiv_pos_as_xyz
  1  'x, y, z'
loop_
 _atom_site_type_symbol
 _atom_site_label
 _atom_site_symmetry_multiplicity
 _atom_site_fract_x
 _atom_site_fract_y
 _atom_site_fract_z
 _atom_site_occupancy
  Cs  Cs0  1  0.333333  0.666667  0.864708  1
  Cs  Cs1  1  0.666667  0.333333  0.135292  1
  Na  Na2  1  0.000000  0.000000  0.000000  1
  Sb  Sb3  1  0.000000  0.000000  0.500000  1
  As  As4  1  0.282556  0.839256  0.401615  1
  As  As5  1  0.160744  0.443300  0.401615  1
  As  As6  1  0.556700  0.717444  0.401615  1
  As  As7  1  0.717444  0.160744  0.598385  1
  As  As8  1  0.839256  0.556700  0.598385  1
  As  As9  1  0.443300  0.282556  0.598385  1
  Se  Se10  1  0.242817  0.031811  0.277071  1
  Se  Se11  1  0.968189  0.211006  0.277071  1
  Se  Se12  1  0.788994  0.757183  0.277071  1
  Se  Se13  1  0.757183  0.968189  0.722929  1
  Se  Se14  1  0.031811  0.788994  0.722929  1
  Se  Se15  1  0.211006  0.242817  0.722929  1
  Se  Se16  1  0.520562  0.908138  0.243278  1
  Se  Se17  1  0.091862  0.612422  0.243278  1
  Se  Se18  1  0.387578  0.479438  0.243278  1
  Se  Se19  1  0.479438  0.091862  0.756722  1
  Se  Se20  1  0.908138  0.387578  0.756722  1
  Se  Se21  1  0.612422  0.520562  0.756722  1
