# generated using pymatgen
data_Tb3MnFe5(CoP2)3
_symmetry_space_group_name_H-M   'P 1'
_cell_length_a   3.72653000
_cell_length_b   10.56500600
_cell_length_c   12.16103900
_cell_angle_alpha   90.00000000
_cell_angle_beta   90.00000000
_cell_angle_gamma   90.00000000
_symmetry_Int_Tables_number   1
_chemical_formula_structural   Tb3MnFe5(CoP2)3
_chemical_formula_sum   'Tb6 Mn2 Fe10 Co6 P12'
_cell_volume   478.78997787
_cell_formula_units_Z   2
loop_
 _symmetry_equiv_pos_site_id
 _symmetry_equiv_pos_as_xyz
  1  'x, y, z'
loop_
 _atom_site_type_symbol
 _atom_site_label
 _atom_site_symmetry_multiplicity
 _atom_site_fract_x
 _atom_site_fract_y
 _atom_site_fract_z
 _atom_site_occupancy
  Tb  Tb0  1  0.000000  0.500000  0.524069  1
  Tb  Tb1  1  0.500000  0.000000  0.475931  1
  Tb  Tb2  1  0.500000  0.820958  0.205946  1
  Tb  Tb3  1  0.500000  0.179042  0.205946  1
  Tb  Tb4  1  0.000000  0.679042  0.794054  1
  Tb  Tb5  1  0.000000  0.320958  0.794054  1
  Mn  Mn6  1  0.500000  0.500000  0.152351  1
  Mn  Mn7  1  0.000000  0.000000  0.847649  1
  Fe  Fe8  1  0.000000  0.500000  0.989236  1
  Fe  Fe9  1  0.500000  0.000000  0.010764  1
  Fe  Fe10  1  0.500000  0.330397  0.997203  1
  Fe  Fe11  1  0.500000  0.669603  0.997203  1
  Fe  Fe12  1  0.000000  0.169603  0.002797  1
  Fe  Fe13  1  0.000000  0.830397  0.002797  1
  Fe  Fe14  1  0.500000  0.298190  0.429239  1
  Fe  Fe15  1  0.500000  0.701810  0.429239  1
  Fe  Fe16  1  0.000000  0.201810  0.570761  1
  Fe  Fe17  1  0.000000  0.798190  0.570761  1
  Co  Co18  1  0.500000  0.500000  0.700451  1
  Co  Co19  1  0.000000  0.000000  0.299549  1
  Co  Co20  1  0.500000  0.881280  0.710702  1
  Co  Co21  1  0.500000  0.118720  0.710702  1
  Co  Co22  1  0.000000  0.618720  0.289298  1
  Co  Co23  1  0.000000  0.381280  0.289298  1
  P  P24  1  0.500000  0.500000  0.886432  1
  P  P25  1  0.000000  0.000000  0.113568  1
  P  P26  1  0.500000  0.500000  0.344050  1
  P  P27  1  0.000000  0.000000  0.655950  1
  P  P28  1  0.500000  0.306082  0.613891  1
  P  P29  1  0.500000  0.693918  0.613891  1
  P  P30  1  0.000000  0.193918  0.386109  1
  P  P31  1  0.000000  0.806082  0.386109  1
  P  P32  1  0.500000  0.845877  0.893953  1
  P  P33  1  0.500000  0.154123  0.893953  1
  P  P34  1  0.000000  0.654123  0.106047  1
  P  P35  1  0.000000  0.345877  0.106047  1
