# generated using pymatgen
data_LiTm(NiRh)2
_symmetry_space_group_name_H-M   'P 1'
_cell_length_a   4.88764778
_cell_length_b   5.03650958
_cell_length_c   5.03651079
_cell_angle_alpha   62.91417866
_cell_angle_beta   60.97299835
_cell_angle_gamma   60.97301021
_symmetry_Int_Tables_number   1
_chemical_formula_structural   LiTm(NiRh)2
_chemical_formula_sum   'Li1 Tm1 Ni2 Rh2'
_cell_volume   90.78703472
_cell_formula_units_Z   1
loop_
 _symmetry_equiv_pos_site_id
 _symmetry_equiv_pos_as_xyz
  1  'x, y, z'
loop_
 _atom_site_type_symbol
 _atom_site_label
 _atom_site_symmetry_multiplicity
 _atom_site_fract_x
 _atom_site_fract_y
 _atom_site_fract_z
 _atom_site_occupancy
  Li  Li0  1  0.004305  0.995695  0.995695  1
  Tm  Tm1  1  0.250370  0.249630  0.249630  1
  Ni  Ni2  1  0.123728  0.627280  0.627280  1
  Ni  Ni3  1  0.621712  0.627280  0.627280  1
  Rh  Rh4  1  0.624943  0.625943  0.124172  1
  Rh  Rh5  1  0.624943  0.124172  0.625943  1
