# generated using pymatgen
data_Tb14Dy5TmSn16
_symmetry_space_group_name_H-M   'P 1'
_cell_length_a   8.05119701
_cell_length_b   8.20289896
_cell_length_c   15.50497902
_cell_angle_alpha   90.00484689
_cell_angle_beta   89.99772313
_cell_angle_gamma   89.95340728
_symmetry_Int_Tables_number   1
_chemical_formula_structural   Tb14Dy5TmSn16
_chemical_formula_sum   'Tb14 Dy5 Tm1 Sn16'
_cell_volume   1023.99739844
_cell_formula_units_Z   1
loop_
 _symmetry_equiv_pos_site_id
 _symmetry_equiv_pos_as_xyz
  1  'x, y, z'
loop_
 _atom_site_type_symbol
 _atom_site_label
 _atom_site_symmetry_multiplicity
 _atom_site_fract_x
 _atom_site_fract_y
 _atom_site_fract_z
 _atom_site_occupancy
  Tb  Tb0  1  0.632557  0.163797  0.378316  1
  Tb  Tb1  1  0.132555  0.336220  0.121347  1
  Tb  Tb2  1  0.632562  0.163821  0.121712  1
  Tb  Tb3  1  0.132562  0.336191  0.378625  1
  Tb  Tb4  1  0.367200  0.836069  0.622084  1
  Tb  Tb5  1  0.867888  0.663430  0.877950  1
  Tb  Tb6  1  0.519824  0.320561  0.901949  1
  Tb  Tb7  1  0.020250  0.180012  0.598059  1
  Tb  Tb8  1  0.480066  0.679793  0.402382  1
  Tb  Tb9  1  0.979946  0.820147  0.097809  1
  Tb  Tb10  1  0.480059  0.679790  0.097581  1
  Tb  Tb11  1  0.979939  0.820154  0.402227  1
  Tb  Tb12  1  0.519854  0.320601  0.598064  1
  Tb  Tb13  1  0.020281  0.179976  0.901931  1
  Dy  Dy14  1  0.367131  0.836091  0.877904  1
  Dy  Dy15  1  0.867825  0.663409  0.622064  1
  Dy  Dy16  1  0.698631  0.997964  0.749990  1
  Dy  Dy17  1  0.800987  0.497737  0.250005  1
  Dy  Dy18  1  0.300967  0.002208  0.249993  1
  Tm  Tm19  1  0.199325  0.502532  0.750011  1
  Sn  Sn20  1  0.292528  0.035104  0.041656  1
  Sn  Sn21  1  0.792341  0.464506  0.458349  1
  Sn  Sn22  1  0.707633  0.964413  0.542245  1
  Sn  Sn23  1  0.207663  0.535338  0.957143  1
  Sn  Sn24  1  0.707357  0.964528  0.957766  1
  Sn  Sn25  1  0.207413  0.535223  0.542844  1
  Sn  Sn26  1  0.292473  0.035206  0.458248  1
  Sn  Sn27  1  0.792307  0.464403  0.041747  1
  Sn  Sn28  1  0.564329  0.618256  0.749994  1
  Sn  Sn29  1  0.065552  0.880583  0.750002  1
  Sn  Sn30  1  0.434448  0.381555  0.250003  1
  Sn  Sn31  1  0.934630  0.118521  0.250004  1
  Sn  Sn32  1  0.328003  0.148261  0.750029  1
  Sn  Sn33  1  0.829194  0.354032  0.749962  1
  Sn  Sn34  1  0.671711  0.853788  0.250001  1
  Sn  Sn35  1  0.172005  0.645780  0.250005  1
