# generated using pymatgen
data_Ca5Tb3Hg8
_symmetry_space_group_name_H-M   'P 1'
_cell_length_a   7.53085200
_cell_length_b   7.54405200
_cell_length_c   7.47101300
_cell_angle_alpha   90.00000000
_cell_angle_beta   90.00044888
_cell_angle_gamma   90.00000000
_symmetry_Int_Tables_number   1
_chemical_formula_structural   Ca5Tb3Hg8
_chemical_formula_sum   'Ca5 Tb3 Hg8'
_cell_volume   424.45170073
_cell_formula_units_Z   1
loop_
 _symmetry_equiv_pos_site_id
 _symmetry_equiv_pos_as_xyz
  1  'x, y, z'
loop_
 _atom_site_type_symbol
 _atom_site_label
 _atom_site_symmetry_multiplicity
 _atom_site_fract_x
 _atom_site_fract_y
 _atom_site_fract_z
 _atom_site_occupancy
  Ca  Ca0  1  0.749510  0.250000  0.000102  1
  Ca  Ca1  1  0.249469  0.750000  0.499912  1
  Ca  Ca2  1  0.750541  0.250000  0.500094  1
  Ca  Ca3  1  0.250559  0.750000  0.999904  1
  Ca  Ca4  1  0.249280  0.250000  0.500010  1
  Tb  Tb5  1  0.250539  0.250000  0.999999  1
  Tb  Tb6  1  0.749468  0.750000  0.000001  1
  Tb  Tb7  1  0.750556  0.750000  0.499995  1
  Hg  Hg8  1  0.998970  0.501257  0.246913  1
  Hg  Hg9  1  0.998970  0.998745  0.246913  1
  Hg  Hg10  1  0.501304  0.998927  0.249015  1
  Hg  Hg11  1  0.501304  0.501073  0.249015  1
  Hg  Hg12  1  0.501051  0.501236  0.750982  1
  Hg  Hg13  1  0.501051  0.998766  0.750982  1
  Hg  Hg14  1  0.998712  0.998890  0.753082  1
  Hg  Hg15  1  0.998712  0.501110  0.753082  1
