# generated using pymatgen
data_TbDy9S10
_symmetry_space_group_name_H-M   'P 1'
_cell_length_a   6.77587225
_cell_length_b   7.76590210
_cell_length_c   8.78693455
_cell_angle_alpha   103.22842053
_cell_angle_beta   96.96109490
_cell_angle_gamma   106.89857544
_symmetry_Int_Tables_number   1
_chemical_formula_structural   TbDy9S10
_chemical_formula_sum   'Tb1 Dy9 S10'
_cell_volume   421.83462085
_cell_formula_units_Z   1
loop_
 _symmetry_equiv_pos_site_id
 _symmetry_equiv_pos_as_xyz
  1  'x, y, z'
loop_
 _atom_site_type_symbol
 _atom_site_label
 _atom_site_symmetry_multiplicity
 _atom_site_fract_x
 _atom_site_fract_y
 _atom_site_fract_z
 _atom_site_occupancy
  Tb  Tb0  1  0.000000  0.500000  0.000000  1
  Dy  Dy1  1  0.799688  0.599940  0.599817  1
  Dy  Dy2  1  0.599725  0.199938  0.200555  1
  Dy  Dy3  1  0.400275  0.800062  0.799445  1
  Dy  Dy4  1  0.600096  0.700627  0.200756  1
  Dy  Dy5  1  0.200312  0.400060  0.400183  1
  Dy  Dy6  1  0.399904  0.299373  0.799244  1
  Dy  Dy7  1  0.000000  0.000000  0.000000  1
  Dy  Dy8  1  0.200932  0.900385  0.400671  1
  Dy  Dy9  1  0.799068  0.099615  0.599329  1
  S  S10  1  0.698709  0.650184  0.899946  1
  S  S11  1  0.500155  0.250374  0.500013  1
  S  S12  1  0.699174  0.149012  0.899861  1
  S  S13  1  0.300826  0.850988  0.100139  1
  S  S14  1  0.499845  0.749626  0.499987  1
  S  S15  1  0.099899  0.449646  0.699083  1
  S  S16  1  0.301291  0.349816  0.100054  1
  S  S17  1  0.900791  0.050190  0.299949  1
  S  S18  1  0.099209  0.949810  0.700051  1
  S  S19  1  0.900101  0.550354  0.300917  1
