# generated using pymatgen
data_Tm4As5PtRh7
_symmetry_space_group_name_H-M   'P 1'
_cell_length_a   7.24728362
_cell_length_b   7.24728338
_cell_length_c   7.24728355
_cell_angle_alpha   110.45741315
_cell_angle_beta   107.51634527
_cell_angle_gamma   110.45740959
_symmetry_Int_Tables_number   1
_chemical_formula_structural   Tm4As5PtRh7
_chemical_formula_sum   'Tm4 As5 Pt1 Rh7'
_cell_volume   292.76971095
_cell_formula_units_Z   1
loop_
 _symmetry_equiv_pos_site_id
 _symmetry_equiv_pos_as_xyz
  1  'x, y, z'
loop_
 _atom_site_type_symbol
 _atom_site_label
 _atom_site_symmetry_multiplicity
 _atom_site_fract_x
 _atom_site_fract_y
 _atom_site_fract_z
 _atom_site_occupancy
  Tm  Tm0  1  0.498993  0.514058  0.498993  1
  Tm  Tm1  1  0.984935  0.485942  0.984935  1
  Tm  Tm2  1  0.498993  0.000000  0.984935  1
  Tm  Tm3  1  0.984935  0.000000  0.498993  1
  As  As4  1  0.683920  0.685374  0.998547  1
  As  As5  1  0.313173  0.314626  0.998547  1
  As  As6  1  0.998547  0.685374  0.683920  1
  As  As7  1  0.998547  0.314626  0.313173  1
  As  As8  1  0.332249  0.000000  0.332249  1
  Pt  Pt9  1  0.713728  0.000000  0.713728  1
  Rh  Rh10  1  0.490858  0.747413  0.238271  1
  Rh  Rh11  1  0.743445  0.252587  0.490858  1
  Rh  Rh12  1  0.238271  0.747413  0.490858  1
  Rh  Rh13  1  0.246071  0.500000  0.746071  1
  Rh  Rh14  1  0.036408  0.000000  0.036408  1
  Rh  Rh15  1  0.490858  0.252587  0.743445  1
  Rh  Rh16  1  0.746071  0.500000  0.246071  1
