# generated using pymatgen
data_Dy4Y9Er3(InRh)4
_symmetry_space_group_name_H-M   'P 1'
_cell_length_a   9.67091026
_cell_length_b   9.67090980
_cell_length_c   9.67759368
_cell_angle_alpha   60.05134859
_cell_angle_beta   60.05135015
_cell_angle_gamma   60.10981233
_symmetry_Int_Tables_number   1
_chemical_formula_structural   Dy4Y9Er3(InRh)4
_chemical_formula_sum   'Dy4 Y9 Er3 In4 Rh4'
_cell_volume   641.03744711
_cell_formula_units_Z   1
loop_
 _symmetry_equiv_pos_site_id
 _symmetry_equiv_pos_as_xyz
  1  'x, y, z'
loop_
 _atom_site_type_symbol
 _atom_site_label
 _atom_site_symmetry_multiplicity
 _atom_site_fract_x
 _atom_site_fract_y
 _atom_site_fract_z
 _atom_site_occupancy
  Dy  Dy0  1  0.148306  0.550138  0.148957  1
  Dy  Dy1  1  0.311636  0.689407  0.688517  1
  Dy  Dy2  1  0.689407  0.311636  0.688517  1
  Dy  Dy3  1  0.550138  0.148306  0.148957  1
  Y  Y4  1  0.937236  0.937236  0.561872  1
  Y  Y5  1  0.147764  0.147764  0.552692  1
  Y  Y6  1  0.561041  0.937936  0.560199  1
  Y  Y7  1  0.151386  0.151386  0.151750  1
  Y  Y8  1  0.310754  0.310754  0.689233  1
  Y  Y9  1  0.937936  0.561041  0.560199  1
  Y  Y10  1  0.559939  0.559939  0.939175  1
  Y  Y11  1  0.562124  0.936918  0.937967  1
  Y  Y12  1  0.936918  0.562124  0.937967  1
  Er  Er13  1  0.689473  0.311180  0.310466  1
  Er  Er14  1  0.689442  0.689442  0.310686  1
  Er  Er15  1  0.311180  0.689473  0.310466  1
  In  In16  1  0.917669  0.917669  0.249326  1
  In  In17  1  0.249596  0.917750  0.918051  1
  In  In18  1  0.917750  0.249596  0.918051  1
  In  In19  1  0.916450  0.916450  0.916958  1
  Rh  Rh20  1  0.358359  0.358359  0.354441  1
  Rh  Rh21  1  0.924851  0.360130  0.359535  1
  Rh  Rh22  1  0.360513  0.360513  0.926480  1
  Rh  Rh23  1  0.360130  0.924851  0.359535  1
