# generated using pymatgen
data_Nd3(CdSb3)2
_symmetry_space_group_name_H-M   'P 1'
_cell_length_a   4.30538600
_cell_length_b   11.09206400
_cell_length_c   13.42058900
_cell_angle_alpha   90.00000000
_cell_angle_beta   90.00000000
_cell_angle_gamma   90.00000000
_symmetry_Int_Tables_number   1
_chemical_formula_structural   Nd3(CdSb3)2
_chemical_formula_sum   'Nd6 Cd4 Sb12'
_cell_volume   640.90850896
_cell_formula_units_Z   2
loop_
 _symmetry_equiv_pos_site_id
 _symmetry_equiv_pos_as_xyz
  1  'x, y, z'
loop_
 _atom_site_type_symbol
 _atom_site_label
 _atom_site_symmetry_multiplicity
 _atom_site_fract_x
 _atom_site_fract_y
 _atom_site_fract_z
 _atom_site_occupancy
  Nd  Nd0  1  0.750000  0.270691  0.750000  1
  Nd  Nd1  1  0.750000  0.276353  0.413988  1
  Nd  Nd2  1  0.250000  0.723647  0.913988  1
  Nd  Nd3  1  0.250000  0.723647  0.586012  1
  Nd  Nd4  1  0.250000  0.729309  0.250000  1
  Nd  Nd5  1  0.750000  0.276353  0.086012  1
  Cd  Cd6  1  0.250000  0.002699  0.100922  1
  Cd  Cd7  1  0.250000  0.002699  0.399078  1
  Cd  Cd8  1  0.750000  0.997301  0.600922  1
  Cd  Cd9  1  0.750000  0.997301  0.899078  1
  Sb  Sb10  1  0.750000  0.500850  0.250000  1
  Sb  Sb11  1  0.750000  0.494207  0.916757  1
  Sb  Sb12  1  0.750000  0.812574  0.750000  1
  Sb  Sb13  1  0.750000  0.824439  0.417642  1
  Sb  Sb14  1  0.250000  0.175561  0.917642  1
  Sb  Sb15  1  0.250000  0.175561  0.582358  1
  Sb  Sb16  1  0.250000  0.187426  0.250000  1
  Sb  Sb17  1  0.250000  0.505793  0.083243  1
  Sb  Sb18  1  0.250000  0.499150  0.750000  1
  Sb  Sb19  1  0.250000  0.505793  0.416757  1
  Sb  Sb20  1  0.750000  0.494207  0.583243  1
  Sb  Sb21  1  0.750000  0.824439  0.082358  1
