# generated using pymatgen
data_Yb3Pr16InIr12
_symmetry_space_group_name_H-M   'P 1'
_cell_length_a   11.25654700
_cell_length_b   11.25654700
_cell_length_c   6.47916100
_cell_angle_alpha   90.00000000
_cell_angle_beta   90.00000000
_cell_angle_gamma   90.00000000
_symmetry_Int_Tables_number   1
_chemical_formula_structural   Yb3Pr16InIr12
_chemical_formula_sum   'Yb3 Pr16 In1 Ir12'
_cell_volume   820.97352079
_cell_formula_units_Z   1
loop_
 _symmetry_equiv_pos_site_id
 _symmetry_equiv_pos_as_xyz
  1  'x, y, z'
loop_
 _atom_site_type_symbol
 _atom_site_label
 _atom_site_symmetry_multiplicity
 _atom_site_fract_x
 _atom_site_fract_y
 _atom_site_fract_z
 _atom_site_occupancy
  Yb  Yb0  1  0.000000  0.000000  0.000000  1
  Yb  Yb1  1  0.500000  0.500000  0.000000  1
  Yb  Yb2  1  0.500000  0.500000  0.500000  1
  Pr  Pr3  1  0.282330  0.088369  0.384668  1
  Pr  Pr4  1  0.286221  0.912601  0.883620  1
  Pr  Pr5  1  0.713779  0.087399  0.883620  1
  Pr  Pr6  1  0.717670  0.911631  0.384668  1
  Pr  Pr7  1  0.587238  0.788715  0.884210  1
  Pr  Pr8  1  0.589684  0.210945  0.381416  1
  Pr  Pr9  1  0.410316  0.789055  0.381416  1
  Pr  Pr10  1  0.412762  0.211285  0.884210  1
  Pr  Pr11  1  0.210945  0.410316  0.618584  1
  Pr  Pr12  1  0.211285  0.587238  0.115790  1
  Pr  Pr13  1  0.788715  0.412762  0.115790  1
  Pr  Pr14  1  0.789055  0.589684  0.618584  1
  Pr  Pr15  1  0.912601  0.713779  0.116380  1
  Pr  Pr16  1  0.911631  0.282330  0.615332  1
  Pr  Pr17  1  0.088369  0.717670  0.615332  1
  Pr  Pr18  1  0.087399  0.286221  0.116380  1
  In  In19  1  0.000000  0.000000  0.500000  1
  Ir  Ir20  1  0.848560  0.152630  0.250506  1
  Ir  Ir21  1  0.847370  0.848560  0.749494  1
  Ir  Ir22  1  0.152630  0.151440  0.749494  1
  Ir  Ir23  1  0.151440  0.847370  0.250506  1
  Ir  Ir24  1  0.655262  0.345790  0.748461  1
  Ir  Ir25  1  0.654210  0.655262  0.251539  1
  Ir  Ir26  1  0.345790  0.344738  0.251539  1
  Ir  Ir27  1  0.344738  0.654210  0.748461  1
  Ir  Ir28  1  0.500000  0.000000  0.116993  1
  Ir  Ir29  1  0.500000  0.000000  0.613385  1
  Ir  Ir30  1  0.000000  0.500000  0.883007  1
  Ir  Ir31  1  0.000000  0.500000  0.386615  1
