# generated using pymatgen
data_Sc4GaAgAu2
_symmetry_space_group_name_H-M   'P 1'
_cell_length_a   6.78002200
_cell_length_b   6.86387600
_cell_length_c   6.79717700
_cell_angle_alpha   90.00000000
_cell_angle_beta   90.00000000
_cell_angle_gamma   90.00000000
_symmetry_Int_Tables_number   1
_chemical_formula_structural   Sc4GaAgAu2
_chemical_formula_sum   'Sc8 Ga2 Ag2 Au4'
_cell_volume   316.32179134
_cell_formula_units_Z   2
loop_
 _symmetry_equiv_pos_site_id
 _symmetry_equiv_pos_as_xyz
  1  'x, y, z'
loop_
 _atom_site_type_symbol
 _atom_site_label
 _atom_site_symmetry_multiplicity
 _atom_site_fract_x
 _atom_site_fract_y
 _atom_site_fract_z
 _atom_site_occupancy
  Sc  Sc0  1  0.250131  0.000279  0.249949  1
  Sc  Sc1  1  0.250131  0.499721  0.249949  1
  Sc  Sc2  1  0.750131  0.500280  0.250050  1
  Sc  Sc3  1  0.750131  0.999721  0.250050  1
  Sc  Sc4  1  0.249913  0.000282  0.749863  1
  Sc  Sc5  1  0.249913  0.499718  0.749863  1
  Sc  Sc6  1  0.749913  0.500283  0.750137  1
  Sc  Sc7  1  0.749913  0.999718  0.750137  1
  Ga  Ga8  1  0.000434  0.750001  0.000549  1
  Ga  Ga9  1  0.500434  0.250001  0.499452  1
  Ag  Ag10  1  0.499557  0.750001  0.500795  1
  Ag  Ag11  1  0.999557  0.250001  0.999204  1
  Au  Au12  1  0.500883  0.250001  0.001371  1
  Au  Au13  1  0.000882  0.750001  0.498628  1
  Au  Au14  1  0.999039  0.250001  0.501300  1
  Au  Au15  1  0.499038  0.750001  0.998699  1
