# generated using pymatgen
data_Er7TmTc3B24Os
_symmetry_space_group_name_H-M   'P 1'
_cell_length_a   3.64511400
_cell_length_b   9.11042622
_cell_length_c   11.48704903
_cell_angle_alpha   89.95602729
_cell_angle_beta   90.00000000
_cell_angle_gamma   90.00000000
_symmetry_Int_Tables_number   1
_chemical_formula_structural   Er7TmTc3B24Os
_chemical_formula_sum   'Er7 Tm1 Tc3 B24 Os1'
_cell_volume   381.46803952
_cell_formula_units_Z   1
loop_
 _symmetry_equiv_pos_site_id
 _symmetry_equiv_pos_as_xyz
  1  'x, y, z'
loop_
 _atom_site_type_symbol
 _atom_site_label
 _atom_site_symmetry_multiplicity
 _atom_site_fract_x
 _atom_site_fract_y
 _atom_site_fract_z
 _atom_site_occupancy
  Er  Er0  1  0.000000  0.323566  0.413818  1
  Er  Er1  1  0.000000  0.675541  0.584191  1
  Er  Er2  1  0.000000  0.822526  0.087288  1
  Er  Er3  1  0.000000  0.178245  0.914546  1
  Er  Er4  1  0.000000  0.942647  0.370187  1
  Er  Er5  1  0.000000  0.058032  0.629889  1
  Er  Er6  1  0.000000  0.443239  0.129966  1
  Tm  Tm7  1  0.000000  0.556858  0.869623  1
  Tc  Tc8  1  0.000000  0.638137  0.320648  1
  Tc  Tc9  1  0.000000  0.362041  0.680056  1
  Tc  Tc10  1  0.000000  0.137701  0.178437  1
  B  B11  1  0.500000  0.553094  0.433116  1
  B  B12  1  0.500000  0.446819  0.566672  1
  B  B13  1  0.500000  0.053040  0.066580  1
  B  B14  1  0.500000  0.946246  0.933215  1
  B  B15  1  0.500000  0.749080  0.419154  1
  B  B16  1  0.500000  0.250738  0.580880  1
  B  B17  1  0.500000  0.249703  0.080849  1
  B  B18  1  0.500000  0.750678  0.918871  1
  B  B19  1  0.500000  0.792042  0.265277  1
  B  B20  1  0.500000  0.208138  0.735296  1
  B  B21  1  0.500000  0.292048  0.234917  1
  B  B22  1  0.500000  0.708481  0.765133  1
  B  B23  1  0.500000  0.630902  0.185203  1
  B  B24  1  0.500000  0.369318  0.815366  1
  B  B25  1  0.500000  0.130437  0.314561  1
  B  B26  1  0.500000  0.869108  0.685321  1
  B  B27  1  0.500000  0.981340  0.211876  1
  B  B28  1  0.500000  0.017514  0.788172  1
  B  B29  1  0.500000  0.481675  0.287937  1
  B  B30  1  0.500000  0.518306  0.711988  1
  B  B31  1  0.500000  0.601626  0.027754  1
  B  B32  1  0.500000  0.399646  0.971661  1
  B  B33  1  0.500000  0.101251  0.471936  1
  B  B34  1  0.500000  0.898632  0.528551  1
  Os  Os35  1  0.000000  0.861602  0.821062  1
