# generated using pymatgen
data_Nb2SbCl15
_symmetry_space_group_name_H-M   'P 1'
_cell_length_a   13.78673458
_cell_length_b   13.78673524
_cell_length_c   6.51445809
_cell_angle_alpha   89.28231337
_cell_angle_beta   89.28231416
_cell_angle_gamma   85.99597425
_symmetry_Int_Tables_number   1
_chemical_formula_structural   Nb2SbCl15
_chemical_formula_sum   'Nb4 Sb2 Cl30'
_cell_volume   1235.02599893
_cell_formula_units_Z   2
loop_
 _symmetry_equiv_pos_site_id
 _symmetry_equiv_pos_as_xyz
  1  'x, y, z'
loop_
 _atom_site_type_symbol
 _atom_site_label
 _atom_site_symmetry_multiplicity
 _atom_site_fract_x
 _atom_site_fract_y
 _atom_site_fract_z
 _atom_site_occupancy
  Nb  Nb0  1  0.557436  0.776907  0.525577  1
  Nb  Nb1  1  0.223093  0.442564  0.474423  1
  Nb  Nb2  1  0.106784  0.893216  0.000000  1
  Nb  Nb3  1  0.892059  0.107941  0.000000  1
  Sb  Sb4  1  0.438230  0.228497  0.475244  1
  Sb  Sb5  1  0.771503  0.561770  0.524756  1
  Cl  Cl6  1  0.524701  0.330960  0.256681  1
  Cl  Cl7  1  0.669040  0.475299  0.743319  1
  Cl  Cl8  1  0.478183  0.669842  0.738194  1
  Cl  Cl9  1  0.330158  0.521817  0.261806  1
  Cl  Cl10  1  0.571096  0.199491  0.694252  1
  Cl  Cl11  1  0.800509  0.428904  0.305748  1
  Cl  Cl12  1  0.869151  0.235684  0.775884  1
  Cl  Cl13  1  0.764316  0.130849  0.224116  1
  Cl  Cl14  1  0.130368  0.764620  0.224454  1
  Cl  Cl15  1  0.235380  0.869632  0.775546  1
  Cl  Cl16  1  0.997778  0.187599  0.206463  1
  Cl  Cl17  1  0.812401  0.002222  0.793537  1
  Cl  Cl18  1  0.003000  0.811264  0.793289  1
  Cl  Cl19  1  0.188736  0.997000  0.206711  1
  Cl  Cl20  1  0.047787  0.047456  0.797420  1
  Cl  Cl21  1  0.952544  0.952213  0.202580  1
  Cl  Cl22  1  0.284355  0.286175  0.272770  1
  Cl  Cl23  1  0.713825  0.715645  0.727230  1
  Cl  Cl24  1  0.096867  0.464204  0.252980  1
  Cl  Cl25  1  0.535796  0.903133  0.747020  1
  Cl  Cl26  1  0.904579  0.533622  0.744320  1
  Cl  Cl27  1  0.466378  0.095421  0.255680  1
  Cl  Cl28  1  0.145184  0.336073  0.688656  1
  Cl  Cl29  1  0.663927  0.854816  0.311344  1
  Cl  Cl30  1  0.858097  0.664961  0.307474  1
  Cl  Cl31  1  0.335039  0.141903  0.692526  1
  Cl  Cl32  1  0.380728  0.381958  0.676782  1
  Cl  Cl33  1  0.618042  0.619272  0.323218  1
  Cl  Cl34  1  0.202110  0.569183  0.696730  1
  Cl  Cl35  1  0.430817  0.797890  0.303270  1
