# generated using pymatgen
data_Sc3CoNi19P6
_symmetry_space_group_name_H-M   'P 1'
_cell_length_a   7.84767346
_cell_length_b   7.84767341
_cell_length_c   7.88274091
_cell_angle_alpha   60.14705518
_cell_angle_beta   60.14705901
_cell_angle_gamma   60.00000632
_symmetry_Int_Tables_number   1
_chemical_formula_structural   Sc3CoNi19P6
_chemical_formula_sum   'Sc3 Co1 Ni19 P6'
_cell_volume   344.03758333
_cell_formula_units_Z   1
loop_
 _symmetry_equiv_pos_site_id
 _symmetry_equiv_pos_as_xyz
  1  'x, y, z'
loop_
 _atom_site_type_symbol
 _atom_site_label
 _atom_site_symmetry_multiplicity
 _atom_site_fract_x
 _atom_site_fract_y
 _atom_site_fract_z
 _atom_site_occupancy
  Sc  Sc0  1  0.749251  0.749251  0.752247  1
  Sc  Sc1  1  0.253244  0.253244  0.240267  1
  Sc  Sc2  1  0.000105  0.000105  0.999686  1
  Co  Co3  1  0.385091  0.385091  0.844728  1
  Ni  Ni4  1  0.617107  0.617107  0.613747  1
  Ni  Ni5  1  0.999622  0.349721  0.000295  1
  Ni  Ni6  1  0.349721  0.999622  0.000295  1
  Ni  Ni7  1  0.000305  0.349514  0.649875  1
  Ni  Ni8  1  0.847364  0.383459  0.385718  1
  Ni  Ni9  1  0.349514  0.000305  0.649875  1
  Ni  Ni10  1  0.998969  0.998969  0.352869  1
  Ni  Ni11  1  0.650362  0.349721  0.000295  1
  Ni  Ni12  1  0.998969  0.649192  0.352869  1
  Ni  Ni13  1  0.000305  0.000305  0.649875  1
  Ni  Ni14  1  0.349721  0.650362  0.000295  1
  Ni  Ni15  1  0.650362  0.999622  0.000295  1
  Ni  Ni16  1  0.999622  0.650362  0.000295  1
  Ni  Ni17  1  0.383459  0.847364  0.385718  1
  Ni  Ni18  1  0.615314  0.615314  0.154058  1
  Ni  Ni19  1  0.617107  0.152039  0.613747  1
  Ni  Ni20  1  0.152039  0.617107  0.613747  1
  Ni  Ni21  1  0.383459  0.383459  0.385718  1
  Ni  Ni22  1  0.649192  0.998969  0.352869  1
  P  P23  1  0.733854  0.264144  0.737859  1
  P  P24  1  0.262566  0.737544  0.262346  1
  P  P25  1  0.264144  0.733854  0.737859  1
  P  P26  1  0.264144  0.264144  0.737859  1
  P  P27  1  0.737544  0.737544  0.262346  1
  P  P28  1  0.737544  0.262566  0.262346  1
