# generated using pymatgen
data_Ca7PaSb6
_symmetry_space_group_name_H-M   'P 1'
_cell_length_a   8.24813166
_cell_length_b   8.24813156
_cell_length_c   8.13574100
_cell_angle_alpha   109.19542948
_cell_angle_beta   109.19542926
_cell_angle_gamma   109.74559418
_symmetry_Int_Tables_number   1
_chemical_formula_structural   Ca7PaSb6
_chemical_formula_sum   'Ca7 Pa1 Sb6'
_cell_volume   427.51689445
_cell_formula_units_Z   1
loop_
 _symmetry_equiv_pos_site_id
 _symmetry_equiv_pos_as_xyz
  1  'x, y, z'
loop_
 _atom_site_type_symbol
 _atom_site_label
 _atom_site_symmetry_multiplicity
 _atom_site_fract_x
 _atom_site_fract_y
 _atom_site_fract_z
 _atom_site_occupancy
  Ca  Ca0  1  0.648717  0.649163  0.649810  1
  Ca  Ca1  1  0.007910  0.362225  0.504611  1
  Ca  Ca2  1  0.354315  0.492090  0.996701  1
  Ca  Ca3  1  0.000446  0.851283  0.501093  1
  Ca  Ca4  1  0.850837  0.499554  0.000647  1
  Ca  Ca5  1  0.500000  0.000000  0.852967  1
  Ca  Ca6  1  0.137775  0.145685  0.142386  1
  Pa  Pa7  1  0.500000  0.000000  0.347998  1
  Sb  Sb8  1  0.868623  0.123821  0.741250  1
  Sb  Sb9  1  0.376179  0.244802  0.617429  1
  Sb  Sb10  1  0.132716  0.756548  0.887248  1
  Sb  Sb11  1  0.743452  0.876169  0.130700  1
  Sb  Sb12  1  0.255198  0.631377  0.372628  1
  Sb  Sb13  1  0.623831  0.367284  0.254531  1
