# generated using pymatgen
data_CaTb2(Al3Pd2)3
_symmetry_space_group_name_H-M   'P 1'
_cell_length_a   4.19897200
_cell_length_b   9.45308398
_cell_length_c   9.45163678
_cell_angle_alpha   120.00505796
_cell_angle_beta   90.00000000
_cell_angle_gamma   90.00000000
_symmetry_Int_Tables_number   1
_chemical_formula_structural   CaTb2(Al3Pd2)3
_chemical_formula_sum   'Ca1 Tb2 Al9 Pd6'
_cell_volume   324.88675987
_cell_formula_units_Z   1
loop_
 _symmetry_equiv_pos_site_id
 _symmetry_equiv_pos_as_xyz
  1  'x, y, z'
loop_
 _atom_site_type_symbol
 _atom_site_label
 _atom_site_symmetry_multiplicity
 _atom_site_fract_x
 _atom_site_fract_y
 _atom_site_fract_z
 _atom_site_occupancy
  Ca  Ca0  1  0.000000  0.999974  0.000000  1
  Tb  Tb1  1  0.500000  0.333550  0.667108  1
  Tb  Tb2  1  0.500000  0.666443  0.332892  1
  Al  Al3  1  0.500000  0.306026  0.000000  1
  Al  Al4  1  0.500000  0.694259  0.694128  1
  Al  Al5  1  0.500000  0.000131  0.305872  1
  Al  Al6  1  0.500000  0.693960  0.000000  1
  Al  Al7  1  0.500000  0.305733  0.305873  1
  Al  Al8  1  0.500000  0.999861  0.694127  1
  Al  Al9  1  0.000000  0.499990  0.000000  1
  Al  Al10  1  0.000000  0.500009  0.500003  1
  Al  Al11  1  0.000000  0.000006  0.499998  1
  Pd  Pd12  1  0.000000  0.185662  0.371308  1
  Pd  Pd13  1  0.000000  0.185630  0.814375  1
  Pd  Pd14  1  0.000000  0.628712  0.814367  1
  Pd  Pd15  1  0.000000  0.814354  0.628692  1
  Pd  Pd16  1  0.000000  0.371254  0.185626  1
  Pd  Pd17  1  0.000000  0.814347  0.185633  1
