# generated using pymatgen
data_PrNd5DyIrBr12
_symmetry_space_group_name_H-M   'P 1'
_cell_length_a   9.61579460
_cell_length_b   9.62452176
_cell_length_c   9.61894713
_cell_angle_alpha   107.27846901
_cell_angle_beta   107.20038027
_cell_angle_gamma   107.29593953
_symmetry_Int_Tables_number   1
_chemical_formula_structural   PrNd5DyIrBr12
_chemical_formula_sum   'Pr1 Nd5 Dy1 Ir1 Br12'
_cell_volume   736.08841671
_cell_formula_units_Z   1
loop_
 _symmetry_equiv_pos_site_id
 _symmetry_equiv_pos_as_xyz
  1  'x, y, z'
loop_
 _atom_site_type_symbol
 _atom_site_label
 _atom_site_symmetry_multiplicity
 _atom_site_fract_x
 _atom_site_fract_y
 _atom_site_fract_z
 _atom_site_occupancy
  Pr  Pr0  1  0.895760  0.684924  0.975252  1
  Nd  Nd1  1  0.103650  0.313434  0.024588  1
  Nd  Nd2  1  0.313561  0.024932  0.103515  1
  Nd  Nd3  1  0.024664  0.103962  0.313542  1
  Nd  Nd4  1  0.975562  0.896900  0.686654  1
  Nd  Nd5  1  0.686614  0.975539  0.896459  1
  Dy  Dy6  1  0.499953  0.500076  0.499907  1
  Ir  Ir7  1  0.000124  0.000356  0.000121  1
  Br  Br8  1  0.223478  0.685223  0.074833  1
  Br  Br9  1  0.466171  0.390301  0.179901  1
  Br  Br10  1  0.684804  0.074219  0.221589  1
  Br  Br11  1  0.926066  0.779251  0.316819  1
  Br  Br12  1  0.179935  0.466176  0.390306  1
  Br  Br13  1  0.390309  0.180033  0.466142  1
  Br  Br14  1  0.609707  0.820052  0.533860  1
  Br  Br15  1  0.819880  0.533684  0.608465  1
  Br  Br16  1  0.074215  0.221643  0.684763  1
  Br  Br17  1  0.315180  0.925750  0.778381  1
  Br  Br18  1  0.532484  0.609691  0.819417  1
  Br  Br19  1  0.777888  0.313854  0.925488  1
