# generated using pymatgen
data_Dy6Zn22AgCl
_symmetry_space_group_name_H-M   'P 1'
_cell_length_a   9.08319285
_cell_length_b   9.08319221
_cell_length_c   9.08319200
_cell_angle_alpha   60.00000076
_cell_angle_beta   60.00000309
_cell_angle_gamma   59.99999343
_symmetry_Int_Tables_number   1
_chemical_formula_structural   Dy6Zn22AgCl
_chemical_formula_sum   'Dy6 Zn22 Ag1 Cl1'
_cell_volume   529.90806215
_cell_formula_units_Z   1
loop_
 _symmetry_equiv_pos_site_id
 _symmetry_equiv_pos_as_xyz
  1  'x, y, z'
loop_
 _atom_site_type_symbol
 _atom_site_label
 _atom_site_symmetry_multiplicity
 _atom_site_fract_x
 _atom_site_fract_y
 _atom_site_fract_z
 _atom_site_occupancy
  Dy  Dy0  1  0.717839  0.282161  0.282161  1
  Dy  Dy1  1  0.282161  0.717839  0.717839  1
  Dy  Dy2  1  0.282161  0.717839  0.282161  1
  Dy  Dy3  1  0.717839  0.282161  0.717839  1
  Dy  Dy4  1  0.282161  0.282161  0.717839  1
  Dy  Dy5  1  0.717839  0.717839  0.282161  1
  Zn  Zn6  1  0.126186  0.126186  0.126186  1
  Zn  Zn7  1  0.873814  0.873814  0.873814  1
  Zn  Zn8  1  0.126186  0.126186  0.621441  1
  Zn  Zn9  1  0.126186  0.621441  0.126186  1
  Zn  Zn10  1  0.873814  0.873814  0.378559  1
  Zn  Zn11  1  0.873814  0.378559  0.873814  1
  Zn  Zn12  1  0.621441  0.126186  0.126186  1
  Zn  Zn13  1  0.378559  0.873814  0.873814  1
  Zn  Zn14  1  0.500000  0.000000  0.000000  1
  Zn  Zn15  1  0.000000  0.500000  0.500000  1
  Zn  Zn16  1  0.000000  0.500000  0.000000  1
  Zn  Zn17  1  0.500000  0.000000  0.500000  1
  Zn  Zn18  1  0.000000  0.000000  0.500000  1
  Zn  Zn19  1  0.500000  0.500000  0.000000  1
  Zn  Zn20  1  0.330164  0.330164  0.330164  1
  Zn  Zn21  1  0.669836  0.669836  0.669836  1
  Zn  Zn22  1  0.330164  0.330164  0.009507  1
  Zn  Zn23  1  0.330164  0.009507  0.330164  1
  Zn  Zn24  1  0.669836  0.669836  0.990493  1
  Zn  Zn25  1  0.669836  0.990493  0.669836  1
  Zn  Zn26  1  0.009507  0.330164  0.330164  1
  Zn  Zn27  1  0.990493  0.669836  0.669836  1
  Ag  Ag28  1  0.000000  0.000000  0.000000  1
  Cl  Cl29  1  0.500000  0.500000  0.500000  1
