# generated using pymatgen
data_Dy5Er3(Tm3Pt4)4
_symmetry_space_group_name_H-M   'P 1'
_cell_length_a   7.42151614
_cell_length_b   7.50078018
_cell_length_c   14.61868528
_cell_angle_alpha   90.01822088
_cell_angle_beta   90.01295467
_cell_angle_gamma   90.01764574
_symmetry_Int_Tables_number   1
_chemical_formula_structural   Dy5Er3(Tm3Pt4)4
_chemical_formula_sum   'Dy5 Er3 Tm12 Pt16'
_cell_volume   813.78060880
_cell_formula_units_Z   1
loop_
 _symmetry_equiv_pos_site_id
 _symmetry_equiv_pos_as_xyz
  1  'x, y, z'
loop_
 _atom_site_type_symbol
 _atom_site_label
 _atom_site_symmetry_multiplicity
 _atom_site_fract_x
 _atom_site_fract_y
 _atom_site_fract_z
 _atom_site_occupancy
  Dy  Dy0  1  0.501025  0.679352  0.592847  1
  Dy  Dy1  1  0.000855  0.821147  0.907519  1
  Dy  Dy2  1  0.498987  0.321257  0.092552  1
  Dy  Dy3  1  0.999092  0.178560  0.407324  1
  Dy  Dy4  1  0.498979  0.320861  0.406964  1
  Er  Er5  1  0.998316  0.179752  0.093053  1
  Er  Er6  1  0.501680  0.679754  0.906796  1
  Er  Er7  1  0.001532  0.820269  0.593256  1
  Tm  Tm8  1  0.656190  0.167500  0.622462  1
  Tm  Tm9  1  0.155841  0.332240  0.877674  1
  Tm  Tm10  1  0.344160  0.832226  0.122151  1
  Tm  Tm11  1  0.844929  0.668046  0.377559  1
  Tm  Tm12  1  0.344102  0.832647  0.377305  1
  Tm  Tm13  1  0.844124  0.667325  0.122538  1
  Tm  Tm14  1  0.655840  0.167363  0.877397  1
  Tm  Tm15  1  0.155710  0.332594  0.622687  1
  Tm  Tm16  1  0.819124  0.510110  0.750117  1
  Tm  Tm17  1  0.319187  0.989977  0.750018  1
  Tm  Tm18  1  0.180727  0.489928  0.249783  1
  Tm  Tm19  1  0.680785  0.009928  0.249705  1
  Pt  Pt20  1  0.683261  0.965581  0.458706  1
  Pt  Pt21  1  0.182941  0.533120  0.041627  1
  Pt  Pt22  1  0.317140  0.033492  0.958374  1
  Pt  Pt23  1  0.816888  0.467240  0.542017  1
  Pt  Pt24  1  0.315793  0.033331  0.541851  1
  Pt  Pt25  1  0.815838  0.466275  0.958386  1
  Pt  Pt26  1  0.684230  0.966314  0.041612  1
  Pt  Pt27  1  0.183223  0.534134  0.458504  1
  Pt  Pt28  1  0.453470  0.386128  0.750285  1
  Pt  Pt29  1  0.953502  0.113754  0.749927  1
  Pt  Pt30  1  0.546677  0.614321  0.249913  1
  Pt  Pt31  1  0.046332  0.885947  0.249618  1
  Pt  Pt32  1  0.682148  0.856581  0.750349  1
  Pt  Pt33  1  0.182096  0.643385  0.749967  1
  Pt  Pt34  1  0.317163  0.142932  0.249651  1
  Pt  Pt35  1  0.818114  0.356628  0.249507  1
