# generated using pymatgen
data_Ce4BiPt4Pb
_symmetry_space_group_name_H-M   'P 1'
_cell_length_a   8.00724900
_cell_length_b   8.00724900
_cell_length_c   3.73627500
_cell_angle_alpha   90.00000000
_cell_angle_beta   90.00000000
_cell_angle_gamma   90.00000000
_symmetry_Int_Tables_number   1
_chemical_formula_structural   Ce4BiPt4Pb
_chemical_formula_sum   'Ce4 Bi1 Pt4 Pb1'
_cell_volume   239.55514445
_cell_formula_units_Z   1
loop_
 _symmetry_equiv_pos_site_id
 _symmetry_equiv_pos_as_xyz
  1  'x, y, z'
loop_
 _atom_site_type_symbol
 _atom_site_label
 _atom_site_symmetry_multiplicity
 _atom_site_fract_x
 _atom_site_fract_y
 _atom_site_fract_z
 _atom_site_occupancy
  Ce  Ce0  1  0.673304  0.827617  0.500000  1
  Ce  Ce1  1  0.827617  0.326696  0.500000  1
  Ce  Ce2  1  0.326696  0.172383  0.500000  1
  Ce  Ce3  1  0.172383  0.673304  0.500000  1
  Bi  Bi4  1  0.500000  0.500000  0.000000  1
  Pt  Pt5  1  0.629614  0.122597  0.000000  1
  Pt  Pt6  1  0.877403  0.629614  0.000000  1
  Pt  Pt7  1  0.122597  0.370386  0.000000  1
  Pt  Pt8  1  0.370386  0.877403  0.000000  1
  Pb  Pb9  1  0.000000  0.000000  0.000000  1
