# generated using pymatgen
data_TbDyAl6Si4Au
_symmetry_space_group_name_H-M   'P 1'
_cell_length_a   16.46719424
_cell_length_b   16.46723594
_cell_length_c   16.46733837
_cell_angle_alpha   14.95550062
_cell_angle_beta   14.95574387
_cell_angle_gamma   14.95593629
_symmetry_Int_Tables_number   1
_chemical_formula_structural   TbDyAl6Si4Au
_chemical_formula_sum   'Tb1 Dy1 Al6 Si4 Au1'
_cell_volume   259.02209297
_cell_formula_units_Z   1
loop_
 _symmetry_equiv_pos_site_id
 _symmetry_equiv_pos_as_xyz
  1  'x, y, z'
loop_
 _atom_site_type_symbol
 _atom_site_label
 _atom_site_symmetry_multiplicity
 _atom_site_fract_x
 _atom_site_fract_y
 _atom_site_fract_z
 _atom_site_occupancy
  Tb  Tb0  1  0.434567  0.434544  0.434550  1
  Dy  Dy1  1  0.565411  0.565390  0.565410  1
  Al  Al2  1  0.054150  0.054109  0.054130  1
  Al  Al3  1  0.945636  0.945624  0.945629  1
  Al  Al4  1  0.813611  0.813592  0.813617  1
  Al  Al5  1  0.186768  0.186749  0.186744  1
  Al  Al6  1  0.682811  0.682760  0.682773  1
  Al  Al7  1  0.317136  0.317060  0.317100  1
  Si  Si8  1  0.733911  0.733874  0.733924  1
  Si  Si9  1  0.265922  0.265910  0.265897  1
  Si  Si10  1  0.136094  0.136067  0.136084  1
  Si  Si11  1  0.864251  0.864241  0.864241  1
  Au  Au12  1  0.999935  0.999876  0.999902  1
