# generated using pymatgen
data_Y2Ni2Se
_symmetry_space_group_name_H-M   'P 1'
_cell_length_a   3.92759800
_cell_length_b   3.92759484
_cell_length_c   15.29783600
_cell_angle_alpha   90.00000000
_cell_angle_beta   90.00000000
_cell_angle_gamma   120.00002658
_symmetry_Int_Tables_number   1
_chemical_formula_structural   Y2Ni2Se
_chemical_formula_sum   'Y4 Ni4 Se2'
_cell_volume   204.36862718
_cell_formula_units_Z   2
loop_
 _symmetry_equiv_pos_site_id
 _symmetry_equiv_pos_as_xyz
  1  'x, y, z'
loop_
 _atom_site_type_symbol
 _atom_site_label
 _atom_site_symmetry_multiplicity
 _atom_site_fract_x
 _atom_site_fract_y
 _atom_site_fract_z
 _atom_site_occupancy
  Y  Y0  1  0.333333  0.666667  0.375291  1
  Y  Y1  1  0.666667  0.333333  0.624709  1
  Y  Y2  1  0.666667  0.333333  0.875291  1
  Y  Y3  1  0.333333  0.666667  0.124709  1
  Ni  Ni4  1  0.333333  0.666667  0.750000  1
  Ni  Ni5  1  0.666667  0.333333  0.250000  1
  Ni  Ni6  1  0.000000  0.000000  0.250000  1
  Ni  Ni7  1  0.000000  0.000000  0.750000  1
  Se  Se8  1  0.000000  0.000000  0.500000  1
  Se  Se9  1  0.000000  0.000000  0.000000  1
