# generated using pymatgen
data_Li3Sm2YAgSb2
_symmetry_space_group_name_H-M   'P 1'
_cell_length_a   7.44510700
_cell_length_b   7.44510697
_cell_length_c   4.32009500
_cell_angle_alpha   90.00000000
_cell_angle_beta   90.00000000
_cell_angle_gamma   119.50131678
_symmetry_Int_Tables_number   1
_chemical_formula_structural   Li3Sm2YAgSb2
_chemical_formula_sum   'Li3 Sm2 Y1 Ag1 Sb2'
_cell_volume   208.41372295
_cell_formula_units_Z   1
loop_
 _symmetry_equiv_pos_site_id
 _symmetry_equiv_pos_as_xyz
  1  'x, y, z'
loop_
 _atom_site_type_symbol
 _atom_site_label
 _atom_site_symmetry_multiplicity
 _atom_site_fract_x
 _atom_site_fract_y
 _atom_site_fract_z
 _atom_site_occupancy
  Li  Li0  1  0.238823  0.001324  0.500000  1
  Li  Li1  1  0.758646  0.758646  0.500000  1
  Li  Li2  1  0.001324  0.238823  0.500000  1
  Sm  Sm3  1  0.000305  0.593766  0.000000  1
  Sm  Sm4  1  0.593766  0.000305  0.000000  1
  Y  Y5  1  0.406900  0.406900  0.000000  1
  Ag  Ag6  1  0.002616  0.002616  0.000000  1
  Sb  Sb7  1  0.333823  0.663799  0.500000  1
  Sb  Sb8  1  0.663799  0.333823  0.500000  1
