# generated using pymatgen
data_Ti10Ga2Sn3Te
_symmetry_space_group_name_H-M   'P 1'
_cell_length_a   5.19155058
_cell_length_b   7.93095643
_cell_length_c   7.93892900
_cell_angle_alpha   83.86034162
_cell_angle_beta   70.89237643
_cell_angle_gamma   70.87224097
_symmetry_Int_Tables_number   1
_chemical_formula_structural   Ti10Ga2Sn3Te
_chemical_formula_sum   'Ti10 Ga2 Sn3 Te1'
_cell_volume   291.81544335
_cell_formula_units_Z   1
loop_
 _symmetry_equiv_pos_site_id
 _symmetry_equiv_pos_as_xyz
  1  'x, y, z'
loop_
 _atom_site_type_symbol
 _atom_site_label
 _atom_site_symmetry_multiplicity
 _atom_site_fract_x
 _atom_site_fract_y
 _atom_site_fract_z
 _atom_site_occupancy
  Ti  Ti0  1  0.717192  0.856992  0.708481  1
  Ti  Ti1  1  0.284094  0.142852  0.289567  1
  Ti  Ti2  1  0.783643  0.289933  0.142362  1
  Ti  Ti3  1  0.217201  0.707466  0.858295  1
  Ti  Ti4  1  0.573631  0.710037  0.142068  1
  Ti  Ti5  1  0.424701  0.292713  0.858314  1
  Ti  Ti6  1  0.073744  0.142841  0.708377  1
  Ti  Ti7  1  0.926937  0.857365  0.289557  1
  Ti  Ti8  1  0.747916  0.499925  0.500946  1
  Ti  Ti9  1  0.251235  0.499931  0.500925  1
  Ga  Ga10  1  0.250423  0.000181  0.998984  1
  Ga  Ga11  1  0.750426  0.000002  0.999081  1
  Sn  Sn12  1  0.835329  0.499780  0.829846  1
  Sn  Sn13  1  0.335177  0.830414  0.499613  1
  Sn  Sn14  1  0.665055  0.169569  0.499996  1
  Te  Te15  1  0.163294  0.499999  0.173589  1
