# generated using pymatgen
data_TbHo2(P2Rh3)3
_symmetry_space_group_name_H-M   'P 1'
_cell_length_a   3.92158200
_cell_length_b   11.19437700
_cell_length_c   12.75283900
_cell_angle_alpha   90.00000000
_cell_angle_beta   90.00000000
_cell_angle_gamma   90.00000000
_symmetry_Int_Tables_number   1
_chemical_formula_structural   TbHo2(P2Rh3)3
_chemical_formula_sum   'Tb2 Ho4 P12 Rh18'
_cell_volume   559.84538980
_cell_formula_units_Z   2
loop_
 _symmetry_equiv_pos_site_id
 _symmetry_equiv_pos_as_xyz
  1  'x, y, z'
loop_
 _atom_site_type_symbol
 _atom_site_label
 _atom_site_symmetry_multiplicity
 _atom_site_fract_x
 _atom_site_fract_y
 _atom_site_fract_z
 _atom_site_occupancy
  Tb  Tb0  1  0.000000  0.500000  0.521501  1
  Tb  Tb1  1  0.500000  0.000000  0.478499  1
  Ho  Ho2  1  0.500000  0.814199  0.205142  1
  Ho  Ho3  1  0.500000  0.185801  0.205142  1
  Ho  Ho4  1  0.000000  0.685801  0.794858  1
  Ho  Ho5  1  0.000000  0.314199  0.794858  1
  P  P6  1  0.500000  0.315188  0.618975  1
  P  P7  1  0.500000  0.684812  0.618975  1
  P  P8  1  0.000000  0.184812  0.381025  1
  P  P9  1  0.000000  0.815188  0.381025  1
  P  P10  1  0.500000  0.500000  0.877272  1
  P  P11  1  0.000000  0.000000  0.122728  1
  P  P12  1  0.500000  0.846785  0.892668  1
  P  P13  1  0.500000  0.153215  0.892668  1
  P  P14  1  0.000000  0.653215  0.107332  1
  P  P15  1  0.000000  0.346785  0.107332  1
  P  P16  1  0.500000  0.500000  0.351949  1
  P  P17  1  0.000000  0.000000  0.648051  1
  Rh  Rh18  1  0.000000  0.500000  0.977842  1
  Rh  Rh19  1  0.500000  0.000000  0.022158  1
  Rh  Rh20  1  0.500000  0.295206  0.431294  1
  Rh  Rh21  1  0.500000  0.704794  0.431294  1
  Rh  Rh22  1  0.000000  0.204794  0.568706  1
  Rh  Rh23  1  0.000000  0.795206  0.568706  1
  Rh  Rh24  1  0.500000  0.872691  0.710933  1
  Rh  Rh25  1  0.500000  0.127309  0.710933  1
  Rh  Rh26  1  0.000000  0.627309  0.289067  1
  Rh  Rh27  1  0.000000  0.372691  0.289067  1
  Rh  Rh28  1  0.500000  0.334179  0.993261  1
  Rh  Rh29  1  0.500000  0.665821  0.993261  1
  Rh  Rh30  1  0.000000  0.165821  0.006739  1
  Rh  Rh31  1  0.000000  0.834179  0.006739  1
  Rh  Rh32  1  0.500000  0.500000  0.169835  1
  Rh  Rh33  1  0.000000  0.000000  0.830165  1
  Rh  Rh34  1  0.500000  0.500000  0.700665  1
  Rh  Rh35  1  0.000000  0.000000  0.299335  1
