# generated using pymatgen
data_Y4Er4VOs3C8
_symmetry_space_group_name_H-M   'P 1'
_cell_length_a   5.07905400
_cell_length_b   6.53153112
_cell_length_c   9.75194639
_cell_angle_alpha   89.83931561
_cell_angle_beta   90.00000000
_cell_angle_gamma   90.00000000
_symmetry_Int_Tables_number   1
_chemical_formula_structural   Y4Er4VOs3C8
_chemical_formula_sum   'Y4 Er4 V1 Os3 C8'
_cell_volume   323.50979003
_cell_formula_units_Z   1
loop_
 _symmetry_equiv_pos_site_id
 _symmetry_equiv_pos_as_xyz
  1  'x, y, z'
loop_
 _atom_site_type_symbol
 _atom_site_label
 _atom_site_symmetry_multiplicity
 _atom_site_fract_x
 _atom_site_fract_y
 _atom_site_fract_z
 _atom_site_occupancy
  Y  Y0  1  0.250000  0.533719  0.211040  1
  Y  Y1  1  0.750000  0.466427  0.781900  1
  Y  Y2  1  0.750000  0.972167  0.714655  1
  Y  Y3  1  0.250000  0.030585  0.285357  1
  Er  Er4  1  0.250000  0.680709  0.558452  1
  Er  Er5  1  0.750000  0.324008  0.444123  1
  Er  Er6  1  0.750000  0.822431  0.055534  1
  Er  Er7  1  0.250000  0.172822  0.942142  1
  V  V8  1  0.250000  0.723673  0.866145  1
  Os  Os9  1  0.750000  0.277074  0.134674  1
  Os  Os10  1  0.750000  0.776166  0.364717  1
  Os  Os11  1  0.250000  0.226153  0.634738  1
  C  C12  1  0.250000  0.458494  0.762721  1
  C  C13  1  0.750000  0.542676  0.241605  1
  C  C14  1  0.750000  0.042963  0.259812  1
  C  C15  1  0.250000  0.955739  0.740579  1
  C  C16  1  0.250000  0.822915  0.050279  1
  C  C17  1  0.750000  0.171873  0.951252  1
  C  C18  1  0.750000  0.673391  0.550904  1
  C  C19  1  0.250000  0.326016  0.449375  1
