# generated using pymatgen
data_Tb4Sn2Sb4RuRh6
_symmetry_space_group_name_H-M   'P 1'
_cell_length_a   7.60381736
_cell_length_b   7.60381949
_cell_length_c   7.60763111
_cell_angle_alpha   109.43379585
_cell_angle_beta   109.43379602
_cell_angle_gamma   109.52581253
_symmetry_Int_Tables_number   1
_chemical_formula_structural   Tb4Sn2Sb4RuRh6
_chemical_formula_sum   'Tb4 Sn2 Sb4 Ru1 Rh6'
_cell_volume   338.68758562
_cell_formula_units_Z   1
loop_
 _symmetry_equiv_pos_site_id
 _symmetry_equiv_pos_as_xyz
  1  'x, y, z'
loop_
 _atom_site_type_symbol
 _atom_site_label
 _atom_site_symmetry_multiplicity
 _atom_site_fract_x
 _atom_site_fract_y
 _atom_site_fract_z
 _atom_site_occupancy
  Tb  Tb0  1  0.496287  0.000579  0.000000  1
  Tb  Tb1  1  0.999421  0.503713  0.000000  1
  Tb  Tb2  1  0.998930  0.001070  0.500000  1
  Tb  Tb3  1  0.498930  0.501070  0.500000  1
  Sn  Sn4  1  0.997990  0.312311  0.310301  1
  Sn  Sn5  1  0.687689  0.002010  0.689699  1
  Sb  Sb6  1  0.683710  0.687057  0.000000  1
  Sb  Sb7  1  0.997969  0.679669  0.677638  1
  Sb  Sb8  1  0.320331  0.002031  0.322362  1
  Sb  Sb9  1  0.312943  0.316290  0.000000  1
  Ru  Ru10  1  0.007121  0.992879  0.000000  1
  Rh  Rh11  1  0.500138  0.750477  0.250615  1
  Rh  Rh12  1  0.747839  0.499565  0.247404  1
  Rh  Rh13  1  0.250371  0.749629  0.500000  1
  Rh  Rh14  1  0.249523  0.499862  0.749385  1
  Rh  Rh15  1  0.500435  0.252161  0.752596  1
  Rh  Rh16  1  0.750371  0.249629  0.500000  1
