# generated using pymatgen
data_Ti2Co2Sn2Ir
_symmetry_space_group_name_H-M   'P 1'
_cell_length_a   7.43084524
_cell_length_b   7.43084523
_cell_length_c   7.43084500
_cell_angle_alpha   33.89192301
_cell_angle_beta   33.89192343
_cell_angle_gamma   33.89192311
_symmetry_Int_Tables_number   1
_chemical_formula_structural   Ti2Co2Sn2Ir
_chemical_formula_sum   'Ti2 Co2 Sn2 Ir1'
_cell_volume   113.70692947
_cell_formula_units_Z   1
loop_
 _symmetry_equiv_pos_site_id
 _symmetry_equiv_pos_as_xyz
  1  'x, y, z'
loop_
 _atom_site_type_symbol
 _atom_site_label
 _atom_site_symmetry_multiplicity
 _atom_site_fract_x
 _atom_site_fract_y
 _atom_site_fract_z
 _atom_site_occupancy
  Ti  Ti0  1  0.750945  0.750945  0.750945  1
  Ti  Ti1  1  0.250090  0.250090  0.250090  1
  Co  Co2  1  0.628462  0.628462  0.628462  1
  Co  Co3  1  0.375339  0.375339  0.375339  1
  Sn  Sn4  1  0.991461  0.991461  0.991461  1
  Sn  Sn5  1  0.506969  0.506969  0.506969  1
  Ir  Ir6  1  0.121735  0.121735  0.121735  1
