# generated using pymatgen
data_LiMgCoH6
_symmetry_space_group_name_H-M   'P 1'
_cell_length_a   6.36492600
_cell_length_b   6.36492600
_cell_length_c   6.36492600
_cell_angle_alpha   90.00000000
_cell_angle_beta   90.00000000
_cell_angle_gamma   90.00000000
_symmetry_Int_Tables_number   1
_chemical_formula_structural   LiMgCoH6
_chemical_formula_sum   'Li4 Mg4 Co4 H24'
_cell_volume   257.85768329
_cell_formula_units_Z   4
loop_
 _symmetry_equiv_pos_site_id
 _symmetry_equiv_pos_as_xyz
  1  'x, y, z'
loop_
 _atom_site_type_symbol
 _atom_site_label
 _atom_site_symmetry_multiplicity
 _atom_site_fract_x
 _atom_site_fract_y
 _atom_site_fract_z
 _atom_site_occupancy
  Li  Li0  1  0.000000  0.000000  0.500000  1
  Li  Li1  1  0.000000  0.500000  0.000000  1
  Li  Li2  1  0.500000  0.000000  0.000000  1
  Li  Li3  1  0.000000  0.000000  0.000000  1
  Mg  Mg4  1  0.500000  0.500000  0.500000  1
  Mg  Mg5  1  0.000000  0.500000  0.500000  1
  Mg  Mg6  1  0.500000  0.000000  0.500000  1
  Mg  Mg7  1  0.500000  0.500000  0.000000  1
  Co  Co8  1  0.256374  0.743626  0.743626  1
  Co  Co9  1  0.743626  0.256374  0.743626  1
  Co  Co10  1  0.743626  0.743626  0.256374  1
  Co  Co11  1  0.256374  0.256374  0.256374  1
  H  H12  1  0.751853  0.751853  0.495880  1
  H  H13  1  0.248147  0.248147  0.495880  1
  H  H14  1  0.017984  0.751002  0.751002  1
  H  H15  1  0.248998  0.982016  0.751002  1
  H  H16  1  0.751002  0.017984  0.751002  1
  H  H17  1  0.982016  0.248998  0.751002  1
  H  H18  1  0.751853  0.495880  0.751853  1
  H  H19  1  0.495880  0.751853  0.751853  1
  H  H20  1  0.504120  0.248147  0.751853  1
  H  H21  1  0.248147  0.504120  0.751853  1
  H  H22  1  0.248998  0.751002  0.982016  1
  H  H23  1  0.751002  0.248998  0.982016  1
  H  H24  1  0.751002  0.751002  0.017984  1
  H  H25  1  0.248998  0.248998  0.017984  1
  H  H26  1  0.248147  0.495880  0.248147  1
  H  H27  1  0.504120  0.751853  0.248147  1
  H  H28  1  0.495880  0.248147  0.248147  1
  H  H29  1  0.751853  0.504120  0.248147  1
  H  H30  1  0.982016  0.751002  0.248998  1
  H  H31  1  0.751002  0.982016  0.248998  1
  H  H32  1  0.248998  0.017984  0.248998  1
  H  H33  1  0.017984  0.248998  0.248998  1
  H  H34  1  0.248147  0.751853  0.504120  1
  H  H35  1  0.751853  0.248147  0.504120  1
