# generated using pymatgen
data_Ta4Ni4P4W
_symmetry_space_group_name_H-M   'P 1'
_cell_length_a   7.19632132
_cell_length_b   7.19632061
_cell_length_c   7.19644110
_cell_angle_alpha   93.45189526
_cell_angle_beta   93.45151369
_cell_angle_gamma   151.59216307
_symmetry_Int_Tables_number   1
_chemical_formula_structural   Ta4Ni4P4W
_chemical_formula_sum   'Ta4 Ni4 P4 W1'
_cell_volume   171.88142007
_cell_formula_units_Z   1
loop_
 _symmetry_equiv_pos_site_id
 _symmetry_equiv_pos_as_xyz
  1  'x, y, z'
loop_
 _atom_site_type_symbol
 _atom_site_label
 _atom_site_symmetry_multiplicity
 _atom_site_fract_x
 _atom_site_fract_y
 _atom_site_fract_z
 _atom_site_occupancy
  Ta  Ta0  1  0.870213  0.195301  0.065515  1
  Ta  Ta1  1  0.129787  0.804699  0.934485  1
  Ta  Ta2  1  0.195306  0.129793  0.325099  1
  Ta  Ta3  1  0.804694  0.870207  0.674901  1
  Ni  Ni4  1  0.610149  0.087433  0.697582  1
  Ni  Ni5  1  0.389851  0.912567  0.302418  1
  Ni  Ni6  1  0.087414  0.389866  0.477279  1
  Ni  Ni7  1  0.912586  0.610134  0.522721  1
  P  P8  1  0.756787  0.443875  0.200662  1
  P  P9  1  0.243213  0.556125  0.799338  1
  P  P10  1  0.443873  0.243209  0.687082  1
  P  P11  1  0.556127  0.756791  0.312918  1
  W  W12  1  0.500000  0.500000  0.000000  1
