# generated using pymatgen
data_LaPr9(Sn5Pd2)4
_symmetry_space_group_name_H-M   'P 1'
_cell_length_a   14.35155800
_cell_length_b   14.35155800
_cell_length_c   4.68998800
_cell_angle_alpha   90.00000000
_cell_angle_beta   90.00000000
_cell_angle_gamma   90.00000000
_symmetry_Int_Tables_number   1
_chemical_formula_structural   LaPr9(Sn5Pd2)4
_chemical_formula_sum   'La1 Pr9 Sn20 Pd8'
_cell_volume   965.98377625
_cell_formula_units_Z   1
loop_
 _symmetry_equiv_pos_site_id
 _symmetry_equiv_pos_as_xyz
  1  'x, y, z'
loop_
 _atom_site_type_symbol
 _atom_site_label
 _atom_site_symmetry_multiplicity
 _atom_site_fract_x
 _atom_site_fract_y
 _atom_site_fract_z
 _atom_site_occupancy
  La  La0  1  0.500000  0.500000  0.000000  1
  Pr  Pr1  1  0.000000  0.000000  0.000000  1
  Pr  Pr2  1  0.679615  0.179699  0.500000  1
  Pr  Pr3  1  0.320385  0.820301  0.500000  1
  Pr  Pr4  1  0.179699  0.320385  0.500000  1
  Pr  Pr5  1  0.820301  0.679615  0.500000  1
  Pr  Pr6  1  0.891773  0.391797  0.500000  1
  Pr  Pr7  1  0.108227  0.608203  0.500000  1
  Pr  Pr8  1  0.391797  0.108227  0.500000  1
  Pr  Pr9  1  0.608203  0.891773  0.500000  1
  Sn  Sn10  1  0.569294  0.069230  0.000000  1
  Sn  Sn11  1  0.430706  0.930770  0.000000  1
  Sn  Sn12  1  0.069230  0.430706  0.000000  1
  Sn  Sn13  1  0.930770  0.569294  0.000000  1
  Sn  Sn14  1  0.653381  0.699975  0.000000  1
  Sn  Sn15  1  0.346619  0.300025  0.000000  1
  Sn  Sn16  1  0.153514  0.799929  0.000000  1
  Sn  Sn17  1  0.846486  0.200071  0.000000  1
  Sn  Sn18  1  0.300025  0.653381  0.000000  1
  Sn  Sn19  1  0.699975  0.346619  0.000000  1
  Sn  Sn20  1  0.200071  0.153514  0.000000  1
  Sn  Sn21  1  0.799929  0.846486  0.000000  1
  Sn  Sn22  1  0.662531  0.501357  0.500000  1
  Sn  Sn23  1  0.337469  0.498643  0.500000  1
  Sn  Sn24  1  0.162145  0.998609  0.500000  1
  Sn  Sn25  1  0.837855  0.001391  0.500000  1
  Sn  Sn26  1  0.498643  0.662531  0.500000  1
  Sn  Sn27  1  0.501357  0.337469  0.500000  1
  Sn  Sn28  1  0.001391  0.162145  0.500000  1
  Sn  Sn29  1  0.998609  0.837855  0.500000  1
  Pd  Pd30  1  0.745543  0.529745  0.000000  1
  Pd  Pd31  1  0.254457  0.470255  0.000000  1
  Pd  Pd32  1  0.245289  0.970204  0.000000  1
  Pd  Pd33  1  0.754711  0.029796  0.000000  1
  Pd  Pd34  1  0.470255  0.745543  0.000000  1
  Pd  Pd35  1  0.529745  0.254457  0.000000  1
  Pd  Pd36  1  0.029796  0.245289  0.000000  1
  Pd  Pd37  1  0.970204  0.754711  0.000000  1
