# generated using pymatgen
data_VMoIr6
_symmetry_space_group_name_H-M   'P 1'
_cell_length_a   5.50105100
_cell_length_b   5.50105182
_cell_length_c   4.40025500
_cell_angle_alpha   90.00000000
_cell_angle_beta   90.00000000
_cell_angle_gamma   120.00001308
_symmetry_Int_Tables_number   1
_chemical_formula_structural   VMoIr6
_chemical_formula_sum   'V1 Mo1 Ir6'
_cell_volume   115.31872373
_cell_formula_units_Z   1
loop_
 _symmetry_equiv_pos_site_id
 _symmetry_equiv_pos_as_xyz
  1  'x, y, z'
loop_
 _atom_site_type_symbol
 _atom_site_label
 _atom_site_symmetry_multiplicity
 _atom_site_fract_x
 _atom_site_fract_y
 _atom_site_fract_z
 _atom_site_occupancy
  V  V0  1  0.666667  0.333333  0.250000  1
  Mo  Mo1  1  0.333333  0.666667  0.750000  1
  Ir  Ir2  1  0.166378  0.332757  0.250000  1
  Ir  Ir3  1  0.667243  0.833622  0.250000  1
  Ir  Ir4  1  0.166378  0.833622  0.250000  1
  Ir  Ir5  1  0.832535  0.665072  0.750000  1
  Ir  Ir6  1  0.334928  0.167465  0.750000  1
  Ir  Ir7  1  0.832535  0.167465  0.750000  1
