# generated using pymatgen
data_TbTm6Co2Sn23Rh4
_symmetry_space_group_name_H-M   'P 1'
_cell_length_a   9.77418774
_cell_length_b   9.77798409
_cell_length_c   10.03556972
_cell_angle_alpha   89.99999724
_cell_angle_beta   90.03820493
_cell_angle_gamma   120.01285621
_symmetry_Int_Tables_number   1
_chemical_formula_structural   TbTm6Co2Sn23Rh4
_chemical_formula_sum   'Tb1 Tm6 Co2 Sn23 Rh4'
_cell_volume   830.51266871
_cell_formula_units_Z   1
loop_
 _symmetry_equiv_pos_site_id
 _symmetry_equiv_pos_as_xyz
  1  'x, y, z'
loop_
 _atom_site_type_symbol
 _atom_site_label
 _atom_site_symmetry_multiplicity
 _atom_site_fract_x
 _atom_site_fract_y
 _atom_site_fract_z
 _atom_site_occupancy
  Tb  Tb0  1  0.000000  0.000000  0.000000  1
  Tm  Tm1  1  0.479868  0.520229  0.307570  1
  Tm  Tm2  1  0.520132  0.479771  0.692430  1
  Tm  Tm3  1  0.479868  0.959639  0.307570  1
  Tm  Tm4  1  0.520132  0.040361  0.692430  1
  Tm  Tm5  1  0.039728  0.519864  0.306882  1
  Tm  Tm6  1  0.960272  0.480136  0.693118  1
  Co  Co7  1  0.338337  0.169168  0.199083  1
  Co  Co8  1  0.661663  0.830832  0.800917  1
  Sn  Sn9  1  0.351568  0.004554  0.004878  1
  Sn  Sn10  1  0.648432  0.995446  0.995122  1
  Sn  Sn11  1  0.000000  0.351330  0.000000  1
  Sn  Sn12  1  0.000000  0.648670  0.000000  1
  Sn  Sn13  1  0.648432  0.652986  0.995122  1
  Sn  Sn14  1  0.351568  0.347014  0.004878  1
  Sn  Sn15  1  0.338956  0.669478  0.818756  1
  Sn  Sn16  1  0.661044  0.330522  0.181244  1
  Sn  Sn17  1  0.000000  0.000000  0.500000  1
  Sn  Sn18  1  0.778014  0.221986  0.456871  1
  Sn  Sn19  1  0.221986  0.778014  0.543129  1
  Sn  Sn20  1  0.778014  0.556027  0.456871  1
  Sn  Sn21  1  0.221986  0.443973  0.543129  1
  Sn  Sn22  1  0.439926  0.219963  0.450934  1
  Sn  Sn23  1  0.560074  0.780037  0.549066  1
  Sn  Sn24  1  0.333198  0.666600  0.123805  1
  Sn  Sn25  1  0.666802  0.333400  0.876195  1
  Sn  Sn26  1  0.124290  0.886054  0.277540  1
  Sn  Sn27  1  0.875710  0.113946  0.722460  1
  Sn  Sn28  1  0.124290  0.238237  0.277540  1
  Sn  Sn29  1  0.875710  0.761763  0.722460  1
  Sn  Sn30  1  0.757688  0.878845  0.282662  1
  Sn  Sn31  1  0.242312  0.121155  0.717338  1
  Rh  Rh32  1  0.830203  0.167932  0.198099  1
  Rh  Rh33  1  0.169797  0.832068  0.801901  1
  Rh  Rh34  1  0.830203  0.662271  0.198099  1
  Rh  Rh35  1  0.169797  0.337729  0.801901  1
