# generated using pymatgen
data_Gd2Tm2Zn3Ga5Ag4
_symmetry_space_group_name_H-M   'P 1'
_cell_length_a   4.31789000
_cell_length_b   6.97710133
_cell_length_c   10.34151740
_cell_angle_alpha   89.90035575
_cell_angle_beta   90.00000000
_cell_angle_gamma   90.00000000
_symmetry_Int_Tables_number   1
_chemical_formula_structural   Gd2Tm2Zn3Ga5Ag4
_chemical_formula_sum   'Gd2 Tm2 Zn3 Ga5 Ag4'
_cell_volume   311.55176411
_cell_formula_units_Z   1
loop_
 _symmetry_equiv_pos_site_id
 _symmetry_equiv_pos_as_xyz
  1  'x, y, z'
loop_
 _atom_site_type_symbol
 _atom_site_label
 _atom_site_symmetry_multiplicity
 _atom_site_fract_x
 _atom_site_fract_y
 _atom_site_fract_z
 _atom_site_occupancy
  Gd  Gd0  1  0.750000  0.216217  0.171647  1
  Gd  Gd1  1  0.750000  0.720627  0.329270  1
  Tm  Tm2  1  0.250000  0.780214  0.826922  1
  Tm  Tm3  1  0.250000  0.281926  0.673198  1
  Zn  Zn4  1  0.250000  0.921842  0.147919  1
  Zn  Zn5  1  0.750000  0.075705  0.848478  1
  Zn  Zn6  1  0.750000  0.577733  0.651756  1
  Ga  Ga7  1  0.250000  0.424775  0.349711  1
  Ga  Ga8  1  0.250000  0.702564  0.540043  1
  Ga  Ga9  1  0.750000  0.297496  0.468886  1
  Ga  Ga10  1  0.750000  0.796853  0.035013  1
  Ga  Ga11  1  0.250000  0.199979  0.960992  1
  Ag  Ag12  1  0.250000  0.542492  0.096823  1
  Ag  Ag13  1  0.750000  0.460489  0.897384  1
  Ag  Ag14  1  0.750000  0.960112  0.601301  1
  Ag  Ag15  1  0.250000  0.040977  0.400657  1
