# generated using pymatgen
data_Nd12As(RuBr4)3
_symmetry_space_group_name_H-M   'P 1'
_cell_length_a   10.60699525
_cell_length_b   10.60699702
_cell_length_c   10.21876400
_cell_angle_alpha   108.73144194
_cell_angle_beta   108.73144519
_cell_angle_gamma   110.20075597
_symmetry_Int_Tables_number   1
_chemical_formula_structural   Nd12As(RuBr4)3
_chemical_formula_sum   'Nd12 As1 Ru3 Br12'
_cell_volume   892.98702023
_cell_formula_units_Z   1
loop_
 _symmetry_equiv_pos_site_id
 _symmetry_equiv_pos_as_xyz
  1  'x, y, z'
loop_
 _atom_site_type_symbol
 _atom_site_label
 _atom_site_symmetry_multiplicity
 _atom_site_fract_x
 _atom_site_fract_y
 _atom_site_fract_z
 _atom_site_occupancy
  Nd  Nd0  1  0.256114  0.728229  0.227930  1
  Nd  Nd1  1  0.472115  0.728229  0.000299  1
  Nd  Nd2  1  0.235363  0.470725  0.485363  1
  Nd  Nd3  1  0.017271  0.034541  0.267271  1
  Nd  Nd4  1  0.235363  0.264637  0.750000  1
  Nd  Nd5  1  0.017271  0.482729  0.750000  1
  Nd  Nd6  1  0.472115  0.243886  0.471816  1
  Nd  Nd7  1  0.256114  0.027885  0.028184  1
  Nd  Nd8  1  0.771771  0.243886  0.272070  1
  Nd  Nd9  1  0.771771  0.027885  0.499701  1
  Nd  Nd10  1  0.465459  0.482729  0.232729  1
  Nd  Nd11  1  0.029275  0.264637  0.014637  1
  As  As12  1  0.500000  0.000000  0.250000  1
  Ru  Ru13  1  0.248872  0.497744  0.998872  1
  Ru  Ru14  1  0.002256  0.251128  0.501128  1
  Ru  Ru15  1  0.248872  0.251128  0.250000  1
  Br  Br16  1  0.252880  0.992766  0.498436  1
  Br  Br17  1  0.517900  0.508950  0.758950  1
  Br  Br18  1  0.252880  0.760114  0.754445  1
  Br  Br19  1  0.004304  0.752152  0.002152  1
  Br  Br20  1  0.991050  0.508950  0.250000  1
  Br  Br21  1  0.739886  0.992766  0.994330  1
  Br  Br22  1  0.747848  0.752152  0.250000  1
  Br  Br23  1  0.507234  0.760114  0.505670  1
  Br  Br24  1  0.507234  0.247120  0.001564  1
  Br  Br25  1  0.747848  0.495696  0.497848  1
  Br  Br26  1  0.739886  0.247120  0.745555  1
  Br  Br27  1  0.991050  0.982100  0.741050  1
