# generated using pymatgen
data_Sr4Be(Si2Pt)5
_symmetry_space_group_name_H-M   'P 1'
_cell_length_a   8.40072376
_cell_length_b   8.40072459
_cell_length_c   8.40072500
_cell_angle_alpha   138.34559581
_cell_angle_beta   105.38520393
_cell_angle_gamma   89.28524820
_symmetry_Int_Tables_number   1
_chemical_formula_structural   Sr4Be(Si2Pt)5
_chemical_formula_sum   'Sr4 Be1 Si10 Pt5'
_cell_volume   363.60241149
_cell_formula_units_Z   1
loop_
 _symmetry_equiv_pos_site_id
 _symmetry_equiv_pos_as_xyz
  1  'x, y, z'
loop_
 _atom_site_type_symbol
 _atom_site_label
 _atom_site_symmetry_multiplicity
 _atom_site_fract_x
 _atom_site_fract_y
 _atom_site_fract_z
 _atom_site_occupancy
  Sr  Sr0  1  0.635012  0.869548  0.758486  1
  Sr  Sr1  1  0.364988  0.123474  0.234536  1
  Sr  Sr2  1  0.111062  0.376526  0.741514  1
  Sr  Sr3  1  0.888938  0.630452  0.265464  1
  Be  Be4  1  0.500000  0.250000  0.750000  1
  Si  Si5  1  0.266545  0.016545  0.750000  1
  Si  Si6  1  0.727026  0.977026  0.250000  1
  Si  Si7  1  0.733455  0.483455  0.750000  1
  Si  Si8  1  0.272974  0.522974  0.250000  1
  Si  Si9  1  0.469852  0.603254  0.846243  1
  Si  Si10  1  0.530148  0.376391  0.133402  1
  Si  Si11  1  0.757011  0.123609  0.653757  1
  Si  Si12  1  0.242989  0.896746  0.366598  1
  Si  Si13  1  0.000000  0.750000  0.750000  1
  Si  Si14  1  0.000000  0.250000  0.250000  1
  Pt  Pt15  1  0.247260  0.630806  0.607874  1
  Pt  Pt16  1  0.752740  0.360614  0.383547  1
  Pt  Pt17  1  0.022933  0.139386  0.892126  1
  Pt  Pt18  1  0.977067  0.869194  0.116453  1
  Pt  Pt19  1  0.500000  0.750000  0.250000  1
