# generated using pymatgen
data_CsRb11Na8(HfP3)4
_symmetry_space_group_name_H-M   'P 1'
_cell_length_a   10.76059689
_cell_length_b   10.76150711
_cell_length_c   15.64648752
_cell_angle_alpha   90.02133448
_cell_angle_beta   89.94639456
_cell_angle_gamma   142.71500959
_symmetry_Int_Tables_number   1
_chemical_formula_structural   CsRb11Na8(HfP3)4
_chemical_formula_sum   'Cs1 Rb11 Na8 Hf4 P12'
_cell_volume   1097.59209443
_cell_formula_units_Z   1
loop_
 _symmetry_equiv_pos_site_id
 _symmetry_equiv_pos_as_xyz
  1  'x, y, z'
loop_
 _atom_site_type_symbol
 _atom_site_label
 _atom_site_symmetry_multiplicity
 _atom_site_fract_x
 _atom_site_fract_y
 _atom_site_fract_z
 _atom_site_occupancy
  Cs  Cs0  1  0.110738  0.452655  0.680633  1
  Rb  Rb1  1  0.947282  0.608677  0.823572  1
  Rb  Rb2  1  0.551826  0.892023  0.322818  1
  Rb  Rb3  1  0.392297  0.052011  0.177127  1
  Rb  Rb4  1  0.051613  0.392160  0.176905  1
  Rb  Rb5  1  0.892081  0.551805  0.322788  1
  Rb  Rb6  1  0.447206  0.108196  0.676509  1
  Rb  Rb7  1  0.607747  0.947813  0.823968  1
  Rb  Rb8  1  0.281913  0.281695  0.314391  1
  Rb  Rb9  1  0.781742  0.781609  0.185427  1
  Rb  Rb10  1  0.218925  0.218469  0.815376  1
  Rb  Rb11  1  0.719090  0.718716  0.684564  1
  Na  Na12  1  0.919514  0.079828  0.000750  1
  Na  Na13  1  0.579910  0.419180  0.499556  1
  Na  Na14  1  0.080489  0.919520  0.000140  1
  Na  Na15  1  0.419419  0.579640  0.498894  1
  Na  Na16  1  0.754587  0.245319  0.000508  1
  Na  Na17  1  0.744659  0.254002  0.499026  1
  Na  Na18  1  0.245366  0.754842  0.000642  1
  Na  Na19  1  0.254363  0.745336  0.498860  1
  Hf  Hf20  1  0.585244  0.414977  0.999882  1
  Hf  Hf21  1  0.915459  0.085271  0.498940  1
  Hf  Hf22  1  0.415588  0.585272  0.001246  1
  Hf  Hf23  1  0.084704  0.914560  0.499081  1
  P  P24  1  0.866962  0.557207  0.094927  1
  P  P25  1  0.443293  0.132920  0.904560  1
  P  P26  1  0.632309  0.941888  0.593433  1
  P  P27  1  0.941662  0.632815  0.594576  1
  P  P28  1  0.131245  0.441306  0.908631  1
  P  P29  1  0.557771  0.867823  0.095627  1
  P  P30  1  0.367683  0.057443  0.404211  1
  P  P31  1  0.197001  0.196225  0.585551  1
  P  P32  1  0.697296  0.697280  0.913652  1
  P  P33  1  0.303059  0.302094  0.086378  1
  P  P34  1  0.057130  0.366894  0.403829  1
  P  P35  1  0.802826  0.802531  0.413020  1
