# generated using pymatgen
data_Ho2MgB2RuRh4
_symmetry_space_group_name_H-M   'P 1'
_cell_length_a   9.67023200
_cell_length_b   9.67023200
_cell_length_c   3.13507900
_cell_angle_alpha   90.00000000
_cell_angle_beta   90.00000000
_cell_angle_gamma   90.00000000
_symmetry_Int_Tables_number   1
_chemical_formula_structural   Ho2MgB2RuRh4
_chemical_formula_sum   'Ho4 Mg2 B4 Ru2 Rh8'
_cell_volume   293.17185560
_cell_formula_units_Z   2
loop_
 _symmetry_equiv_pos_site_id
 _symmetry_equiv_pos_as_xyz
  1  'x, y, z'
loop_
 _atom_site_type_symbol
 _atom_site_label
 _atom_site_symmetry_multiplicity
 _atom_site_fract_x
 _atom_site_fract_y
 _atom_site_fract_z
 _atom_site_occupancy
  Ho  Ho0  1  0.675260  0.175260  0.000000  1
  Ho  Ho1  1  0.324740  0.824740  0.000000  1
  Ho  Ho2  1  0.175260  0.324740  0.000000  1
  Ho  Ho3  1  0.824740  0.675260  0.000000  1
  Mg  Mg4  1  0.000000  0.000000  0.000000  1
  Mg  Mg5  1  0.500000  0.500000  0.000000  1
  B  B6  1  0.120687  0.620687  0.000000  1
  B  B7  1  0.879313  0.379313  0.000000  1
  B  B8  1  0.620687  0.879313  0.000000  1
  B  B9  1  0.379313  0.120687  0.000000  1
  Ru  Ru10  1  0.500000  0.000000  0.500000  1
  Ru  Ru11  1  0.000000  0.500000  0.500000  1
  Rh  Rh12  1  0.222737  0.071148  0.500000  1
  Rh  Rh13  1  0.777263  0.928852  0.500000  1
  Rh  Rh14  1  0.071148  0.777263  0.500000  1
  Rh  Rh15  1  0.722737  0.428852  0.500000  1
  Rh  Rh16  1  0.928852  0.222737  0.500000  1
  Rh  Rh17  1  0.277263  0.571148  0.500000  1
  Rh  Rh18  1  0.571148  0.722737  0.500000  1
  Rh  Rh19  1  0.428852  0.277263  0.500000  1
