# generated using pymatgen
data_YbDy(AgO2)4
_symmetry_space_group_name_H-M   'P 1'
_cell_length_a   6.60531477
_cell_length_b   6.60531508
_cell_length_c   6.60531463
_cell_angle_alpha   126.31499263
_cell_angle_beta   126.31498603
_cell_angle_gamma   79.37103701
_symmetry_Int_Tables_number   1
_chemical_formula_structural   YbDy(AgO2)4
_chemical_formula_sum   'Yb1 Dy1 Ag4 O8'
_cell_volume   180.87363306
_cell_formula_units_Z   1
loop_
 _symmetry_equiv_pos_site_id
 _symmetry_equiv_pos_as_xyz
  1  'x, y, z'
loop_
 _atom_site_type_symbol
 _atom_site_label
 _atom_site_symmetry_multiplicity
 _atom_site_fract_x
 _atom_site_fract_y
 _atom_site_fract_z
 _atom_site_occupancy
  Yb  Yb0  1  0.250000  0.750000  0.500000  1
  Dy  Dy1  1  0.500000  0.500000  0.000000  1
  Ag  Ag2  1  0.375220  0.128421  0.252491  1
  Ag  Ag3  1  0.875930  0.122728  0.747509  1
  Ag  Ag4  1  0.877272  0.624780  0.753202  1
  Ag  Ag5  1  0.871579  0.124070  0.246798  1
  O  O6  1  0.894434  0.362667  0.149286  1
  O  O7  1  0.213379  0.745147  0.850714  1
  O  O8  1  0.843525  0.881989  0.338373  1
  O  O9  1  0.543618  0.505153  0.661627  1
  O  O10  1  0.494847  0.156475  0.038465  1
  O  O11  1  0.118011  0.456382  0.961535  1
  O  O12  1  0.637333  0.786621  0.531768  1
  O  O13  1  0.254853  0.105566  0.468232  1
