# generated using pymatgen
data_DyEr7Ti9Si16Mo3
_symmetry_space_group_name_H-M   'P 1'
_cell_length_a   6.97798712
_cell_length_b   6.97703262
_cell_length_c   12.81963514
_cell_angle_alpha   89.97413084
_cell_angle_beta   90.00239617
_cell_angle_gamma   89.99287334
_symmetry_Int_Tables_number   1
_chemical_formula_structural   DyEr7Ti9Si16Mo3
_chemical_formula_sum   'Dy1 Er7 Ti9 Si16 Mo3'
_cell_volume   624.13212066
_cell_formula_units_Z   1
loop_
 _symmetry_equiv_pos_site_id
 _symmetry_equiv_pos_as_xyz
  1  'x, y, z'
loop_
 _atom_site_type_symbol
 _atom_site_label
 _atom_site_symmetry_multiplicity
 _atom_site_fract_x
 _atom_site_fract_y
 _atom_site_fract_z
 _atom_site_occupancy
  Dy  Dy0  1  0.340191  0.000757  0.467106  1
  Er  Er1  1  0.998382  0.659586  0.033456  1
  Er  Er2  1  0.999671  0.340744  0.533082  1
  Er  Er3  1  0.659586  0.998345  0.966530  1
  Er  Er4  1  0.157944  0.500748  0.781982  1
  Er  Er5  1  0.841688  0.500498  0.283050  1
  Er  Er6  1  0.500862  0.158029  0.218042  1
  Er  Er7  1  0.500497  0.841497  0.716930  1
  Ti  Ti8  1  0.347352  0.508164  0.374618  1
  Ti  Ti9  1  0.847554  0.991870  0.376146  1
  Ti  Ti10  1  0.007620  0.151625  0.124776  1
  Ti  Ti11  1  0.991949  0.847512  0.623971  1
  Ti  Ti12  1  0.508427  0.347458  0.625470  1
  Ti  Ti13  1  0.151550  0.007744  0.875183  1
  Ti  Ti14  1  0.327016  0.327042  0.000016  1
  Ti  Ti15  1  0.492842  0.652921  0.127095  1
  Ti  Ti16  1  0.653035  0.492862  0.872865  1
  Si  Si17  1  0.046400  0.706852  0.434877  1
  Si  Si18  1  0.952350  0.293026  0.934034  1
  Si  Si19  1  0.708343  0.047260  0.565264  1
  Si  Si20  1  0.208212  0.453405  0.184635  1
  Si  Si21  1  0.792254  0.547453  0.684505  1
  Si  Si22  1  0.453233  0.208222  0.815376  1
  Si  Si23  1  0.548015  0.791704  0.315211  1
  Si  Si24  1  0.293033  0.952337  0.065951  1
  Si  Si25  1  0.797763  0.869852  0.183583  1
  Si  Si26  1  0.298476  0.629816  0.566588  1
  Si  Si27  1  0.702384  0.368897  0.066158  1
  Si  Si28  1  0.631414  0.299308  0.433562  1
  Si  Si29  1  0.368839  0.702382  0.933828  1
  Si  Si30  1  0.129715  0.202326  0.315305  1
  Si  Si31  1  0.201473  0.130581  0.684489  1
  Si  Si32  1  0.869878  0.797744  0.816450  1
  Mo  Mo33  1  0.673195  0.672515  0.500035  1
  Mo  Mo34  1  0.826361  0.172838  0.749462  1
  Mo  Mo35  1  0.172493  0.826076  0.250371  1
