# generated using pymatgen
data_Ho2Hf2TiRe7
_symmetry_space_group_name_H-M   'P 1'
_cell_length_a   5.32682400
_cell_length_b   5.32682402
_cell_length_c   8.74627700
_cell_angle_alpha   90.00012907
_cell_angle_beta   89.99988168
_cell_angle_gamma   119.99894419
_symmetry_Int_Tables_number   1
_chemical_formula_structural   Ho2Hf2TiRe7
_chemical_formula_sum   'Ho2 Hf2 Ti1 Re7'
_cell_volume   214.92907853
_cell_formula_units_Z   1
loop_
 _symmetry_equiv_pos_site_id
 _symmetry_equiv_pos_as_xyz
  1  'x, y, z'
loop_
 _atom_site_type_symbol
 _atom_site_label
 _atom_site_symmetry_multiplicity
 _atom_site_fract_x
 _atom_site_fract_y
 _atom_site_fract_z
 _atom_site_occupancy
  Ho  Ho0  1  0.333330  0.666670  0.060843  1
  Ho  Ho1  1  0.666670  0.333330  0.939157  1
  Hf  Hf2  1  0.666673  0.333327  0.564891  1
  Hf  Hf3  1  0.333327  0.666673  0.435109  1
  Ti  Ti4  1  0.000000  0.000000  0.500000  1
  Re  Re5  1  0.000000  0.000000  0.000000  1
  Re  Re6  1  0.170422  0.340798  0.743898  1
  Re  Re7  1  0.170411  0.829589  0.743916  1
  Re  Re8  1  0.659202  0.829578  0.743898  1
  Re  Re9  1  0.829578  0.659202  0.256102  1
  Re  Re10  1  0.829589  0.170411  0.256084  1
  Re  Re11  1  0.340798  0.170422  0.256102  1
