# generated using pymatgen
data_Dy(SiRh2)2
_symmetry_space_group_name_H-M   'P 1'
_cell_length_a   4.12292600
_cell_length_b   9.10503800
_cell_length_c   11.32520500
_cell_angle_alpha   90.00000000
_cell_angle_beta   90.00000000
_cell_angle_gamma   90.00000000
_symmetry_Int_Tables_number   1
_chemical_formula_structural   Dy(SiRh2)2
_chemical_formula_sum   'Dy4 Si8 Rh16'
_cell_volume   425.14137681
_cell_formula_units_Z   4
loop_
 _symmetry_equiv_pos_site_id
 _symmetry_equiv_pos_as_xyz
  1  'x, y, z'
loop_
 _atom_site_type_symbol
 _atom_site_label
 _atom_site_symmetry_multiplicity
 _atom_site_fract_x
 _atom_site_fract_y
 _atom_site_fract_z
 _atom_site_occupancy
  Dy  Dy0  1  0.250000  0.148815  0.825015  1
  Dy  Dy1  1  0.250000  0.351185  0.325015  1
  Dy  Dy2  1  0.750000  0.851185  0.174985  1
  Dy  Dy3  1  0.750000  0.648815  0.674985  1
  Si  Si4  1  0.250000  0.411625  0.636946  1
  Si  Si5  1  0.250000  0.088375  0.136946  1
  Si  Si6  1  0.750000  0.588375  0.363054  1
  Si  Si7  1  0.750000  0.911625  0.863054  1
  Si  Si8  1  0.250000  0.616289  0.058192  1
  Si  Si9  1  0.250000  0.883711  0.558192  1
  Si  Si10  1  0.750000  0.383711  0.941808  1
  Si  Si11  1  0.750000  0.116289  0.441808  1
  Rh  Rh12  1  0.250000  0.615000  0.500316  1
  Rh  Rh13  1  0.250000  0.885000  0.000316  1
  Rh  Rh14  1  0.750000  0.385000  0.499684  1
  Rh  Rh15  1  0.750000  0.115000  0.999684  1
  Rh  Rh16  1  0.250000  0.682809  0.269100  1
  Rh  Rh17  1  0.250000  0.817191  0.769100  1
  Rh  Rh18  1  0.750000  0.317191  0.730900  1
  Rh  Rh19  1  0.750000  0.182809  0.230900  1
  Rh  Rh20  1  0.250000  0.173521  0.558840  1
  Rh  Rh21  1  0.250000  0.326479  0.058840  1
  Rh  Rh22  1  0.750000  0.826479  0.441160  1
  Rh  Rh23  1  0.750000  0.673521  0.941160  1
  Rh  Rh24  1  0.250000  0.006915  0.344709  1
  Rh  Rh25  1  0.250000  0.493085  0.844709  1
  Rh  Rh26  1  0.750000  0.993085  0.655291  1
  Rh  Rh27  1  0.750000  0.506915  0.155291  1
