# generated using pymatgen
data_Tb4Al18RuPt4Rh
_symmetry_space_group_name_H-M   'P 1'
_cell_length_a   7.62026860
_cell_length_b   7.62026815
_cell_length_c   9.47230088
_cell_angle_alpha   89.94137519
_cell_angle_beta   89.94137593
_cell_angle_gamma   119.56665947
_symmetry_Int_Tables_number   1
_chemical_formula_structural   Tb4Al18RuPt4Rh
_chemical_formula_sum   'Tb4 Al18 Ru1 Pt4 Rh1'
_cell_volume   478.41593941
_cell_formula_units_Z   1
loop_
 _symmetry_equiv_pos_site_id
 _symmetry_equiv_pos_as_xyz
  1  'x, y, z'
loop_
 _atom_site_type_symbol
 _atom_site_label
 _atom_site_symmetry_multiplicity
 _atom_site_fract_x
 _atom_site_fract_y
 _atom_site_fract_z
 _atom_site_occupancy
  Tb  Tb0  1  0.994757  0.668559  0.249747  1
  Tb  Tb1  1  0.005243  0.331441  0.750253  1
  Tb  Tb2  1  0.668559  0.994757  0.249747  1
  Tb  Tb3  1  0.331441  0.005243  0.750253  1
  Al  Al4  1  0.123717  0.123717  0.248776  1
  Al  Al5  1  0.876283  0.876283  0.751224  1
  Al  Al6  1  0.999680  0.328506  0.075275  1
  Al  Al7  1  0.000320  0.671494  0.924725  1
  Al  Al8  1  0.999493  0.668838  0.576528  1
  Al  Al9  1  0.331162  0.000507  0.423472  1
  Al  Al10  1  0.000507  0.331162  0.423472  1
  Al  Al11  1  0.668838  0.999493  0.576528  1
  Al  Al12  1  0.671494  0.000320  0.924725  1
  Al  Al13  1  0.328506  0.999680  0.075275  1
  Al  Al14  1  0.329396  0.329396  0.554334  1
  Al  Al15  1  0.670604  0.670604  0.445666  1
  Al  Al16  1  0.672346  0.672346  0.053389  1
  Al  Al17  1  0.327654  0.327654  0.946611  1
  Al  Al18  1  0.340742  0.545291  0.249750  1
  Al  Al19  1  0.659258  0.454709  0.750250  1
  Al  Al20  1  0.545291  0.340742  0.249750  1
  Al  Al21  1  0.454709  0.659258  0.750250  1
  Ru  Ru22  1  0.000000  0.000000  0.000000  1
  Pt  Pt23  1  0.672176  0.327824  0.000000  1
  Pt  Pt24  1  0.327824  0.672176  0.000000  1
  Pt  Pt25  1  0.327751  0.672249  0.500000  1
  Pt  Pt26  1  0.672249  0.327751  0.500000  1
  Rh  Rh27  1  0.000000  0.000000  0.500000  1
