# generated using pymatgen
data_Cs2AgS16
_symmetry_space_group_name_H-M   'P 1'
_cell_length_a   12.09767900
_cell_length_b   12.09767900
_cell_length_c   7.65508400
_cell_angle_alpha   90.00000000
_cell_angle_beta   90.00000000
_cell_angle_gamma   90.00000000
_symmetry_Int_Tables_number   1
_chemical_formula_structural   Cs2AgS16
_chemical_formula_sum   'Cs4 Ag2 S32'
_cell_volume   1120.35091739
_cell_formula_units_Z   2
loop_
 _symmetry_equiv_pos_site_id
 _symmetry_equiv_pos_as_xyz
  1  'x, y, z'
loop_
 _atom_site_type_symbol
 _atom_site_label
 _atom_site_symmetry_multiplicity
 _atom_site_fract_x
 _atom_site_fract_y
 _atom_site_fract_z
 _atom_site_occupancy
  Cs  Cs0  1  0.500000  0.000000  0.000000  1
  Cs  Cs1  1  0.000000  0.500000  0.000000  1
  Cs  Cs2  1  0.500000  0.500000  0.500000  1
  Cs  Cs3  1  0.000000  0.000000  0.500000  1
  Ag  Ag4  1  0.000000  0.000000  0.000000  1
  Ag  Ag5  1  0.500000  0.500000  0.000000  1
  S  S6  1  0.179191  0.426028  0.571134  1
  S  S7  1  0.820809  0.573972  0.571134  1
  S  S8  1  0.573972  0.179191  0.428866  1
  S  S9  1  0.426028  0.820809  0.428866  1
  S  S10  1  0.320809  0.926028  0.571134  1
  S  S11  1  0.073972  0.320809  0.428866  1
  S  S12  1  0.806980  0.942193  0.912433  1
  S  S13  1  0.057807  0.806980  0.087567  1
  S  S14  1  0.942193  0.193020  0.087567  1
  S  S15  1  0.193020  0.057807  0.912433  1
  S  S16  1  0.557807  0.693020  0.087567  1
  S  S17  1  0.442193  0.306980  0.087567  1
  S  S18  1  0.693020  0.442193  0.912433  1
  S  S19  1  0.306980  0.557807  0.912433  1
  S  S20  1  0.773888  0.204544  0.111991  1
  S  S21  1  0.795456  0.773888  0.888009  1
  S  S22  1  0.204544  0.226112  0.888009  1
  S  S23  1  0.226112  0.795456  0.111991  1
  S  S24  1  0.295456  0.726112  0.888009  1
  S  S25  1  0.704544  0.273888  0.888009  1
  S  S26  1  0.726112  0.704544  0.111991  1
  S  S27  1  0.273888  0.295456  0.111991  1
  S  S28  1  0.924932  0.317199  0.561678  1
  S  S29  1  0.682801  0.924932  0.438322  1
  S  S30  1  0.317199  0.075068  0.438322  1
  S  S31  1  0.075068  0.682801  0.561678  1
  S  S32  1  0.182801  0.575068  0.438322  1
  S  S33  1  0.817199  0.424932  0.438322  1
  S  S34  1  0.575068  0.817199  0.561678  1
  S  S35  1  0.424932  0.182801  0.561678  1
  S  S36  1  0.679191  0.073972  0.571134  1
  S  S37  1  0.926028  0.679191  0.428866  1
