# generated using pymatgen
data_AcPuPaN4
_symmetry_space_group_name_H-M   'P 1'
_cell_length_a   7.12960879
_cell_length_b   7.16362851
_cell_length_c   7.11450476
_cell_angle_alpha   120.21915716
_cell_angle_beta   90.33696758
_cell_angle_gamma   120.15720476
_symmetry_Int_Tables_number   1
_chemical_formula_structural   AcPuPaN4
_chemical_formula_sum   'Ac2 Pu2 Pa2 N8'
_cell_volume   254.69070057
_cell_formula_units_Z   2
loop_
 _symmetry_equiv_pos_site_id
 _symmetry_equiv_pos_as_xyz
  1  'x, y, z'
loop_
 _atom_site_type_symbol
 _atom_site_label
 _atom_site_symmetry_multiplicity
 _atom_site_fract_x
 _atom_site_fract_y
 _atom_site_fract_z
 _atom_site_occupancy
  Ac  Ac0  1  0.003237  0.999904  0.996597  1
  Ac  Ac1  1  0.746763  0.500098  0.253409  1
  Pu  Pu2  1  0.375002  0.750001  0.124999  1
  Pu  Pu3  1  0.875000  0.250002  0.624999  1
  Pa  Pa4  1  0.375001  0.750001  0.624999  1
  Pa  Pa5  1  0.374998  0.249998  0.624999  1
  N  N6  1  0.603963  0.207032  0.395880  1
  N  N7  1  0.182616  0.794753  0.406983  1
  N  N8  1  0.603932  0.792722  0.395799  1
  N  N9  1  0.157120  0.294752  0.432412  1
  N  N10  1  0.592877  0.205246  0.817589  1
  N  N11  1  0.146072  0.707282  0.854201  1
  N  N12  1  0.146035  0.292960  0.854115  1
  N  N13  1  0.567384  0.705246  0.843016  1
