# generated using pymatgen
data_La8Zn5Ga3Rh8
_symmetry_space_group_name_H-M   'P 1'
_cell_length_a   4.04764700
_cell_length_b   7.52968902
_cell_length_c   16.61207200
_cell_angle_alpha   90.00496535
_cell_angle_beta   90.00000000
_cell_angle_gamma   90.00000000
_symmetry_Int_Tables_number   1
_chemical_formula_structural   La8Zn5Ga3Rh8
_chemical_formula_sum   'La8 Zn5 Ga3 Rh8'
_cell_volume   506.29480727
_cell_formula_units_Z   1
loop_
 _symmetry_equiv_pos_site_id
 _symmetry_equiv_pos_as_xyz
  1  'x, y, z'
loop_
 _atom_site_type_symbol
 _atom_site_label
 _atom_site_symmetry_multiplicity
 _atom_site_fract_x
 _atom_site_fract_y
 _atom_site_fract_z
 _atom_site_occupancy
  La  La0  1  0.750000  0.326285  0.440514  1
  La  La1  1  0.250000  0.050479  0.717208  1
  La  La2  1  0.250000  0.548433  0.783253  1
  La  La3  1  0.250000  0.673546  0.560126  1
  La  La4  1  0.750000  0.824714  0.058546  1
  La  La5  1  0.250000  0.174762  0.941139  1
  La  La6  1  0.750000  0.450958  0.216255  1
  La  La7  1  0.750000  0.949481  0.282452  1
  Zn  Zn8  1  0.750000  0.002615  0.562621  1
  Zn  Zn9  1  0.250000  0.501558  0.058732  1
  Zn  Zn10  1  0.750000  0.374747  0.649380  1
  Zn  Zn11  1  0.750000  0.498816  0.940840  1
  Zn  Zn12  1  0.250000  0.622607  0.349316  1
  Ga  Ga13  1  0.250000  0.121489  0.149536  1
  Ga  Ga14  1  0.250000  0.998569  0.439257  1
  Ga  Ga15  1  0.750000  0.877920  0.850013  1
  Rh  Rh16  1  0.750000  0.241657  0.817894  1
  Rh  Rh17  1  0.250000  0.241763  0.315355  1
  Rh  Rh18  1  0.250000  0.743434  0.929064  1
  Rh  Rh19  1  0.250000  0.239454  0.564179  1
  Rh  Rh20  1  0.250000  0.758520  0.181893  1
  Rh  Rh21  1  0.750000  0.767311  0.434561  1
  Rh  Rh22  1  0.750000  0.257755  0.071124  1
  Rh  Rh23  1  0.750000  0.753128  0.686741  1
