# generated using pymatgen
data_TmPa2(AlPt)3
_symmetry_space_group_name_H-M   'P 1'
_cell_length_a   7.07992430
_cell_length_b   7.07365641
_cell_length_c   4.11241800
_cell_angle_alpha   90.00000000
_cell_angle_beta   90.00000000
_cell_angle_gamma   119.97073122
_symmetry_Int_Tables_number   1
_chemical_formula_structural   TmPa2(AlPt)3
_chemical_formula_sum   'Tm1 Pa2 Al3 Pt3'
_cell_volume   178.41381106
_cell_formula_units_Z   1
loop_
 _symmetry_equiv_pos_site_id
 _symmetry_equiv_pos_as_xyz
  1  'x, y, z'
loop_
 _atom_site_type_symbol
 _atom_site_label
 _atom_site_symmetry_multiplicity
 _atom_site_fract_x
 _atom_site_fract_y
 _atom_site_fract_z
 _atom_site_occupancy
  Tm  Tm0  1  0.000000  0.584889  0.500000  1
  Pa  Pa1  1  0.422940  0.421141  0.500000  1
  Pa  Pa2  1  0.577060  0.998200  0.500000  1
  Al  Al3  1  0.766821  0.759721  0.000000  1
  Al  Al4  1  0.233179  0.992901  0.000000  1
  Al  Al5  1  0.000000  0.244635  0.000000  1
  Pt  Pt6  1  0.655672  0.324032  0.000000  1
  Pt  Pt7  1  0.344328  0.668360  0.000000  1
  Pt  Pt8  1  0.000000  0.006120  0.500000  1
