# generated using pymatgen
data_LaPr6Sm(WO6)4
_symmetry_space_group_name_H-M   'P 1'
_cell_length_a   5.48371860
_cell_length_b   9.46909196
_cell_length_c   10.34671187
_cell_angle_alpha   90.09444593
_cell_angle_beta   89.93451620
_cell_angle_gamma   89.88147594
_symmetry_Int_Tables_number   1
_chemical_formula_structural   LaPr6Sm(WO6)4
_chemical_formula_sum   'La1 Pr6 Sm1 W4 O24'
_cell_volume   537.25942820
_cell_formula_units_Z   1
loop_
 _symmetry_equiv_pos_site_id
 _symmetry_equiv_pos_as_xyz
  1  'x, y, z'
loop_
 _atom_site_type_symbol
 _atom_site_label
 _atom_site_symmetry_multiplicity
 _atom_site_fract_x
 _atom_site_fract_y
 _atom_site_fract_z
 _atom_site_occupancy
  La  La0  1  0.969037  0.781156  0.864547  1
  Pr  Pr1  1  0.022238  0.395713  0.038045  1
  Pr  Pr2  1  0.034328  0.281805  0.631764  1
  Pr  Pr3  1  0.465650  0.718234  0.133182  1
  Pr  Pr4  1  0.475036  0.606659  0.536965  1
  Pr  Pr5  1  0.521089  0.103291  0.963120  1
  Pr  Pr6  1  0.533755  0.218959  0.367143  1
  Sm  Sm7  1  0.980970  0.898006  0.461756  1
  W  W8  1  0.039296  0.002701  0.150325  1
  W  W9  1  0.461378  0.996129  0.645637  1
  W  W10  1  0.541242  0.495954  0.851826  1
  W  W11  1  0.957670  0.504664  0.352452  1
  O  O12  1  0.071974  0.655412  0.468837  1
  O  O13  1  0.166052  0.549967  0.211503  1
  O  O14  1  0.194593  0.863342  0.670608  1
  O  O15  1  0.182372  0.862787  0.262510  1
  O  O16  1  0.220956  0.389895  0.434532  1
  O  O17  1  0.251439  0.085874  0.507552  1
  O  O18  1  0.247520  0.911052  0.012100  1
  O  O19  1  0.279546  0.611791  0.934281  1
  O  O20  1  0.314535  0.135136  0.758121  1
  O  O21  1  0.307255  0.133990  0.179729  1
  O  O22  1  0.331326  0.450580  0.711725  1
  O  O23  1  0.425451  0.348856  0.971417  1
  O  O24  1  0.590533  0.849504  0.528553  1
  O  O25  1  0.664399  0.949599  0.788617  1
  O  O26  1  0.687108  0.632812  0.320968  1
  O  O27  1  0.682245  0.636776  0.740487  1
  O  O28  1  0.721537  0.112803  0.566053  1
  O  O29  1  0.751458  0.413432  0.491077  1
  O  O30  1  0.747814  0.587907  0.989871  1
  O  O31  1  0.777221  0.888757  0.068926  1
  O  O32  1  0.817097  0.362525  0.241366  1
  O  O33  1  0.808845  0.365287  0.821128  1
  O  O34  1  0.833476  0.048405  0.292604  1
  O  O35  1  0.923560  0.150242  0.030676  1
