# generated using pymatgen
data_TbNd3(LuPt)4
_symmetry_space_group_name_H-M   'P 1'
_cell_length_a   4.78759300
_cell_length_b   7.18954860
_cell_length_c   8.75526900
_cell_angle_alpha   90.16441517
_cell_angle_beta   90.00000000
_cell_angle_gamma   90.00000000
_symmetry_Int_Tables_number   1
_chemical_formula_structural   TbNd3(LuPt)4
_chemical_formula_sum   'Tb1 Nd3 Lu4 Pt4'
_cell_volume   301.36065640
_cell_formula_units_Z   1
loop_
 _symmetry_equiv_pos_site_id
 _symmetry_equiv_pos_as_xyz
  1  'x, y, z'
loop_
 _atom_site_type_symbol
 _atom_site_label
 _atom_site_symmetry_multiplicity
 _atom_site_fract_x
 _atom_site_fract_y
 _atom_site_fract_z
 _atom_site_occupancy
  Tb  Tb0  1  0.750000  0.512461  0.828028  1
  Nd  Nd1  1  0.250000  0.987452  0.325965  1
  Nd  Nd2  1  0.250000  0.488404  0.172499  1
  Nd  Nd3  1  0.750000  0.012556  0.675580  1
  Lu  Lu4  1  0.250000  0.358893  0.579289  1
  Lu  Lu5  1  0.250000  0.855622  0.922934  1
  Lu  Lu6  1  0.750000  0.642001  0.426346  1
  Lu  Lu7  1  0.750000  0.142330  0.075057  1
  Pt  Pt8  1  0.250000  0.248619  0.904421  1
  Pt  Pt9  1  0.250000  0.744649  0.594040  1
  Pt  Pt10  1  0.750000  0.752828  0.088441  1
  Pt  Pt11  1  0.750000  0.254185  0.407400  1
