# generated using pymatgen
data_Pr2PaSn7
_symmetry_space_group_name_H-M   'P 1'
_cell_length_a   12.83265939
_cell_length_b   12.83265687
_cell_length_c   4.56128100
_cell_angle_alpha   90.00000000
_cell_angle_beta   90.00000000
_cell_angle_gamma   158.61713530
_symmetry_Int_Tables_number   1
_chemical_formula_structural   Pr2PaSn7
_chemical_formula_sum   'Pr2 Pa1 Sn7'
_cell_volume   273.86386924
_cell_formula_units_Z   1
loop_
 _symmetry_equiv_pos_site_id
 _symmetry_equiv_pos_as_xyz
  1  'x, y, z'
loop_
 _atom_site_type_symbol
 _atom_site_label
 _atom_site_symmetry_multiplicity
 _atom_site_fract_x
 _atom_site_fract_y
 _atom_site_fract_z
 _atom_site_occupancy
  Pr  Pr0  1  0.817506  0.182492  0.000000  1
  Pr  Pr1  1  0.182492  0.817506  0.000000  1
  Pa  Pa2  1  0.000000  0.000000  0.000000  1
  Sn  Sn3  1  0.593091  0.406907  0.000000  1
  Sn  Sn4  1  0.406907  0.593091  0.000000  1
  Sn  Sn5  1  0.908039  0.091958  0.500000  1
  Sn  Sn6  1  0.709304  0.290694  0.500000  1
  Sn  Sn7  1  0.499999  0.499999  0.500000  1
  Sn  Sn8  1  0.290694  0.709304  0.500000  1
  Sn  Sn9  1  0.091958  0.908039  0.500000  1
