# generated using pymatgen
data_Er4Co3Os4Ru
_symmetry_space_group_name_H-M   'P 1'
_cell_length_a   5.16694092
_cell_length_b   5.15210226
_cell_length_c   8.71051763
_cell_angle_alpha   89.99999652
_cell_angle_beta   89.96051208
_cell_angle_gamma   119.90504494
_symmetry_Int_Tables_number   1
_chemical_formula_structural   Er4Co3Os4Ru
_chemical_formula_sum   'Er4 Co3 Os4 Ru1'
_cell_volume   201.00514773
_cell_formula_units_Z   1
loop_
 _symmetry_equiv_pos_site_id
 _symmetry_equiv_pos_as_xyz
  1  'x, y, z'
loop_
 _atom_site_type_symbol
 _atom_site_label
 _atom_site_symmetry_multiplicity
 _atom_site_fract_x
 _atom_site_fract_y
 _atom_site_fract_z
 _atom_site_occupancy
  Er  Er0  1  0.327031  0.663516  0.437632  1
  Er  Er1  1  0.659847  0.329923  0.567388  1
  Er  Er2  1  0.659764  0.329881  0.932184  1
  Er  Er3  1  0.326933  0.663467  0.062235  1
  Co  Co4  1  0.184622  0.351207  0.751998  1
  Co  Co5  1  0.184622  0.833415  0.751998  1
  Co  Co6  1  0.344580  0.172291  0.248111  1
  Os  Os7  1  0.832154  0.660404  0.249229  1
  Os  Os8  1  0.673153  0.836577  0.750557  1
  Os  Os9  1  0.988489  0.994244  0.994672  1
  Os  Os10  1  0.832154  0.171751  0.249229  1
  Ru  Ru11  1  0.986648  0.993324  0.504767  1
