# generated using pymatgen
data_Sc2Al9Ni2Ru
_symmetry_space_group_name_H-M   'P 1'
_cell_length_a   7.34742706
_cell_length_b   7.34742679
_cell_length_c   9.15378595
_cell_angle_alpha   90.07985077
_cell_angle_beta   90.07983814
_cell_angle_gamma   119.27805119
_symmetry_Int_Tables_number   1
_chemical_formula_structural   Sc2Al9Ni2Ru
_chemical_formula_sum   'Sc4 Al18 Ni4 Ru2'
_cell_volume   431.03641029
_cell_formula_units_Z   2
loop_
 _symmetry_equiv_pos_site_id
 _symmetry_equiv_pos_as_xyz
  1  'x, y, z'
loop_
 _atom_site_type_symbol
 _atom_site_label
 _atom_site_symmetry_multiplicity
 _atom_site_fract_x
 _atom_site_fract_y
 _atom_site_fract_z
 _atom_site_occupancy
  Sc  Sc0  1  0.992298  0.673156  0.251368  1
  Sc  Sc1  1  0.002361  0.322683  0.749023  1
  Sc  Sc2  1  0.677317  0.997639  0.250977  1
  Sc  Sc3  1  0.326844  0.007702  0.748632  1
  Al  Al4  1  0.123309  0.123543  0.246381  1
  Al  Al5  1  0.876457  0.876691  0.753619  1
  Al  Al6  1  0.994378  0.337726  0.076445  1
  Al  Al7  1  0.006496  0.665368  0.923315  1
  Al  Al8  1  0.006312  0.663643  0.576608  1
  Al  Al9  1  0.336357  0.993688  0.423392  1
  Al  Al10  1  0.001859  0.337264  0.423117  1
  Al  Al11  1  0.662736  0.998141  0.576883  1
  Al  Al12  1  0.662274  0.005622  0.923555  1
  Al  Al13  1  0.334632  0.993504  0.076685  1
  Al  Al14  1  0.332719  0.330943  0.553558  1
  Al  Al15  1  0.669057  0.667281  0.446442  1
  Al  Al16  1  0.670413  0.672205  0.051765  1
  Al  Al17  1  0.327795  0.329587  0.948235  1
  Al  Al18  1  0.341389  0.563848  0.249475  1
  Al  Al19  1  0.658759  0.443319  0.753056  1
  Al  Al20  1  0.556681  0.341241  0.246944  1
  Al  Al21  1  0.436152  0.658611  0.750525  1
  Ni  Ni22  1  0.671336  0.328664  0.000000  1
  Ni  Ni23  1  0.328781  0.671219  0.000000  1
  Ni  Ni24  1  0.330019  0.669981  0.500000  1
  Ni  Ni25  1  0.998451  0.001549  0.000000  1
  Ru  Ru26  1  0.673633  0.326367  0.500000  1
  Ru  Ru27  1  0.001184  0.998816  0.500000  1
