# generated using pymatgen
data_Nb6VNiS12
_symmetry_space_group_name_H-M   'P 1'
_cell_length_a   5.80910400
_cell_length_b   5.80910518
_cell_length_c   12.13555700
_cell_angle_alpha   90.00000000
_cell_angle_beta   90.00000000
_cell_angle_gamma   119.99999328
_symmetry_Int_Tables_number   1
_chemical_formula_structural   Nb6VNiS12
_chemical_formula_sum   'Nb6 V1 Ni1 S12'
_cell_volume   354.65718870
_cell_formula_units_Z   1
loop_
 _symmetry_equiv_pos_site_id
 _symmetry_equiv_pos_as_xyz
  1  'x, y, z'
loop_
 _atom_site_type_symbol
 _atom_site_label
 _atom_site_symmetry_multiplicity
 _atom_site_fract_x
 _atom_site_fract_y
 _atom_site_fract_z
 _atom_site_occupancy
  Nb  Nb0  1  0.000000  0.000000  0.998317  1
  Nb  Nb1  1  0.000000  0.000000  0.501683  1
  Nb  Nb2  1  0.333333  0.666667  0.504168  1
  Nb  Nb3  1  0.666667  0.333333  0.001037  1
  Nb  Nb4  1  0.666667  0.333333  0.498963  1
  Nb  Nb5  1  0.333333  0.666667  0.995832  1
  V  V6  1  0.333333  0.666667  0.250000  1
  Ni  Ni7  1  0.666667  0.333333  0.750000  1
  S  S8  1  0.332267  0.997206  0.128848  1
  S  S9  1  0.002794  0.335060  0.128848  1
  S  S10  1  0.668092  0.002102  0.631585  1
  S  S11  1  0.997898  0.331908  0.868415  1
  S  S12  1  0.664940  0.667733  0.128848  1
  S  S13  1  0.997898  0.665992  0.631585  1
  S  S14  1  0.334008  0.002102  0.868415  1
  S  S15  1  0.002794  0.667733  0.371152  1
  S  S16  1  0.334008  0.331908  0.631585  1
  S  S17  1  0.664940  0.997206  0.371152  1
  S  S18  1  0.668092  0.665992  0.868415  1
  S  S19  1  0.332267  0.335060  0.371152  1
