# generated using pymatgen
data_TbNd17(TmSn8)2
_symmetry_space_group_name_H-M   'P 1'
_cell_length_a   8.25113401
_cell_length_b   8.40566741
_cell_length_c   15.95069300
_cell_angle_alpha   90.00000000
_cell_angle_beta   90.00000000
_cell_angle_gamma   89.96906090
_symmetry_Int_Tables_number   1
_chemical_formula_structural   TbNd17(TmSn8)2
_chemical_formula_sum   'Tb1 Nd17 Tm2 Sn16'
_cell_volume   1106.28069947
_cell_formula_units_Z   1
loop_
 _symmetry_equiv_pos_site_id
 _symmetry_equiv_pos_as_xyz
  1  'x, y, z'
loop_
 _atom_site_type_symbol
 _atom_site_label
 _atom_site_symmetry_multiplicity
 _atom_site_fract_x
 _atom_site_fract_y
 _atom_site_fract_z
 _atom_site_occupancy
  Tb  Tb0  1  0.198568  0.502224  0.250000  1
  Nd  Nd1  1  0.017786  0.180887  0.401427  1
  Nd  Nd2  1  0.367455  0.837986  0.120777  1
  Nd  Nd3  1  0.133468  0.336932  0.620668  1
  Nd  Nd4  1  0.481354  0.681705  0.901995  1
  Nd  Nd5  1  0.866727  0.662394  0.121975  1
  Nd  Nd6  1  0.133468  0.336932  0.879332  1
  Nd  Nd7  1  0.481354  0.681705  0.598005  1
  Nd  Nd8  1  0.631897  0.162272  0.620137  1
  Nd  Nd9  1  0.803342  0.498065  0.750000  1
  Nd  Nd10  1  0.866727  0.662394  0.378025  1
  Nd  Nd11  1  0.017786  0.180887  0.098573  1
  Nd  Nd12  1  0.982383  0.819748  0.901880  1
  Nd  Nd13  1  0.631897  0.162272  0.879863  1
  Nd  Nd14  1  0.518397  0.318974  0.099094  1
  Nd  Nd15  1  0.367455  0.837986  0.379223  1
  Nd  Nd16  1  0.982383  0.819748  0.598120  1
  Nd  Nd17  1  0.518397  0.318974  0.400906  1
  Tm  Tm18  1  0.699350  0.997869  0.250000  1
  Tm  Tm19  1  0.301158  0.002817  0.750000  1
  Sn  Sn20  1  0.792193  0.463581  0.541455  1
  Sn  Sn21  1  0.708077  0.964915  0.455453  1
  Sn  Sn22  1  0.674218  0.858035  0.750000  1
  Sn  Sn23  1  0.207549  0.534526  0.455727  1
  Sn  Sn24  1  0.292210  0.034764  0.955885  1
  Sn  Sn25  1  0.824688  0.351812  0.250000  1
  Sn  Sn26  1  0.792193  0.463581  0.958545  1
  Sn  Sn27  1  0.563764  0.617059  0.250000  1
  Sn  Sn28  1  0.207549  0.534526  0.044273  1
  Sn  Sn29  1  0.432204  0.382076  0.750000  1
  Sn  Sn30  1  0.178249  0.648699  0.750000  1
  Sn  Sn31  1  0.937339  0.114209  0.750000  1
  Sn  Sn32  1  0.292210  0.034764  0.544115  1
  Sn  Sn33  1  0.708077  0.964915  0.044547  1
  Sn  Sn34  1  0.324281  0.146269  0.250000  1
  Sn  Sn35  1  0.063852  0.883499  0.250000  1
