# generated using pymatgen
data_Hf9MnRe3Pt
_symmetry_space_group_name_H-M   'P 1'
_cell_length_a   8.63333300
_cell_length_b   8.63333301
_cell_length_c   8.49031300
_cell_angle_alpha   90.00000000
_cell_angle_beta   90.00000000
_cell_angle_gamma   119.99999612
_symmetry_Int_Tables_number   1
_chemical_formula_structural   Hf9MnRe3Pt
_chemical_formula_sum   'Hf18 Mn2 Re6 Pt2'
_cell_volume   548.03883633
_cell_formula_units_Z   2
loop_
 _symmetry_equiv_pos_site_id
 _symmetry_equiv_pos_as_xyz
  1  'x, y, z'
loop_
 _atom_site_type_symbol
 _atom_site_label
 _atom_site_symmetry_multiplicity
 _atom_site_fract_x
 _atom_site_fract_y
 _atom_site_fract_z
 _atom_site_occupancy
  Hf  Hf0  1  0.192561  0.807439  0.447414  1
  Hf  Hf1  1  0.192561  0.385121  0.447414  1
  Hf  Hf2  1  0.614879  0.807439  0.447414  1
  Hf  Hf3  1  0.807439  0.192561  0.552586  1
  Hf  Hf4  1  0.807439  0.614879  0.552586  1
  Hf  Hf5  1  0.385121  0.192561  0.552586  1
  Hf  Hf6  1  0.807439  0.192561  0.947414  1
  Hf  Hf7  1  0.807439  0.614879  0.947414  1
  Hf  Hf8  1  0.385121  0.192561  0.947414  1
  Hf  Hf9  1  0.192561  0.807439  0.052586  1
  Hf  Hf10  1  0.192561  0.385121  0.052586  1
  Hf  Hf11  1  0.614879  0.807439  0.052586  1
  Hf  Hf12  1  0.542157  0.457843  0.250000  1
  Hf  Hf13  1  0.542157  0.084314  0.250000  1
  Hf  Hf14  1  0.915686  0.457843  0.250000  1
  Hf  Hf15  1  0.457843  0.542157  0.750000  1
  Hf  Hf16  1  0.457843  0.915686  0.750000  1
  Hf  Hf17  1  0.084314  0.542157  0.750000  1
  Mn  Mn18  1  0.000000  0.000000  0.500000  1
  Mn  Mn19  1  0.000000  0.000000  0.000000  1
  Re  Re20  1  0.892133  0.107867  0.250000  1
  Re  Re21  1  0.892133  0.784265  0.250000  1
  Re  Re22  1  0.215735  0.107867  0.250000  1
  Re  Re23  1  0.107867  0.892133  0.750000  1
  Re  Re24  1  0.107867  0.215735  0.750000  1
  Re  Re25  1  0.784265  0.892133  0.750000  1
  Pt  Pt26  1  0.333333  0.666667  0.250000  1
  Pt  Pt27  1  0.666667  0.333333  0.750000  1
