# generated using pymatgen
data_Ho9ErSi6O
_symmetry_space_group_name_H-M   'P 1'
_cell_length_a   8.38491469
_cell_length_b   8.38312605
_cell_length_c   6.25502800
_cell_angle_alpha   90.02689437
_cell_angle_beta   89.94621589
_cell_angle_gamma   120.00705428
_symmetry_Int_Tables_number   1
_chemical_formula_structural   Ho9ErSi6O
_chemical_formula_sum   'Ho9 Er1 Si6 O1'
_cell_volume   380.74435029
_cell_formula_units_Z   1
loop_
 _symmetry_equiv_pos_site_id
 _symmetry_equiv_pos_as_xyz
  1  'x, y, z'
loop_
 _atom_site_type_symbol
 _atom_site_label
 _atom_site_symmetry_multiplicity
 _atom_site_fract_x
 _atom_site_fract_y
 _atom_site_fract_z
 _atom_site_occupancy
  Ho  Ho0  1  0.333425  0.666718  0.500128  1
  Ho  Ho1  1  0.666709  0.333282  0.500128  1
  Ho  Ho2  1  0.666788  0.333355  0.000033  1
  Ho  Ho3  1  0.333432  0.666645  0.000033  1
  Ho  Ho4  1  0.000156  0.764091  0.259024  1
  Ho  Ho5  1  0.236064  0.235909  0.259024  1
  Ho  Ho6  1  0.764318  0.000000  0.259581  1
  Ho  Ho7  1  0.000080  0.235947  0.740780  1
  Ho  Ho8  1  0.764133  0.764053  0.740780  1
  Er  Er9  1  0.236419  0.000000  0.741518  1
  Si  Si10  1  0.000173  0.396935  0.249389  1
  Si  Si11  1  0.603240  0.603065  0.249389  1
  Si  Si12  1  0.396803  0.000000  0.249466  1
  Si  Si13  1  0.000350  0.603762  0.750783  1
  Si  Si14  1  0.396589  0.396238  0.750783  1
  Si  Si15  1  0.603056  0.000000  0.750805  1
  O  O16  1  0.998262  0.000000  0.498350  1
