# generated using pymatgen
data_Tm4Sc8Al(InRe)2
_symmetry_space_group_name_H-M   'P 1'
_cell_length_a   8.08400460
_cell_length_b   8.08400403
_cell_length_c   8.08400512
_cell_angle_alpha   109.62764989
_cell_angle_beta   109.62765011
_cell_angle_gamma   109.15882495
_symmetry_Int_Tables_number   1
_chemical_formula_structural   Tm4Sc8Al(InRe)2
_chemical_formula_sum   'Tm4 Sc8 Al1 In2 Re2'
_cell_volume   406.67551066
_cell_formula_units_Z   1
loop_
 _symmetry_equiv_pos_site_id
 _symmetry_equiv_pos_as_xyz
  1  'x, y, z'
loop_
 _atom_site_type_symbol
 _atom_site_label
 _atom_site_symmetry_multiplicity
 _atom_site_fract_x
 _atom_site_fract_y
 _atom_site_fract_z
 _atom_site_occupancy
  Tm  Tm0  1  0.311397  0.311397  0.622792  1
  Tm  Tm1  1  0.688603  0.688603  0.377208  1
  Tm  Tm2  1  0.688603  0.311397  0.000000  1
  Tm  Tm3  1  0.311397  0.688603  0.000000  1
  Sc  Sc4  1  0.194237  0.443771  0.249533  1
  Sc  Sc5  1  0.805763  0.556229  0.750467  1
  Sc  Sc6  1  0.194237  0.944705  0.750467  1
  Sc  Sc7  1  0.944705  0.194237  0.750467  1
  Sc  Sc8  1  0.805763  0.055295  0.249533  1
  Sc  Sc9  1  0.055295  0.805763  0.249533  1
  Sc  Sc10  1  0.443771  0.194237  0.249533  1
  Sc  Sc11  1  0.556229  0.805763  0.750467  1
  Al  Al12  1  0.000000  0.000000  0.000000  1
  In  In13  1  0.000000  0.500000  0.500000  1
  In  In14  1  0.500000  0.000000  0.500000  1
  Re  Re15  1  0.332428  0.332428  0.000000  1
  Re  Re16  1  0.667572  0.667572  0.000000  1
