# generated using pymatgen
data_Ac11In9Rh4
_symmetry_space_group_name_H-M   'P 1'
_cell_length_a   14.09989400
_cell_length_b   14.09908702
_cell_length_c   4.03713200
_cell_angle_alpha   90.00000000
_cell_angle_beta   90.00000000
_cell_angle_gamma   112.37004651
_symmetry_Int_Tables_number   1
_chemical_formula_structural   Ac11In9Rh4
_chemical_formula_sum   'Ac11 In9 Rh4'
_cell_volume   742.16734073
_cell_formula_units_Z   1
loop_
 _symmetry_equiv_pos_site_id
 _symmetry_equiv_pos_as_xyz
  1  'x, y, z'
loop_
 _atom_site_type_symbol
 _atom_site_label
 _atom_site_symmetry_multiplicity
 _atom_site_fract_x
 _atom_site_fract_y
 _atom_site_fract_z
 _atom_site_occupancy
  Ac  Ac0  1  0.081520  0.420065  0.000000  1
  Ac  Ac1  1  0.918480  0.579935  0.000000  1
  Ac  Ac2  1  0.419921  0.081455  0.000000  1
  Ac  Ac3  1  0.580079  0.918545  0.000000  1
  Ac  Ac4  1  0.624453  0.375476  0.000000  1
  Ac  Ac5  1  0.375547  0.624524  0.000000  1
  Ac  Ac6  1  0.840826  0.159374  0.000000  1
  Ac  Ac7  1  0.159174  0.840626  0.000000  1
  Ac  Ac8  1  0.000000  0.000000  0.000000  1
  Ac  Ac9  1  0.314017  0.313975  0.000000  1
  Ac  Ac10  1  0.685983  0.686025  0.000000  1
  In  In11  1  0.834425  0.363244  0.500000  1
  In  In12  1  0.165575  0.636756  0.500000  1
  In  In13  1  0.363368  0.834760  0.500000  1
  In  In14  1  0.636632  0.165240  0.500000  1
  In  In15  1  0.079894  0.219323  0.500000  1
  In  In16  1  0.920106  0.780677  0.500000  1
  In  In17  1  0.219307  0.079906  0.500000  1
  In  In18  1  0.780693  0.920094  0.500000  1
  In  In19  1  0.500000  0.500000  0.500000  1
  Rh  Rh20  1  0.246124  0.453277  0.500000  1
  Rh  Rh21  1  0.753876  0.546723  0.500000  1
  Rh  Rh22  1  0.453196  0.246307  0.500000  1
  Rh  Rh23  1  0.546804  0.753693  0.500000  1
