# generated using pymatgen
data_Tm3Sc(Si4Tc3)2
_symmetry_space_group_name_H-M   'P 1'
_cell_length_a   6.72871133
_cell_length_b   6.67798242
_cell_length_c   6.73146853
_cell_angle_alpha   70.02962128
_cell_angle_beta   89.94317049
_cell_angle_gamma   90.02189856
_symmetry_Int_Tables_number   1
_chemical_formula_structural   Tm3Sc(Si4Tc3)2
_chemical_formula_sum   'Tm3 Sc1 Si8 Tc6'
_cell_volume   284.28511290
_cell_formula_units_Z   1
loop_
 _symmetry_equiv_pos_site_id
 _symmetry_equiv_pos_as_xyz
  1  'x, y, z'
loop_
 _atom_site_type_symbol
 _atom_site_label
 _atom_site_symmetry_multiplicity
 _atom_site_fract_x
 _atom_site_fract_y
 _atom_site_fract_z
 _atom_site_occupancy
  Tm  Tm0  1  0.832138  0.941540  0.192245  1
  Tm  Tm1  1  0.666550  0.443578  0.189663  1
  Tm  Tm2  1  0.168343  0.056879  0.808704  1
  Sc  Sc3  1  0.329754  0.558150  0.804641  1
  Si  Si4  1  0.548567  0.873436  0.896874  1
  Si  Si5  1  0.052724  0.622285  0.099288  1
  Si  Si6  1  0.449457  0.125923  0.099363  1
  Si  Si7  1  0.953860  0.377405  0.897513  1
  Si  Si8  1  0.143134  0.863980  0.491476  1
  Si  Si9  1  0.637699  0.632599  0.514683  1
  Si  Si10  1  0.858565  0.133219  0.512298  1
  Si  Si11  1  0.358560  0.369611  0.490913  1
  Tc  Tc12  1  0.499355  0.997749  0.501960  1
  Tc  Tc13  1  0.001557  0.499844  0.501163  1
  Tc  Tc14  1  0.851252  0.756979  0.762856  1
  Tc  Tc15  1  0.349809  0.743854  0.235904  1
  Tc  Tc16  1  0.151265  0.242251  0.236992  1
  Tc  Tc17  1  0.647409  0.260720  0.763463  1
