# generated using pymatgen
data_LiLa6ZnNi16
_symmetry_space_group_name_H-M   'P 1'
_cell_length_a   5.14133300
_cell_length_b   5.14133139
_cell_length_c   16.59999900
_cell_angle_alpha   90.00000000
_cell_angle_beta   90.00000000
_cell_angle_gamma   119.99999102
_symmetry_Int_Tables_number   1
_chemical_formula_structural   LiLa6ZnNi16
_chemical_formula_sum   'Li1 La6 Zn1 Ni16'
_cell_volume   380.00565944
_cell_formula_units_Z   1
loop_
 _symmetry_equiv_pos_site_id
 _symmetry_equiv_pos_as_xyz
  1  'x, y, z'
loop_
 _atom_site_type_symbol
 _atom_site_label
 _atom_site_symmetry_multiplicity
 _atom_site_fract_x
 _atom_site_fract_y
 _atom_site_fract_z
 _atom_site_occupancy
  Li  Li0  1  0.000000  0.000000  0.250000  1
  La  La1  1  0.333333  0.666667  0.540976  1
  La  La2  1  0.666667  0.333333  0.041563  1
  La  La3  1  0.666667  0.333333  0.458437  1
  La  La4  1  0.333333  0.666667  0.959024  1
  La  La5  1  0.333333  0.666667  0.750000  1
  La  La6  1  0.666667  0.333333  0.250000  1
  Zn  Zn7  1  0.000000  0.000000  0.750000  1
  Ni  Ni8  1  0.167206  0.334411  0.128422  1
  Ni  Ni9  1  0.832922  0.665842  0.628238  1
  Ni  Ni10  1  0.665589  0.832794  0.128422  1
  Ni  Ni11  1  0.167206  0.832794  0.128422  1
  Ni  Ni12  1  0.832922  0.167078  0.628238  1
  Ni  Ni13  1  0.334158  0.167078  0.628238  1
  Ni  Ni14  1  0.832922  0.665842  0.871762  1
  Ni  Ni15  1  0.832922  0.167078  0.871762  1
  Ni  Ni16  1  0.334158  0.167078  0.871762  1
  Ni  Ni17  1  0.665589  0.832794  0.371578  1
  Ni  Ni18  1  0.167206  0.832794  0.371578  1
  Ni  Ni19  1  0.167206  0.334411  0.371578  1
  Ni  Ni20  1  0.333333  0.666667  0.250000  1
  Ni  Ni21  1  0.666667  0.333333  0.750000  1
  Ni  Ni22  1  0.000000  0.000000  0.001005  1
  Ni  Ni23  1  0.000000  0.000000  0.498995  1
