# generated using pymatgen
data_TbY3Al18(NiIr2)2
_symmetry_space_group_name_H-M   'P 1'
_cell_length_a   7.54234986
_cell_length_b   7.54268484
_cell_length_c   9.42906300
_cell_angle_alpha   90.00000000
_cell_angle_beta   90.00000000
_cell_angle_gamma   119.94698592
_symmetry_Int_Tables_number   1
_chemical_formula_structural   TbY3Al18(NiIr2)2
_chemical_formula_sum   'Tb1 Y3 Al18 Ni2 Ir4'
_cell_volume   464.79725960
_cell_formula_units_Z   1
loop_
 _symmetry_equiv_pos_site_id
 _symmetry_equiv_pos_as_xyz
  1  'x, y, z'
loop_
 _atom_site_type_symbol
 _atom_site_label
 _atom_site_symmetry_multiplicity
 _atom_site_fract_x
 _atom_site_fract_y
 _atom_site_fract_z
 _atom_site_occupancy
  Tb  Tb0  1  0.994493  0.666621  0.250000  1
  Y  Y1  1  0.005499  0.333385  0.750000  1
  Y  Y2  1  0.666628  0.994505  0.250000  1
  Y  Y3  1  0.333410  0.005526  0.750000  1
  Al  Al4  1  0.120172  0.120184  0.250000  1
  Al  Al5  1  0.879884  0.879898  0.750000  1
  Al  Al6  1  0.999968  0.331093  0.074610  1
  Al  Al7  1  0.000011  0.668869  0.925440  1
  Al  Al8  1  0.000011  0.668869  0.574560  1
  Al  Al9  1  0.331183  0.000018  0.425386  1
  Al  Al10  1  0.999968  0.331093  0.425390  1
  Al  Al11  1  0.668872  0.000026  0.574536  1
  Al  Al12  1  0.668872  0.000026  0.925464  1
  Al  Al13  1  0.331183  0.000018  0.074614  1
  Al  Al14  1  0.330657  0.330660  0.550596  1
  Al  Al15  1  0.669295  0.669336  0.449347  1
  Al  Al16  1  0.669295  0.669336  0.050653  1
  Al  Al17  1  0.330657  0.330660  0.949404  1
  Al  Al18  1  0.338271  0.545491  0.250000  1
  Al  Al19  1  0.661797  0.454461  0.750000  1
  Al  Al20  1  0.545457  0.338243  0.250000  1
  Al  Al21  1  0.454464  0.661790  0.750000  1
  Ni  Ni22  1  0.000000  0.999982  0.999951  1
  Ni  Ni23  1  0.000000  0.999982  0.500049  1
  Ir  Ir24  1  0.671893  0.328067  0.999905  1
  Ir  Ir25  1  0.328084  0.671896  0.999915  1
  Ir  Ir26  1  0.328084  0.671896  0.500085  1
  Ir  Ir27  1  0.671893  0.328067  0.500095  1
