# generated using pymatgen
data_Nd7PI12
_symmetry_space_group_name_H-M   'P 1'
_cell_length_a   9.95810895
_cell_length_b   9.95810907
_cell_length_c   9.95810930
_cell_angle_alpha   107.81318224
_cell_angle_beta   107.81317942
_cell_angle_gamma   107.81317978
_symmetry_Int_Tables_number   1
_chemical_formula_structural   Nd7PI12
_chemical_formula_sum   'Nd7 P1 I12'
_cell_volume   803.44668610
_cell_formula_units_Z   1
loop_
 _symmetry_equiv_pos_site_id
 _symmetry_equiv_pos_as_xyz
  1  'x, y, z'
loop_
 _atom_site_type_symbol
 _atom_site_label
 _atom_site_symmetry_multiplicity
 _atom_site_fract_x
 _atom_site_fract_y
 _atom_site_fract_z
 _atom_site_occupancy
  Nd  Nd0  1  0.695027  0.969875  0.899118  1
  Nd  Nd1  1  0.969875  0.899118  0.695027  1
  Nd  Nd2  1  0.500000  0.500000  0.500000  1
  Nd  Nd3  1  0.100882  0.304973  0.030125  1
  Nd  Nd4  1  0.304973  0.030125  0.100882  1
  Nd  Nd5  1  0.899118  0.695027  0.969875  1
  Nd  Nd6  1  0.030125  0.100882  0.304973  1
  P  P7  1  0.000000  0.000000  0.000000  1
  I  I8  1  0.075988  0.229167  0.685809  1
  I  I9  1  0.386922  0.153053  0.467547  1
  I  I10  1  0.613078  0.846947  0.532453  1
  I  I11  1  0.229167  0.685809  0.075988  1
  I  I12  1  0.770833  0.314191  0.924012  1
  I  I13  1  0.685809  0.075988  0.229167  1
  I  I14  1  0.532453  0.613078  0.846947  1
  I  I15  1  0.846947  0.532453  0.613078  1
  I  I16  1  0.924012  0.770833  0.314191  1
  I  I17  1  0.314191  0.924012  0.770833  1
  I  I18  1  0.467547  0.386922  0.153053  1
  I  I19  1  0.153053  0.467547  0.386922  1
