# generated using pymatgen
data_Al2Ni6Pt3W
_symmetry_space_group_name_H-M   'P 1'
_cell_length_a   3.73072900
_cell_length_b   3.71102900
_cell_length_c   11.16071900
_cell_angle_alpha   90.00000000
_cell_angle_beta   90.00000000
_cell_angle_gamma   90.00000000
_symmetry_Int_Tables_number   1
_chemical_formula_structural   Al2Ni6Pt3W
_chemical_formula_sum   'Al2 Ni6 Pt3 W1'
_cell_volume   154.51840802
_cell_formula_units_Z   1
loop_
 _symmetry_equiv_pos_site_id
 _symmetry_equiv_pos_as_xyz
  1  'x, y, z'
loop_
 _atom_site_type_symbol
 _atom_site_label
 _atom_site_symmetry_multiplicity
 _atom_site_fract_x
 _atom_site_fract_y
 _atom_site_fract_z
 _atom_site_occupancy
  Al  Al0  1  0.000000  0.000000  0.340743  1
  Al  Al1  1  0.000000  0.000000  0.659257  1
  Ni  Ni2  1  0.500000  0.500000  0.000000  1
  Ni  Ni3  1  0.500000  0.500000  0.333551  1
  Ni  Ni4  1  0.500000  0.500000  0.666449  1
  Ni  Ni5  1  0.000000  0.500000  0.162510  1
  Ni  Ni6  1  0.000000  0.500000  0.500000  1
  Ni  Ni7  1  0.000000  0.500000  0.837490  1
  Pt  Pt8  1  0.500000  0.000000  0.169574  1
  Pt  Pt9  1  0.500000  0.000000  0.500000  1
  Pt  Pt10  1  0.500000  0.000000  0.830426  1
  W  W11  1  0.000000  0.000000  0.000000  1
