# generated using pymatgen
data_La6HoRh3
_symmetry_space_group_name_H-M   'P 1'
_cell_length_a   10.21088000
_cell_length_b   10.21088095
_cell_length_c   6.41238100
_cell_angle_alpha   90.00000000
_cell_angle_beta   90.00000000
_cell_angle_gamma   120.00000339
_symmetry_Int_Tables_number   1
_chemical_formula_structural   La6HoRh3
_chemical_formula_sum   'La12 Ho2 Rh6'
_cell_volume   578.99700967
_cell_formula_units_Z   2
loop_
 _symmetry_equiv_pos_site_id
 _symmetry_equiv_pos_as_xyz
  1  'x, y, z'
loop_
 _atom_site_type_symbol
 _atom_site_label
 _atom_site_symmetry_multiplicity
 _atom_site_fract_x
 _atom_site_fract_y
 _atom_site_fract_z
 _atom_site_occupancy
  La  La0  1  0.874362  0.748724  0.764584  1
  La  La1  1  0.251276  0.125638  0.764584  1
  La  La2  1  0.874362  0.125638  0.764584  1
  La  La3  1  0.125638  0.251276  0.264584  1
  La  La4  1  0.748724  0.874362  0.264584  1
  La  La5  1  0.125638  0.874362  0.264584  1
  La  La6  1  0.457718  0.915437  0.593076  1
  La  La7  1  0.084563  0.542282  0.593076  1
  La  La8  1  0.457718  0.542282  0.593076  1
  La  La9  1  0.542282  0.084563  0.093076  1
  La  La10  1  0.915437  0.457718  0.093076  1
  La  La11  1  0.542282  0.457718  0.093076  1
  Ho  Ho12  1  0.666667  0.333333  0.568281  1
  Ho  Ho13  1  0.333333  0.666667  0.068281  1
  Rh  Rh14  1  0.190150  0.380300  0.855421  1
  Rh  Rh15  1  0.619700  0.809850  0.855421  1
  Rh  Rh16  1  0.190150  0.809850  0.855421  1
  Rh  Rh17  1  0.809850  0.619700  0.355421  1
  Rh  Rh18  1  0.380300  0.190150  0.355421  1
  Rh  Rh19  1  0.809850  0.190150  0.355421  1
