# generated using pymatgen
data_GdTi8In14Co6Re
_symmetry_space_group_name_H-M   'P 1'
_cell_length_a   9.27397566
_cell_length_b   9.27397538
_cell_length_c   9.27397700
_cell_angle_alpha   60.00000493
_cell_angle_beta   60.00000594
_cell_angle_gamma   60.00001119
_symmetry_Int_Tables_number   1
_chemical_formula_structural   GdTi8In14Co6Re
_chemical_formula_sum   'Gd1 Ti8 In14 Co6 Re1'
_cell_volume   564.00503324
_cell_formula_units_Z   1
loop_
 _symmetry_equiv_pos_site_id
 _symmetry_equiv_pos_as_xyz
  1  'x, y, z'
loop_
 _atom_site_type_symbol
 _atom_site_label
 _atom_site_symmetry_multiplicity
 _atom_site_fract_x
 _atom_site_fract_y
 _atom_site_fract_z
 _atom_site_occupancy
  Gd  Gd0  1  0.500000  0.500000  0.500000  1
  Ti  Ti1  1  0.117060  0.648820  0.117060  1
  Ti  Ti2  1  0.351180  0.882940  0.882940  1
  Ti  Ti3  1  0.882940  0.882940  0.882940  1
  Ti  Ti4  1  0.648820  0.117060  0.117060  1
  Ti  Ti5  1  0.882940  0.882940  0.351180  1
  Ti  Ti6  1  0.117060  0.117060  0.117060  1
  Ti  Ti7  1  0.882940  0.351180  0.882940  1
  Ti  Ti8  1  0.117060  0.117060  0.648820  1
  In  In9  1  0.500000  0.847598  0.152402  1
  In  In10  1  0.500000  0.847598  0.500000  1
  In  In11  1  0.500000  0.152402  0.500000  1
  In  In12  1  0.500000  0.500000  0.847598  1
  In  In13  1  0.152402  0.500000  0.500000  1
  In  In14  1  0.847598  0.152402  0.500000  1
  In  In15  1  0.152402  0.847598  0.500000  1
  In  In16  1  0.500000  0.152402  0.847598  1
  In  In17  1  0.152402  0.500000  0.847598  1
  In  In18  1  0.500000  0.500000  0.152402  1
  In  In19  1  0.847598  0.500000  0.500000  1
  In  In20  1  0.847598  0.500000  0.152402  1
  In  In21  1  0.250000  0.250000  0.250000  1
  In  In22  1  0.750000  0.750000  0.750000  1
  Co  Co23  1  0.784925  0.784925  0.215075  1
  Co  Co24  1  0.215075  0.784925  0.215075  1
  Co  Co25  1  0.215075  0.784925  0.784925  1
  Co  Co26  1  0.215075  0.215075  0.784925  1
  Co  Co27  1  0.784925  0.215075  0.784925  1
  Co  Co28  1  0.784925  0.215075  0.215075  1
  Re  Re29  1  0.000000  0.000000  0.000000  1
