# generated using pymatgen
data_Lu3Th5(Ni4As3)4
_symmetry_space_group_name_H-M   'P 1'
_cell_length_a   12.90851400
_cell_length_b   12.90851446
_cell_length_c   4.05911600
_cell_angle_alpha   90.00000000
_cell_angle_beta   90.00000000
_cell_angle_gamma   120.00000395
_symmetry_Int_Tables_number   1
_chemical_formula_structural   Lu3Th5(Ni4As3)4
_chemical_formula_sum   'Lu3 Th5 Ni16 As12'
_cell_volume   585.75309584
_cell_formula_units_Z   1
loop_
 _symmetry_equiv_pos_site_id
 _symmetry_equiv_pos_as_xyz
  1  'x, y, z'
loop_
 _atom_site_type_symbol
 _atom_site_label
 _atom_site_symmetry_multiplicity
 _atom_site_fract_x
 _atom_site_fract_y
 _atom_site_fract_z
 _atom_site_occupancy
  Lu  Lu0  1  0.573370  0.573370  0.000000  1
  Lu  Lu1  1  0.426630  0.000000  0.000000  1
  Lu  Lu2  1  0.000000  0.426630  0.000000  1
  Th  Th3  1  0.188501  0.188501  0.500000  1
  Th  Th4  1  0.811499  0.000000  0.500000  1
  Th  Th5  1  0.000000  0.811499  0.500000  1
  Th  Th6  1  0.333333  0.666667  0.000000  1
  Th  Th7  1  0.666667  0.333333  0.000000  1
  Ni  Ni8  1  0.727566  0.727566  0.500000  1
  Ni  Ni9  1  0.272434  0.000000  0.500000  1
  Ni  Ni10  1  0.000000  0.272434  0.500000  1
  Ni  Ni11  1  0.188036  0.376800  0.000000  1
  Ni  Ni12  1  0.623200  0.811235  0.000000  1
  Ni  Ni13  1  0.188765  0.811964  0.000000  1
  Ni  Ni14  1  0.811235  0.623200  0.000000  1
  Ni  Ni15  1  0.811964  0.188765  0.000000  1
  Ni  Ni16  1  0.376800  0.188036  0.000000  1
  Ni  Ni17  1  0.366479  0.485422  0.500000  1
  Ni  Ni18  1  0.514578  0.881058  0.500000  1
  Ni  Ni19  1  0.118942  0.633521  0.500000  1
  Ni  Ni20  1  0.881058  0.514578  0.500000  1
  Ni  Ni21  1  0.633521  0.118942  0.500000  1
  Ni  Ni22  1  0.485422  0.366479  0.500000  1
  Ni  Ni23  1  0.000000  0.000000  0.000000  1
  As  As24  1  0.819464  0.819464  0.000000  1
  As  As25  1  0.180536  0.000000  0.000000  1
  As  As26  1  0.000000  0.180536  0.000000  1
  As  As27  1  0.173453  0.473605  0.500000  1
  As  As28  1  0.526395  0.699848  0.500000  1
  As  As29  1  0.300152  0.826547  0.500000  1
  As  As30  1  0.699848  0.526395  0.500000  1
  As  As31  1  0.826547  0.300152  0.500000  1
  As  As32  1  0.473605  0.173453  0.500000  1
  As  As33  1  0.364043  0.364043  0.000000  1
  As  As34  1  0.635957  0.000000  0.000000  1
  As  As35  1  0.000000  0.635957  0.000000  1
