# generated using pymatgen
data_Ho3Er5(B6Os)4
_symmetry_space_group_name_H-M   'P 1'
_cell_length_a   3.63310000
_cell_length_b   9.11396148
_cell_length_c   11.49441877
_cell_angle_alpha   89.99912074
_cell_angle_beta   90.00000000
_cell_angle_gamma   90.00000000
_symmetry_Int_Tables_number   1
_chemical_formula_structural   Ho3Er5(B6Os)4
_chemical_formula_sum   'Ho3 Er5 B24 Os4'
_cell_volume   380.60242940
_cell_formula_units_Z   1
loop_
 _symmetry_equiv_pos_site_id
 _symmetry_equiv_pos_as_xyz
  1  'x, y, z'
loop_
 _atom_site_type_symbol
 _atom_site_label
 _atom_site_symmetry_multiplicity
 _atom_site_fract_x
 _atom_site_fract_y
 _atom_site_fract_z
 _atom_site_occupancy
  Ho  Ho0  1  0.000000  0.321679  0.414167  1
  Ho  Ho1  1  0.000000  0.678248  0.585951  1
  Ho  Ho2  1  0.000000  0.821731  0.085810  1
  Er  Er3  1  0.000000  0.178509  0.914129  1
  Er  Er4  1  0.000000  0.943782  0.372798  1
  Er  Er5  1  0.000000  0.056233  0.627086  1
  Er  Er6  1  0.000000  0.443707  0.126968  1
  Er  Er7  1  0.000000  0.556253  0.873031  1
  B  B8  1  0.500000  0.553736  0.433313  1
  B  B9  1  0.500000  0.446101  0.566967  1
  B  B10  1  0.500000  0.053957  0.066444  1
  B  B11  1  0.500000  0.946465  0.933200  1
  B  B12  1  0.500000  0.748238  0.419704  1
  B  B13  1  0.500000  0.251702  0.580448  1
  B  B14  1  0.500000  0.248284  0.079963  1
  B  B15  1  0.500000  0.751921  0.919732  1
  B  B16  1  0.500000  0.791057  0.265931  1
  B  B17  1  0.500000  0.208716  0.734314  1
  B  B18  1  0.500000  0.291074  0.233831  1
  B  B19  1  0.500000  0.708951  0.766064  1
  B  B20  1  0.500000  0.631103  0.184966  1
  B  B21  1  0.500000  0.368622  0.815297  1
  B  B22  1  0.500000  0.131132  0.314880  1
  B  B23  1  0.500000  0.868924  0.685004  1
  B  B24  1  0.500000  0.982570  0.212745  1
  B  B25  1  0.500000  0.017714  0.787128  1
  B  B26  1  0.500000  0.482456  0.287059  1
  B  B27  1  0.500000  0.517334  0.713147  1
  B  B28  1  0.500000  0.606455  0.029468  1
  B  B29  1  0.500000  0.393306  0.970523  1
  B  B30  1  0.500000  0.106334  0.470508  1
  B  B31  1  0.500000  0.893669  0.529366  1
  Os  Os32  1  0.000000  0.637087  0.321247  1
  Os  Os33  1  0.000000  0.362688  0.678994  1
  Os  Os34  1  0.000000  0.137163  0.178533  1
  Os  Os35  1  0.000000  0.863099  0.821284  1
