# generated using pymatgen
data_Pr7Sc(IO6)4
_symmetry_space_group_name_H-M   'P 1'
_cell_length_a   5.65549642
_cell_length_b   7.86260746
_cell_length_c   11.82210000
_cell_angle_alpha   75.84876134
_cell_angle_beta   90.74759712
_cell_angle_gamma   89.98169074
_symmetry_Int_Tables_number   1
_chemical_formula_structural   Pr7Sc(IO6)4
_chemical_formula_sum   'Pr7 Sc1 I4 O24'
_cell_volume   509.69318646
_cell_formula_units_Z   1
loop_
 _symmetry_equiv_pos_site_id
 _symmetry_equiv_pos_as_xyz
  1  'x, y, z'
loop_
 _atom_site_type_symbol
 _atom_site_label
 _atom_site_symmetry_multiplicity
 _atom_site_fract_x
 _atom_site_fract_y
 _atom_site_fract_z
 _atom_site_occupancy
  Pr  Pr0  1  0.737813  0.013279  0.749966  1
  Pr  Pr1  1  0.258632  0.979559  0.248938  1
  Pr  Pr2  1  0.810738  0.775048  0.078355  1
  Pr  Pr3  1  0.685842  0.503988  0.745410  1
  Pr  Pr4  1  0.312009  0.502374  0.252486  1
  Pr  Pr5  1  0.181989  0.223585  0.919519  1
  Pr  Pr6  1  0.829653  0.193817  0.430060  1
  Sc  Sc7  1  0.161802  0.812240  0.567990  1
  I  I8  1  0.246647  0.733334  0.876356  1
  I  I9  1  0.738255  0.716897  0.396847  1
  I  I10  1  0.263346  0.295132  0.608899  1
  I  I11  1  0.748858  0.265058  0.118235  1
  O  O12  1  0.071290  0.938130  0.895151  1
  O  O13  1  0.521988  0.831900  0.926300  1
  O  O14  1  0.027852  0.944464  0.407351  1
  O  O15  1  0.391403  0.817096  0.723493  1
  O  O16  1  0.475581  0.834841  0.444976  1
  O  O17  1  0.969298  0.701603  0.791135  1
  O  O18  1  0.544348  0.772083  0.230464  1
  O  O19  1  0.870055  0.648106  0.558787  1
  O  O20  1  0.367496  0.512781  0.875411  1
  O  O21  1  0.048544  0.718728  0.244990  1
  O  O22  1  0.360299  0.525432  0.603334  1
  O  O23  1  0.847592  0.372114  0.968074  1
  O  O24  1  0.154688  0.633657  0.030236  1
  O  O25  1  0.635038  0.488468  0.402338  1
  O  O26  1  0.939575  0.278929  0.753471  1
  O  O27  1  0.630038  0.484045  0.124777  1
  O  O28  1  0.163983  0.362839  0.441114  1
  O  O29  1  0.448137  0.231830  0.768408  1
  O  O30  1  0.020307  0.292418  0.213096  1
  O  O31  1  0.527869  0.174487  0.567502  1
  O  O32  1  0.595793  0.172755  0.266061  1
  O  O33  1  0.002769  0.021553  0.605313  1
  O  O34  1  0.480824  0.165382  0.063930  1
  O  O35  1  0.929650  0.062044  0.101232  1
