# generated using pymatgen
data_Nd3ScIn2Pt3
_symmetry_space_group_name_H-M   'P 1'
_cell_length_a   7.63998699
_cell_length_b   7.53055927
_cell_length_c   4.25963100
_cell_angle_alpha   90.00000000
_cell_angle_beta   90.00000000
_cell_angle_gamma   119.52731307
_symmetry_Int_Tables_number   1
_chemical_formula_structural   Nd3ScIn2Pt3
_chemical_formula_sum   'Nd3 Sc1 In2 Pt3'
_cell_volume   213.24134248
_cell_formula_units_Z   1
loop_
 _symmetry_equiv_pos_site_id
 _symmetry_equiv_pos_as_xyz
  1  'x, y, z'
loop_
 _atom_site_type_symbol
 _atom_site_label
 _atom_site_symmetry_multiplicity
 _atom_site_fract_x
 _atom_site_fract_y
 _atom_site_fract_z
 _atom_site_occupancy
  Nd  Nd0  1  0.000000  0.604272  0.500000  1
  Nd  Nd1  1  0.580959  0.992313  0.500000  1
  Nd  Nd2  1  0.419041  0.411354  0.500000  1
  Sc  Sc3  1  0.000000  0.241739  0.000000  1
  In  In4  1  0.248079  0.000209  0.000000  1
  In  In5  1  0.751921  0.752130  0.000000  1
  Pt  Pt6  1  0.000000  0.022818  0.500000  1
  Pt  Pt7  1  0.680473  0.327819  0.000000  1
  Pt  Pt8  1  0.319527  0.647347  0.000000  1
