# generated using pymatgen
data_Sm3Ti(Co4P3)2
_symmetry_space_group_name_H-M   'P 1'
_cell_length_a   3.74060800
_cell_length_b   10.70386800
_cell_length_c   12.42549300
_cell_angle_alpha   90.00000000
_cell_angle_beta   90.00000000
_cell_angle_gamma   90.00000000
_symmetry_Int_Tables_number   1
_chemical_formula_structural   Sm3Ti(Co4P3)2
_chemical_formula_sum   'Sm6 Ti2 Co16 P12'
_cell_volume   497.50399454
_cell_formula_units_Z   2
loop_
 _symmetry_equiv_pos_site_id
 _symmetry_equiv_pos_as_xyz
  1  'x, y, z'
loop_
 _atom_site_type_symbol
 _atom_site_label
 _atom_site_symmetry_multiplicity
 _atom_site_fract_x
 _atom_site_fract_y
 _atom_site_fract_z
 _atom_site_occupancy
  Sm  Sm0  1  0.000000  0.500000  0.524211  1
  Sm  Sm1  1  0.500000  0.000000  0.475789  1
  Sm  Sm2  1  0.500000  0.819610  0.204795  1
  Sm  Sm3  1  0.500000  0.180390  0.204795  1
  Sm  Sm4  1  0.000000  0.680390  0.795205  1
  Sm  Sm5  1  0.000000  0.319610  0.795205  1
  Ti  Ti6  1  0.500000  0.500000  0.151751  1
  Ti  Ti7  1  0.000000  0.000000  0.848249  1
  Co  Co8  1  0.500000  0.500000  0.703437  1
  Co  Co9  1  0.000000  0.000000  0.296563  1
  Co  Co10  1  0.000000  0.500000  0.987623  1
  Co  Co11  1  0.500000  0.000000  0.012377  1
  Co  Co12  1  0.500000  0.332301  0.994486  1
  Co  Co13  1  0.500000  0.667699  0.994486  1
  Co  Co14  1  0.000000  0.167699  0.005514  1
  Co  Co15  1  0.000000  0.832301  0.005514  1
  Co  Co16  1  0.500000  0.295980  0.431511  1
  Co  Co17  1  0.500000  0.704020  0.431511  1
  Co  Co18  1  0.000000  0.204020  0.568489  1
  Co  Co19  1  0.000000  0.795980  0.568489  1
  Co  Co20  1  0.500000  0.879695  0.706759  1
  Co  Co21  1  0.500000  0.120305  0.706759  1
  Co  Co22  1  0.000000  0.620305  0.293241  1
  Co  Co23  1  0.000000  0.379695  0.293241  1
  P  P24  1  0.500000  0.500000  0.885284  1
  P  P25  1  0.000000  0.000000  0.114716  1
  P  P26  1  0.500000  0.500000  0.349674  1
  P  P27  1  0.000000  0.000000  0.650326  1
  P  P28  1  0.500000  0.307997  0.614662  1
  P  P29  1  0.500000  0.692003  0.614662  1
  P  P30  1  0.000000  0.192003  0.385338  1
  P  P31  1  0.000000  0.807997  0.385338  1
  P  P32  1  0.500000  0.843911  0.893867  1
  P  P33  1  0.500000  0.156089  0.893867  1
  P  P34  1  0.000000  0.656089  0.106133  1
  P  P35  1  0.000000  0.343911  0.106133  1
