# generated using pymatgen
data_Tm4Ge2B8Ir
_symmetry_space_group_name_H-M   'P 1'
_cell_length_a   7.08932400
_cell_length_b   7.08932400
_cell_length_c   7.48648200
_cell_angle_alpha   90.00000000
_cell_angle_beta   90.00000000
_cell_angle_gamma   90.00000000
_symmetry_Int_Tables_number   1
_chemical_formula_structural   Tm4Ge2B8Ir
_chemical_formula_sum   'Tm8 Ge4 B16 Ir2'
_cell_volume   376.25946622
_cell_formula_units_Z   2
loop_
 _symmetry_equiv_pos_site_id
 _symmetry_equiv_pos_as_xyz
  1  'x, y, z'
loop_
 _atom_site_type_symbol
 _atom_site_label
 _atom_site_symmetry_multiplicity
 _atom_site_fract_x
 _atom_site_fract_y
 _atom_site_fract_z
 _atom_site_occupancy
  Tm  Tm0  1  0.677455  0.177455  0.233281  1
  Tm  Tm1  1  0.322545  0.822545  0.766719  1
  Tm  Tm2  1  0.322545  0.822545  0.233281  1
  Tm  Tm3  1  0.822545  0.677455  0.233281  1
  Tm  Tm4  1  0.822545  0.677455  0.766719  1
  Tm  Tm5  1  0.677455  0.177455  0.766719  1
  Tm  Tm6  1  0.177455  0.322545  0.766719  1
  Tm  Tm7  1  0.177455  0.322545  0.233281  1
  Ge  Ge8  1  0.127355  0.627355  0.500000  1
  Ge  Ge9  1  0.872645  0.372645  0.500000  1
  Ge  Ge10  1  0.372645  0.127355  0.500000  1
  Ge  Ge11  1  0.627355  0.872645  0.500000  1
  B  B12  1  0.172354  0.041526  0.000000  1
  B  B13  1  0.827646  0.958474  0.000000  1
  B  B14  1  0.958474  0.172354  0.000000  1
  B  B15  1  0.327646  0.541526  0.000000  1
  B  B16  1  0.041526  0.827646  0.000000  1
  B  B17  1  0.672354  0.458474  0.000000  1
  B  B18  1  0.541526  0.672354  0.000000  1
  B  B19  1  0.458474  0.327646  0.000000  1
  B  B20  1  0.090055  0.590055  0.000000  1
  B  B21  1  0.909945  0.409945  0.000000  1
  B  B22  1  0.409945  0.090055  0.000000  1
  B  B23  1  0.590055  0.909945  0.000000  1
  B  B24  1  0.000000  0.000000  0.177238  1
  B  B25  1  0.000000  0.000000  0.822762  1
  B  B26  1  0.500000  0.500000  0.822762  1
  B  B27  1  0.500000  0.500000  0.177238  1
  Ir  Ir28  1  0.000000  0.000000  0.500000  1
  Ir  Ir29  1  0.500000  0.500000  0.500000  1
