# generated using pymatgen
data_DyHo2Hf(NiP)4
_symmetry_space_group_name_H-M   'P 1'
_cell_length_a   3.86715200
_cell_length_b   3.86715161
_cell_length_c   14.96801400
_cell_angle_alpha   90.00000000
_cell_angle_beta   90.00000000
_cell_angle_gamma   119.99998622
_symmetry_Int_Tables_number   1
_chemical_formula_structural   DyHo2Hf(NiP)4
_chemical_formula_sum   'Dy1 Ho2 Hf1 Ni4 P4'
_cell_volume   193.85513704
_cell_formula_units_Z   1
loop_
 _symmetry_equiv_pos_site_id
 _symmetry_equiv_pos_as_xyz
  1  'x, y, z'
loop_
 _atom_site_type_symbol
 _atom_site_label
 _atom_site_symmetry_multiplicity
 _atom_site_fract_x
 _atom_site_fract_y
 _atom_site_fract_z
 _atom_site_occupancy
  Dy  Dy0  1  0.000000  0.000000  0.007411  1
  Ho  Ho1  1  0.000000  0.000000  0.493237  1
  Ho  Ho2  1  0.000000  0.000000  0.748534  1
  Hf  Hf3  1  0.000000  0.000000  0.250600  1
  Ni  Ni4  1  0.333333  0.666667  0.346071  1
  Ni  Ni5  1  0.666667  0.333333  0.624431  1
  Ni  Ni6  1  0.666667  0.333333  0.875431  1
  Ni  Ni7  1  0.333333  0.666667  0.154598  1
  P  P8  1  0.333333  0.666667  0.879614  1
  P  P9  1  0.666667  0.333333  0.127816  1
  P  P10  1  0.666667  0.333333  0.373447  1
  P  P11  1  0.333333  0.666667  0.618808  1
