# generated using pymatgen
data_YbEr(In2Rh)2
_symmetry_space_group_name_H-M   'P 1'
_cell_length_a   5.47022867
_cell_length_b   5.47022872
_cell_length_c   8.33199600
_cell_angle_alpha   90.00000000
_cell_angle_beta   90.00000000
_cell_angle_gamma   134.86505020
_symmetry_Int_Tables_number   1
_chemical_formula_structural   YbEr(In2Rh)2
_chemical_formula_sum   'Yb1 Er1 In4 Rh2'
_cell_volume   176.71178663
_cell_formula_units_Z   1
loop_
 _symmetry_equiv_pos_site_id
 _symmetry_equiv_pos_as_xyz
  1  'x, y, z'
loop_
 _atom_site_type_symbol
 _atom_site_label
 _atom_site_symmetry_multiplicity
 _atom_site_fract_x
 _atom_site_fract_y
 _atom_site_fract_z
 _atom_site_occupancy
  Yb  Yb0  1  0.933773  0.066227  0.750000  1
  Er  Er1  1  0.068025  0.931975  0.250000  1
  In  In2  1  0.644502  0.355498  0.550087  1
  In  In3  1  0.355961  0.644039  0.451371  1
  In  In4  1  0.644502  0.355498  0.949913  1
  In  In5  1  0.355961  0.644039  0.048629  1
  Rh  Rh6  1  0.219113  0.780887  0.750000  1
  Rh  Rh7  1  0.778163  0.221837  0.250000  1
