# generated using pymatgen
data_Ce2Ga3Cu4Si
_symmetry_space_group_name_H-M   'P 1'
_cell_length_a   4.17795000
_cell_length_b   4.17795000
_cell_length_c   10.02237200
_cell_angle_alpha   90.00000000
_cell_angle_beta   90.00000000
_cell_angle_gamma   90.00000000
_symmetry_Int_Tables_number   1
_chemical_formula_structural   Ce2Ga3Cu4Si
_chemical_formula_sum   'Ce2 Ga3 Cu4 Si1'
_cell_volume   174.94317124
_cell_formula_units_Z   1
loop_
 _symmetry_equiv_pos_site_id
 _symmetry_equiv_pos_as_xyz
  1  'x, y, z'
loop_
 _atom_site_type_symbol
 _atom_site_label
 _atom_site_symmetry_multiplicity
 _atom_site_fract_x
 _atom_site_fract_y
 _atom_site_fract_z
 _atom_site_occupancy
  Ce  Ce0  1  0.000000  0.500000  0.243886  1
  Ce  Ce1  1  0.500000  0.000000  0.758588  1
  Ga  Ga2  1  0.000000  0.000000  0.501415  1
  Ga  Ga3  1  0.500000  0.500000  0.501415  1
  Ga  Ga4  1  0.500000  0.000000  0.128808  1
  Cu  Cu5  1  0.000000  0.000000  0.993526  1
  Cu  Cu6  1  0.500000  0.500000  0.993526  1
  Cu  Cu7  1  0.000000  0.500000  0.639250  1
  Cu  Cu8  1  0.500000  0.000000  0.367319  1
  Si  Si9  1  0.000000  0.500000  0.872268  1
