# generated using pymatgen
data_Ho4LuGaBiPt
_symmetry_space_group_name_H-M   'P 1'
_cell_length_a   8.65847174
_cell_length_b   8.65847148
_cell_length_c   8.73063058
_cell_angle_alpha   125.39666432
_cell_angle_beta   125.39666278
_cell_angle_gamma   80.32136169
_symmetry_Int_Tables_number   1
_chemical_formula_structural   Ho4LuGaBiPt
_chemical_formula_sum   'Ho8 Lu2 Ga2 Bi2 Pt2'
_cell_volume   420.90023285
_cell_formula_units_Z   2
loop_
 _symmetry_equiv_pos_site_id
 _symmetry_equiv_pos_as_xyz
  1  'x, y, z'
loop_
 _atom_site_type_symbol
 _atom_site_label
 _atom_site_symmetry_multiplicity
 _atom_site_fract_x
 _atom_site_fract_y
 _atom_site_fract_z
 _atom_site_occupancy
  Ho  Ho0  1  0.786558  0.286558  0.799533  1
  Ho  Ho1  1  0.213442  0.713442  0.200467  1
  Ho  Ho2  1  0.487026  0.987026  0.200467  1
  Ho  Ho3  1  0.301213  0.472322  0.500000  1
  Ho  Ho4  1  0.027678  0.198787  0.500000  1
  Ho  Ho5  1  0.512974  0.012974  0.799533  1
  Ho  Ho6  1  0.698787  0.527678  0.500000  1
  Ho  Ho7  1  0.972322  0.801213  0.500000  1
  Lu  Lu8  1  0.000000  0.000000  0.000000  1
  Lu  Lu9  1  0.500000  0.500000  0.000000  1
  Ga  Ga10  1  0.139064  0.639064  0.778129  1
  Ga  Ga11  1  0.860936  0.360936  0.221871  1
  Bi  Bi12  1  0.250000  0.250000  0.000000  1
  Bi  Bi13  1  0.750000  0.750000  0.000000  1
  Pt  Pt14  1  0.637597  0.862403  0.500000  1
  Pt  Pt15  1  0.362403  0.137597  0.500000  1
