# generated using pymatgen
data_Cs16PuZrSb8
_symmetry_space_group_name_H-M   'P 1'
_cell_length_a   12.59120864
_cell_length_b   12.59119635
_cell_length_c   12.59121200
_cell_angle_alpha   59.99995364
_cell_angle_beta   59.99998592
_cell_angle_gamma   59.99994164
_symmetry_Int_Tables_number   1
_chemical_formula_structural   Cs16PuZrSb8
_chemical_formula_sum   'Cs16 Pu1 Zr1 Sb8'
_cell_volume   1411.51847040
_cell_formula_units_Z   1
loop_
 _symmetry_equiv_pos_site_id
 _symmetry_equiv_pos_as_xyz
  1  'x, y, z'
loop_
 _atom_site_type_symbol
 _atom_site_label
 _atom_site_symmetry_multiplicity
 _atom_site_fract_x
 _atom_site_fract_y
 _atom_site_fract_z
 _atom_site_occupancy
  Cs  Cs0  1  0.625259  0.124224  0.625259  1
  Cs  Cs1  1  0.625259  0.625259  0.124224  1
  Cs  Cs2  1  0.124224  0.625259  0.625259  1
  Cs  Cs3  1  0.625259  0.625259  0.625259  1
  Cs  Cs4  1  0.025710  0.025710  0.474290  1
  Cs  Cs5  1  0.775492  0.224509  0.224508  1
  Cs  Cs6  1  0.224509  0.775491  0.775491  1
  Cs  Cs7  1  0.775492  0.775491  0.224509  1
  Cs  Cs8  1  0.775492  0.224509  0.775491  1
  Cs  Cs9  1  0.224509  0.775491  0.224509  1
  Cs  Cs10  1  0.474289  0.025710  0.474290  1
  Cs  Cs11  1  0.474289  0.025710  0.025711  1
  Cs  Cs12  1  0.025710  0.474290  0.474290  1
  Cs  Cs13  1  0.025710  0.474290  0.025710  1
  Cs  Cs14  1  0.224509  0.224509  0.775491  1
  Cs  Cs15  1  0.474289  0.474290  0.025710  1
  Pu  Pu16  1  0.750000  0.750000  0.750000  1
  Zr  Zr17  1  0.500000  0.500000  0.500000  1
  Sb  Sb18  1  0.405564  0.783309  0.405564  1
  Sb  Sb19  1  0.850555  0.850555  0.448335  1
  Sb  Sb20  1  0.448335  0.850555  0.850555  1
  Sb  Sb21  1  0.850555  0.850555  0.850555  1
  Sb  Sb22  1  0.783308  0.405564  0.405564  1
  Sb  Sb23  1  0.405564  0.405564  0.405564  1
  Sb  Sb24  1  0.405564  0.405564  0.783308  1
  Sb  Sb25  1  0.850555  0.448334  0.850555  1
