# generated using pymatgen
data_Tb2AlCo6SiB2
_symmetry_space_group_name_H-M   'P 1'
_cell_length_a   5.15120203
_cell_length_b   5.15170710
_cell_length_c   6.53304500
_cell_angle_alpha   90.00000000
_cell_angle_beta   90.00000000
_cell_angle_gamma   120.00985931
_symmetry_Int_Tables_number   1
_chemical_formula_structural   Tb2AlCo6SiB2
_chemical_formula_sum   'Tb2 Al1 Co6 Si1 B2'
_cell_volume   150.12840591
_cell_formula_units_Z   1
loop_
 _symmetry_equiv_pos_site_id
 _symmetry_equiv_pos_as_xyz
  1  'x, y, z'
loop_
 _atom_site_type_symbol
 _atom_site_label
 _atom_site_symmetry_multiplicity
 _atom_site_fract_x
 _atom_site_fract_y
 _atom_site_fract_z
 _atom_site_occupancy
  Tb  Tb0  1  0.999983  0.000006  0.000000  1
  Tb  Tb1  1  0.999983  0.999999  0.500000  1
  Al  Al2  1  0.666789  0.333363  0.000000  1
  Co  Co3  1  0.498262  0.996553  0.288943  1
  Co  Co4  1  0.498256  0.501727  0.288946  1
  Co  Co5  1  0.003427  0.501719  0.288964  1
  Co  Co6  1  0.498262  0.996553  0.711057  1
  Co  Co7  1  0.498256  0.501727  0.711054  1
  Co  Co8  1  0.003427  0.501719  0.711036  1
  Si  Si9  1  0.333186  0.666635  0.000000  1
  B  B10  1  0.333307  0.666667  0.500000  1
  B  B11  1  0.666663  0.333332  0.500000  1
