# generated using pymatgen
data_GdY(AgSn)2
_symmetry_space_group_name_H-M   'P 1'
_cell_length_a   4.76006900
_cell_length_b   4.76006866
_cell_length_c   7.46423100
_cell_angle_alpha   90.00000000
_cell_angle_beta   90.00000000
_cell_angle_gamma   120.00000929
_symmetry_Int_Tables_number   1
_chemical_formula_structural   GdY(AgSn)2
_chemical_formula_sum   'Gd1 Y1 Ag2 Sn2'
_cell_volume   146.46778971
_cell_formula_units_Z   1
loop_
 _symmetry_equiv_pos_site_id
 _symmetry_equiv_pos_as_xyz
  1  'x, y, z'
loop_
 _atom_site_type_symbol
 _atom_site_label
 _atom_site_symmetry_multiplicity
 _atom_site_fract_x
 _atom_site_fract_y
 _atom_site_fract_z
 _atom_site_occupancy
  Gd  Gd0  1  0.000000  0.000000  0.007773  1
  Y  Y1  1  0.000000  0.000000  0.507404  1
  Ag  Ag2  1  0.666667  0.333333  0.320220  1
  Ag  Ag3  1  0.333333  0.666667  0.809052  1
  Sn  Sn4  1  0.333333  0.666667  0.228009  1
  Sn  Sn5  1  0.666667  0.333333  0.726746  1
