# generated using pymatgen
data_Ho16Cd4IrPd2Ru
_symmetry_space_group_name_H-M   'P 1'
_cell_length_a   9.62656691
_cell_length_b   9.62681106
_cell_length_c   9.66178713
_cell_angle_alpha   59.70697828
_cell_angle_beta   59.70582298
_cell_angle_gamma   59.55701015
_symmetry_Int_Tables_number   1
_chemical_formula_structural   Ho16Cd4IrPd2Ru
_chemical_formula_sum   'Ho16 Cd4 Ir1 Pd2 Ru1'
_cell_volume   628.19226139
_cell_formula_units_Z   1
loop_
 _symmetry_equiv_pos_site_id
 _symmetry_equiv_pos_as_xyz
  1  'x, y, z'
loop_
 _atom_site_type_symbol
 _atom_site_label
 _atom_site_symmetry_multiplicity
 _atom_site_fract_x
 _atom_site_fract_y
 _atom_site_fract_z
 _atom_site_occupancy
  Ho  Ho0  1  0.348623  0.348584  0.355626  1
  Ho  Ho1  1  0.352034  0.351991  0.941847  1
  Ho  Ho2  1  0.346121  0.951215  0.352493  1
  Ho  Ho3  1  0.951253  0.346142  0.352426  1
  Ho  Ho4  1  0.813602  0.189282  0.190467  1
  Ho  Ho5  1  0.187003  0.816684  0.806023  1
  Ho  Ho6  1  0.189296  0.813581  0.190485  1
  Ho  Ho7  1  0.816638  0.187035  0.806043  1
  Ho  Ho8  1  0.188492  0.188532  0.809706  1
  Ho  Ho9  1  0.809410  0.809430  0.189658  1
  Ho  Ho10  1  0.936206  0.560782  0.567828  1
  Ho  Ho11  1  0.560101  0.935945  0.936656  1
  Ho  Ho12  1  0.560805  0.936188  0.567795  1
  Ho  Ho13  1  0.935956  0.560097  0.936652  1
  Ho  Ho14  1  0.564831  0.564822  0.937270  1
  Ho  Ho15  1  0.937283  0.937261  0.563499  1
  Cd  Cd16  1  0.579806  0.579833  0.581170  1
  Cd  Cd17  1  0.580658  0.580667  0.256863  1
  Cd  Cd18  1  0.581792  0.254252  0.581622  1
  Cd  Cd19  1  0.254231  0.581838  0.581591  1
  Ir  Ir20  1  0.145104  0.145105  0.138743  1
  Pd  Pd21  1  0.145735  0.570364  0.142202  1
  Pd  Pd22  1  0.570336  0.145726  0.142243  1
  Ru  Ru23  1  0.144685  0.144640  0.571092  1
