# generated using pymatgen
data_FeCl13
_symmetry_space_group_name_H-M   'P 1'
_cell_length_a   11.95493959
_cell_length_b   16.63702460
_cell_length_c   10.73645447
_cell_angle_alpha   89.41594562
_cell_angle_beta   120.89887937
_cell_angle_gamma   130.41348473
_symmetry_Int_Tables_number   1
_chemical_formula_structural   FeCl13
_chemical_formula_sum   'Fe2 Cl26'
_cell_volume   1213.03338270
_cell_formula_units_Z   2
loop_
 _symmetry_equiv_pos_site_id
 _symmetry_equiv_pos_as_xyz
  1  'x, y, z'
loop_
 _atom_site_type_symbol
 _atom_site_label
 _atom_site_symmetry_multiplicity
 _atom_site_fract_x
 _atom_site_fract_y
 _atom_site_fract_z
 _atom_site_occupancy
  Fe  Fe0  1  0.858503  0.993129  0.852466  1
  Fe  Fe1  1  0.391497  0.756871  0.647534  1
  Cl  Cl2  1  0.273938  0.391027  0.638912  1
  Cl  Cl3  1  0.652482  0.331508  0.965578  1
  Cl  Cl4  1  0.860403  0.039204  0.360840  1
  Cl  Cl5  1  0.976062  0.358973  0.861088  1
  Cl  Cl6  1  0.558182  0.136885  0.226772  1
  Cl  Cl7  1  0.691818  0.613115  0.273228  1
  Cl  Cl8  1  0.389597  0.710796  0.139160  1
  Cl  Cl9  1  0.597518  0.418492  0.534422  1
  Cl  Cl10  1  0.031834  0.793352  0.740995  1
  Cl  Cl11  1  0.533759  0.734597  0.368948  1
  Cl  Cl12  1  0.979247  0.076200  0.740828  1
  Cl  Cl13  1  0.752077  0.212654  0.475199  1
  Cl  Cl14  1  0.073145  0.079500  0.117613  1
  Cl  Cl15  1  0.777326  0.560222  0.750334  1
  Cl  Cl16  1  0.212523  0.926860  0.225834  1
  Cl  Cl17  1  0.185018  0.414774  0.441710  1
  Cl  Cl18  1  0.218166  0.956648  0.759005  1
  Cl  Cl19  1  0.716241  0.015403  0.131052  1
  Cl  Cl20  1  0.643697  0.783726  0.736767  1
  Cl  Cl21  1  0.606303  0.966274  0.763233  1
  Cl  Cl22  1  0.037477  0.823140  0.274166  1
  Cl  Cl23  1  0.064982  0.335226  0.058290  1
  Cl  Cl24  1  0.270753  0.673800  0.759172  1
  Cl  Cl25  1  0.472674  0.189778  0.749666  1
  Cl  Cl26  1  0.176855  0.670500  0.382387  1
  Cl  Cl27  1  0.497923  0.537346  0.024801  1
