# generated using pymatgen
data_Dy6Er9Th(CdPt)4
_symmetry_space_group_name_H-M   'P 1'
_cell_length_a   9.63294752
_cell_length_b   9.63294698
_cell_length_c   9.63294594
_cell_angle_alpha   60.35011017
_cell_angle_beta   60.35011354
_cell_angle_gamma   60.35010988
_symmetry_Int_Tables_number   1
_chemical_formula_structural   Dy6Er9Th(CdPt)4
_chemical_formula_sum   'Dy6 Er9 Th1 Cd4 Pt4'
_cell_volume   637.07216607
_cell_formula_units_Z   1
loop_
 _symmetry_equiv_pos_site_id
 _symmetry_equiv_pos_as_xyz
  1  'x, y, z'
loop_
 _atom_site_type_symbol
 _atom_site_label
 _atom_site_symmetry_multiplicity
 _atom_site_fract_x
 _atom_site_fract_y
 _atom_site_fract_z
 _atom_site_occupancy
  Dy  Dy0  1  0.936074  0.566649  0.566649  1
  Dy  Dy1  1  0.563492  0.937483  0.937483  1
  Dy  Dy2  1  0.566649  0.936074  0.566649  1
  Dy  Dy3  1  0.937483  0.563491  0.937483  1
  Dy  Dy4  1  0.566649  0.566649  0.936074  1
  Dy  Dy5  1  0.937483  0.937483  0.563491  1
  Er  Er6  1  0.353896  0.353896  0.939022  1
  Er  Er7  1  0.353896  0.939022  0.353896  1
  Er  Er8  1  0.939022  0.353896  0.353896  1
  Er  Er9  1  0.812958  0.188747  0.188747  1
  Er  Er10  1  0.190831  0.811118  0.811118  1
  Er  Er11  1  0.188747  0.812958  0.188747  1
  Er  Er12  1  0.811118  0.190831  0.811118  1
  Er  Er13  1  0.188747  0.188747  0.812958  1
  Er  Er14  1  0.811118  0.811118  0.190831  1
  Th  Th15  1  0.348670  0.348670  0.348670  1
  Cd  Cd16  1  0.581323  0.581323  0.581323  1
  Cd  Cd17  1  0.582234  0.582234  0.253439  1
  Cd  Cd18  1  0.582234  0.253439  0.582234  1
  Cd  Cd19  1  0.253439  0.582234  0.582234  1
  Pt  Pt20  1  0.144116  0.144116  0.144116  1
  Pt  Pt21  1  0.139229  0.139229  0.571364  1
  Pt  Pt22  1  0.139229  0.571364  0.139229  1
  Pt  Pt23  1  0.571364  0.139229  0.139229  1
