# generated using pymatgen
data_La2Nd2LuIr3
_symmetry_space_group_name_H-M   'P 1'
_cell_length_a   11.22987900
_cell_length_b   11.22987900
_cell_length_c   6.52224200
_cell_angle_alpha   90.00000000
_cell_angle_beta   90.00000000
_cell_angle_gamma   90.00000000
_symmetry_Int_Tables_number   1
_chemical_formula_structural   La2Nd2LuIr3
_chemical_formula_sum   'La8 Nd8 Lu4 Ir12'
_cell_volume   822.52112798
_cell_formula_units_Z   4
loop_
 _symmetry_equiv_pos_site_id
 _symmetry_equiv_pos_as_xyz
  1  'x, y, z'
loop_
 _atom_site_type_symbol
 _atom_site_label
 _atom_site_symmetry_multiplicity
 _atom_site_fract_x
 _atom_site_fract_y
 _atom_site_fract_z
 _atom_site_occupancy
  La  La0  1  0.088132  0.287329  0.116652  1
  La  La1  1  0.787329  0.411868  0.116652  1
  La  La2  1  0.212671  0.588132  0.116652  1
  La  La3  1  0.911868  0.712671  0.116652  1
  La  La4  1  0.411868  0.787329  0.383348  1
  La  La5  1  0.588132  0.212671  0.383348  1
  La  La6  1  0.287329  0.088132  0.383348  1
  La  La7  1  0.712671  0.911868  0.383348  1
  Nd  Nd8  1  0.412512  0.211656  0.882437  1
  Nd  Nd9  1  0.711656  0.087488  0.882437  1
  Nd  Nd10  1  0.288344  0.912512  0.882437  1
  Nd  Nd11  1  0.587488  0.788344  0.882437  1
  Nd  Nd12  1  0.087488  0.711656  0.617563  1
  Nd  Nd13  1  0.912512  0.288344  0.617563  1
  Nd  Nd14  1  0.211656  0.412512  0.617563  1
  Nd  Nd15  1  0.788344  0.587488  0.617563  1
  Lu  Lu16  1  0.000000  0.000000  0.998703  1
  Lu  Lu17  1  0.500000  0.500000  0.998703  1
  Lu  Lu18  1  0.500000  0.500000  0.501297  1
  Lu  Lu19  1  0.000000  0.000000  0.501297  1
  Ir  Ir20  1  0.146862  0.853138  0.250000  1
  Ir  Ir21  1  0.353138  0.353138  0.250000  1
  Ir  Ir22  1  0.646862  0.646862  0.250000  1
  Ir  Ir23  1  0.853138  0.146862  0.250000  1
  Ir  Ir24  1  0.352928  0.647072  0.750000  1
  Ir  Ir25  1  0.147072  0.147072  0.750000  1
  Ir  Ir26  1  0.852928  0.852928  0.750000  1
  Ir  Ir27  1  0.647072  0.352928  0.750000  1
  Ir  Ir28  1  0.000000  0.500000  0.378894  1
  Ir  Ir29  1  0.500000  0.000000  0.121106  1
  Ir  Ir30  1  0.500000  0.000000  0.620370  1
  Ir  Ir31  1  0.000000  0.500000  0.879630  1
