# generated using pymatgen
data_Lu2Tc2B4Os3
_symmetry_space_group_name_H-M   'P 1'
_cell_length_a   8.78485205
_cell_length_b   3.08320800
_cell_length_c   10.12990708
_cell_angle_alpha   90.00012789
_cell_angle_beta   89.99896065
_cell_angle_gamma   89.99974652
_symmetry_Int_Tables_number   1
_chemical_formula_structural   Lu2Tc2B4Os3
_chemical_formula_sum   'Lu4 Tc4 B8 Os6'
_cell_volume   274.37386296
_cell_formula_units_Z   2
loop_
 _symmetry_equiv_pos_site_id
 _symmetry_equiv_pos_as_xyz
  1  'x, y, z'
loop_
 _atom_site_type_symbol
 _atom_site_label
 _atom_site_symmetry_multiplicity
 _atom_site_fract_x
 _atom_site_fract_y
 _atom_site_fract_z
 _atom_site_occupancy
  Lu  Lu0  1  0.161624  0.500039  0.682403  1
  Lu  Lu1  1  0.838376  0.499961  0.317597  1
  Lu  Lu2  1  0.661607  0.499992  0.817600  1
  Lu  Lu3  1  0.338393  0.500008  0.182400  1
  Tc  Tc4  1  0.158826  0.999997  0.953673  1
  Tc  Tc5  1  0.841174  0.000003  0.046327  1
  Tc  Tc6  1  0.658809  0.999995  0.546323  1
  Tc  Tc7  1  0.341191  0.000005  0.453677  1
  B  B8  1  0.350373  0.499999  0.900658  1
  B  B9  1  0.649627  0.500001  0.099342  1
  B  B10  1  0.466453  0.500000  0.586814  1
  B  B11  1  0.533547  0.500000  0.413186  1
  B  B12  1  0.850387  0.500008  0.599333  1
  B  B13  1  0.149613  0.499992  0.400667  1
  B  B14  1  0.966434  0.500004  0.913190  1
  B  B15  1  0.033566  0.499996  0.086810  1
  Os  Os16  1  0.408578  0.999986  0.738981  1
  Os  Os17  1  0.591422  0.000014  0.261019  1
  Os  Os18  1  0.908583  0.999995  0.761030  1
  Os  Os19  1  0.091417  0.000005  0.238970  1
  Os  Os20  1  0.500000  0.000000  0.000000  1
  Os  Os21  1  0.000000  0.000000  0.500000  1
