# generated using pymatgen
data_Tb4FeRuC8
_symmetry_space_group_name_H-M   'P 1'
_cell_length_a   5.18842731
_cell_length_b   6.65233389
_cell_length_c   6.65233553
_cell_angle_alpha   69.94794825
_cell_angle_beta   67.04733354
_cell_angle_gamma   67.04734024
_symmetry_Int_Tables_number   1
_chemical_formula_structural   Tb4FeRuC8
_chemical_formula_sum   'Tb4 Fe1 Ru1 C8'
_cell_volume   189.69572324
_cell_formula_units_Z   1
loop_
 _symmetry_equiv_pos_site_id
 _symmetry_equiv_pos_as_xyz
  1  'x, y, z'
loop_
 _atom_site_type_symbol
 _atom_site_label
 _atom_site_symmetry_multiplicity
 _atom_site_fract_x
 _atom_site_fract_y
 _atom_site_fract_z
 _atom_site_occupancy
  Tb  Tb0  1  0.148787  0.200798  0.504669  1
  Tb  Tb1  1  0.854253  0.799202  0.495331  1
  Tb  Tb2  1  0.645747  0.504669  0.200798  1
  Tb  Tb3  1  0.351213  0.495331  0.799202  1
  Fe  Fe4  1  0.250000  0.000000  0.000000  1
  Ru  Ru5  1  0.750000  0.000000  0.000000  1
  C  C6  1  0.369037  0.789989  0.465421  1
  C  C7  1  0.624447  0.210011  0.534579  1
  C  C8  1  0.875553  0.465421  0.789989  1
  C  C9  1  0.130963  0.534579  0.210011  1
  C  C10  1  0.402066  0.907031  0.247282  1
  C  C11  1  0.556379  0.092969  0.752718  1
  C  C12  1  0.943621  0.247282  0.907031  1
  C  C13  1  0.097934  0.752718  0.092969  1
