# generated using pymatgen
data_Y3GaGeRh2
_symmetry_space_group_name_H-M   'P 1'
_cell_length_a   5.56456700
_cell_length_b   7.95090200
_cell_length_c   13.43437800
_cell_angle_alpha   90.00000000
_cell_angle_beta   90.00000000
_cell_angle_gamma   90.00000000
_symmetry_Int_Tables_number   1
_chemical_formula_structural   Y3GaGeRh2
_chemical_formula_sum   'Y12 Ga4 Ge4 Rh8'
_cell_volume   594.38157741
_cell_formula_units_Z   4
loop_
 _symmetry_equiv_pos_site_id
 _symmetry_equiv_pos_as_xyz
  1  'x, y, z'
loop_
 _atom_site_type_symbol
 _atom_site_label
 _atom_site_symmetry_multiplicity
 _atom_site_fract_x
 _atom_site_fract_y
 _atom_site_fract_z
 _atom_site_occupancy
  Y  Y0  1  0.631754  0.261743  0.250000  1
  Y  Y1  1  0.368246  0.738257  0.750000  1
  Y  Y2  1  0.368246  0.761743  0.250000  1
  Y  Y3  1  0.631754  0.238257  0.750000  1
  Y  Y4  1  0.149943  0.400608  0.101378  1
  Y  Y5  1  0.850057  0.599392  0.898622  1
  Y  Y6  1  0.850057  0.599392  0.601378  1
  Y  Y7  1  0.850057  0.900608  0.398622  1
  Y  Y8  1  0.149943  0.400608  0.398622  1
  Y  Y9  1  0.149943  0.099392  0.601378  1
  Y  Y10  1  0.149943  0.099392  0.898622  1
  Y  Y11  1  0.850057  0.900608  0.101378  1
  Ga  Ga12  1  0.639852  0.250000  0.000000  1
  Ga  Ga13  1  0.360148  0.750000  0.000000  1
  Ga  Ga14  1  0.360148  0.750000  0.500000  1
  Ga  Ga15  1  0.639852  0.250000  0.500000  1
  Ge  Ge16  1  0.129942  0.115906  0.250000  1
  Ge  Ge17  1  0.870058  0.884094  0.750000  1
  Ge  Ge18  1  0.870058  0.615906  0.250000  1
  Ge  Ge19  1  0.129942  0.384094  0.750000  1
  Rh  Rh20  1  0.361013  0.031075  0.093427  1
  Rh  Rh21  1  0.638987  0.968925  0.906573  1
  Rh  Rh22  1  0.638987  0.968925  0.593427  1
  Rh  Rh23  1  0.638987  0.531075  0.406573  1
  Rh  Rh24  1  0.361013  0.031075  0.406573  1
  Rh  Rh25  1  0.361013  0.468925  0.593427  1
  Rh  Rh26  1  0.361013  0.468925  0.906573  1
  Rh  Rh27  1  0.638987  0.531075  0.093427  1
