# generated using pymatgen
data_Nd10In8Ir3Rh
_symmetry_space_group_name_H-M   'P 1'
_cell_length_a   3.80239100
_cell_length_b   8.27613643
_cell_length_c   18.65549649
_cell_angle_alpha   89.87763134
_cell_angle_beta   90.00000000
_cell_angle_gamma   90.00000000
_symmetry_Int_Tables_number   1
_chemical_formula_structural   Nd10In8Ir3Rh
_chemical_formula_sum   'Nd10 In8 Ir3 Rh1'
_cell_volume   587.07047022
_cell_formula_units_Z   1
loop_
 _symmetry_equiv_pos_site_id
 _symmetry_equiv_pos_as_xyz
  1  'x, y, z'
loop_
 _atom_site_type_symbol
 _atom_site_label
 _atom_site_symmetry_multiplicity
 _atom_site_fract_x
 _atom_site_fract_y
 _atom_site_fract_z
 _atom_site_occupancy
  Nd  Nd0  1  0.000000  0.115467  0.411302  1
  Nd  Nd1  1  0.000000  0.884723  0.589917  1
  Nd  Nd2  1  0.000000  0.383834  0.910164  1
  Nd  Nd3  1  0.000000  0.614871  0.089349  1
  Nd  Nd4  1  0.000000  0.240806  0.221397  1
  Nd  Nd5  1  0.000000  0.757607  0.778579  1
  Nd  Nd6  1  0.000000  0.257780  0.721477  1
  Nd  Nd7  1  0.000000  0.746311  0.279169  1
  Nd  Nd8  1  0.000000  0.998632  0.999526  1
  Nd  Nd9  1  0.000000  0.500199  0.500337  1
  In  In10  1  0.500000  0.431535  0.348947  1
  In  In11  1  0.500000  0.567397  0.650452  1
  In  In12  1  0.500000  0.067006  0.849524  1
  In  In13  1  0.500000  0.930210  0.150217  1
  In  In14  1  0.500000  0.290732  0.069315  1
  In  In15  1  0.500000  0.707165  0.930585  1
  In  In16  1  0.500000  0.208880  0.569670  1
  In  In17  1  0.500000  0.791470  0.430871  1
  Ir  Ir18  1  0.500000  0.014110  0.303958  1
  Ir  Ir19  1  0.500000  0.989075  0.696311  1
  Ir  Ir20  1  0.500000  0.488928  0.803673  1
  Rh  Rh21  1  0.500000  0.513258  0.195262  1
