# generated using pymatgen
data_TbYb4Sn3H
_symmetry_space_group_name_H-M   'P 1'
_cell_length_a   9.33459868
_cell_length_b   9.33459760
_cell_length_c   9.34148174
_cell_angle_alpha   128.68902171
_cell_angle_beta   128.68901341
_cell_angle_gamma   75.45691538
_symmetry_Int_Tables_number   1
_chemical_formula_structural   TbYb4Sn3H
_chemical_formula_sum   'Tb2 Yb8 Sn6 H2'
_cell_volume   482.71675665
_cell_formula_units_Z   2
loop_
 _symmetry_equiv_pos_site_id
 _symmetry_equiv_pos_as_xyz
  1  'x, y, z'
loop_
 _atom_site_type_symbol
 _atom_site_label
 _atom_site_symmetry_multiplicity
 _atom_site_fract_x
 _atom_site_fract_y
 _atom_site_fract_z
 _atom_site_occupancy
  Tb  Tb0  1  0.517208  0.017208  0.830655  1
  Tb  Tb1  1  0.186554  0.686554  0.169345  1
  Yb  Yb2  1  0.501024  0.501024  0.000000  1
  Yb  Yb3  1  0.001024  0.001024  0.000000  1
  Yb  Yb4  1  0.008308  0.185802  0.500000  1
  Yb  Yb5  1  0.685802  0.508308  0.500000  1
  Yb  Yb6  1  0.489164  0.989164  0.178464  1
  Yb  Yb7  1  0.810700  0.310700  0.821536  1
  Yb  Yb8  1  0.987916  0.812758  0.500000  1
  Yb  Yb9  1  0.312758  0.487916  0.500000  1
  Sn  Sn10  1  0.253501  0.253501  0.000000  1
  Sn  Sn11  1  0.753501  0.753501  0.000000  1
  Sn  Sn12  1  0.869609  0.369609  0.242033  1
  Sn  Sn13  1  0.127577  0.627577  0.757967  1
  Sn  Sn14  1  0.365897  0.123368  0.500000  1
  Sn  Sn15  1  0.623368  0.865897  0.500000  1
  H  H16  1  0.258202  0.758202  0.500000  1
  H  H17  1  0.747887  0.247887  0.500000  1
