# generated using pymatgen
data_Pa4Re5(Ge3Pt)2
_symmetry_space_group_name_H-M   'P 1'
_cell_length_a   7.31529096
_cell_length_b   7.31528946
_cell_length_c   7.31529000
_cell_angle_alpha   109.68921536
_cell_angle_beta   109.36233562
_cell_angle_gamma   109.36232168
_symmetry_Int_Tables_number   1
_chemical_formula_structural   Pa4Re5(Ge3Pt)2
_chemical_formula_sum   'Pa4 Re5 Ge6 Pt2'
_cell_volume   301.34785872
_cell_formula_units_Z   1
loop_
 _symmetry_equiv_pos_site_id
 _symmetry_equiv_pos_as_xyz
  1  'x, y, z'
loop_
 _atom_site_type_symbol
 _atom_site_label
 _atom_site_symmetry_multiplicity
 _atom_site_fract_x
 _atom_site_fract_y
 _atom_site_fract_z
 _atom_site_occupancy
  Pa  Pa0  1  0.010410  0.005154  0.505144  1
  Pa  Pa1  1  0.989590  0.494856  0.994846  1
  Pa  Pa2  1  0.500000  0.005055  0.994945  1
  Pa  Pa3  1  0.500000  0.494805  0.505195  1
  Re  Re4  1  0.749922  0.249761  0.500030  1
  Re  Re5  1  0.749705  0.500031  0.249992  1
  Re  Re6  1  0.500000  0.250023  0.749977  1
  Re  Re7  1  0.250078  0.499970  0.750239  1
  Re  Re8  1  0.250295  0.750008  0.499969  1
  Ge  Ge9  1  0.687184  0.688001  0.000799  1
  Ge  Ge10  1  0.312816  0.999201  0.311999  1
  Ge  Ge11  1  0.999990  0.314847  0.314929  1
  Ge  Ge12  1  0.312694  0.313494  0.000591  1
  Ge  Ge13  1  0.687306  0.999409  0.686506  1
  Ge  Ge14  1  0.000010  0.685071  0.685153  1
  Pt  Pt15  1  0.500000  0.750294  0.249706  1
  Pt  Pt16  1  0.000000  0.000020  0.999980  1
