# generated using pymatgen
data_Tb7YTc3B24Ru
_symmetry_space_group_name_H-M   'P 1'
_cell_length_a   3.69941600
_cell_length_b   9.18402688
_cell_length_c   11.57631801
_cell_angle_alpha   89.92291105
_cell_angle_beta   90.00000000
_cell_angle_gamma   90.00000000
_symmetry_Int_Tables_number   1
_chemical_formula_structural   Tb7YTc3B24Ru
_chemical_formula_sum   'Tb7 Y1 Tc3 B24 Ru1'
_cell_volume   393.31125334
_cell_formula_units_Z   1
loop_
 _symmetry_equiv_pos_site_id
 _symmetry_equiv_pos_as_xyz
  1  'x, y, z'
loop_
 _atom_site_type_symbol
 _atom_site_label
 _atom_site_symmetry_multiplicity
 _atom_site_fract_x
 _atom_site_fract_y
 _atom_site_fract_z
 _atom_site_occupancy
  Tb  Tb0  1  0.000000  0.323798  0.413936  1
  Tb  Tb1  1  0.000000  0.674954  0.584185  1
  Tb  Tb2  1  0.000000  0.823393  0.087188  1
  Tb  Tb3  1  0.000000  0.177629  0.914599  1
  Tb  Tb4  1  0.000000  0.942510  0.370000  1
  Tb  Tb5  1  0.000000  0.057884  0.630939  1
  Tb  Tb6  1  0.000000  0.442732  0.130118  1
  Y  Y7  1  0.000000  0.557991  0.869112  1
  Tc  Tc8  1  0.000000  0.638139  0.320569  1
  Tc  Tc9  1  0.000000  0.361997  0.679898  1
  Tc  Tc10  1  0.000000  0.137850  0.178173  1
  B  B11  1  0.500000  0.553079  0.432576  1
  B  B12  1  0.500000  0.446615  0.567031  1
  B  B13  1  0.500000  0.053239  0.067195  1
  B  B14  1  0.500000  0.945960  0.932514  1
  B  B15  1  0.500000  0.747756  0.418381  1
  B  B16  1  0.500000  0.251564  0.581747  1
  B  B17  1  0.500000  0.248293  0.081648  1
  B  B18  1  0.500000  0.752024  0.918147  1
  B  B19  1  0.500000  0.791049  0.265694  1
  B  B20  1  0.500000  0.209281  0.735035  1
  B  B21  1  0.500000  0.290921  0.234367  1
  B  B22  1  0.500000  0.709751  0.765439  1
  B  B23  1  0.500000  0.631282  0.185958  1
  B  B24  1  0.500000  0.369030  0.814667  1
  B  B25  1  0.500000  0.130697  0.313574  1
  B  B26  1  0.500000  0.868634  0.686291  1
  B  B27  1  0.500000  0.982559  0.211625  1
  B  B28  1  0.500000  0.016082  0.788613  1
  B  B29  1  0.500000  0.482791  0.288087  1
  B  B30  1  0.500000  0.517299  0.711555  1
  B  B31  1  0.500000  0.602888  0.028033  1
  B  B32  1  0.500000  0.398988  0.971109  1
  B  B33  1  0.500000  0.102251  0.471854  1
  B  B34  1  0.500000  0.897420  0.528994  1
  Ru  Ru35  1  0.000000  0.861668  0.821149  1
