# generated using pymatgen
data_Ce(Pr2Ir)3
_symmetry_space_group_name_H-M   'P 1'
_cell_length_a   10.13120800
_cell_length_b   10.13120807
_cell_length_c   6.51015900
_cell_angle_alpha   90.00000000
_cell_angle_beta   90.00000000
_cell_angle_gamma   120.00000631
_symmetry_Int_Tables_number   1
_chemical_formula_structural   Ce(Pr2Ir)3
_chemical_formula_sum   'Ce2 Pr12 Ir6'
_cell_volume   578.68825252
_cell_formula_units_Z   2
loop_
 _symmetry_equiv_pos_site_id
 _symmetry_equiv_pos_as_xyz
  1  'x, y, z'
loop_
 _atom_site_type_symbol
 _atom_site_label
 _atom_site_symmetry_multiplicity
 _atom_site_fract_x
 _atom_site_fract_y
 _atom_site_fract_z
 _atom_site_occupancy
  Ce  Ce0  1  0.333333  0.666667  0.487590  1
  Ce  Ce1  1  0.666667  0.333333  0.987590  1
  Pr  Pr2  1  0.126237  0.873763  0.250973  1
  Pr  Pr3  1  0.747527  0.873763  0.250973  1
  Pr  Pr4  1  0.126237  0.252473  0.250973  1
  Pr  Pr5  1  0.873763  0.126237  0.750973  1
  Pr  Pr6  1  0.252473  0.126237  0.750973  1
  Pr  Pr7  1  0.873763  0.747527  0.750973  1
  Pr  Pr8  1  0.539118  0.460882  0.445916  1
  Pr  Pr9  1  0.921764  0.460882  0.445916  1
  Pr  Pr10  1  0.539118  0.078236  0.445916  1
  Pr  Pr11  1  0.460882  0.539118  0.945916  1
  Pr  Pr12  1  0.078236  0.539118  0.945916  1
  Pr  Pr13  1  0.460882  0.921764  0.945916  1
  Ir  Ir14  1  0.806973  0.193027  0.174263  1
  Ir  Ir15  1  0.386054  0.193027  0.174263  1
  Ir  Ir16  1  0.806973  0.613946  0.174263  1
  Ir  Ir17  1  0.193027  0.806973  0.674263  1
  Ir  Ir18  1  0.613946  0.806973  0.674263  1
  Ir  Ir19  1  0.193027  0.386054  0.674263  1
