# generated using pymatgen
data_CaMn5(AsO4)4
_symmetry_space_group_name_H-M   'P 1'
_cell_length_a   9.05644140
_cell_length_b   5.51748160
_cell_length_c   9.57982326
_cell_angle_alpha   59.12458616
_cell_angle_beta   90.20405650
_cell_angle_gamma   90.68565706
_symmetry_Int_Tables_number   1
_chemical_formula_structural   CaMn5(AsO4)4
_chemical_formula_sum   'Ca1 Mn5 As4 O16'
_cell_volume   410.82279360
_cell_formula_units_Z   1
loop_
 _symmetry_equiv_pos_site_id
 _symmetry_equiv_pos_as_xyz
  1  'x, y, z'
loop_
 _atom_site_type_symbol
 _atom_site_label
 _atom_site_symmetry_multiplicity
 _atom_site_fract_x
 _atom_site_fract_y
 _atom_site_fract_z
 _atom_site_occupancy
  Ca  Ca0  1  0.000000  0.500000  0.500000  1
  Mn  Mn1  1  0.144771  0.473149  0.110171  1
  Mn  Mn2  1  0.638418  0.501245  0.391788  1
  Mn  Mn3  1  0.855229  0.526851  0.889829  1
  Mn  Mn4  1  0.361582  0.498755  0.608212  1
  Mn  Mn5  1  0.500000  0.500000  0.000000  1
  As  As6  1  0.310754  0.835788  0.195542  1
  As  As7  1  0.796777  0.160137  0.293776  1
  As  As8  1  0.689246  0.164212  0.804458  1
  As  As9  1  0.203223  0.839863  0.706224  1
  O  O10  1  0.074861  0.682045  0.862580  1
  O  O11  1  0.569644  0.315139  0.640929  1
  O  O12  1  0.925139  0.317955  0.137420  1
  O  O13  1  0.430356  0.684861  0.359071  1
  O  O14  1  0.204120  0.194286  0.636545  1
  O  O15  1  0.693045  0.807241  0.878204  1
  O  O16  1  0.795880  0.805714  0.363455  1
  O  O17  1  0.306955  0.192759  0.121796  1
  O  O18  1  0.159886  0.776396  0.552575  1
  O  O19  1  0.643107  0.240819  0.951729  1
  O  O20  1  0.139605  0.670164  0.256004  1
  O  O21  1  0.627447  0.325982  0.233078  1
  O  O22  1  0.860395  0.329836  0.743996  1
  O  O23  1  0.372553  0.674018  0.766922  1
  O  O24  1  0.356893  0.759181  0.048271  1
  O  O25  1  0.840114  0.223604  0.447425  1
