# generated using pymatgen
data_Er3Tm(Zn2In)2
_symmetry_space_group_name_H-M   'P 1'
_cell_length_a   7.37677540
_cell_length_b   7.37677491
_cell_length_c   8.20122300
_cell_angle_alpha   90.00000000
_cell_angle_beta   90.00000000
_cell_angle_gamma   90.18814914
_symmetry_Int_Tables_number   1
_chemical_formula_structural   Er3Tm(Zn2In)2
_chemical_formula_sum   'Er6 Tm2 Zn8 In4'
_cell_volume   446.28200167
_cell_formula_units_Z   2
loop_
 _symmetry_equiv_pos_site_id
 _symmetry_equiv_pos_as_xyz
  1  'x, y, z'
loop_
 _atom_site_type_symbol
 _atom_site_label
 _atom_site_symmetry_multiplicity
 _atom_site_fract_x
 _atom_site_fract_y
 _atom_site_fract_z
 _atom_site_occupancy
  Er  Er0  1  0.830822  0.169178  0.500000  1
  Er  Er1  1  0.169178  0.830822  0.500000  1
  Er  Er2  1  0.672917  0.672917  0.500000  1
  Er  Er3  1  0.327083  0.327083  0.500000  1
  Er  Er4  1  0.173000  0.827000  0.000000  1
  Er  Er5  1  0.827000  0.173000  0.000000  1
  Tm  Tm6  1  0.331444  0.331444  0.000000  1
  Tm  Tm7  1  0.668556  0.668556  0.000000  1
  Zn  Zn8  1  0.623686  0.376314  0.252461  1
  Zn  Zn9  1  0.376314  0.623686  0.252461  1
  Zn  Zn10  1  0.123891  0.123891  0.753674  1
  Zn  Zn11  1  0.876109  0.876109  0.753674  1
  Zn  Zn12  1  0.376314  0.623686  0.747539  1
  Zn  Zn13  1  0.623686  0.376314  0.747539  1
  Zn  Zn14  1  0.876109  0.876109  0.246326  1
  Zn  Zn15  1  0.123891  0.123891  0.246326  1
  In  In16  1  0.500000  0.000000  0.246638  1
  In  In17  1  0.000000  0.500000  0.753362  1
  In  In18  1  0.500000  0.000000  0.753362  1
  In  In19  1  0.000000  0.500000  0.246638  1
