# generated using pymatgen
data_Cs12Mn3CoBr20
_symmetry_space_group_name_H-M   'P 1'
_cell_length_a   9.64744230
_cell_length_b   11.22038000
_cell_length_c   14.27451401
_cell_angle_alpha   90.00000000
_cell_angle_beta   89.86363586
_cell_angle_gamma   90.00000000
_symmetry_Int_Tables_number   1
_chemical_formula_structural   Cs12Mn3CoBr20
_chemical_formula_sum   'Cs12 Mn3 Co1 Br20'
_cell_volume   1545.18276837
_cell_formula_units_Z   1
loop_
 _symmetry_equiv_pos_site_id
 _symmetry_equiv_pos_as_xyz
  1  'x, y, z'
loop_
 _atom_site_type_symbol
 _atom_site_label
 _atom_site_symmetry_multiplicity
 _atom_site_fract_x
 _atom_site_fract_y
 _atom_site_fract_z
 _atom_site_occupancy
  Cs  Cs0  1  0.909876  0.022128  0.670796  1
  Cs  Cs1  1  0.589976  0.979128  0.171862  1
  Cs  Cs2  1  0.589976  0.520872  0.171862  1
  Cs  Cs3  1  0.088471  0.520425  0.328763  1
  Cs  Cs4  1  0.088471  0.979575  0.328763  1
  Cs  Cs5  1  0.410175  0.021527  0.828732  1
  Cs  Cs6  1  0.588563  0.750000  0.454071  1
  Cs  Cs7  1  0.913591  0.250000  0.955152  1
  Cs  Cs8  1  0.086305  0.750000  0.045269  1
  Cs  Cs9  1  0.414582  0.250000  0.544167  1
  Cs  Cs10  1  0.410175  0.478473  0.828732  1
  Cs  Cs11  1  0.909876  0.477872  0.670796  1
  Mn  Mn12  1  0.691366  0.750000  0.891095  1
  Mn  Mn13  1  0.308461  0.250000  0.108201  1
  Mn  Mn14  1  0.191566  0.750000  0.608604  1
  Co  Co15  1  0.810886  0.250000  0.392677  1
  Br  Br16  1  0.659253  0.250000  0.736077  1
  Br  Br17  1  0.311288  0.560808  0.565183  1
  Br  Br18  1  0.861994  0.250000  0.228138  1
  Br  Br19  1  0.839804  0.750000  0.235887  1
  Br  Br20  1  0.635698  0.750000  0.720885  1
  Br  Br21  1  0.694210  0.432420  0.432625  1
  Br  Br22  1  0.810409  0.560759  0.934406  1
  Br  Br23  1  0.530943  0.250000  0.016254  1
  Br  Br24  1  0.969405  0.750000  0.516372  1
  Br  Br25  1  0.159565  0.250000  0.763673  1
  Br  Br26  1  0.810409  0.939241  0.934406  1
  Br  Br27  1  0.311288  0.939192  0.565183  1
  Br  Br28  1  0.340422  0.750000  0.264813  1
  Br  Br29  1  0.188789  0.060935  0.065481  1
  Br  Br30  1  0.694210  0.067580  0.432625  1
  Br  Br31  1  0.135684  0.750000  0.778703  1
  Br  Br32  1  0.362989  0.250000  0.278543  1
  Br  Br33  1  0.023188  0.250000  0.481915  1
  Br  Br34  1  0.188789  0.439065  0.065481  1
  Br  Br35  1  0.469342  0.750000  0.983811  1
