# generated using pymatgen
data_TbTm2U5F30
_symmetry_space_group_name_H-M   'P 1'
_cell_length_a   8.55625883
_cell_length_b   8.56705551
_cell_length_c   8.55625976
_cell_angle_alpha   100.30383281
_cell_angle_beta   99.80635867
_cell_angle_gamma   100.30383834
_symmetry_Int_Tables_number   1
_chemical_formula_structural   TbTm2U5F30
_chemical_formula_sum   'Tb1 Tm2 U5 F30'
_cell_volume   593.71641227
_cell_formula_units_Z   1
loop_
 _symmetry_equiv_pos_site_id
 _symmetry_equiv_pos_as_xyz
  1  'x, y, z'
loop_
 _atom_site_type_symbol
 _atom_site_label
 _atom_site_symmetry_multiplicity
 _atom_site_fract_x
 _atom_site_fract_y
 _atom_site_fract_z
 _atom_site_occupancy
  Tb  Tb0  1  0.821544  0.250000  0.678456  1
  Tm  Tm1  1  0.251613  0.250000  0.248387  1
  Tm  Tm2  1  0.181030  0.750000  0.318970  1
  U  U3  1  0.244935  0.676516  0.820683  1
  U  U4  1  0.679317  0.823484  0.255065  1
  U  U5  1  0.749129  0.750000  0.750871  1
  U  U6  1  0.319122  0.176003  0.743518  1
  U  U7  1  0.756482  0.323997  0.180878  1
  F  F8  1  0.956845  0.542524  0.249516  1
  F  F9  1  0.816366  0.347971  0.448399  1
  F  F10  1  0.489750  0.721898  0.713026  1
  F  F11  1  0.350862  0.448690  0.816731  1
  F  F12  1  0.009744  0.790617  0.775833  1
  F  F13  1  0.748449  0.033295  0.464936  1
  F  F14  1  0.942531  0.842757  0.318670  1
  F  F15  1  0.226879  0.217945  0.986607  1
  F  F16  1  0.774290  0.007052  0.781053  1
  F  F17  1  0.323388  0.943817  0.851506  1
  F  F18  1  0.279157  0.276000  0.510879  1
  F  F19  1  0.450750  0.812300  0.344579  1
  F  F20  1  0.539025  0.250000  0.960975  1
  F  F21  1  0.264703  0.509539  0.278252  1
  F  F22  1  0.155421  0.687700  0.049250  1
  F  F23  1  0.845007  0.319878  0.950115  1
  F  F24  1  0.718947  0.492948  0.725710  1
  F  F25  1  0.469188  0.750000  0.030812  1
  F  F26  1  0.549885  0.180122  0.654993  1
  F  F27  1  0.724167  0.709383  0.490256  1
  F  F28  1  0.683269  0.051310  0.149138  1
  F  F29  1  0.221748  0.990461  0.235297  1
  F  F30  1  0.786974  0.778102  0.010250  1
  F  F31  1  0.051601  0.152029  0.683634  1
  F  F32  1  0.250484  0.957476  0.543155  1
  F  F33  1  0.989121  0.224000  0.220843  1
  F  F34  1  0.648494  0.556183  0.176612  1
  F  F35  1  0.513393  0.282055  0.273121  1
  F  F36  1  0.181330  0.657243  0.557469  1
  F  F37  1  0.035064  0.466705  0.751551  1
