# generated using pymatgen
data_Dy2ThIn2GaNi3
_symmetry_space_group_name_H-M   'P 1'
_cell_length_a   7.39854800
_cell_length_b   7.30081514
_cell_length_c   3.85612800
_cell_angle_alpha   90.00000000
_cell_angle_beta   90.00000000
_cell_angle_gamma   120.44381189
_symmetry_Int_Tables_number   1
_chemical_formula_structural   Dy2ThIn2GaNi3
_chemical_formula_sum   'Dy2 Th1 In2 Ga1 Ni3'
_cell_volume   179.57268228
_cell_formula_units_Z   1
loop_
 _symmetry_equiv_pos_site_id
 _symmetry_equiv_pos_as_xyz
  1  'x, y, z'
loop_
 _atom_site_type_symbol
 _atom_site_label
 _atom_site_symmetry_multiplicity
 _atom_site_fract_x
 _atom_site_fract_y
 _atom_site_fract_z
 _atom_site_occupancy
  Dy  Dy0  1  0.991021  0.400344  0.500000  1
  Dy  Dy1  1  0.590676  0.599656  0.500000  1
  Th  Th2  1  0.431558  0.000000  0.500000  1
  In  In3  1  0.992309  0.743279  0.000000  1
  In  In4  1  0.249030  0.256721  0.000000  1
  Ga  Ga5  1  0.763768  0.000000  0.000000  1
  Ni  Ni6  1  0.342085  0.685562  0.000000  1
  Ni  Ni7  1  0.656525  0.314438  0.000000  1
  Ni  Ni8  1  0.983028  0.000000  0.500000  1
