# generated using pymatgen
data_Y3U2Ga15
_symmetry_space_group_name_H-M   'P 1'
_cell_length_a   12.53309878
_cell_length_b   12.53309935
_cell_length_c   12.53309800
_cell_angle_alpha   28.23803217
_cell_angle_beta   28.23802729
_cell_angle_gamma   28.23802889
_symmetry_Int_Tables_number   1
_chemical_formula_structural   Y3U2Ga15
_chemical_formula_sum   'Y3 U2 Ga15'
_cell_volume   389.37715806
_cell_formula_units_Z   1
loop_
 _symmetry_equiv_pos_site_id
 _symmetry_equiv_pos_as_xyz
  1  'x, y, z'
loop_
 _atom_site_type_symbol
 _atom_site_label
 _atom_site_symmetry_multiplicity
 _atom_site_fract_x
 _atom_site_fract_y
 _atom_site_fract_z
 _atom_site_occupancy
  Y  Y0  1  0.000000  0.000000  0.000000  1
  Y  Y1  1  0.599363  0.599363  0.599363  1
  Y  Y2  1  0.400637  0.400637  0.400637  1
  U  U3  1  0.869840  0.869840  0.869840  1
  U  U4  1  0.130160  0.130160  0.130160  1
  Ga  Ga5  1  0.500000  0.500000  0.000000  1
  Ga  Ga6  1  0.000000  0.500000  0.500000  1
  Ga  Ga7  1  0.500000  0.000000  0.500000  1
  Ga  Ga8  1  0.362473  0.872592  0.362473  1
  Ga  Ga9  1  0.362473  0.362473  0.872592  1
  Ga  Ga10  1  0.872592  0.362473  0.362473  1
  Ga  Ga11  1  0.637527  0.127408  0.637527  1
  Ga  Ga12  1  0.637527  0.637527  0.127408  1
  Ga  Ga13  1  0.127408  0.637527  0.637527  1
  Ga  Ga14  1  0.116123  0.568530  0.116123  1
  Ga  Ga15  1  0.116123  0.116123  0.568530  1
  Ga  Ga16  1  0.568530  0.116123  0.116123  1
  Ga  Ga17  1  0.883877  0.431470  0.883877  1
  Ga  Ga18  1  0.883877  0.883877  0.431470  1
  Ga  Ga19  1  0.431470  0.883877  0.883877  1
