# generated using pymatgen
data_Hf3Sc5Co11Si16Pt
_symmetry_space_group_name_H-M   'P 1'
_cell_length_a   5.22450721
_cell_length_b   6.79054594
_cell_length_c   13.70405116
_cell_angle_alpha   90.31489086
_cell_angle_beta   89.98242203
_cell_angle_gamma   89.91235079
_symmetry_Int_Tables_number   1
_chemical_formula_structural   Hf3Sc5Co11Si16Pt
_chemical_formula_sum   'Hf3 Sc5 Co11 Si16 Pt1'
_cell_volume   486.17419913
_cell_formula_units_Z   1
loop_
 _symmetry_equiv_pos_site_id
 _symmetry_equiv_pos_as_xyz
  1  'x, y, z'
loop_
 _atom_site_type_symbol
 _atom_site_label
 _atom_site_symmetry_multiplicity
 _atom_site_fract_x
 _atom_site_fract_y
 _atom_site_fract_z
 _atom_site_occupancy
  Hf  Hf0  1  0.733055  0.900843  0.356355  1
  Hf  Hf1  1  0.265400  0.903327  0.853323  1
  Hf  Hf2  1  0.772298  0.600600  0.850882  1
  Sc  Sc3  1  0.234150  0.399916  0.149803  1
  Sc  Sc4  1  0.729620  0.099592  0.146609  1
  Sc  Sc5  1  0.270691  0.098865  0.641477  1
  Sc  Sc6  1  0.765679  0.401332  0.641035  1
  Sc  Sc7  1  0.230662  0.599203  0.357155  1
  Co  Co8  1  0.506357  0.223931  0.482758  1
  Co  Co9  1  0.771199  0.997646  0.750724  1
  Co  Co10  1  0.494254  0.222699  0.982123  1
  Co  Co11  1  0.725614  0.500497  0.251709  1
  Co  Co12  1  0.495172  0.772706  0.517914  1
  Co  Co13  1  0.003962  0.270002  0.482073  1
  Co  Co14  1  0.005235  0.728862  0.018495  1
  Co  Co15  1  0.225759  0.001094  0.250990  1
  Co  Co16  1  0.276508  0.503475  0.750122  1
  Co  Co17  1  0.507497  0.775187  0.018643  1
  Co  Co18  1  0.994036  0.726625  0.517696  1
  Si  Si19  1  0.227512  0.011135  0.073889  1
  Si  Si20  1  0.717985  0.517336  0.432988  1
  Si  Si21  1  0.783284  0.017511  0.567535  1
  Si  Si22  1  0.481216  0.753533  0.189235  1
  Si  Si23  1  0.019979  0.253439  0.802007  1
  Si  Si24  1  0.516856  0.247698  0.811165  1
  Si  Si25  1  0.218968  0.979058  0.433057  1
  Si  Si26  1  0.296439  0.530155  0.931313  1
  Si  Si27  1  0.979319  0.747891  0.188352  1
  Si  Si28  1  0.706905  0.490345  0.072114  1
  Si  Si29  1  0.280730  0.481004  0.566352  1
  Si  Si30  1  0.483938  0.245854  0.315177  1
  Si  Si31  1  0.019779  0.747699  0.685953  1
  Si  Si32  1  0.771174  0.970761  0.929417  1
  Si  Si33  1  0.518399  0.752873  0.686546  1
  Si  Si34  1  0.975773  0.251269  0.314259  1
  Pt  Pt35  1  0.994594  0.276040  0.980755  1
