# generated using pymatgen
data_Hf4Ti5Si6W
_symmetry_space_group_name_H-M   'P 1'
_cell_length_a   7.60138995
_cell_length_b   7.73288960
_cell_length_c   5.21290134
_cell_angle_alpha   90.08210215
_cell_angle_beta   89.95824076
_cell_angle_gamma   120.57392789
_symmetry_Int_Tables_number   1
_chemical_formula_structural   Hf4Ti5Si6W
_chemical_formula_sum   'Hf4 Ti5 Si6 W1'
_cell_volume   263.81756283
_cell_formula_units_Z   1
loop_
 _symmetry_equiv_pos_site_id
 _symmetry_equiv_pos_as_xyz
  1  'x, y, z'
loop_
 _atom_site_type_symbol
 _atom_site_label
 _atom_site_symmetry_multiplicity
 _atom_site_fract_x
 _atom_site_fract_y
 _atom_site_fract_z
 _atom_site_occupancy
  Hf  Hf0  1  0.755715  0.754168  0.251208  1
  Hf  Hf1  1  0.755715  0.001547  0.748792  1
  Hf  Hf2  1  0.244395  0.246241  0.748749  1
  Hf  Hf3  1  0.244395  0.998154  0.251251  1
  Ti  Ti4  1  0.000179  0.738921  0.749320  1
  Ti  Ti5  1  0.000179  0.261258  0.250680  1
  Ti  Ti6  1  0.664554  0.332277  0.000000  1
  Ti  Ti7  1  0.664785  0.332392  0.500000  1
  Ti  Ti8  1  0.335439  0.667719  0.000000  1
  Si  Si9  1  0.390928  0.995016  0.748797  1
  Si  Si10  1  0.390928  0.395913  0.251203  1
  Si  Si11  1  0.000429  0.598590  0.251036  1
  Si  Si12  1  0.000429  0.401839  0.748964  1
  Si  Si13  1  0.608302  0.604134  0.749368  1
  Si  Si14  1  0.608302  0.004167  0.250632  1
  W  W15  1  0.335326  0.667663  0.500000  1
