# generated using pymatgen
data_Tm5AsSe4
_symmetry_space_group_name_H-M   'P 1'
_cell_length_a   6.97888892
_cell_length_b   6.97889228
_cell_length_c   6.97893743
_cell_angle_alpha   99.59642943
_cell_angle_beta   99.59706415
_cell_angle_gamma   131.80287802
_symmetry_Int_Tables_number   1
_chemical_formula_structural   Tm5AsSe4
_chemical_formula_sum   'Tm5 As1 Se4'
_cell_volume   231.29923981
_cell_formula_units_Z   1
loop_
 _symmetry_equiv_pos_site_id
 _symmetry_equiv_pos_as_xyz
  1  'x, y, z'
loop_
 _atom_site_type_symbol
 _atom_site_label
 _atom_site_symmetry_multiplicity
 _atom_site_fract_x
 _atom_site_fract_y
 _atom_site_fract_z
 _atom_site_occupancy
  Tm  Tm0  1  0.401137  0.791560  0.192701  1
  Tm  Tm1  1  0.000000  0.000000  0.000000  1
  Tm  Tm2  1  0.598863  0.208440  0.807299  1
  Tm  Tm3  1  0.208433  0.401136  0.609571  1
  Tm  Tm4  1  0.791567  0.598864  0.390429  1
  As  As5  1  0.500000  0.500000  0.000000  1
  Se  Se6  1  0.097104  0.697928  0.795035  1
  Se  Se7  1  0.697928  0.902894  0.600824  1
  Se  Se8  1  0.302072  0.097106  0.399176  1
  Se  Se9  1  0.902896  0.302072  0.204965  1
