# generated using pymatgen
data_Y4FeCo3(P3Rh4)4
_symmetry_space_group_name_H-M   'P 1'
_cell_length_a   3.85753500
_cell_length_b   10.77361549
_cell_length_c   12.41500747
_cell_angle_alpha   90.12572635
_cell_angle_beta   90.00000000
_cell_angle_gamma   90.00000000
_symmetry_Int_Tables_number   1
_chemical_formula_structural   Y4FeCo3(P3Rh4)4
_chemical_formula_sum   'Y4 Fe1 Co3 P12 Rh16'
_cell_volume   515.96148754
_cell_formula_units_Z   1
loop_
 _symmetry_equiv_pos_site_id
 _symmetry_equiv_pos_as_xyz
  1  'x, y, z'
loop_
 _atom_site_type_symbol
 _atom_site_label
 _atom_site_symmetry_multiplicity
 _atom_site_fract_x
 _atom_site_fract_y
 _atom_site_fract_z
 _atom_site_occupancy
  Y  Y0  1  0.250000  0.915330  0.208859  1
  Y  Y1  1  0.750000  0.084987  0.792611  1
  Y  Y2  1  0.750000  0.414901  0.291509  1
  Y  Y3  1  0.250000  0.585369  0.707742  1
  Fe  Fe4  1  0.250000  0.036268  0.434543  1
  Co  Co5  1  0.750000  0.965563  0.567780  1
  Co  Co6  1  0.750000  0.536138  0.065954  1
  Co  Co7  1  0.250000  0.464125  0.933854  1
  P  P8  1  0.250000  0.075007  0.606189  1
  P  P9  1  0.750000  0.926389  0.394938  1
  P  P10  1  0.750000  0.575783  0.894198  1
  P  P11  1  0.250000  0.424376  0.105411  1
  P  P12  1  0.250000  0.227075  0.372028  1
  P  P13  1  0.750000  0.772623  0.626521  1
  P  P14  1  0.750000  0.728167  0.127275  1
  P  P15  1  0.250000  0.272332  0.872633  1
  P  P16  1  0.250000  0.900325  0.888476  1
  P  P17  1  0.750000  0.099763  0.111816  1
  P  P18  1  0.750000  0.399828  0.611795  1
  P  P19  1  0.250000  0.599184  0.387549  1
  Rh  Rh20  1  0.250000  0.779776  0.489696  1
  Rh  Rh21  1  0.750000  0.215748  0.511195  1
  Rh  Rh22  1  0.750000  0.283725  0.012407  1
  Rh  Rh23  1  0.250000  0.715769  0.987108  1
  Rh  Rh24  1  0.250000  0.092050  0.980156  1
  Rh  Rh25  1  0.750000  0.908481  0.019935  1
  Rh  Rh26  1  0.750000  0.590655  0.518942  1
  Rh  Rh27  1  0.250000  0.407770  0.480168  1
  Rh  Rh28  1  0.250000  0.272451  0.677877  1
  Rh  Rh29  1  0.750000  0.728706  0.321871  1
  Rh  Rh30  1  0.750000  0.772322  0.821911  1
  Rh  Rh31  1  0.250000  0.227891  0.177448  1
  Rh  Rh32  1  0.250000  0.613419  0.198446  1
  Rh  Rh33  1  0.750000  0.386512  0.801261  1
  Rh  Rh34  1  0.750000  0.115311  0.301204  1
  Rh  Rh35  1  0.250000  0.885880  0.698693  1
