# generated using pymatgen
data_NdTcMo5S8
_symmetry_space_group_name_H-M   'P 1'
_cell_length_a   6.50731407
_cell_length_b   6.48769118
_cell_length_c   6.48955400
_cell_angle_alpha   89.90054889
_cell_angle_beta   89.90978570
_cell_angle_gamma   89.17615001
_symmetry_Int_Tables_number   1
_chemical_formula_structural   NdTcMo5S8
_chemical_formula_sum   'Nd1 Tc1 Mo5 S8'
_cell_volume   273.94331978
_cell_formula_units_Z   1
loop_
 _symmetry_equiv_pos_site_id
 _symmetry_equiv_pos_as_xyz
  1  'x, y, z'
loop_
 _atom_site_type_symbol
 _atom_site_label
 _atom_site_symmetry_multiplicity
 _atom_site_fract_x
 _atom_site_fract_y
 _atom_site_fract_z
 _atom_site_occupancy
  Nd  Nd0  1  0.007879  0.995680  0.998389  1
  Tc  Tc1  1  0.773221  0.579842  0.439032  1
  Mo  Mo2  1  0.436138  0.774654  0.581026  1
  Mo  Mo3  1  0.580388  0.440067  0.775002  1
  Mo  Mo4  1  0.224567  0.419469  0.561110  1
  Mo  Mo5  1  0.561689  0.225970  0.420318  1
  Mo  Mo6  1  0.418041  0.561563  0.226551  1
  S  S7  1  0.758616  0.758814  0.754743  1
  S  S8  1  0.241101  0.241324  0.239276  1
  S  S9  1  0.251553  0.628753  0.873524  1
  S  S10  1  0.874020  0.256292  0.627834  1
  S  S11  1  0.630911  0.869973  0.254792  1
  S  S12  1  0.748013  0.370730  0.129892  1
  S  S13  1  0.122524  0.749433  0.370909  1
  S  S14  1  0.371338  0.127436  0.747603  1
