# generated using pymatgen
data_LuTi5(Co5B2)2
_symmetry_space_group_name_H-M   'P 1'
_cell_length_a   8.56183997
_cell_length_b   8.56183997
_cell_length_c   3.06959800
_cell_angle_alpha   90.00000000
_cell_angle_beta   90.00000000
_cell_angle_gamma   89.34711217
_symmetry_Int_Tables_number   1
_chemical_formula_structural   LuTi5(Co5B2)2
_chemical_formula_sum   'Lu1 Ti5 Co10 B4'
_cell_volume   225.00259065
_cell_formula_units_Z   1
loop_
 _symmetry_equiv_pos_site_id
 _symmetry_equiv_pos_as_xyz
  1  'x, y, z'
loop_
 _atom_site_type_symbol
 _atom_site_label
 _atom_site_symmetry_multiplicity
 _atom_site_fract_x
 _atom_site_fract_y
 _atom_site_fract_z
 _atom_site_occupancy
  Lu  Lu0  1  0.824589  0.324589  0.000000  1
  Ti  Ti1  1  0.001190  0.998275  0.000000  1
  Ti  Ti2  1  0.498275  0.501190  0.000000  1
  Ti  Ti3  1  0.325036  0.173313  0.000000  1
  Ti  Ti4  1  0.673313  0.825036  0.000000  1
  Ti  Ti5  1  0.175704  0.675704  0.000000  1
  Co  Co6  1  0.494215  0.994215  0.500000  1
  Co  Co7  1  0.009819  0.509819  0.500000  1
  Co  Co8  1  0.084164  0.222080  0.500000  1
  Co  Co9  1  0.219336  0.926756  0.500000  1
  Co  Co10  1  0.770216  0.056854  0.500000  1
  Co  Co11  1  0.931554  0.783440  0.500000  1
  Co  Co12  1  0.426756  0.719336  0.500000  1
  Co  Co13  1  0.556854  0.270216  0.500000  1
  Co  Co14  1  0.722080  0.584164  0.500000  1
  Co  Co15  1  0.283440  0.431554  0.500000  1
  B  B16  1  0.611602  0.111602  0.000000  1
  B  B17  1  0.129766  0.384442  0.000000  1
  B  B18  1  0.884442  0.629766  0.000000  1
  B  B19  1  0.377649  0.877649  0.000000  1
