# generated using pymatgen
data_Lu3TlIn2(TeO6)3
_symmetry_space_group_name_H-M   'P 1'
_cell_length_a   9.07193300
_cell_length_b   9.06903349
_cell_length_c   5.03905726
_cell_angle_alpha   90.16851073
_cell_angle_beta   90.00000000
_cell_angle_gamma   120.01058760
_symmetry_Int_Tables_number   1
_chemical_formula_structural   Lu3TlIn2(TeO6)3
_chemical_formula_sum   'Lu3 Tl1 In2 Te3 O18'
_cell_volume   358.99790680
_cell_formula_units_Z   1
loop_
 _symmetry_equiv_pos_site_id
 _symmetry_equiv_pos_as_xyz
  1  'x, y, z'
loop_
 _atom_site_type_symbol
 _atom_site_label
 _atom_site_symmetry_multiplicity
 _atom_site_fract_x
 _atom_site_fract_y
 _atom_site_fract_z
 _atom_site_occupancy
  Lu  Lu0  1  0.626818  0.000000  0.000000  1
  Lu  Lu1  1  0.998521  0.623814  0.000137  1
  Lu  Lu2  1  0.374707  0.376186  0.999863  1
  Tl  Tl3  1  0.286768  0.000000  0.500000  1
  In  In4  1  0.000126  0.292145  0.500114  1
  In  In5  1  0.707980  0.707855  0.499886  1
  Te  Te6  1  0.997122  0.000000  0.000000  1
  Te  Te7  1  0.333786  0.665235  0.505749  1
  Te  Te8  1  0.668552  0.334765  0.494251  1
  O  O9  1  0.081105  0.875494  0.794042  1
  O  O10  1  0.117230  0.204998  0.783290  1
  O  O11  1  0.791895  0.911850  0.785435  1
  O  O12  1  0.205611  0.124506  0.205958  1
  O  O13  1  0.912232  0.795002  0.216710  1
  O  O14  1  0.880045  0.088150  0.214565  1
  O  O15  1  0.458699  0.587308  0.724802  1
  O  O16  1  0.413544  0.866254  0.729543  1
  O  O17  1  0.130212  0.541559  0.725542  1
  O  O18  1  0.871390  0.412692  0.275198  1
  O  O19  1  0.547289  0.133746  0.270457  1
  O  O20  1  0.588652  0.458441  0.274458  1
  O  O21  1  0.221076  0.754874  0.280963  1
  O  O22  1  0.238695  0.458953  0.286798  1
  O  O23  1  0.539806  0.777607  0.286469  1
  O  O24  1  0.466201  0.245126  0.719037  1
  O  O25  1  0.779740  0.541047  0.713202  1
  O  O26  1  0.762198  0.222393  0.713531  1
