# generated using pymatgen
data_Ca4Sb6Rh7
_symmetry_space_group_name_H-M   'P 1'
_cell_length_a   7.63176762
_cell_length_b   7.63176831
_cell_length_c   7.62143439
_cell_angle_alpha   109.46509714
_cell_angle_beta   109.46510934
_cell_angle_gamma   109.53831426
_symmetry_Int_Tables_number   1
_chemical_formula_structural   Ca4Sb6Rh7
_chemical_formula_sum   'Ca4 Sb6 Rh7'
_cell_volume   341.48417493
_cell_formula_units_Z   1
loop_
 _symmetry_equiv_pos_site_id
 _symmetry_equiv_pos_as_xyz
  1  'x, y, z'
loop_
 _atom_site_type_symbol
 _atom_site_label
 _atom_site_symmetry_multiplicity
 _atom_site_fract_x
 _atom_site_fract_y
 _atom_site_fract_z
 _atom_site_occupancy
  Ca  Ca0  1  0.000000  0.000000  0.500000  1
  Ca  Ca1  1  0.500000  0.500000  0.500000  1
  Ca  Ca2  1  0.500000  0.000000  0.000000  1
  Ca  Ca3  1  0.000000  0.500000  0.000000  1
  Sb  Sb4  1  0.318485  0.000153  0.318637  1
  Sb  Sb5  1  0.999847  0.681515  0.681363  1
  Sb  Sb6  1  0.681544  0.681544  0.000000  1
  Sb  Sb7  1  0.681515  0.999847  0.681363  1
  Sb  Sb8  1  0.000153  0.318485  0.318637  1
  Sb  Sb9  1  0.318456  0.318456  0.000000  1
  Rh  Rh10  1  0.249950  0.501288  0.751238  1
  Rh  Rh11  1  0.501288  0.249950  0.751238  1
  Rh  Rh12  1  0.750000  0.250000  0.500000  1
  Rh  Rh13  1  0.498712  0.750050  0.248762  1
  Rh  Rh14  1  0.000000  0.000000  0.000000  1
  Rh  Rh15  1  0.250000  0.750000  0.500000  1
  Rh  Rh16  1  0.750050  0.498712  0.248762  1
