# generated using pymatgen
data_CaGaNi3Sn
_symmetry_space_group_name_H-M   'P 1'
_cell_length_a   4.08102300
_cell_length_b   9.23096998
_cell_length_c   9.23752719
_cell_angle_alpha   119.97652084
_cell_angle_beta   90.00000000
_cell_angle_gamma   90.00000000
_symmetry_Int_Tables_number   1
_chemical_formula_structural   CaGaNi3Sn
_chemical_formula_sum   'Ca3 Ga3 Ni9 Sn3'
_cell_volume   301.44316705
_cell_formula_units_Z   3
loop_
 _symmetry_equiv_pos_site_id
 _symmetry_equiv_pos_as_xyz
  1  'x, y, z'
loop_
 _atom_site_type_symbol
 _atom_site_label
 _atom_site_symmetry_multiplicity
 _atom_site_fract_x
 _atom_site_fract_y
 _atom_site_fract_z
 _atom_site_occupancy
  Ca  Ca0  1  0.500000  0.333300  0.666717  1
  Ca  Ca1  1  0.500000  0.666584  0.333283  1
  Ca  Ca2  1  0.000000  0.000052  0.000000  1
  Ga  Ga3  1  0.500000  0.740784  0.000000  1
  Ga  Ga4  1  0.500000  0.259069  0.259102  1
  Ga  Ga5  1  0.500000  0.999966  0.740898  1
  Ni  Ni6  1  0.000000  0.207247  0.366234  1
  Ni  Ni7  1  0.000000  0.158997  0.792713  1
  Ni  Ni8  1  0.000000  0.633912  0.840942  1
  Ni  Ni9  1  0.000000  0.841013  0.633766  1
  Ni  Ni10  1  0.000000  0.366284  0.207287  1
  Ni  Ni11  1  0.000000  0.792970  0.159058  1
  Ni  Ni12  1  0.500000  0.280307  0.000000  1
  Ni  Ni13  1  0.500000  0.719637  0.719818  1
  Ni  Ni14  1  0.500000  0.999819  0.280182  1
  Sn  Sn15  1  0.000000  0.467711  0.000000  1
  Sn  Sn16  1  0.000000  0.532284  0.532318  1
  Sn  Sn17  1  0.000000  0.999966  0.467682  1
