# generated using pymatgen
data_Sm2BeRhBr
_symmetry_space_group_name_H-M   'P 1'
_cell_length_a   3.94261600
_cell_length_b   3.94261633
_cell_length_c   16.82409200
_cell_angle_alpha   90.00000000
_cell_angle_beta   90.00000000
_cell_angle_gamma   119.99999719
_symmetry_Int_Tables_number   1
_chemical_formula_structural   Sm2BeRhBr
_chemical_formula_sum   'Sm4 Be2 Rh2 Br2'
_cell_volume   226.48074008
_cell_formula_units_Z   2
loop_
 _symmetry_equiv_pos_site_id
 _symmetry_equiv_pos_as_xyz
  1  'x, y, z'
loop_
 _atom_site_type_symbol
 _atom_site_label
 _atom_site_symmetry_multiplicity
 _atom_site_fract_x
 _atom_site_fract_y
 _atom_site_fract_z
 _atom_site_occupancy
  Sm  Sm0  1  0.000000  0.000000  0.612497  1
  Sm  Sm1  1  0.000000  0.000000  0.388050  1
  Sm  Sm2  1  0.000000  0.000000  0.112497  1
  Sm  Sm3  1  0.000000  0.000000  0.888050  1
  Be  Be4  1  0.666667  0.333333  0.500524  1
  Be  Be5  1  0.333333  0.666667  0.000524  1
  Rh  Rh6  1  0.666667  0.333333  0.998924  1
  Rh  Rh7  1  0.333333  0.666667  0.498924  1
  Br  Br8  1  0.666667  0.333333  0.250004  1
  Br  Br9  1  0.333333  0.666667  0.750004  1
