# generated using pymatgen
data_Nd8Be2ZnSi12Rh
_symmetry_space_group_name_H-M   'P 1'
_cell_length_a   8.09619500
_cell_length_b   8.09619688
_cell_length_c   8.56326000
_cell_angle_alpha   90.00000000
_cell_angle_beta   90.00000000
_cell_angle_gamma   119.99998825
_symmetry_Int_Tables_number   1
_chemical_formula_structural   Nd8Be2ZnSi12Rh
_chemical_formula_sum   'Nd8 Be2 Zn1 Si12 Rh1'
_cell_volume   486.10695382
_cell_formula_units_Z   1
loop_
 _symmetry_equiv_pos_site_id
 _symmetry_equiv_pos_as_xyz
  1  'x, y, z'
loop_
 _atom_site_type_symbol
 _atom_site_label
 _atom_site_symmetry_multiplicity
 _atom_site_fract_x
 _atom_site_fract_y
 _atom_site_fract_z
 _atom_site_occupancy
  Nd  Nd0  1  0.500407  0.499593  0.753631  1
  Nd  Nd1  1  0.500541  0.499459  0.246384  1
  Nd  Nd2  1  0.999186  0.499593  0.753631  1
  Nd  Nd3  1  0.998917  0.499459  0.246384  1
  Nd  Nd4  1  0.500407  0.000814  0.753631  1
  Nd  Nd5  1  0.500541  0.001083  0.246384  1
  Nd  Nd6  1  0.000000  0.000000  0.752300  1
  Nd  Nd7  1  0.000000  0.000000  0.247721  1
  Be  Be8  1  0.666667  0.333333  0.999321  1
  Be  Be9  1  0.333333  0.666667  0.000604  1
  Zn  Zn10  1  0.333333  0.666667  0.499592  1
  Si  Si11  1  0.827586  0.172414  0.000034  1
  Si  Si12  1  0.172274  0.827726  0.000024  1
  Si  Si13  1  0.344830  0.172414  0.000034  1
  Si  Si14  1  0.162907  0.837093  0.499884  1
  Si  Si15  1  0.655450  0.827726  0.000024  1
  Si  Si16  1  0.829877  0.170123  0.500185  1
  Si  Si17  1  0.827586  0.655170  0.000034  1
  Si  Si18  1  0.674188  0.837093  0.499884  1
  Si  Si19  1  0.172274  0.344550  0.000024  1
  Si  Si20  1  0.340243  0.170123  0.500185  1
  Si  Si21  1  0.162907  0.325812  0.499884  1
  Si  Si22  1  0.829877  0.659757  0.500185  1
  Rh  Rh23  1  0.666667  0.333333  0.500038  1
