# generated using pymatgen
data_Ho4TmIn4IrPt
_symmetry_space_group_name_H-M   'P 1'
_cell_length_a   3.61529500
_cell_length_b   8.10609253
_cell_length_c   18.19260609
_cell_angle_alpha   89.97038890
_cell_angle_beta   90.00000000
_cell_angle_gamma   90.00000000
_symmetry_Int_Tables_number   1
_chemical_formula_structural   Ho4TmIn4IrPt
_chemical_formula_sum   'Ho8 Tm2 In8 Ir2 Pt2'
_cell_volume   533.15091110
_cell_formula_units_Z   2
loop_
 _symmetry_equiv_pos_site_id
 _symmetry_equiv_pos_as_xyz
  1  'x, y, z'
loop_
 _atom_site_type_symbol
 _atom_site_label
 _atom_site_symmetry_multiplicity
 _atom_site_fract_x
 _atom_site_fract_y
 _atom_site_fract_z
 _atom_site_occupancy
  Ho  Ho0  1  0.000000  0.383155  0.914035  1
  Ho  Ho1  1  0.000000  0.616845  0.085965  1
  Ho  Ho2  1  0.000000  0.236213  0.221936  1
  Ho  Ho3  1  0.000000  0.763787  0.778064  1
  Ho  Ho4  1  0.000000  0.248858  0.720079  1
  Ho  Ho5  1  0.000000  0.751142  0.279921  1
  Ho  Ho6  1  0.000000  0.000000  0.000000  1
  Ho  Ho7  1  0.000000  0.500000  0.500000  1
  Tm  Tm8  1  0.000000  0.114908  0.411721  1
  Tm  Tm9  1  0.000000  0.885092  0.588279  1
  In  In10  1  0.500000  0.423100  0.351122  1
  In  In11  1  0.500000  0.576900  0.648878  1
  In  In12  1  0.500000  0.074491  0.850651  1
  In  In13  1  0.500000  0.925509  0.149349  1
  In  In14  1  0.500000  0.292351  0.066548  1
  In  In15  1  0.500000  0.707649  0.933452  1
  In  In16  1  0.500000  0.206048  0.567192  1
  In  In17  1  0.500000  0.793952  0.432808  1
  Ir  Ir18  1  0.500000  0.022068  0.304246  1
  Ir  Ir19  1  0.500000  0.977932  0.695754  1
  Pt  Pt20  1  0.500000  0.477124  0.803424  1
  Pt  Pt21  1  0.500000  0.522876  0.196576  1
