# generated using pymatgen
data_Sm3Dy2Lu(Si3Ru)8
_symmetry_space_group_name_H-M   'P 1'
_cell_length_a   10.12711004
_cell_length_b   10.12647053
_cell_length_c   8.17585346
_cell_angle_alpha   90.05195956
_cell_angle_beta   89.97803680
_cell_angle_gamma   132.40895113
_symmetry_Int_Tables_number   1
_chemical_formula_structural   Sm3Dy2Lu(Si3Ru)8
_chemical_formula_sum   'Sm3 Dy2 Lu1 Si24 Ru8'
_cell_volume   619.06863852
_cell_formula_units_Z   1
loop_
 _symmetry_equiv_pos_site_id
 _symmetry_equiv_pos_as_xyz
  1  'x, y, z'
loop_
 _atom_site_type_symbol
 _atom_site_label
 _atom_site_symmetry_multiplicity
 _atom_site_fract_x
 _atom_site_fract_y
 _atom_site_fract_z
 _atom_site_occupancy
  Sm  Sm0  1  0.502552  0.002408  0.749612  1
  Sm  Sm1  1  0.997555  0.497344  0.250364  1
  Sm  Sm2  1  0.497252  0.997372  0.250400  1
  Dy  Dy3  1  0.999997  0.000000  0.999884  1
  Dy  Dy4  1  0.002306  0.502538  0.749583  1
  Lu  Lu5  1  0.500016  0.500012  0.500143  1
  Si  Si6  1  0.795302  0.206817  0.501102  1
  Si  Si7  1  0.293839  0.703924  0.998779  1
  Si  Si8  1  0.204630  0.793170  0.501124  1
  Si  Si9  1  0.706048  0.295924  0.998916  1
  Si  Si10  1  0.331922  0.332017  0.832930  1
  Si  Si11  1  0.668031  0.667993  0.167131  1
  Si  Si12  1  0.167399  0.167501  0.332772  1
  Si  Si13  1  0.832584  0.832480  0.667154  1
  Si  Si14  1  0.120016  0.886381  0.727841  1
  Si  Si15  1  0.113129  0.879359  0.271739  1
  Si  Si16  1  0.610621  0.377674  0.229120  1
  Si  Si17  1  0.622964  0.389989  0.771114  1
  Si  Si18  1  0.879138  0.112936  0.271758  1
  Si  Si19  1  0.887634  0.121510  0.728025  1
  Si  Si20  1  0.388787  0.621548  0.771313  1
  Si  Si21  1  0.378001  0.610829  0.229127  1
  Si  Si22  1  0.345006  0.112211  0.504886  1
  Si  Si23  1  0.888091  0.655568  0.496026  1
  Si  Si24  1  0.387156  0.154471  0.004813  1
  Si  Si25  1  0.845113  0.612438  0.994258  1
  Si  Si26  1  0.654868  0.887655  0.495252  1
  Si  Si27  1  0.111904  0.344711  0.505667  1
  Si  Si28  1  0.612717  0.845413  0.995143  1
  Si  Si29  1  0.155147  0.387546  0.004075  1
  Ru  Ru30  1  0.668209  0.334110  0.500785  1
  Ru  Ru31  1  0.167175  0.830459  0.998890  1
  Ru  Ru32  1  0.331817  0.665935  0.501088  1
  Ru  Ru33  1  0.832875  0.169592  0.999184  1
  Ru  Ru34  1  0.126871  0.126959  0.625169  1
  Ru  Ru35  1  0.873120  0.873273  0.374657  1
  Ru  Ru36  1  0.375134  0.374912  0.128247  1
  Ru  Ru37  1  0.625074  0.625022  0.871927  1
