# generated using pymatgen
data_Tb16MgIn2Ir4Au
_symmetry_space_group_name_H-M   'P 1'
_cell_length_a   9.65328558
_cell_length_b   9.65961493
_cell_length_c   9.65961531
_cell_angle_alpha   60.02233701
_cell_angle_beta   60.14042527
_cell_angle_gamma   60.14041935
_symmetry_Int_Tables_number   1
_chemical_formula_structural   Tb16MgIn2Ir4Au
_chemical_formula_sum   'Tb16 Mg1 In2 Ir4 Au1'
_cell_volume   638.36916536
_cell_formula_units_Z   1
loop_
 _symmetry_equiv_pos_site_id
 _symmetry_equiv_pos_as_xyz
  1  'x, y, z'
loop_
 _atom_site_type_symbol
 _atom_site_label
 _atom_site_symmetry_multiplicity
 _atom_site_fract_x
 _atom_site_fract_y
 _atom_site_fract_z
 _atom_site_occupancy
  Tb  Tb0  1  0.100711  0.702389  0.099727  1
  Tb  Tb1  1  0.940404  0.939511  0.559636  1
  Tb  Tb2  1  0.940404  0.559636  0.939511  1
  Tb  Tb3  1  0.311004  0.683112  0.310998  1
  Tb  Tb4  1  0.936525  0.560770  0.560770  1
  Tb  Tb5  1  0.311004  0.310998  0.683112  1
  Tb  Tb6  1  0.099352  0.097623  0.097623  1
  Tb  Tb7  1  0.557389  0.557670  0.939676  1
  Tb  Tb8  1  0.100711  0.099727  0.702389  1
  Tb  Tb9  1  0.687795  0.309277  0.689026  1
  Tb  Tb10  1  0.687795  0.689026  0.309277  1
  Tb  Tb11  1  0.684132  0.310417  0.310417  1
  Tb  Tb12  1  0.310327  0.688780  0.688780  1
  Tb  Tb13  1  0.557389  0.939676  0.557670  1
  Tb  Tb14  1  0.698798  0.101002  0.101002  1
  Tb  Tb15  1  0.556942  0.942332  0.942332  1
  Mg  Mg16  1  0.022178  0.327546  0.327546  1
  In  In17  1  0.331004  0.005541  0.333096  1
  In  In18  1  0.331004  0.333096  0.005541  1
  Ir  Ir19  1  0.890836  0.892619  0.892619  1
  Ir  Ir20  1  0.891245  0.892510  0.325548  1
  Ir  Ir21  1  0.326564  0.891578  0.891578  1
  Ir  Ir22  1  0.891245  0.325548  0.892510  1
  Au  Au23  1  0.335237  0.339612  0.339612  1
