# generated using pymatgen
data_La14Pr2Cd4RuPt3
_symmetry_space_group_name_H-M   'P 1'
_cell_length_a   10.19114705
_cell_length_b   10.19098858
_cell_length_c   10.19463302
_cell_angle_alpha   59.66564699
_cell_angle_beta   59.67143074
_cell_angle_gamma   59.70759107
_symmetry_Int_Tables_number   1
_chemical_formula_structural   La14Pr2Cd4RuPt3
_chemical_formula_sum   'La14 Pr2 Cd4 Ru1 Pt3'
_cell_volume   743.26320779
_cell_formula_units_Z   1
loop_
 _symmetry_equiv_pos_site_id
 _symmetry_equiv_pos_as_xyz
  1  'x, y, z'
loop_
 _atom_site_type_symbol
 _atom_site_label
 _atom_site_symmetry_multiplicity
 _atom_site_fract_x
 _atom_site_fract_y
 _atom_site_fract_z
 _atom_site_occupancy
  La  La0  1  0.350802  0.350728  0.350396  1
  La  La1  1  0.346215  0.346188  0.955617  1
  La  La2  1  0.345867  0.955401  0.346154  1
  La  La3  1  0.955404  0.345839  0.346143  1
  La  La4  1  0.816987  0.189243  0.189039  1
  La  La5  1  0.191081  0.807439  0.807401  1
  La  La6  1  0.189269  0.817019  0.189035  1
  La  La7  1  0.807440  0.191128  0.807387  1
  La  La8  1  0.189101  0.189168  0.816960  1
  La  La9  1  0.807597  0.807589  0.190852  1
  La  La10  1  0.936544  0.563912  0.563963  1
  La  La11  1  0.558512  0.937139  0.936934  1
  La  La12  1  0.563922  0.936605  0.563927  1
  La  La13  1  0.937100  0.558502  0.936982  1
  Pr  Pr14  1  0.562863  0.562869  0.937442  1
  Pr  Pr15  1  0.937456  0.937421  0.558676  1
  Cd  Cd16  1  0.579327  0.579326  0.579739  1
  Cd  Cd17  1  0.579957  0.579943  0.259778  1
  Cd  Cd18  1  0.580469  0.259911  0.579855  1
  Cd  Cd19  1  0.259910  0.580462  0.579863  1
  Ru  Ru20  1  0.142015  0.142032  0.141673  1
  Pt  Pt21  1  0.144330  0.144316  0.573473  1
  Pt  Pt22  1  0.144333  0.573493  0.144351  1
  Pt  Pt23  1  0.573499  0.144326  0.144355  1
