# generated using pymatgen
data_Ti6GeAsN2
_symmetry_space_group_name_H-M   'P 1'
_cell_length_a   5.47350420
_cell_length_b   5.47350375
_cell_length_c   8.05347600
_cell_angle_alpha   90.00000000
_cell_angle_beta   90.00000000
_cell_angle_gamma   145.92569327
_symmetry_Int_Tables_number   1
_chemical_formula_structural   Ti6GeAsN2
_chemical_formula_sum   'Ti6 Ge1 As1 N2'
_cell_volume   135.17916511
_cell_formula_units_Z   1
loop_
 _symmetry_equiv_pos_site_id
 _symmetry_equiv_pos_as_xyz
  1  'x, y, z'
loop_
 _atom_site_type_symbol
 _atom_site_label
 _atom_site_symmetry_multiplicity
 _atom_site_fract_x
 _atom_site_fract_y
 _atom_site_fract_z
 _atom_site_occupancy
  Ti  Ti0  1  0.950684  0.049316  0.250000  1
  Ti  Ti1  1  0.053161  0.946839  0.750000  1
  Ti  Ti2  1  0.627128  0.372872  0.451924  1
  Ti  Ti3  1  0.371249  0.628751  0.551449  1
  Ti  Ti4  1  0.627128  0.372872  0.048076  1
  Ti  Ti5  1  0.371249  0.628751  0.948551  1
  Ge  Ge6  1  0.253732  0.746268  0.250000  1
  As  As7  1  0.746076  0.253924  0.750000  1
  N  N8  1  0.999797  0.000203  0.501153  1
  N  N9  1  0.999797  0.000203  0.998847  1
