# generated using pymatgen
data_TbY3Ga18(RuPt)3
_symmetry_space_group_name_H-M   'P 1'
_cell_length_a   7.60379038
_cell_length_b   7.60430281
_cell_length_c   9.56225262
_cell_angle_alpha   89.99114085
_cell_angle_beta   89.99666488
_cell_angle_gamma   119.86111090
_symmetry_Int_Tables_number   1
_chemical_formula_structural   TbY3Ga18(RuPt)3
_chemical_formula_sum   'Tb1 Y3 Ga18 Ru3 Pt3'
_cell_volume   479.49765186
_cell_formula_units_Z   1
loop_
 _symmetry_equiv_pos_site_id
 _symmetry_equiv_pos_as_xyz
  1  'x, y, z'
loop_
 _atom_site_type_symbol
 _atom_site_label
 _atom_site_symmetry_multiplicity
 _atom_site_fract_x
 _atom_site_fract_y
 _atom_site_fract_z
 _atom_site_occupancy
  Tb  Tb0  1  0.330936  0.004953  0.749109  1
  Y  Y1  1  0.995086  0.669147  0.250919  1
  Y  Y2  1  0.002354  0.329049  0.749261  1
  Y  Y3  1  0.670923  0.997661  0.250715  1
  Ga  Ga4  1  0.135967  0.133697  0.249899  1
  Ga  Ga5  1  0.866343  0.863863  0.750117  1
  Ga  Ga6  1  0.005864  0.339619  0.081083  1
  Ga  Ga7  1  0.005448  0.665564  0.919049  1
  Ga  Ga8  1  0.001075  0.660340  0.578215  1
  Ga  Ga9  1  0.339588  0.998971  0.421799  1
  Ga  Ga10  1  0.000980  0.339367  0.420461  1
  Ga  Ga11  1  0.660727  0.998990  0.579588  1
  Ga  Ga12  1  0.660415  0.994140  0.918850  1
  Ga  Ga13  1  0.334344  0.994551  0.080909  1
  Ga  Ga14  1  0.339683  0.339716  0.564036  1
  Ga  Ga15  1  0.660332  0.660281  0.436000  1
  Ga  Ga16  1  0.659349  0.665367  0.068170  1
  Ga  Ga17  1  0.334607  0.340645  0.931741  1
  Ga  Ga18  1  0.337107  0.552349  0.250681  1
  Ga  Ga19  1  0.664281  0.454823  0.745933  1
  Ga  Ga20  1  0.545166  0.335615  0.254055  1
  Ga  Ga21  1  0.447687  0.662984  0.749365  1
  Ru  Ru22  1  0.328425  0.671560  0.000059  1
  Ru  Ru23  1  0.328388  0.671747  0.499992  1
  Ru  Ru24  1  0.672848  0.327098  0.499985  1
  Pt  Pt25  1  0.671626  0.328352  0.999989  1
  Pt  Pt26  1  0.000363  0.999636  0.999974  1
  Pt  Pt27  1  0.000089  0.999919  0.500044  1
