# generated using pymatgen
data_La8TbNdCo4
_symmetry_space_group_name_H-M   'P 1'
_cell_length_a   9.11733153
_cell_length_b   9.11733261
_cell_length_c   7.07548294
_cell_angle_alpha   86.09273854
_cell_angle_beta   86.09273018
_cell_angle_gamma   42.51769279
_symmetry_Int_Tables_number   1
_chemical_formula_structural   La8TbNdCo4
_chemical_formula_sum   'La8 Tb1 Nd1 Co4'
_cell_volume   396.42156794
_cell_formula_units_Z   1
loop_
 _symmetry_equiv_pos_site_id
 _symmetry_equiv_pos_as_xyz
  1  'x, y, z'
loop_
 _atom_site_type_symbol
 _atom_site_label
 _atom_site_symmetry_multiplicity
 _atom_site_fract_x
 _atom_site_fract_y
 _atom_site_fract_z
 _atom_site_occupancy
  La  La0  1  0.014268  0.799207  0.899083  1
  La  La1  1  0.200793  0.985732  0.600917  1
  La  La2  1  0.985105  0.202126  0.099117  1
  La  La3  1  0.797874  0.014895  0.400883  1
  La  La4  1  0.361079  0.219436  0.832050  1
  La  La5  1  0.780564  0.638921  0.667950  1
  La  La6  1  0.639227  0.781908  0.167355  1
  La  La7  1  0.218092  0.360773  0.332645  1
  Tb  Tb8  1  0.569882  0.430118  0.750000  1
  Nd  Nd9  1  0.429960  0.570040  0.250000  1
  Co  Co10  1  0.179812  0.601302  0.583023  1
  Co  Co11  1  0.398698  0.820188  0.916977  1
  Co  Co12  1  0.821818  0.397173  0.420590  1
  Co  Co13  1  0.602827  0.178182  0.079410  1
