# generated using pymatgen
data_Tb16CdNi4Ag3
_symmetry_space_group_name_H-M   'P 1'
_cell_length_a   9.47009099
_cell_length_b   9.55003784
_cell_length_c   9.55003800
_cell_angle_alpha   59.99999944
_cell_angle_beta   59.72034399
_cell_angle_gamma   59.72034278
_symmetry_Int_Tables_number   1
_chemical_formula_structural   Tb16CdNi4Ag3
_chemical_formula_sum   'Tb16 Cd1 Ni4 Ag3'
_cell_volume   608.13582168
_cell_formula_units_Z   1
loop_
 _symmetry_equiv_pos_site_id
 _symmetry_equiv_pos_as_xyz
  1  'x, y, z'
loop_
 _atom_site_type_symbol
 _atom_site_label
 _atom_site_symmetry_multiplicity
 _atom_site_fract_x
 _atom_site_fract_y
 _atom_site_fract_z
 _atom_site_occupancy
  Tb  Tb0  1  0.350406  0.349095  0.349095  1
  Tb  Tb1  1  0.350406  0.349095  0.951404  1
  Tb  Tb2  1  0.350406  0.951404  0.349095  1
  Tb  Tb3  1  0.946172  0.351276  0.351276  1
  Tb  Tb4  1  0.810622  0.189215  0.189215  1
  Tb  Tb5  1  0.188574  0.810937  0.810937  1
  Tb  Tb6  1  0.188574  0.810937  0.189551  1
  Tb  Tb7  1  0.810622  0.189215  0.810949  1
  Tb  Tb8  1  0.188574  0.189551  0.810937  1
  Tb  Tb9  1  0.810622  0.810949  0.189215  1
  Tb  Tb10  1  0.933127  0.564601  0.564601  1
  Tb  Tb11  1  0.564290  0.935735  0.935735  1
  Tb  Tb12  1  0.564290  0.935735  0.564239  1
  Tb  Tb13  1  0.933127  0.564601  0.937671  1
  Tb  Tb14  1  0.564290  0.564239  0.935735  1
  Tb  Tb15  1  0.933127  0.937671  0.564601  1
  Cd  Cd16  1  0.266246  0.577918  0.577918  1
  Ni  Ni17  1  0.142675  0.143320  0.143320  1
  Ni  Ni18  1  0.142675  0.143320  0.570684  1
  Ni  Ni19  1  0.142675  0.570684  0.143320  1
  Ni  Ni20  1  0.571809  0.142730  0.142730  1
  Ag  Ag21  1  0.582230  0.582731  0.582731  1
  Ag  Ag22  1  0.582230  0.582731  0.252306  1
  Ag  Ag23  1  0.582230  0.252306  0.582731  1
