# generated using pymatgen
data_Ti4Ga2B4Ru9Rh
_symmetry_space_group_name_H-M   'P 1'
_cell_length_a   9.22246965
_cell_length_b   2.98942500
_cell_length_c   9.25893464
_cell_angle_alpha   90.00000000
_cell_angle_beta   90.04283272
_cell_angle_gamma   90.00000000
_symmetry_Int_Tables_number   1
_chemical_formula_structural   Ti4Ga2B4Ru9Rh
_chemical_formula_sum   'Ti4 Ga2 B4 Ru9 Rh1'
_cell_volume   255.26765800
_cell_formula_units_Z   1
loop_
 _symmetry_equiv_pos_site_id
 _symmetry_equiv_pos_as_xyz
  1  'x, y, z'
loop_
 _atom_site_type_symbol
 _atom_site_label
 _atom_site_symmetry_multiplicity
 _atom_site_fract_x
 _atom_site_fract_y
 _atom_site_fract_z
 _atom_site_occupancy
  Ti  Ti0  1  0.672758  0.000000  0.179658  1
  Ti  Ti1  1  0.174989  0.000000  0.325223  1
  Ti  Ti2  1  0.825694  0.000000  0.668579  1
  Ti  Ti3  1  0.323901  0.000000  0.825419  1
  Ga  Ga4  1  0.000747  0.000000  0.000064  1
  Ga  Ga5  1  0.499937  0.000000  0.500052  1
  B  B6  1  0.374543  0.000000  0.126392  1
  B  B7  1  0.874627  0.000000  0.374049  1
  B  B8  1  0.125097  0.000000  0.625453  1
  B  B9  1  0.620972  0.000000  0.872994  1
  Ru  Ru10  1  0.501713  0.500001  0.000782  1
  Ru  Ru11  1  0.214440  0.500001  0.072186  1
  Ru  Ru12  1  0.928199  0.500001  0.213499  1
  Ru  Ru13  1  0.428934  0.500001  0.286471  1
  Ru  Ru14  1  0.713637  0.500001  0.428180  1
  Ru  Ru15  1  0.000476  0.500001  0.499429  1
  Ru  Ru16  1  0.286790  0.500001  0.573383  1
  Ru  Ru17  1  0.573015  0.500001  0.713870  1
  Ru  Ru18  1  0.072350  0.500001  0.786420  1
  Rh  Rh19  1  0.787178  0.500001  0.927893  1
