# generated using pymatgen
data_Tb6Sm2Hf12Si15Au
_symmetry_space_group_name_H-M   'P 1'
_cell_length_a   7.30576682
_cell_length_b   7.35612718
_cell_length_c   13.47115238
_cell_angle_alpha   89.95580711
_cell_angle_beta   89.94435356
_cell_angle_gamma   90.03107464
_symmetry_Int_Tables_number   1
_chemical_formula_structural   Tb6Sm2Hf12Si15Au
_chemical_formula_sum   'Tb6 Sm2 Hf12 Si15 Au1'
_cell_volume   723.96802639
_cell_formula_units_Z   1
loop_
 _symmetry_equiv_pos_site_id
 _symmetry_equiv_pos_as_xyz
  1  'x, y, z'
loop_
 _atom_site_type_symbol
 _atom_site_label
 _atom_site_symmetry_multiplicity
 _atom_site_fract_x
 _atom_site_fract_y
 _atom_site_fract_z
 _atom_site_occupancy
  Tb  Tb0  1  0.154764  0.498715  0.466802  1
  Tb  Tb1  1  0.504110  0.842928  0.033448  1
  Tb  Tb2  1  0.843619  0.502350  0.964847  1
  Tb  Tb3  1  0.497334  0.153770  0.537714  1
  Tb  Tb4  1  0.343589  0.998067  0.785108  1
  Tb  Tb5  1  0.661533  0.996801  0.283726  1
  Sm  Sm6  1  0.990608  0.345900  0.214390  1
  Sm  Sm7  1  0.005703  0.656126  0.715483  1
  Hf  Hf8  1  0.175425  0.176160  0.998832  1
  Hf  Hf9  1  0.825845  0.825250  0.500420  1
  Hf  Hf10  1  0.325805  0.681380  0.249067  1
  Hf  Hf11  1  0.675088  0.323848  0.750287  1
  Hf  Hf12  1  0.147356  0.996706  0.374991  1
  Hf  Hf13  1  0.850820  0.004145  0.874518  1
  Hf  Hf14  1  0.505227  0.650114  0.624700  1
  Hf  Hf15  1  0.351623  0.494304  0.875090  1
  Hf  Hf16  1  0.494362  0.350354  0.121327  1
  Hf  Hf17  1  0.651630  0.511229  0.380483  1
  Hf  Hf18  1  0.995428  0.149155  0.626573  1
  Hf  Hf19  1  0.001877  0.848768  0.123609  1
  Si  Si20  1  0.635727  0.706256  0.818399  1
  Si  Si21  1  0.205761  0.864543  0.566728  1
  Si  Si22  1  0.137560  0.796138  0.932638  1
  Si  Si23  1  0.794225  0.135883  0.065251  1
  Si  Si24  1  0.860451  0.200251  0.435707  1
  Si  Si25  1  0.297001  0.362101  0.683059  1
  Si  Si26  1  0.702735  0.639323  0.181946  1
  Si  Si27  1  0.292593  0.044476  0.181687  1
  Si  Si28  1  0.704986  0.951484  0.685805  1
  Si  Si29  1  0.448760  0.794903  0.435559  1
  Si  Si30  1  0.206227  0.550954  0.063246  1
  Si  Si31  1  0.548536  0.204940  0.934487  1
  Si  Si32  1  0.793313  0.448531  0.566128  1
  Si  Si33  1  0.048590  0.293540  0.815441  1
  Si  Si34  1  0.951321  0.706702  0.314100  1
  Au  Au35  1  0.370468  0.293903  0.318402  1
