# generated using pymatgen
data_La20Ir10PtRh
_symmetry_space_group_name_H-M   'P 1'
_cell_length_a   11.35238608
_cell_length_b   11.35380819
_cell_length_c   6.81171529
_cell_angle_alpha   90.05117338
_cell_angle_beta   90.04845110
_cell_angle_gamma   90.01205082
_symmetry_Int_Tables_number   1
_chemical_formula_structural   La20Ir10PtRh
_chemical_formula_sum   'La20 Ir10 Pt1 Rh1'
_cell_volume   877.98046857
_cell_formula_units_Z   1
loop_
 _symmetry_equiv_pos_site_id
 _symmetry_equiv_pos_as_xyz
  1  'x, y, z'
loop_
 _atom_site_type_symbol
 _atom_site_label
 _atom_site_symmetry_multiplicity
 _atom_site_fract_x
 _atom_site_fract_y
 _atom_site_fract_z
 _atom_site_occupancy
  La  La0  1  0.292629  0.092279  0.391616  1
  La  La1  1  0.293017  0.907148  0.888432  1
  La  La2  1  0.704742  0.091174  0.882215  1
  La  La3  1  0.705747  0.904754  0.392773  1
  La  La4  1  0.592434  0.792567  0.889532  1
  La  La5  1  0.588273  0.207505  0.393403  1
  La  La6  1  0.407219  0.793342  0.392139  1
  La  La7  1  0.407069  0.207375  0.889392  1
  La  La8  1  0.206275  0.408227  0.609640  1
  La  La9  1  0.205906  0.592878  0.109987  1
  La  La10  1  0.793330  0.411572  0.108832  1
  La  La11  1  0.793761  0.592209  0.609772  1
  La  La12  1  0.907689  0.706612  0.110462  1
  La  La13  1  0.909565  0.296346  0.616545  1
  La  La14  1  0.092137  0.705888  0.610710  1
  La  La15  1  0.095071  0.295032  0.109440  1
  La  La16  1  0.002387  0.997310  0.502072  1
  La  La17  1  0.002683  0.997656  0.998113  1
  La  La18  1  0.499745  0.500225  0.999929  1
  La  La19  1  0.499827  0.500280  0.500081  1
  Ir  Ir20  1  0.846864  0.847989  0.749441  1
  Ir  Ir21  1  0.152396  0.152736  0.749333  1
  Ir  Ir22  1  0.154220  0.847808  0.250029  1
  Ir  Ir23  1  0.654014  0.345587  0.749379  1
  Ir  Ir24  1  0.652392  0.654122  0.250092  1
  Ir  Ir25  1  0.347932  0.345585  0.249996  1
  Ir  Ir26  1  0.346934  0.653388  0.749444  1
  Ir  Ir27  1  0.500545  0.000500  0.622730  1
  Ir  Ir28  1  0.999512  0.499481  0.880093  1
  Ir  Ir29  1  0.999657  0.498708  0.380052  1
  Pt  Pt30  1  0.844843  0.153400  0.250135  1
  Rh  Rh31  1  0.501183  0.000316  0.114196  1
