# generated using pymatgen
data_Er12InFe4Pb
_symmetry_space_group_name_H-M   'P 1'
_cell_length_a   8.36220413
_cell_length_b   8.36220297
_cell_length_c   8.36220364
_cell_angle_alpha   107.09766478
_cell_angle_beta   109.99948631
_cell_angle_gamma   111.34525388
_symmetry_Int_Tables_number   1
_chemical_formula_structural   Er12InFe4Pb
_chemical_formula_sum   'Er12 In1 Fe4 Pb1'
_cell_volume   449.49122121
_cell_formula_units_Z   1
loop_
 _symmetry_equiv_pos_site_id
 _symmetry_equiv_pos_as_xyz
  1  'x, y, z'
loop_
 _atom_site_type_symbol
 _atom_site_label
 _atom_site_symmetry_multiplicity
 _atom_site_fract_x
 _atom_site_fract_y
 _atom_site_fract_z
 _atom_site_occupancy
  Er  Er0  1  0.716623  0.271849  0.988472  1
  Er  Er1  1  0.283377  0.728151  0.011528  1
  Er  Er2  1  0.716623  0.728151  0.444775  1
  Er  Er3  1  0.283377  0.271849  0.555225  1
  Er  Er4  1  0.800010  0.110607  0.310597  1
  Er  Er5  1  0.800010  0.489414  0.689403  1
  Er  Er6  1  0.199990  0.889393  0.689403  1
  Er  Er7  1  0.199990  0.510586  0.310597  1
  Er  Er8  1  0.600929  0.788298  0.812630  1
  Er  Er9  1  0.975667  0.788298  0.187370  1
  Er  Er10  1  0.024333  0.211702  0.812630  1
  Er  Er11  1  0.399071  0.211702  0.187370  1
  In  In12  1  0.500000  0.500000  0.000000  1
  Fe  Fe13  1  0.886609  0.500000  0.386609  1
  Fe  Fe14  1  0.113391  0.500000  0.613391  1
  Fe  Fe15  1  0.000000  0.108177  0.108177  1
  Fe  Fe16  1  0.000000  0.891823  0.891823  1
  Pb  Pb17  1  0.500000  0.000000  0.500000  1
