# generated using pymatgen
data_Rb12Na8Sn4As11P
_symmetry_space_group_name_H-M   'P 1'
_cell_length_a   11.02259217
_cell_length_b   11.02259102
_cell_length_c   16.17859724
_cell_angle_alpha   89.99377371
_cell_angle_beta   89.99377196
_cell_angle_gamma   143.14899149
_symmetry_Int_Tables_number   1
_chemical_formula_structural   Rb12Na8Sn4As11P
_chemical_formula_sum   'Rb12 Na8 Sn4 As11 P1'
_cell_volume   1178.87715655
_cell_formula_units_Z   1
loop_
 _symmetry_equiv_pos_site_id
 _symmetry_equiv_pos_as_xyz
  1  'x, y, z'
loop_
 _atom_site_type_symbol
 _atom_site_label
 _atom_site_symmetry_multiplicity
 _atom_site_fract_x
 _atom_site_fract_y
 _atom_site_fract_z
 _atom_site_occupancy
  Rb  Rb0  1  0.938764  0.605077  0.826724  1
  Rb  Rb1  1  0.561193  0.894397  0.327016  1
  Rb  Rb2  1  0.394965  0.061144  0.173163  1
  Rb  Rb3  1  0.061144  0.394965  0.173163  1
  Rb  Rb4  1  0.894397  0.561193  0.327016  1
  Rb  Rb5  1  0.438167  0.104856  0.672522  1
  Rb  Rb6  1  0.605077  0.938764  0.826724  1
  Rb  Rb7  1  0.262696  0.262696  0.323120  1
  Rb  Rb8  1  0.764606  0.764606  0.178336  1
  Rb  Rb9  1  0.235352  0.235352  0.822607  1
  Rb  Rb10  1  0.735390  0.735390  0.677275  1
  Rb  Rb11  1  0.104856  0.438167  0.672522  1
  Na  Na12  1  0.919041  0.080948  0.000018  1
  Na  Na13  1  0.582028  0.421530  0.499298  1
  Na  Na14  1  0.080948  0.919041  0.000018  1
  Na  Na15  1  0.421530  0.582028  0.499298  1
  Na  Na16  1  0.754252  0.245753  0.000014  1
  Na  Na17  1  0.745814  0.254055  0.500064  1
  Na  Na18  1  0.245753  0.754252  0.000014  1
  Na  Na19  1  0.254055  0.745814  0.500064  1
  Sn  Sn20  1  0.588458  0.411534  0.000033  1
  Sn  Sn21  1  0.911135  0.084838  0.499053  1
  Sn  Sn22  1  0.411534  0.588458  0.000033  1
  Sn  Sn23  1  0.084838  0.911135  0.499053  1
  As  As24  1  0.880462  0.563200  0.101009  1
  As  As25  1  0.436997  0.119475  0.899094  1
  As  As26  1  0.620103  0.936360  0.599915  1
  As  As27  1  0.936360  0.620103  0.599915  1
  As  As28  1  0.119475  0.436997  0.899094  1
  As  As29  1  0.563200  0.880462  0.101009  1
  As  As30  1  0.378030  0.062042  0.398893  1
  As  As31  1  0.205808  0.205808  0.590279  1
  As  As32  1  0.704959  0.704959  0.909165  1
  As  As33  1  0.295088  0.295088  0.091035  1
  As  As34  1  0.062042  0.378030  0.398893  1
  P  P35  1  0.801484  0.801484  0.414550  1
