# generated using pymatgen
data_Hf2Sc2Si6Ir7
_symmetry_space_group_name_H-M   'P 1'
_cell_length_a   6.99610956
_cell_length_b   6.98589971
_cell_length_c   6.98590049
_cell_angle_alpha   109.39639776
_cell_angle_beta   109.47902574
_cell_angle_gamma   109.47902587
_symmetry_Int_Tables_number   1
_chemical_formula_structural   Hf2Sc2Si6Ir7
_chemical_formula_sum   'Hf2 Sc2 Si6 Ir7'
_cell_volume   263.02449034
_cell_formula_units_Z   1
loop_
 _symmetry_equiv_pos_site_id
 _symmetry_equiv_pos_as_xyz
  1  'x, y, z'
loop_
 _atom_site_type_symbol
 _atom_site_label
 _atom_site_symmetry_multiplicity
 _atom_site_fract_x
 _atom_site_fract_y
 _atom_site_fract_z
 _atom_site_occupancy
  Hf  Hf0  1  0.000000  0.000000  0.500000  1
  Hf  Hf1  1  0.000000  0.500000  0.000000  1
  Sc  Sc2  1  0.500000  0.000000  0.000000  1
  Sc  Sc3  1  0.500000  0.500000  0.500000  1
  Si  Si4  1  0.678707  0.681952  0.996755  1
  Si  Si5  1  0.321293  0.003245  0.318048  1
  Si  Si6  1  0.000000  0.318151  0.318151  1
  Si  Si7  1  0.321293  0.318048  0.003245  1
  Si  Si8  1  0.678707  0.996755  0.681952  1
  Si  Si9  1  0.000000  0.681849  0.681849  1
  Ir  Ir10  1  0.751013  0.249939  0.501074  1
  Ir  Ir11  1  0.751013  0.501074  0.249939  1
  Ir  Ir12  1  0.500000  0.250000  0.750000  1
  Ir  Ir13  1  0.248987  0.498926  0.750061  1
  Ir  Ir14  1  0.248987  0.750061  0.498926  1
  Ir  Ir15  1  0.500000  0.750000  0.250000  1
  Ir  Ir16  1  0.000000  0.000000  0.000000  1
