# generated using pymatgen
data_TbHoNpFe2Si7
_symmetry_space_group_name_H-M   'P 1'
_cell_length_a   12.33484179
_cell_length_b   12.33484084
_cell_length_c   4.00584300
_cell_angle_alpha   90.00000000
_cell_angle_beta   90.00000000
_cell_angle_gamma   161.27285765
_symmetry_Int_Tables_number   1
_chemical_formula_structural   TbHoNpFe2Si7
_chemical_formula_sum   'Tb1 Ho1 Np1 Fe2 Si7'
_cell_volume   195.68138723
_cell_formula_units_Z   1
loop_
 _symmetry_equiv_pos_site_id
 _symmetry_equiv_pos_as_xyz
  1  'x, y, z'
loop_
 _atom_site_type_symbol
 _atom_site_label
 _atom_site_symmetry_multiplicity
 _atom_site_fract_x
 _atom_site_fract_y
 _atom_site_fract_z
 _atom_site_occupancy
  Tb  Tb0  1  0.467526  0.532474  0.500000  1
  Ho  Ho1  1  0.098752  0.901248  0.500000  1
  Np  Np2  1  0.782949  0.217051  0.000000  1
  Fe  Fe3  1  0.655920  0.344080  0.000000  1
  Fe  Fe4  1  0.909907  0.090093  0.000000  1
  Si  Si5  1  0.368694  0.631306  0.000000  1
  Si  Si6  1  0.561515  0.438485  0.000000  1
  Si  Si7  1  0.868009  0.131991  0.500000  1
  Si  Si8  1  0.004882  0.995118  0.000000  1
  Si  Si9  1  0.197200  0.802800  0.000000  1
  Si  Si10  1  0.283509  0.716491  0.500000  1
  Si  Si11  1  0.697836  0.302164  0.500000  1
