# generated using pymatgen
data_ScFe4P3W
_symmetry_space_group_name_H-M   'P 1'
_cell_length_a   3.63703300
_cell_length_b   10.28600900
_cell_length_c   11.88896800
_cell_angle_alpha   90.00000000
_cell_angle_beta   90.00000000
_cell_angle_gamma   90.00000000
_symmetry_Int_Tables_number   1
_chemical_formula_structural   ScFe4P3W
_chemical_formula_sum   'Sc4 Fe16 P12 W4'
_cell_volume   444.77288140
_cell_formula_units_Z   4
loop_
 _symmetry_equiv_pos_site_id
 _symmetry_equiv_pos_as_xyz
  1  'x, y, z'
loop_
 _atom_site_type_symbol
 _atom_site_label
 _atom_site_symmetry_multiplicity
 _atom_site_fract_x
 _atom_site_fract_y
 _atom_site_fract_z
 _atom_site_occupancy
  Sc  Sc0  1  0.250000  0.581596  0.708047  1
  Sc  Sc1  1  0.250000  0.918404  0.208047  1
  Sc  Sc2  1  0.750000  0.418404  0.291953  1
  Sc  Sc3  1  0.750000  0.081596  0.791953  1
  Fe  Fe4  1  0.250000  0.408427  0.489131  1
  Fe  Fe5  1  0.250000  0.091573  0.989131  1
  Fe  Fe6  1  0.750000  0.591573  0.510869  1
  Fe  Fe7  1  0.750000  0.908427  0.010869  1
  Fe  Fe8  1  0.250000  0.218782  0.175819  1
  Fe  Fe9  1  0.250000  0.281219  0.675819  1
  Fe  Fe10  1  0.750000  0.781219  0.824181  1
  Fe  Fe11  1  0.750000  0.718781  0.324181  1
  Fe  Fe12  1  0.250000  0.879053  0.700939  1
  Fe  Fe13  1  0.250000  0.620947  0.200939  1
  Fe  Fe14  1  0.750000  0.120947  0.299061  1
  Fe  Fe15  1  0.750000  0.379053  0.799061  1
  Fe  Fe16  1  0.250000  0.463091  0.932595  1
  Fe  Fe17  1  0.250000  0.036909  0.432595  1
  Fe  Fe18  1  0.750000  0.536909  0.067405  1
  Fe  Fe19  1  0.750000  0.963091  0.567405  1
  P  P20  1  0.250000  0.424176  0.117842  1
  P  P21  1  0.250000  0.075824  0.617842  1
  P  P22  1  0.750000  0.575824  0.882158  1
  P  P23  1  0.750000  0.924176  0.382158  1
  P  P24  1  0.250000  0.261647  0.862390  1
  P  P25  1  0.250000  0.238353  0.362390  1
  P  P26  1  0.750000  0.738353  0.137610  1
  P  P27  1  0.750000  0.761647  0.637610  1
  P  P28  1  0.250000  0.590248  0.386572  1
  P  P29  1  0.250000  0.909752  0.886572  1
  P  P30  1  0.750000  0.409752  0.613428  1
  P  P31  1  0.750000  0.090248  0.113428  1
  W  W32  1  0.250000  0.705532  0.989943  1
  W  W33  1  0.250000  0.794468  0.489943  1
  W  W34  1  0.750000  0.294468  0.010057  1
  W  W35  1  0.750000  0.205532  0.510057  1
