# generated using pymatgen
data_Sr3Ga3Si2OsO14
_symmetry_space_group_name_H-M   'P 1'
_cell_length_a   8.35297300
_cell_length_b   8.35294225
_cell_length_c   5.16311100
_cell_angle_alpha   89.99998850
_cell_angle_beta   89.99937279
_cell_angle_gamma   119.99995452
_symmetry_Int_Tables_number   1
_chemical_formula_structural   Sr3Ga3Si2OsO14
_chemical_formula_sum   'Sr3 Ga3 Si2 Os1 O14'
_cell_volume   311.97719505
_cell_formula_units_Z   1
loop_
 _symmetry_equiv_pos_site_id
 _symmetry_equiv_pos_as_xyz
  1  'x, y, z'
loop_
 _atom_site_type_symbol
 _atom_site_label
 _atom_site_symmetry_multiplicity
 _atom_site_fract_x
 _atom_site_fract_y
 _atom_site_fract_z
 _atom_site_occupancy
  Sr  Sr0  1  0.426848  0.000002  0.999999  1
  Sr  Sr1  1  0.000001  0.426852  0.000002  1
  Sr  Sr2  1  0.573151  0.573152  0.000002  1
  Ga  Ga3  1  0.749140  0.000001  0.500003  1
  Ga  Ga4  1  0.000000  0.749139  0.500000  1
  Ga  Ga5  1  0.250860  0.250861  0.499997  1
  Si  Si6  1  0.666661  0.333329  0.464917  1
  Si  Si7  1  0.333338  0.666667  0.535083  1
  Os  Os8  1  0.000001  0.000003  0.000000  1
  O  O9  1  0.333339  0.666669  0.222746  1
  O  O10  1  0.126580  0.907373  0.229197  1
  O  O11  1  0.092626  0.219209  0.229200  1
  O  O12  1  0.780796  0.873420  0.229205  1
  O  O13  1  0.473503  0.306850  0.331071  1
  O  O14  1  0.693144  0.166649  0.331075  1
  O  O15  1  0.833347  0.526495  0.331077  1
  O  O16  1  0.166652  0.693148  0.668923  1
  O  O17  1  0.306855  0.473505  0.668925  1
  O  O18  1  0.526496  0.833346  0.668929  1
  O  O19  1  0.219204  0.092624  0.770795  1
  O  O20  1  0.907374  0.126582  0.770799  1
  O  O21  1  0.873421  0.780793  0.770802  1
  O  O22  1  0.666660  0.333330  0.777255  1
