# generated using pymatgen
data_Tb4Er7Tm(GaCo2)2
_symmetry_space_group_name_H-M   'P 1'
_cell_length_a   8.22726066
_cell_length_b   8.22739953
_cell_length_c   8.22726042
_cell_angle_alpha   106.95597075
_cell_angle_beta   109.18756308
_cell_angle_gamma   112.31450205
_symmetry_Int_Tables_number   1
_chemical_formula_structural   Tb4Er7Tm(GaCo2)2
_chemical_formula_sum   'Tb4 Er7 Tm1 Ga2 Co4'
_cell_volume   427.75107196
_cell_formula_units_Z   1
loop_
 _symmetry_equiv_pos_site_id
 _symmetry_equiv_pos_as_xyz
  1  'x, y, z'
loop_
 _atom_site_type_symbol
 _atom_site_label
 _atom_site_symmetry_multiplicity
 _atom_site_fract_x
 _atom_site_fract_y
 _atom_site_fract_z
 _atom_site_occupancy
  Tb  Tb0  1  0.698576  0.261288  0.960125  1
  Tb  Tb1  1  0.301715  0.738807  0.040303  1
  Tb  Tb2  1  0.698505  0.738807  0.437093  1
  Tb  Tb3  1  0.301163  0.261288  0.562712  1
  Er  Er4  1  0.811457  0.483873  0.672417  1
  Er  Er5  1  0.188591  0.861148  0.672556  1
  Er  Er6  1  0.188338  0.515755  0.327417  1
  Er  Er7  1  0.601898  0.781127  0.820965  1
  Er  Er8  1  0.960161  0.781127  0.179229  1
  Er  Er9  1  0.039690  0.218923  0.820563  1
  Er  Er10  1  0.398360  0.218923  0.179234  1
  Tm  Tm11  1  0.811682  0.139210  0.327529  1
  Ga  Ga12  1  0.500017  0.500013  0.999996  1
  Ga  Ga13  1  0.500117  0.000027  0.499910  1
  Co  Co14  1  0.839086  0.499766  0.339067  1
  Co  Co15  1  0.160699  0.499766  0.660681  1
  Co  Co16  1  0.999863  0.115269  0.115405  1
  Co  Co17  1  0.000084  0.884883  0.884799  1
