# generated using pymatgen
data_LuZr2ReF15
_symmetry_space_group_name_H-M   'P 1'
_cell_length_a   8.09455078
_cell_length_b   8.09455178
_cell_length_c   8.10316225
_cell_angle_alpha   79.87353818
_cell_angle_beta   79.87353759
_cell_angle_gamma   100.10144720
_symmetry_Int_Tables_number   1
_chemical_formula_structural   LuZr2ReF15
_chemical_formula_sum   'Lu2 Zr4 Re2 F30'
_cell_volume   502.72631946
_cell_formula_units_Z   2
loop_
 _symmetry_equiv_pos_site_id
 _symmetry_equiv_pos_as_xyz
  1  'x, y, z'
loop_
 _atom_site_type_symbol
 _atom_site_label
 _atom_site_symmetry_multiplicity
 _atom_site_fract_x
 _atom_site_fract_y
 _atom_site_fract_z
 _atom_site_occupancy
  Lu  Lu0  1  0.678055  0.321945  0.750000  1
  Lu  Lu1  1  0.321945  0.678055  0.250000  1
  Zr  Zr2  1  0.821807  0.749250  0.326005  1
  Zr  Zr3  1  0.250750  0.178193  0.173995  1
  Zr  Zr4  1  0.178193  0.250750  0.673995  1
  Zr  Zr5  1  0.749250  0.821807  0.826005  1
  Re  Re6  1  0.250063  0.749937  0.750000  1
  Re  Re7  1  0.749937  0.250063  0.250000  1
  F  F8  1  0.150058  0.184506  0.946970  1
  F  F9  1  0.686332  0.559970  0.846561  1
  F  F10  1  0.043666  0.654913  0.314807  1
  F  F11  1  0.654913  0.043666  0.814807  1
  F  F12  1  0.559970  0.686332  0.346561  1
  F  F13  1  0.184506  0.150058  0.446970  1
  F  F14  1  0.849942  0.815494  0.053030  1
  F  F15  1  0.313668  0.440030  0.153439  1
  F  F16  1  0.956334  0.345087  0.685193  1
  F  F17  1  0.345087  0.956334  0.185193  1
  F  F18  1  0.440030  0.313668  0.653439  1
  F  F19  1  0.815494  0.849942  0.553030  1
  F  F20  1  0.968468  0.031532  0.750000  1
  F  F21  1  0.540383  0.752088  0.029749  1
  F  F22  1  0.247912  0.459617  0.470251  1
  F  F23  1  0.459617  0.247912  0.970251  1
  F  F24  1  0.752088  0.540383  0.529749  1
  F  F25  1  0.031532  0.968468  0.250000  1
  F  F26  1  0.218120  0.726066  0.001001  1
  F  F27  1  0.225768  0.496687  0.785180  1
  F  F28  1  0.996406  0.717554  0.775652  1
  F  F29  1  0.717554  0.996406  0.275652  1
  F  F30  1  0.496687  0.225768  0.285180  1
  F  F31  1  0.726066  0.218120  0.501001  1
  F  F32  1  0.781880  0.273934  0.998999  1
  F  F33  1  0.774232  0.503313  0.214820  1
  F  F34  1  0.003594  0.282446  0.224348  1
  F  F35  1  0.282446  0.003594  0.724348  1
  F  F36  1  0.503313  0.774232  0.714820  1
  F  F37  1  0.273934  0.781880  0.498999  1
