# generated using pymatgen
data_Li4Pd15O32
_symmetry_space_group_name_H-M   'P 1'
_cell_length_a   20.26181565
_cell_length_b   20.26181561
_cell_length_c   20.26181600
_cell_angle_alpha   17.37286478
_cell_angle_beta   17.37286519
_cell_angle_gamma   17.37286647
_symmetry_Int_Tables_number   1
_chemical_formula_structural   Li4Pd15O32
_chemical_formula_sum   'Li4 Pd15 O32'
_cell_volume   647.18290763
_cell_formula_units_Z   1
loop_
 _symmetry_equiv_pos_site_id
 _symmetry_equiv_pos_as_xyz
  1  'x, y, z'
loop_
 _atom_site_type_symbol
 _atom_site_label
 _atom_site_symmetry_multiplicity
 _atom_site_fract_x
 _atom_site_fract_y
 _atom_site_fract_z
 _atom_site_occupancy
  Li  Li0  1  0.188851  0.188851  0.188851  1
  Li  Li1  1  0.843132  0.843132  0.843132  1
  Li  Li2  1  0.248780  0.248780  0.248780  1
  Li  Li3  1  0.493427  0.493427  0.493427  1
  Pd  Pd4  1  0.720085  0.218802  0.218802  1
  Pd  Pd5  1  0.343937  0.343937  0.343937  1
  Pd  Pd6  1  0.218802  0.720085  0.218802  1
  Pd  Pd7  1  0.218802  0.218802  0.720085  1
  Pd  Pd8  1  0.095037  0.095037  0.095037  1
  Pd  Pd9  1  0.719577  0.214488  0.719577  1
  Pd  Pd10  1  0.968939  0.472602  0.968939  1
  Pd  Pd11  1  0.968939  0.968939  0.472602  1
  Pd  Pd12  1  0.472602  0.968939  0.968939  1
  Pd  Pd13  1  0.214488  0.719577  0.719577  1
  Pd  Pd14  1  0.719577  0.719577  0.214488  1
  Pd  Pd15  1  0.468461  0.468461  0.968171  1
  Pd  Pd16  1  0.968171  0.468461  0.468461  1
  Pd  Pd17  1  0.593194  0.593194  0.593194  1
  Pd  Pd18  1  0.468461  0.968171  0.468461  1
  O  O19  1  0.510944  0.075863  0.510944  1
  O  O20  1  0.075863  0.510944  0.510944  1
  O  O21  1  0.402746  0.402746  0.402746  1
  O  O22  1  0.035475  0.035475  0.035475  1
  O  O23  1  0.670163  0.125537  0.670163  1
  O  O24  1  0.926479  0.926479  0.363099  1
  O  O25  1  0.926479  0.363099  0.926479  1
  O  O26  1  0.263088  0.263088  0.824505  1
  O  O27  1  0.510944  0.510944  0.075863  1
  O  O28  1  0.562181  0.018610  0.018610  1
  O  O29  1  0.824505  0.263088  0.263088  1
  O  O30  1  0.154156  0.154156  0.154156  1
  O  O31  1  0.786432  0.786432  0.786432  1
  O  O32  1  0.125537  0.670163  0.670163  1
  O  O33  1  0.363099  0.926479  0.926479  1
  O  O34  1  0.421489  0.421489  0.871365  1
  O  O35  1  0.670163  0.670163  0.125537  1
  O  O36  1  0.018610  0.018610  0.562181  1
  O  O37  1  0.263088  0.824505  0.263088  1
  O  O38  1  0.018610  0.562181  0.018610  1
  O  O39  1  0.901705  0.901705  0.901705  1
  O  O40  1  0.871365  0.421489  0.421489  1
  O  O41  1  0.534303  0.534303  0.534303  1
  O  O42  1  0.612849  0.175278  0.175278  1
  O  O43  1  0.284129  0.284129  0.284129  1
  O  O44  1  0.175278  0.175278  0.612849  1
  O  O45  1  0.421489  0.871365  0.421489  1
  O  O46  1  0.175278  0.612849  0.175278  1
  O  O47  1  0.761322  0.323152  0.761322  1
  O  O48  1  0.761322  0.761322  0.323152  1
  O  O49  1  0.651998  0.651998  0.651998  1
  O  O50  1  0.323152  0.761322  0.761322  1
