# generated using pymatgen
data_Er4Al18IrPd3Ru2
_symmetry_space_group_name_H-M   'P 1'
_cell_length_a   7.58636276
_cell_length_b   7.58636178
_cell_length_c   9.45850595
_cell_angle_alpha   89.95347791
_cell_angle_beta   89.95347310
_cell_angle_gamma   119.61939350
_symmetry_Int_Tables_number   1
_chemical_formula_structural   Er4Al18IrPd3Ru2
_chemical_formula_sum   'Er4 Al18 Ir1 Pd3 Ru2'
_cell_volume   473.23040885
_cell_formula_units_Z   1
loop_
 _symmetry_equiv_pos_site_id
 _symmetry_equiv_pos_as_xyz
  1  'x, y, z'
loop_
 _atom_site_type_symbol
 _atom_site_label
 _atom_site_symmetry_multiplicity
 _atom_site_fract_x
 _atom_site_fract_y
 _atom_site_fract_z
 _atom_site_occupancy
  Er  Er0  1  0.995440  0.670826  0.750927  1
  Er  Er1  1  0.003419  0.328462  0.248666  1
  Er  Er2  1  0.671538  0.996581  0.751334  1
  Er  Er3  1  0.329174  0.004560  0.249073  1
  Al  Al4  1  0.132378  0.130411  0.750449  1
  Al  Al5  1  0.869589  0.867622  0.249551  1
  Al  Al6  1  0.006192  0.340476  0.577301  1
  Al  Al7  1  0.003936  0.664286  0.422057  1
  Al  Al8  1  0.002262  0.661114  0.075901  1
  Al  Al9  1  0.338886  0.997738  0.924099  1
  Al  Al10  1  0.002492  0.340646  0.923672  1
  Al  Al11  1  0.659354  0.997508  0.076328  1
  Al  Al12  1  0.659524  0.993808  0.422699  1
  Al  Al13  1  0.335714  0.996064  0.577943  1
  Al  Al14  1  0.335352  0.337353  0.049856  1
  Al  Al15  1  0.662647  0.664648  0.950144  1
  Al  Al16  1  0.661630  0.666863  0.554895  1
  Al  Al17  1  0.333137  0.338370  0.445105  1
  Al  Al18  1  0.340368  0.553671  0.750664  1
  Al  Al19  1  0.661329  0.452913  0.247288  1
  Al  Al20  1  0.547087  0.338671  0.752712  1
  Al  Al21  1  0.446329  0.659632  0.249336  1
  Ir  Ir22  1  0.672521  0.327479  0.000000  1
  Pd  Pd23  1  0.672538  0.327462  0.500000  1
  Pd  Pd24  1  0.000596  0.999404  0.500000  1
  Pd  Pd25  1  0.000157  0.999843  0.000000  1
  Ru  Ru26  1  0.328179  0.671821  0.500000  1
  Ru  Ru27  1  0.328232  0.671768  0.000000  1
