# generated using pymatgen
data_K3RbVSe4
_symmetry_space_group_name_H-M   'P 1'
_cell_length_a   8.43919000
_cell_length_b   10.00941500
_cell_length_c   15.15633500
_cell_angle_alpha   90.00000000
_cell_angle_beta   90.00000000
_cell_angle_gamma   90.00000000
_symmetry_Int_Tables_number   1
_chemical_formula_structural   K3RbVSe4
_chemical_formula_sum   'K12 Rb4 V4 Se16'
_cell_volume   1280.27615389
_cell_formula_units_Z   4
loop_
 _symmetry_equiv_pos_site_id
 _symmetry_equiv_pos_as_xyz
  1  'x, y, z'
loop_
 _atom_site_type_symbol
 _atom_site_label
 _atom_site_symmetry_multiplicity
 _atom_site_fract_x
 _atom_site_fract_y
 _atom_site_fract_z
 _atom_site_occupancy
  K  K0  1  0.979029  0.750000  0.428354  1
  K  K1  1  0.479029  0.250000  0.071646  1
  K  K2  1  0.020971  0.250000  0.571646  1
  K  K3  1  0.520971  0.750000  0.928354  1
  K  K4  1  0.839134  0.052491  0.273048  1
  K  K5  1  0.339134  0.947509  0.226952  1
  K  K6  1  0.160866  0.552491  0.726952  1
  K  K7  1  0.660866  0.447509  0.773048  1
  K  K8  1  0.160866  0.947509  0.726952  1
  K  K9  1  0.660866  0.052491  0.773048  1
  K  K10  1  0.839134  0.447509  0.273048  1
  K  K11  1  0.339134  0.552491  0.226952  1
  Rb  Rb12  1  0.000000  0.000000  0.000000  1
  Rb  Rb13  1  0.500000  0.000000  0.500000  1
  Rb  Rb14  1  0.000000  0.500000  0.000000  1
  Rb  Rb15  1  0.500000  0.500000  0.500000  1
  V  V16  1  0.765385  0.750000  0.669653  1
  V  V17  1  0.234615  0.250000  0.330347  1
  V  V18  1  0.734615  0.750000  0.169653  1
  V  V19  1  0.265385  0.250000  0.830347  1
  Se  Se20  1  0.984122  0.250000  0.820939  1
  Se  Se21  1  0.515878  0.250000  0.320939  1
  Se  Se22  1  0.484122  0.750000  0.679061  1
  Se  Se23  1  0.015878  0.750000  0.179061  1
  Se  Se24  1  0.646193  0.557683  0.095201  1
  Se  Se25  1  0.146193  0.442317  0.404799  1
  Se  Se26  1  0.353807  0.057683  0.904799  1
  Se  Se27  1  0.853807  0.942317  0.595201  1
  Se  Se28  1  0.353807  0.442317  0.904799  1
  Se  Se29  1  0.853807  0.557683  0.595201  1
  Se  Se30  1  0.646193  0.942317  0.095201  1
  Se  Se31  1  0.146193  0.057683  0.404799  1
  Se  Se32  1  0.629047  0.750000  0.316111  1
  Se  Se33  1  0.129047  0.250000  0.183889  1
  Se  Se34  1  0.370953  0.250000  0.683889  1
  Se  Se35  1  0.870953  0.750000  0.816111  1
