# generated using pymatgen
data_MgIr3(Pb2O7)2
_symmetry_space_group_name_H-M   'P 1'
_cell_length_a   7.41222815
_cell_length_b   7.35043990
_cell_length_c   7.35302405
_cell_angle_alpha   59.99757132
_cell_angle_beta   60.27653426
_cell_angle_gamma   60.25604729
_symmetry_Int_Tables_number   1
_chemical_formula_structural   MgIr3(Pb2O7)2
_chemical_formula_sum   'Mg1 Ir3 Pb4 O14'
_cell_volume   284.40772391
_cell_formula_units_Z   1
loop_
 _symmetry_equiv_pos_site_id
 _symmetry_equiv_pos_as_xyz
  1  'x, y, z'
loop_
 _atom_site_type_symbol
 _atom_site_label
 _atom_site_symmetry_multiplicity
 _atom_site_fract_x
 _atom_site_fract_y
 _atom_site_fract_z
 _atom_site_occupancy
  Mg  Mg0  1  0.125000  0.625000  0.625000  1
  Ir  Ir1  1  0.625000  0.125000  0.625000  1
  Ir  Ir2  1  0.625000  0.625000  0.125000  1
  Ir  Ir3  1  0.625000  0.625000  0.625000  1
  Pb  Pb4  1  0.625000  0.125000  0.125000  1
  Pb  Pb5  1  0.125000  0.625000  0.125000  1
  Pb  Pb6  1  0.125000  0.125000  0.625000  1
  Pb  Pb7  1  0.125000  0.125000  0.125000  1
  O  O8  1  0.682650  0.713854  0.301728  1
  O  O9  1  0.305336  0.276914  0.708804  1
  O  O10  1  0.682553  0.301572  0.714254  1
  O  O11  1  0.304813  0.709426  0.276435  1
  O  O12  1  0.305100  0.709192  0.709126  1
  O  O13  1  0.682617  0.301531  0.301614  1
  O  O14  1  0.567350  0.536146  0.948272  1
  O  O15  1  0.944664  0.973086  0.541196  1
  O  O16  1  0.567447  0.948428  0.535746  1
  O  O17  1  0.945187  0.540574  0.973565  1
  O  O18  1  0.944900  0.540808  0.540874  1
  O  O19  1  0.567383  0.948469  0.948386  1
  O  O20  1  0.264298  0.245215  0.245385  1
  O  O21  1  0.985702  0.004785  0.004615  1
