# generated using pymatgen
data_Nb12Ga9Fe3N4
_symmetry_space_group_name_H-M   'P 1'
_cell_length_a   8.21514719
_cell_length_b   8.23360710
_cell_length_c   8.23360700
_cell_angle_alpha   59.99999640
_cell_angle_beta   59.92563643
_cell_angle_gamma   59.92563797
_symmetry_Int_Tables_number   1
_chemical_formula_structural   Nb12Ga9Fe3N4
_chemical_formula_sum   'Nb12 Ga9 Fe3 N4'
_cell_volume   393.36122967
_cell_formula_units_Z   1
loop_
 _symmetry_equiv_pos_site_id
 _symmetry_equiv_pos_as_xyz
  1  'x, y, z'
loop_
 _atom_site_type_symbol
 _atom_site_label
 _atom_site_symmetry_multiplicity
 _atom_site_fract_x
 _atom_site_fract_y
 _atom_site_fract_z
 _atom_site_occupancy
  Nb  Nb0  1  0.811357  0.808246  0.190199  1
  Nb  Nb1  1  0.192313  0.196511  0.805588  1
  Nb  Nb2  1  0.811357  0.190199  0.808246  1
  Nb  Nb3  1  0.192313  0.805588  0.196511  1
  Nb  Nb4  1  0.192313  0.805588  0.805588  1
  Nb  Nb5  1  0.811357  0.190199  0.190199  1
  Nb  Nb6  1  0.438643  0.441754  0.059801  1
  Nb  Nb7  1  0.057687  0.053489  0.444412  1
  Nb  Nb8  1  0.438643  0.059801  0.441754  1
  Nb  Nb9  1  0.057687  0.444412  0.053489  1
  Nb  Nb10  1  0.057687  0.444412  0.444412  1
  Nb  Nb11  1  0.438643  0.059801  0.059801  1
  Ga  Ga12  1  0.125000  0.625000  0.625000  1
  Ga  Ga13  1  0.757053  0.414316  0.414316  1
  Ga  Ga14  1  0.429635  0.755314  0.407526  1
  Ga  Ga15  1  0.429635  0.407526  0.755314  1
  Ga  Ga16  1  0.429635  0.407526  0.407526  1
  Ga  Ga17  1  0.492947  0.835684  0.835684  1
  Ga  Ga18  1  0.820365  0.494686  0.842474  1
  Ga  Ga19  1  0.820365  0.842474  0.494686  1
  Ga  Ga20  1  0.820365  0.842474  0.842474  1
  Fe  Fe21  1  0.625000  0.125000  0.625000  1
  Fe  Fe22  1  0.625000  0.625000  0.125000  1
  Fe  Fe23  1  0.625000  0.625000  0.625000  1
  N  N24  1  0.625000  0.125000  0.125000  1
  N  N25  1  0.125000  0.625000  0.125000  1
  N  N26  1  0.125000  0.125000  0.625000  1
  N  N27  1  0.125000  0.125000  0.125000  1
