# generated using pymatgen
data_Cu3NiGe2(Mo3C)2
_symmetry_space_group_name_H-M   'P 1'
_cell_length_a   7.96483654
_cell_length_b   7.97033032
_cell_length_c   7.96483635
_cell_angle_alpha   59.97717046
_cell_angle_beta   59.89558640
_cell_angle_gamma   59.97717340
_symmetry_Int_Tables_number   1
_chemical_formula_structural   Cu3NiGe2(Mo3C)2
_chemical_formula_sum   'Cu6 Ni2 Ge4 Mo12 C4'
_cell_volume   357.12599918
_cell_formula_units_Z   2
loop_
 _symmetry_equiv_pos_site_id
 _symmetry_equiv_pos_as_xyz
  1  'x, y, z'
loop_
 _atom_site_type_symbol
 _atom_site_label
 _atom_site_symmetry_multiplicity
 _atom_site_fract_x
 _atom_site_fract_y
 _atom_site_fract_z
 _atom_site_occupancy
  Cu  Cu0  1  0.917525  0.916141  0.250194  1
  Cu  Cu1  1  0.332768  0.332254  0.332768  1
  Cu  Cu2  1  0.250194  0.916141  0.917525  1
  Cu  Cu3  1  0.332768  0.002210  0.332768  1
  Cu  Cu4  1  0.002013  0.332322  0.333343  1
  Cu  Cu5  1  0.333343  0.332322  0.002013  1
  Ni  Ni6  1  0.917217  0.913888  0.917217  1
  Ni  Ni7  1  0.917217  0.251678  0.917217  1
  Ge  Ge8  1  0.122286  0.127434  0.122286  1
  Ge  Ge9  1  0.632659  0.124172  0.118997  1
  Ge  Ge10  1  0.118997  0.124172  0.632659  1
  Ge  Ge11  1  0.122286  0.627994  0.122286  1
  Mo  Mo12  1  0.690126  0.309900  0.309679  1
  Mo  Mo13  1  0.938427  0.938552  0.564065  1
  Mo  Mo14  1  0.690126  0.690295  0.309679  1
  Mo  Mo15  1  0.691742  0.308258  0.691742  1
  Mo  Mo16  1  0.311720  0.688280  0.311720  1
  Mo  Mo17  1  0.558976  0.941024  0.558976  1
  Mo  Mo18  1  0.564065  0.938552  0.938427  1
  Mo  Mo19  1  0.938427  0.558956  0.564065  1
  Mo  Mo20  1  0.935064  0.564936  0.935064  1
  Mo  Mo21  1  0.309679  0.309900  0.690126  1
  Mo  Mo22  1  0.564065  0.558956  0.938427  1
  Mo  Mo23  1  0.309679  0.690295  0.690126  1
  C  C24  1  0.624146  0.624330  0.624146  1
  C  C25  1  0.624156  0.624829  0.126186  1
  C  C26  1  0.126186  0.624829  0.624156  1
  C  C27  1  0.624146  0.127377  0.624146  1
