# generated using pymatgen
data_Lu4TeC2Se
_symmetry_space_group_name_H-M   'P 1'
_cell_length_a   3.69244900
_cell_length_b   3.69244820
_cell_length_c   13.37374300
_cell_angle_alpha   90.00000000
_cell_angle_beta   90.00000000
_cell_angle_gamma   119.99999822
_symmetry_Int_Tables_number   1
_chemical_formula_structural   Lu4TeC2Se
_chemical_formula_sum   'Lu4 Te1 C2 Se1'
_cell_volume   157.91105303
_cell_formula_units_Z   1
loop_
 _symmetry_equiv_pos_site_id
 _symmetry_equiv_pos_as_xyz
  1  'x, y, z'
loop_
 _atom_site_type_symbol
 _atom_site_label
 _atom_site_symmetry_multiplicity
 _atom_site_fract_x
 _atom_site_fract_y
 _atom_site_fract_z
 _atom_site_occupancy
  Lu  Lu0  1  0.333334  0.666668  0.104616  1
  Lu  Lu1  1  0.333334  0.666668  0.395385  1
  Lu  Lu2  1  0.666667  0.333334  0.584476  1
  Lu  Lu3  1  0.666667  0.333334  0.915524  1
  Te  Te4  1  0.333334  0.666668  0.750000  1
  C  C5  1  0.000000  0.000000  0.007560  1
  C  C6  1  0.000000  0.000000  0.492440  1
  Se  Se7  1  0.666667  0.333334  0.250000  1
