# generated using pymatgen
data_LiHo8Ni2Hg
_symmetry_space_group_name_H-M   'P 1'
_cell_length_a   9.41909787
_cell_length_b   9.41909787
_cell_length_c   9.43082200
_cell_angle_alpha   59.95881648
_cell_angle_beta   59.95881646
_cell_angle_gamma   60.68674989
_symmetry_Int_Tables_number   1
_chemical_formula_structural   LiHo8Ni2Hg
_chemical_formula_sum   'Li2 Ho16 Ni4 Hg2'
_cell_volume   594.26909006
_cell_formula_units_Z   2
loop_
 _symmetry_equiv_pos_site_id
 _symmetry_equiv_pos_as_xyz
  1  'x, y, z'
loop_
 _atom_site_type_symbol
 _atom_site_label
 _atom_site_symmetry_multiplicity
 _atom_site_fract_x
 _atom_site_fract_y
 _atom_site_fract_z
 _atom_site_occupancy
  Li  Li0  1  0.576021  0.286019  0.568980  1
  Li  Li1  1  0.286019  0.576021  0.568980  1
  Ho  Ho2  1  0.346325  0.346325  0.346295  1
  Ho  Ho3  1  0.346325  0.346325  0.961054  1
  Ho  Ho4  1  0.354042  0.947443  0.349257  1
  Ho  Ho5  1  0.947443  0.354042  0.349257  1
  Ho  Ho6  1  0.810798  0.188280  0.188079  1
  Ho  Ho7  1  0.188280  0.810798  0.812844  1
  Ho  Ho8  1  0.188280  0.810798  0.188079  1
  Ho  Ho9  1  0.810798  0.188280  0.812844  1
  Ho  Ho10  1  0.183893  0.183893  0.816107  1
  Ho  Ho11  1  0.808532  0.808532  0.191468  1
  Ho  Ho12  1  0.936144  0.563054  0.564796  1
  Ho  Ho13  1  0.563054  0.936144  0.936007  1
  Ho  Ho14  1  0.563054  0.936144  0.564796  1
  Ho  Ho15  1  0.936144  0.563054  0.936007  1
  Ho  Ho16  1  0.563740  0.563740  0.936260  1
  Ho  Ho17  1  0.937533  0.937533  0.562467  1
  Ni  Ni18  1  0.140661  0.140661  0.148172  1
  Ni  Ni19  1  0.140661  0.140661  0.570506  1
  Ni  Ni20  1  0.138969  0.572176  0.144428  1
  Ni  Ni21  1  0.572176  0.138969  0.144428  1
  Hg  Hg22  1  0.580555  0.580555  0.589790  1
  Hg  Hg23  1  0.580555  0.580555  0.249100  1
