# generated using pymatgen
data_Ta7In(TcOs)4
_symmetry_space_group_name_H-M   'P 1'
_cell_length_a   6.39891901
_cell_length_b   4.51877900
_cell_length_c   9.03740501
_cell_angle_alpha   90.00000000
_cell_angle_beta   89.99438251
_cell_angle_gamma   90.00000000
_symmetry_Int_Tables_number   1
_chemical_formula_structural   Ta7In(TcOs)4
_chemical_formula_sum   'Ta7 In1 Tc4 Os4'
_cell_volume   261.31928340
_cell_formula_units_Z   1
loop_
 _symmetry_equiv_pos_site_id
 _symmetry_equiv_pos_as_xyz
  1  'x, y, z'
loop_
 _atom_site_type_symbol
 _atom_site_label
 _atom_site_symmetry_multiplicity
 _atom_site_fract_x
 _atom_site_fract_y
 _atom_site_fract_z
 _atom_site_occupancy
  Ta  Ta0  1  0.000400  0.749999  0.124999  1
  Ta  Ta1  1  0.500142  0.250000  0.372388  1
  Ta  Ta2  1  0.999880  0.250000  0.374912  1
  Ta  Ta3  1  0.998985  0.749999  0.625002  1
  Ta  Ta4  1  0.498106  0.749999  0.625027  1
  Ta  Ta5  1  0.999890  0.250000  0.875068  1
  Ta  Ta6  1  0.500155  0.250000  0.877617  1
  In  In7  1  0.500231  0.749999  0.125003  1
  Tc  Tc8  1  0.756793  0.250000  0.125002  1
  Tc  Tc9  1  0.247775  0.749999  0.379279  1
  Tc  Tc10  1  0.749090  0.250000  0.624990  1
  Tc  Tc11  1  0.247767  0.749999  0.870715  1
  Os  Os12  1  0.243733  0.250000  0.124977  1
  Os  Os13  1  0.753320  0.749999  0.379719  1
  Os  Os14  1  0.250402  0.250000  0.625001  1
  Os  Os15  1  0.753332  0.749999  0.870302  1
