# generated using pymatgen
data_LiY3Ho2(P2Ru3)6
_symmetry_space_group_name_H-M   'P 1'
_cell_length_a   12.62595801
_cell_length_b   12.43514790
_cell_length_c   3.97579200
_cell_angle_alpha   90.00000000
_cell_angle_beta   90.00000000
_cell_angle_gamma   119.50132368
_symmetry_Int_Tables_number   1
_chemical_formula_structural   LiY3Ho2(P2Ru3)6
_chemical_formula_sum   'Li1 Y3 Ho2 P12 Ru18'
_cell_volume   543.28792216
_cell_formula_units_Z   1
loop_
 _symmetry_equiv_pos_site_id
 _symmetry_equiv_pos_as_xyz
  1  'x, y, z'
loop_
 _atom_site_type_symbol
 _atom_site_label
 _atom_site_symmetry_multiplicity
 _atom_site_fract_x
 _atom_site_fract_y
 _atom_site_fract_z
 _atom_site_occupancy
  Li  Li0  1  0.000000  0.561602  0.000000  1
  Y  Y1  1  0.000000  0.181805  0.500000  1
  Y  Y2  1  0.816893  0.816479  0.500000  1
  Y  Y3  1  0.183107  0.999585  0.500000  1
  Ho  Ho4  1  0.659818  0.329158  0.000000  1
  Ho  Ho5  1  0.340182  0.669341  0.000000  1
  P  P6  1  0.000000  0.808614  0.000000  1
  P  P7  1  0.182557  0.183693  0.000000  1
  P  P8  1  0.817443  0.001135  0.000000  1
  P  P9  1  0.692003  0.173325  0.500000  1
  P  P10  1  0.819961  0.518792  0.500000  1
  P  P11  1  0.474302  0.306757  0.500000  1
  P  P12  1  0.180039  0.698832  0.500000  1
  P  P13  1  0.525698  0.832455  0.500000  1
  P  P14  1  0.307997  0.481321  0.500000  1
  P  P15  1  0.000000  0.367583  0.000000  1
  P  P16  1  0.626206  0.625146  0.000000  1
  P  P17  1  0.373794  0.998939  0.000000  1
  Ru  Ru18  1  0.444481  0.444708  0.000000  1
  Ru  Ru19  1  0.555519  0.000227  0.000000  1
  Ru  Ru20  1  0.000000  0.712509  0.500000  1
  Ru  Ru21  1  0.281238  0.283644  0.500000  1
  Ru  Ru22  1  0.718762  0.002406  0.500000  1
  Ru  Ru23  1  0.805673  0.186411  0.000000  1
  Ru  Ru24  1  0.813231  0.618499  0.000000  1
  Ru  Ru25  1  0.373326  0.189303  0.000000  1
  Ru  Ru26  1  0.186769  0.805269  0.000000  1
  Ru  Ru27  1  0.626674  0.815977  0.000000  1
  Ru  Ru28  1  0.194327  0.380738  0.000000  1
  Ru  Ru29  1  0.876148  0.367154  0.500000  1
  Ru  Ru30  1  0.631110  0.508750  0.500000  1
  Ru  Ru31  1  0.492610  0.128506  0.500000  1
  Ru  Ru32  1  0.368890  0.877640  0.500000  1
  Ru  Ru33  1  0.507390  0.635896  0.500000  1
  Ru  Ru34  1  0.123852  0.491007  0.500000  1
  Ru  Ru35  1  0.000000  0.996793  0.000000  1
