# generated using pymatgen
data_LiMn(SeO4)2
_symmetry_space_group_name_H-M   'P 1'
_cell_length_a   4.95368604
_cell_length_b   7.14468141
_cell_length_c   9.10849900
_cell_angle_alpha   90.00000000
_cell_angle_beta   90.00000000
_cell_angle_gamma   95.31027955
_symmetry_Int_Tables_number   1
_chemical_formula_structural   LiMn(SeO4)2
_chemical_formula_sum   'Li2 Mn2 Se4 O16'
_cell_volume   320.98904096
_cell_formula_units_Z   2
loop_
 _symmetry_equiv_pos_site_id
 _symmetry_equiv_pos_as_xyz
  1  'x, y, z'
loop_
 _atom_site_type_symbol
 _atom_site_label
 _atom_site_symmetry_multiplicity
 _atom_site_fract_x
 _atom_site_fract_y
 _atom_site_fract_z
 _atom_site_occupancy
  Li  Li0  1  0.536902  0.977076  0.483620  1
  Li  Li1  1  0.963098  0.522924  0.983620  1
  Mn  Mn2  1  0.498248  0.497411  0.497629  1
  Mn  Mn3  1  0.001752  0.002589  0.997629  1
  Se  Se4  1  0.042615  0.724783  0.321409  1
  Se  Se5  1  0.457385  0.775217  0.821409  1
  Se  Se6  1  0.958523  0.273836  0.676090  1
  Se  Se7  1  0.541477  0.226164  0.176090  1
  O  O8  1  0.314981  0.975271  0.869753  1
  O  O9  1  0.185019  0.524729  0.369753  1
  O  O10  1  0.689370  0.029240  0.125119  1
  O  O11  1  0.810630  0.470760  0.625119  1
  O  O12  1  0.711817  0.695062  0.378513  1
  O  O13  1  0.788183  0.804938  0.878513  1
  O  O14  1  0.289648  0.313292  0.625546  1
  O  O15  1  0.210352  0.186708  0.125546  1
  O  O16  1  0.050942  0.740401  0.138929  1
  O  O17  1  0.449058  0.759599  0.638929  1
  O  O18  1  0.941118  0.263198  0.859122  1
  O  O19  1  0.558882  0.236802  0.359122  1
  O  O20  1  0.187432  0.916867  0.394467  1
  O  O21  1  0.312568  0.583133  0.894467  1
  O  O22  1  0.825379  0.076853  0.606201  1
  O  O23  1  0.674621  0.423147  0.106201  1
