# generated using pymatgen
data_Pr9Nd7Cd4TcPd3
_symmetry_space_group_name_H-M   'P 1'
_cell_length_a   10.09843498
_cell_length_b   10.09832857
_cell_length_c   10.10143119
_cell_angle_alpha   59.34048927
_cell_angle_beta   59.33481891
_cell_angle_gamma   59.32300743
_symmetry_Int_Tables_number   1
_chemical_formula_structural   Pr9Nd7Cd4TcPd3
_chemical_formula_sum   'Pr9 Nd7 Cd4 Tc1 Pd3'
_cell_volume   717.33822062
_cell_formula_units_Z   1
loop_
 _symmetry_equiv_pos_site_id
 _symmetry_equiv_pos_as_xyz
  1  'x, y, z'
loop_
 _atom_site_type_symbol
 _atom_site_label
 _atom_site_symmetry_multiplicity
 _atom_site_fract_x
 _atom_site_fract_y
 _atom_site_fract_z
 _atom_site_occupancy
  Pr  Pr0  1  0.806459  0.189818  0.806495  1
  Pr  Pr1  1  0.188330  0.188207  0.817301  1
  Pr  Pr2  1  0.806622  0.806468  0.189916  1
  Pr  Pr3  1  0.934879  0.565045  0.564779  1
  Pr  Pr4  1  0.555229  0.938344  0.938599  1
  Pr  Pr5  1  0.564879  0.934912  0.564795  1
  Pr  Pr6  1  0.938396  0.555240  0.938595  1
  Pr  Pr7  1  0.564785  0.564962  0.934911  1
  Pr  Pr8  1  0.938578  0.938497  0.554998  1
  Nd  Nd9  1  0.353395  0.353223  0.352818  1
  Nd  Nd10  1  0.347211  0.347658  0.953188  1
  Nd  Nd11  1  0.347074  0.953098  0.347523  1
  Nd  Nd12  1  0.953463  0.347116  0.347136  1
  Nd  Nd13  1  0.817162  0.188182  0.188559  1
  Nd  Nd14  1  0.189942  0.806356  0.806562  1
  Nd  Nd15  1  0.188246  0.817021  0.188519  1
  Cd  Cd16  1  0.579361  0.579684  0.579723  1
  Cd  Cd17  1  0.579905  0.579959  0.258157  1
  Cd  Cd18  1  0.580077  0.258184  0.579862  1
  Cd  Cd19  1  0.258164  0.580207  0.579938  1
  Tc  Tc20  1  0.142678  0.142867  0.143065  1
  Pd  Pd21  1  0.146715  0.146055  0.571774  1
  Pd  Pd22  1  0.146780  0.572150  0.146083  1
  Pd  Pd23  1  0.571672  0.146747  0.146707  1
