# generated using pymatgen
data_Cd3In9Ir4
_symmetry_space_group_name_H-M   'P 1'
_cell_length_a   7.22986960
_cell_length_b   7.16987225
_cell_length_c   7.13411500
_cell_angle_alpha   90.00000000
_cell_angle_beta   90.00000000
_cell_angle_gamma   90.36198311
_symmetry_Int_Tables_number   1
_chemical_formula_structural   Cd3In9Ir4
_chemical_formula_sum   'Cd3 In9 Ir4'
_cell_volume   369.80546080
_cell_formula_units_Z   1
loop_
 _symmetry_equiv_pos_site_id
 _symmetry_equiv_pos_as_xyz
  1  'x, y, z'
loop_
 _atom_site_type_symbol
 _atom_site_label
 _atom_site_symmetry_multiplicity
 _atom_site_fract_x
 _atom_site_fract_y
 _atom_site_fract_z
 _atom_site_occupancy
  Cd  Cd0  1  0.500000  0.000000  0.000000  1
  Cd  Cd1  1  0.000000  0.500000  0.000000  1
  Cd  Cd2  1  0.500000  0.000000  0.499999  1
  In  In3  1  0.654838  0.341701  0.235648  1
  In  In4  1  0.345162  0.658299  0.235648  1
  In  In5  1  0.158952  0.152839  0.259759  1
  In  In6  1  0.841048  0.847161  0.259759  1
  In  In7  1  0.000000  0.500000  0.499999  1
  In  In8  1  0.158952  0.152839  0.740241  1
  In  In9  1  0.841048  0.847161  0.740241  1
  In  In10  1  0.654838  0.341701  0.764350  1
  In  In11  1  0.345162  0.658299  0.764350  1
  Ir  Ir12  1  0.347337  0.347920  0.000000  1
  Ir  Ir13  1  0.652663  0.652080  0.000000  1
  Ir  Ir14  1  0.849121  0.158338  0.499999  1
  Ir  Ir15  1  0.150879  0.841662  0.499999  1
