# generated using pymatgen
data_Cs15Ti4TlSe16
_symmetry_space_group_name_H-M   'P 1'
_cell_length_a   9.21647544
_cell_length_b   10.77572000
_cell_length_c   15.93082100
_cell_angle_alpha   90.00000000
_cell_angle_beta   90.08622524
_cell_angle_gamma   90.00000000
_symmetry_Int_Tables_number   1
_chemical_formula_structural   Cs15Ti4TlSe16
_chemical_formula_sum   'Cs15 Ti4 Tl1 Se16'
_cell_volume   1582.15429327
_cell_formula_units_Z   1
loop_
 _symmetry_equiv_pos_site_id
 _symmetry_equiv_pos_as_xyz
  1  'x, y, z'
loop_
 _atom_site_type_symbol
 _atom_site_label
 _atom_site_symmetry_multiplicity
 _atom_site_fract_x
 _atom_site_fract_y
 _atom_site_fract_z
 _atom_site_occupancy
  Cs  Cs0  1  0.002339  0.998690  0.996496  1
  Cs  Cs1  1  0.499233  0.001346  0.502741  1
  Cs  Cs2  1  0.002339  0.501310  0.996496  1
  Cs  Cs3  1  0.499233  0.498654  0.502741  1
  Cs  Cs4  1  0.986513  0.750000  0.426702  1
  Cs  Cs5  1  0.485299  0.250000  0.073438  1
  Cs  Cs6  1  0.013018  0.250000  0.577330  1
  Cs  Cs7  1  0.836613  0.054458  0.278651  1
  Cs  Cs8  1  0.333912  0.944960  0.217112  1
  Cs  Cs9  1  0.165770  0.557540  0.723130  1
  Cs  Cs10  1  0.660205  0.446770  0.783849  1
  Cs  Cs11  1  0.165770  0.942460  0.723130  1
  Cs  Cs12  1  0.660205  0.053230  0.783849  1
  Cs  Cs13  1  0.836613  0.445542  0.278651  1
  Cs  Cs14  1  0.333912  0.555040  0.217112  1
  Ti  Ti15  1  0.756294  0.750000  0.667912  1
  Ti  Ti16  1  0.240138  0.250000  0.333261  1
  Ti  Ti17  1  0.737127  0.750000  0.161953  1
  Ti  Ti18  1  0.259720  0.250000  0.834177  1
  Tl  Tl19  1  0.559623  0.750000  0.941744  1
  Se  Se20  1  0.996178  0.250000  0.825040  1
  Se  Se21  1  0.503424  0.250000  0.322887  1
  Se  Se22  1  0.494832  0.750000  0.670408  1
  Se  Se23  1  0.998296  0.750000  0.174205  1
  Se  Se24  1  0.654694  0.570728  0.084227  1
  Se  Se25  1  0.159008  0.433267  0.405518  1
  Se  Se26  1  0.340398  0.068549  0.907923  1
  Se  Se27  1  0.841253  0.932214  0.595701  1
  Se  Se28  1  0.340398  0.431451  0.907923  1
  Se  Se29  1  0.841253  0.567786  0.595701  1
  Se  Se30  1  0.654694  0.929272  0.084227  1
  Se  Se31  1  0.159008  0.066733  0.405518  1
  Se  Se32  1  0.633313  0.750000  0.301402  1
  Se  Se33  1  0.135052  0.250000  0.192972  1
  Se  Se34  1  0.363807  0.250000  0.693047  1
  Se  Se35  1  0.850512  0.750000  0.812821  1
