# generated using pymatgen
data_Pr2NdTh(Al3Ir)6
_symmetry_space_group_name_H-M   'P 1'
_cell_length_a   7.64045401
_cell_length_b   7.64573080
_cell_length_c   9.59116400
_cell_angle_alpha   90.00000000
_cell_angle_beta   90.00000000
_cell_angle_gamma   119.40399495
_symmetry_Int_Tables_number   1
_chemical_formula_structural   Pr2NdTh(Al3Ir)6
_chemical_formula_sum   'Pr2 Nd1 Th1 Al18 Ir6'
_cell_volume   488.10940280
_cell_formula_units_Z   1
loop_
 _symmetry_equiv_pos_site_id
 _symmetry_equiv_pos_as_xyz
  1  'x, y, z'
loop_
 _atom_site_type_symbol
 _atom_site_label
 _atom_site_symmetry_multiplicity
 _atom_site_fract_x
 _atom_site_fract_y
 _atom_site_fract_z
 _atom_site_occupancy
  Pr  Pr0  1  0.004165  0.329163  0.750000  1
  Pr  Pr1  1  0.671702  0.994235  0.250000  1
  Nd  Nd2  1  0.328860  0.004282  0.750000  1
  Th  Th3  1  0.995352  0.671446  0.250000  1
  Al  Al4  1  0.132891  0.132508  0.250000  1
  Al  Al5  1  0.869428  0.870958  0.750000  1
  Al  Al6  1  0.002910  0.332995  0.073537  1
  Al  Al7  1  0.997248  0.664462  0.922597  1
  Al  Al8  1  0.997248  0.664462  0.577403  1
  Al  Al9  1  0.338466  0.005055  0.426649  1
  Al  Al10  1  0.002910  0.332995  0.426463  1
  Al  Al11  1  0.664835  0.998499  0.573837  1
  Al  Al12  1  0.664835  0.998499  0.926163  1
  Al  Al13  1  0.338466  0.005055  0.073351  1
  Al  Al14  1  0.333321  0.333116  0.548478  1
  Al  Al15  1  0.663693  0.665533  0.455344  1
  Al  Al16  1  0.663693  0.665533  0.044656  1
  Al  Al17  1  0.333321  0.333116  0.951522  1
  Al  Al18  1  0.341816  0.547093  0.250000  1
  Al  Al19  1  0.657871  0.451757  0.750000  1
  Al  Al20  1  0.545617  0.340496  0.250000  1
  Al  Al21  1  0.451958  0.660216  0.750000  1
  Ir  Ir22  1  0.672739  0.330771  0.001455  1
  Ir  Ir23  1  0.327170  0.670942  0.001399  1
  Ir  Ir24  1  0.327170  0.670942  0.498601  1
  Ir  Ir25  1  0.672739  0.330771  0.498545  1
  Ir  Ir26  1  0.999789  0.997553  0.001942  1
  Ir  Ir27  1  0.999789  0.997553  0.498058  1
