# generated using pymatgen
data_Nb3Ga2RhN
_symmetry_space_group_name_H-M   'P 1'
_cell_length_a   8.30792826
_cell_length_b   8.30792727
_cell_length_c   8.30792800
_cell_angle_alpha   59.99999711
_cell_angle_beta   60.00000103
_cell_angle_gamma   59.99999906
_symmetry_Int_Tables_number   1
_chemical_formula_structural   Nb3Ga2RhN
_chemical_formula_sum   'Nb12 Ga8 Rh4 N4'
_cell_volume   405.47412090
_cell_formula_units_Z   4
loop_
 _symmetry_equiv_pos_site_id
 _symmetry_equiv_pos_as_xyz
  1  'x, y, z'
loop_
 _atom_site_type_symbol
 _atom_site_label
 _atom_site_symmetry_multiplicity
 _atom_site_fract_x
 _atom_site_fract_y
 _atom_site_fract_z
 _atom_site_occupancy
  Nb  Nb0  1  0.813243  0.813243  0.186757  1
  Nb  Nb1  1  0.186757  0.186757  0.813243  1
  Nb  Nb2  1  0.813243  0.186757  0.813243  1
  Nb  Nb3  1  0.186757  0.813243  0.186757  1
  Nb  Nb4  1  0.186757  0.813243  0.813243  1
  Nb  Nb5  1  0.813243  0.186757  0.186757  1
  Nb  Nb6  1  0.436757  0.436757  0.063243  1
  Nb  Nb7  1  0.063243  0.063243  0.436757  1
  Nb  Nb8  1  0.436757  0.063243  0.436757  1
  Nb  Nb9  1  0.063243  0.436757  0.063243  1
  Nb  Nb10  1  0.063243  0.436757  0.436757  1
  Nb  Nb11  1  0.436757  0.063243  0.063243  1
  Ga  Ga12  1  0.756114  0.414629  0.414629  1
  Ga  Ga13  1  0.414629  0.756114  0.414629  1
  Ga  Ga14  1  0.414629  0.414629  0.756114  1
  Ga  Ga15  1  0.414629  0.414629  0.414629  1
  Ga  Ga16  1  0.493886  0.835371  0.835371  1
  Ga  Ga17  1  0.835371  0.493886  0.835371  1
  Ga  Ga18  1  0.835371  0.835371  0.493886  1
  Ga  Ga19  1  0.835371  0.835371  0.835371  1
  Rh  Rh20  1  0.125000  0.625000  0.625000  1
  Rh  Rh21  1  0.625000  0.125000  0.625000  1
  Rh  Rh22  1  0.625000  0.625000  0.125000  1
  Rh  Rh23  1  0.625000  0.625000  0.625000  1
  N  N24  1  0.625000  0.125000  0.125000  1
  N  N25  1  0.125000  0.625000  0.125000  1
  N  N26  1  0.125000  0.125000  0.625000  1
  N  N27  1  0.125000  0.125000  0.125000  1
