# generated using pymatgen
data_PrEr5ScCo17P12
_symmetry_space_group_name_H-M   'P 1'
_cell_length_a   3.71187200
_cell_length_b   10.60020200
_cell_length_c   12.28945900
_cell_angle_alpha   90.00000000
_cell_angle_beta   90.00000000
_cell_angle_gamma   90.00000000
_symmetry_Int_Tables_number   1
_chemical_formula_structural   PrEr5ScCo17P12
_chemical_formula_sum   'Pr1 Er5 Sc1 Co17 P12'
_cell_volume   483.54834144
_cell_formula_units_Z   1
loop_
 _symmetry_equiv_pos_site_id
 _symmetry_equiv_pos_as_xyz
  1  'x, y, z'
loop_
 _atom_site_type_symbol
 _atom_site_label
 _atom_site_symmetry_multiplicity
 _atom_site_fract_x
 _atom_site_fract_y
 _atom_site_fract_z
 _atom_site_occupancy
  Pr  Pr0  1  0.250000  0.750000  0.523438  1
  Er  Er1  1  0.750000  0.250000  0.472042  1
  Er  Er2  1  0.250000  0.928439  0.793783  1
  Er  Er3  1  0.250000  0.571561  0.793783  1
  Er  Er4  1  0.750000  0.068446  0.204062  1
  Er  Er5  1  0.750000  0.431554  0.204062  1
  Sc  Sc6  1  0.250000  0.250000  0.847398  1
  Co  Co7  1  0.750000  0.750000  0.160287  1
  Co  Co8  1  0.250000  0.250000  0.295562  1
  Co  Co9  1  0.750000  0.750000  0.708309  1
  Co  Co10  1  0.750000  0.250000  0.015537  1
  Co  Co11  1  0.250000  0.750000  0.988102  1
  Co  Co12  1  0.250000  0.422891  0.010034  1
  Co  Co13  1  0.250000  0.077109  0.010034  1
  Co  Co14  1  0.750000  0.587042  0.998590  1
  Co  Co15  1  0.750000  0.912958  0.998590  1
  Co  Co16  1  0.250000  0.451859  0.566217  1
  Co  Co17  1  0.250000  0.048141  0.566217  1
  Co  Co18  1  0.750000  0.543483  0.428371  1
  Co  Co19  1  0.750000  0.956517  0.428371  1
  Co  Co20  1  0.250000  0.870863  0.290158  1
  Co  Co21  1  0.250000  0.629137  0.290158  1
  Co  Co22  1  0.750000  0.128217  0.705346  1
  Co  Co23  1  0.750000  0.371783  0.705346  1
  P  P24  1  0.250000  0.250000  0.116904  1
  P  P25  1  0.750000  0.750000  0.885388  1
  P  P26  1  0.250000  0.250000  0.641437  1
  P  P27  1  0.750000  0.750000  0.340508  1
  P  P28  1  0.250000  0.439159  0.381360  1
  P  P29  1  0.250000  0.060841  0.381360  1
  P  P30  1  0.750000  0.556682  0.615917  1
  P  P31  1  0.750000  0.943318  0.615917  1
  P  P32  1  0.250000  0.899985  0.110662  1
  P  P33  1  0.250000  0.600015  0.110662  1
  P  P34  1  0.750000  0.086606  0.898045  1
  P  P35  1  0.750000  0.413394  0.898045  1
