# generated using pymatgen
data_Mg4Ta2Sb6Pt5Rh
_symmetry_space_group_name_H-M   'P 1'
_cell_length_a   7.75137597
_cell_length_b   7.75259294
_cell_length_c   7.75997895
_cell_angle_alpha   99.66208591
_cell_angle_beta   99.70439710
_cell_angle_gamma   120.14318114
_symmetry_Int_Tables_number   1
_chemical_formula_structural   Mg4Ta2Sb6Pt5Rh
_chemical_formula_sum   'Mg4 Ta2 Sb6 Pt5 Rh1'
_cell_volume   379.65505031
_cell_formula_units_Z   1
loop_
 _symmetry_equiv_pos_site_id
 _symmetry_equiv_pos_as_xyz
  1  'x, y, z'
loop_
 _atom_site_type_symbol
 _atom_site_label
 _atom_site_symmetry_multiplicity
 _atom_site_fract_x
 _atom_site_fract_y
 _atom_site_fract_z
 _atom_site_occupancy
  Mg  Mg0  1  0.326093  0.159880  0.495693  1
  Mg  Mg1  1  0.998219  0.503395  0.498069  1
  Mg  Mg2  1  0.163796  0.328027  0.000657  1
  Mg  Mg3  1  0.501760  0.999167  0.001576  1
  Ta  Ta4  1  0.669113  0.832186  0.499781  1
  Ta  Ta5  1  0.836609  0.672571  0.001909  1
  Sb  Sb6  1  0.925217  0.097738  0.245423  1
  Sb  Sb7  1  0.258354  0.755520  0.247586  1
  Sb  Sb8  1  0.569638  0.399906  0.251901  1
  Sb  Sb9  1  0.099097  0.922750  0.751875  1
  Sb  Sb10  1  0.750310  0.258143  0.749692  1
  Sb  Sb11  1  0.406053  0.575594  0.755092  1
  Pt  Pt12  1  0.874079  0.391106  0.122324  1
  Pt  Pt13  1  0.560847  0.711192  0.136771  1
  Pt  Pt14  1  0.024617  0.193503  0.619648  1
  Pt  Pt15  1  0.390137  0.872312  0.620922  1
  Pt  Pt16  1  0.710207  0.559567  0.634170  1
  Rh  Rh17  1  0.185809  0.017402  0.116910  1
