# generated using pymatgen
data_LaDy(Ge2Pt)2
_symmetry_space_group_name_H-M   'P 1'
_cell_length_a   4.43688470
_cell_length_b   8.80928269
_cell_length_c   9.66034007
_cell_angle_alpha   117.12613622
_cell_angle_beta   103.27613411
_cell_angle_gamma   90.00000548
_symmetry_Int_Tables_number   1
_chemical_formula_structural   LaDy(Ge2Pt)2
_chemical_formula_sum   'La2 Dy2 Ge8 Pt4'
_cell_volume   324.67037291
_cell_formula_units_Z   2
loop_
 _symmetry_equiv_pos_site_id
 _symmetry_equiv_pos_as_xyz
  1  'x, y, z'
loop_
 _atom_site_type_symbol
 _atom_site_label
 _atom_site_symmetry_multiplicity
 _atom_site_fract_x
 _atom_site_fract_y
 _atom_site_fract_z
 _atom_site_occupancy
  La  La0  1  0.000000  0.260114  0.000000  1
  La  La1  1  0.000000  0.739886  0.000000  1
  Dy  Dy2  1  0.797796  0.297796  0.595592  1
  Dy  Dy3  1  0.202204  0.702204  0.404408  1
  Ge  Ge4  1  0.425979  0.925979  0.851959  1
  Ge  Ge5  1  0.574021  0.074021  0.148041  1
  Ge  Ge6  1  0.423890  0.423890  0.847780  1
  Ge  Ge7  1  0.576110  0.576110  0.152220  1
  Ge  Ge8  1  0.200861  0.051495  0.401723  1
  Ge  Ge9  1  0.799139  0.948505  0.598277  1
  Ge  Ge10  1  0.200861  0.350227  0.401723  1
  Ge  Ge11  1  0.799139  0.649773  0.598277  1
  Pt  Pt12  1  0.348565  0.095828  0.697131  1
  Pt  Pt13  1  0.651435  0.904172  0.302869  1
  Pt  Pt14  1  0.348565  0.601303  0.697131  1
  Pt  Pt15  1  0.651435  0.398697  0.302869  1
