# generated using pymatgen
data_RbPPt
_symmetry_space_group_name_H-M   'P 1'
_cell_length_a   6.82106973
_cell_length_b   6.84093582
_cell_length_c   7.78190100
_cell_angle_alpha   90.00000000
_cell_angle_beta   90.00000000
_cell_angle_gamma   110.47431564
_symmetry_Int_Tables_number   1
_chemical_formula_structural   RbPPt
_chemical_formula_sum   'Rb4 P4 Pt4'
_cell_volume   340.18414753
_cell_formula_units_Z   4
loop_
 _symmetry_equiv_pos_site_id
 _symmetry_equiv_pos_as_xyz
  1  'x, y, z'
loop_
 _atom_site_type_symbol
 _atom_site_label
 _atom_site_symmetry_multiplicity
 _atom_site_fract_x
 _atom_site_fract_y
 _atom_site_fract_z
 _atom_site_occupancy
  Rb  Rb0  1  0.187699  0.808038  0.508827  1
  Rb  Rb1  1  0.687699  0.308038  0.991173  1
  Rb  Rb2  1  0.812301  0.191962  0.491173  1
  Rb  Rb3  1  0.312301  0.691962  0.008827  1
  P  P4  1  0.161827  0.178409  0.829528  1
  P  P5  1  0.661827  0.678409  0.670472  1
  P  P6  1  0.838173  0.821591  0.170472  1
  P  P7  1  0.338173  0.321591  0.329528  1
  Pt  Pt8  1  0.369793  0.377788  0.626352  1
  Pt  Pt9  1  0.630207  0.622212  0.373648  1
  Pt  Pt10  1  0.130207  0.122212  0.126352  1
  Pt  Pt11  1  0.869793  0.877788  0.873648  1
