# generated using pymatgen
data_Dy2Th(InRh)3
_symmetry_space_group_name_H-M   'P 1'
_cell_length_a   7.59024623
_cell_length_b   7.78628235
_cell_length_c   3.89829100
_cell_angle_alpha   90.00000000
_cell_angle_beta   90.00000000
_cell_angle_gamma   120.85808723
_symmetry_Int_Tables_number   1
_chemical_formula_structural   Dy2Th(InRh)3
_chemical_formula_sum   'Dy2 Th1 In3 Rh3'
_cell_volume   197.77454138
_cell_formula_units_Z   1
loop_
 _symmetry_equiv_pos_site_id
 _symmetry_equiv_pos_as_xyz
  1  'x, y, z'
loop_
 _atom_site_type_symbol
 _atom_site_label
 _atom_site_symmetry_multiplicity
 _atom_site_fract_x
 _atom_site_fract_y
 _atom_site_fract_z
 _atom_site_occupancy
  Dy  Dy0  1  0.594346  0.001777  0.500000  1
  Dy  Dy1  1  0.405654  0.407431  0.500000  1
  Th  Th2  1  0.000000  0.583519  0.500000  1
  In  In3  1  0.000000  0.240358  0.000000  1
  In  In4  1  0.270411  0.014654  0.000000  1
  In  In5  1  0.729589  0.744243  0.000000  1
  Rh  Rh6  1  0.000000  0.990338  0.500000  1
  Rh  Rh7  1  0.685960  0.351820  0.000000  1
  Rh  Rh8  1  0.314040  0.665861  0.000000  1
