# generated using pymatgen
data_Ca(Ge2Rh3)2
_symmetry_space_group_name_H-M   'P 1'
_cell_length_a   7.24581900
_cell_length_b   7.24581710
_cell_length_c   3.85404200
_cell_angle_alpha   90.00000000
_cell_angle_beta   90.00000000
_cell_angle_gamma   119.99999497
_symmetry_Int_Tables_number   1
_chemical_formula_structural   Ca(Ge2Rh3)2
_chemical_formula_sum   'Ca1 Ge4 Rh6'
_cell_volume   175.23544085
_cell_formula_units_Z   1
loop_
 _symmetry_equiv_pos_site_id
 _symmetry_equiv_pos_as_xyz
  1  'x, y, z'
loop_
 _atom_site_type_symbol
 _atom_site_label
 _atom_site_symmetry_multiplicity
 _atom_site_fract_x
 _atom_site_fract_y
 _atom_site_fract_z
 _atom_site_occupancy
  Ca  Ca0  1  0.000000  0.000000  0.000000  1
  Ge  Ge1  1  0.802182  0.197818  0.500000  1
  Ge  Ge2  1  0.802182  0.604365  0.500000  1
  Ge  Ge3  1  0.395635  0.197818  0.500000  1
  Ge  Ge4  1  0.333333  0.666667  0.000000  1
  Rh  Rh5  1  0.533387  0.466613  0.000000  1
  Rh  Rh6  1  0.533387  0.066774  0.000000  1
  Rh  Rh7  1  0.933226  0.466613  0.000000  1
  Rh  Rh8  1  0.198967  0.801033  0.500000  1
  Rh  Rh9  1  0.198967  0.397933  0.500000  1
  Rh  Rh10  1  0.602067  0.801033  0.500000  1
