# generated using pymatgen
data_Dy2Ho2TmInAu4
_symmetry_space_group_name_H-M   'P 1'
_cell_length_a   8.07921745
_cell_length_b   8.08152045
_cell_length_c   3.74127000
_cell_angle_alpha   90.00000000
_cell_angle_beta   90.00000000
_cell_angle_gamma   89.96175256
_symmetry_Int_Tables_number   1
_chemical_formula_structural   Dy2Ho2TmInAu4
_chemical_formula_sum   'Dy2 Ho2 Tm1 In1 Au4'
_cell_volume   244.27629718
_cell_formula_units_Z   1
loop_
 _symmetry_equiv_pos_site_id
 _symmetry_equiv_pos_as_xyz
  1  'x, y, z'
loop_
 _atom_site_type_symbol
 _atom_site_label
 _atom_site_symmetry_multiplicity
 _atom_site_fract_x
 _atom_site_fract_y
 _atom_site_fract_z
 _atom_site_occupancy
  Dy  Dy0  1  0.684643  0.142987  0.500000  1
  Dy  Dy1  1  0.315357  0.857013  0.500000  1
  Ho  Ho2  1  0.142820  0.315622  0.500000  1
  Ho  Ho3  1  0.857180  0.684378  0.500000  1
  Tm  Tm4  1  0.500000  0.500000  0.000000  1
  In  In5  1  0.000000  0.000000  0.000000  1
  Au  Au6  1  0.146146  0.618308  0.000000  1
  Au  Au7  1  0.853854  0.381692  0.000000  1
  Au  Au8  1  0.618936  0.853292  0.000000  1
  Au  Au9  1  0.381064  0.146708  0.000000  1
