# generated using pymatgen
data_Gd3Au10
_symmetry_space_group_name_H-M   'P 1'
_cell_length_a   11.09454500
_cell_length_b   11.09418595
_cell_length_c   5.02817700
_cell_angle_alpha   90.00000000
_cell_angle_beta   90.00000000
_cell_angle_gamma   120.01372297
_symmetry_Int_Tables_number   1
_chemical_formula_structural   Gd3Au10
_chemical_formula_sum   'Gd6 Au20'
_cell_volume   535.90283437
_cell_formula_units_Z   2
loop_
 _symmetry_equiv_pos_site_id
 _symmetry_equiv_pos_as_xyz
  1  'x, y, z'
loop_
 _atom_site_type_symbol
 _atom_site_label
 _atom_site_symmetry_multiplicity
 _atom_site_fract_x
 _atom_site_fract_y
 _atom_site_fract_z
 _atom_site_occupancy
  Gd  Gd0  1  0.103046  0.360043  0.250001  1
  Gd  Gd1  1  0.896953  0.639955  0.750001  1
  Gd  Gd2  1  0.639114  0.742910  0.250001  1
  Gd  Gd3  1  0.256976  0.896695  0.250001  1
  Gd  Gd4  1  0.743025  0.103306  0.750001  1
  Gd  Gd5  1  0.360885  0.257090  0.750001  1
  Au  Au6  1  0.332809  0.666200  0.250001  1
  Au  Au7  1  0.667192  0.333800  0.750001  1
  Au  Au8  1  0.411090  0.434646  0.250001  1
  Au  Au9  1  0.588911  0.565354  0.750001  1
  Au  Au10  1  0.565223  0.976594  0.250001  1
  Au  Au11  1  0.022876  0.588400  0.250001  1
  Au  Au12  1  0.977123  0.411600  0.750001  1
  Au  Au13  1  0.434776  0.023406  0.750001  1
  Au  Au14  1  0.175001  0.123736  0.250001  1
  Au  Au15  1  0.824998  0.876264  0.750001  1
  Au  Au16  1  0.876326  0.051053  0.250001  1
  Au  Au17  1  0.948335  0.824358  0.250001  1
  Au  Au18  1  0.051664  0.175642  0.750001  1
  Au  Au19  1  0.123674  0.948946  0.750001  1
  Au  Au20  1  0.492139  0.206089  0.250001  1
  Au  Au21  1  0.507861  0.793909  0.750001  1
  Au  Au22  1  0.794439  0.286044  0.250001  1
  Au  Au23  1  0.714298  0.508656  0.250001  1
  Au  Au24  1  0.285703  0.491344  0.750001  1
  Au  Au25  1  0.205560  0.713956  0.750001  1
