# generated using pymatgen
data_V10Si5PC
_symmetry_space_group_name_H-M   'P 1'
_cell_length_a   7.11479434
_cell_length_b   7.11832288
_cell_length_c   4.82741884
_cell_angle_alpha   90.12444992
_cell_angle_beta   89.93774674
_cell_angle_gamma   120.01640754
_symmetry_Int_Tables_number   1
_chemical_formula_structural   V10Si5PC
_chemical_formula_sum   'V10 Si5 P1 C1'
_cell_volume   211.69607005
_cell_formula_units_Z   1
loop_
 _symmetry_equiv_pos_site_id
 _symmetry_equiv_pos_as_xyz
  1  'x, y, z'
loop_
 _atom_site_type_symbol
 _atom_site_label
 _atom_site_symmetry_multiplicity
 _atom_site_fract_x
 _atom_site_fract_y
 _atom_site_fract_z
 _atom_site_occupancy
  V  V0  1  0.000000  0.757153  0.256493  1
  V  V1  1  0.236141  0.239071  0.255381  1
  V  V2  1  0.763859  0.002931  0.255381  1
  V  V3  1  0.000000  0.242429  0.743642  1
  V  V4  1  0.760524  0.762648  0.744233  1
  V  V5  1  0.239476  0.002124  0.744233  1
  V  V6  1  0.327998  0.662051  0.001278  1
  V  V7  1  0.672002  0.334053  0.001278  1
  V  V8  1  0.671906  0.334332  0.499644  1
  V  V9  1  0.328094  0.662427  0.499644  1
  Si  Si10  1  0.599348  0.600033  0.244040  1
  Si  Si11  1  0.400652  0.000685  0.244040  1
  Si  Si12  1  0.000000  0.605569  0.756623  1
  Si  Si13  1  0.403071  0.400450  0.756041  1
  Si  Si14  1  0.596929  0.997379  0.756041  1
  P  P15  1  0.000000  0.397597  0.241698  1
  C  C16  1  0.000000  0.999069  0.500310  1
