# generated using pymatgen
data_Pr2Mg3Pa2ZnRh4
_symmetry_space_group_name_H-M   'P 1'
_cell_length_a   3.90708600
_cell_length_b   7.40980219
_cell_length_c   8.89326958
_cell_angle_alpha   87.28121430
_cell_angle_beta   90.00000000
_cell_angle_gamma   90.00000000
_symmetry_Int_Tables_number   1
_chemical_formula_structural   Pr2Mg3Pa2ZnRh4
_chemical_formula_sum   'Pr2 Mg3 Pa2 Zn1 Rh4'
_cell_volume   257.17687521
_cell_formula_units_Z   1
loop_
 _symmetry_equiv_pos_site_id
 _symmetry_equiv_pos_as_xyz
  1  'x, y, z'
loop_
 _atom_site_type_symbol
 _atom_site_label
 _atom_site_symmetry_multiplicity
 _atom_site_fract_x
 _atom_site_fract_y
 _atom_site_fract_z
 _atom_site_occupancy
  Pr  Pr0  1  0.250000  0.537856  0.178745  1
  Pr  Pr1  1  0.750000  0.449990  0.823663  1
  Mg  Mg2  1  0.750000  0.870818  0.048417  1
  Mg  Mg3  1  0.250000  0.639928  0.556493  1
  Mg  Mg4  1  0.750000  0.360878  0.444615  1
  Pa  Pa5  1  0.250000  0.036108  0.310861  1
  Pa  Pa6  1  0.750000  0.968143  0.691423  1
  Zn  Zn7  1  0.250000  0.135377  0.947831  1
  Rh  Rh8  1  0.750000  0.223778  0.158474  1
  Rh  Rh9  1  0.250000  0.775209  0.839360  1
  Rh  Rh10  1  0.750000  0.790509  0.371088  1
  Rh  Rh11  1  0.250000  0.211406  0.629028  1
