# generated using pymatgen
data_Y8Ho4Co4SnPd
_symmetry_space_group_name_H-M   'P 1'
_cell_length_a   8.35169874
_cell_length_b   8.35166528
_cell_length_c   8.35169771
_cell_angle_alpha   110.96082106
_cell_angle_beta   110.42916017
_cell_angle_gamma   107.05107933
_symmetry_Int_Tables_number   1
_chemical_formula_structural   Y8Ho4Co4SnPd
_chemical_formula_sum   'Y8 Ho4 Co4 Sn1 Pd1'
_cell_volume   447.82842340
_cell_formula_units_Z   1
loop_
 _symmetry_equiv_pos_site_id
 _symmetry_equiv_pos_as_xyz
  1  'x, y, z'
loop_
 _atom_site_type_symbol
 _atom_site_label
 _atom_site_symmetry_multiplicity
 _atom_site_fract_x
 _atom_site_fract_y
 _atom_site_fract_z
 _atom_site_occupancy
  Y  Y0  1  0.414694  0.215170  0.199527  1
  Y  Y1  1  0.585306  0.784830  0.800473  1
  Y  Y2  1  0.015642  0.215170  0.800476  1
  Y  Y3  1  0.984358  0.784830  0.199524  1
  Y  Y4  1  0.186453  0.292749  0.479199  1
  Y  Y5  1  0.813547  0.707251  0.520801  1
  Y  Y6  1  0.186452  0.707251  0.893705  1
  Y  Y7  1  0.813548  0.292749  0.106295  1
  Ho  Ho8  1  0.315109  0.621718  0.306610  1
  Ho  Ho9  1  0.684891  0.378282  0.693390  1
  Ho  Ho10  1  0.315107  0.008499  0.693392  1
  Ho  Ho11  1  0.684893  0.991501  0.306608  1
  Co  Co12  1  0.379601  0.000000  0.379601  1
  Co  Co13  1  0.620399  0.000000  0.620399  1
  Co  Co14  1  0.112210  0.612211  0.500001  1
  Co  Co15  1  0.887790  0.387789  0.499999  1
  Sn  Sn16  1  0.500000  0.500000  0.000000  1
  Pd  Pd17  1  0.000000  0.000000  0.000000  1
