# generated using pymatgen
data_Nd4ScAl3Ir3Pt
_symmetry_space_group_name_H-M   'P 1'
_cell_length_a   4.41759200
_cell_length_b   7.15169248
_cell_length_c   8.09980512
_cell_angle_alpha   89.19316045
_cell_angle_beta   90.00000000
_cell_angle_gamma   90.00000000
_symmetry_Int_Tables_number   1
_chemical_formula_structural   Nd4ScAl3Ir3Pt
_chemical_formula_sum   'Nd4 Sc1 Al3 Ir3 Pt1'
_cell_volume   255.87387243
_cell_formula_units_Z   1
loop_
 _symmetry_equiv_pos_site_id
 _symmetry_equiv_pos_as_xyz
  1  'x, y, z'
loop_
 _atom_site_type_symbol
 _atom_site_label
 _atom_site_symmetry_multiplicity
 _atom_site_fract_x
 _atom_site_fract_y
 _atom_site_fract_z
 _atom_site_occupancy
  Nd  Nd0  1  0.750000  0.457821  0.173422  1
  Nd  Nd1  1  0.250000  0.037261  0.687911  1
  Nd  Nd2  1  0.750000  0.981744  0.318268  1
  Nd  Nd3  1  0.250000  0.523802  0.820843  1
  Sc  Sc4  1  0.250000  0.630116  0.436196  1
  Al  Al5  1  0.750000  0.861708  0.936414  1
  Al  Al6  1  0.750000  0.360813  0.563969  1
  Al  Al7  1  0.250000  0.146955  0.063963  1
  Ir  Ir8  1  0.750000  0.728409  0.621169  1
  Ir  Ir9  1  0.750000  0.221923  0.887225  1
  Ir  Ir10  1  0.250000  0.267039  0.382360  1
  Pt  Pt11  1  0.250000  0.782411  0.108261  1
