# generated using pymatgen
data_DyYNi2Hg
_symmetry_space_group_name_H-M   'P 1'
_cell_length_a   7.31588388
_cell_length_b   7.31588300
_cell_length_c   3.69234100
_cell_angle_alpha   90.00000000
_cell_angle_beta   90.00000000
_cell_angle_gamma   148.80101477
_symmetry_Int_Tables_number   1
_chemical_formula_structural   DyYNi2Hg
_chemical_formula_sum   'Dy1 Y1 Ni2 Hg1'
_cell_volume   102.37055557
_cell_formula_units_Z   1
loop_
 _symmetry_equiv_pos_site_id
 _symmetry_equiv_pos_as_xyz
  1  'x, y, z'
loop_
 _atom_site_type_symbol
 _atom_site_label
 _atom_site_symmetry_multiplicity
 _atom_site_fract_x
 _atom_site_fract_y
 _atom_site_fract_z
 _atom_site_occupancy
  Dy  Dy0  1  0.362842  0.637158  0.500000  1
  Y  Y1  1  0.635730  0.364270  0.500000  1
  Ni  Ni2  1  0.800791  0.199209  0.000000  1
  Ni  Ni3  1  0.200910  0.799090  0.000000  1
  Hg  Hg4  1  0.999727  0.000273  0.000000  1
