# generated using pymatgen
data_Nd3Zn3IrPdPt
_symmetry_space_group_name_H-M   'P 1'
_cell_length_a   7.40299800
_cell_length_b   7.40299771
_cell_length_c   3.98936000
_cell_angle_alpha   90.00000000
_cell_angle_beta   90.00000000
_cell_angle_gamma   120.00000129
_symmetry_Int_Tables_number   1
_chemical_formula_structural   Nd3Zn3IrPdPt
_chemical_formula_sum   'Nd3 Zn3 Ir1 Pd1 Pt1'
_cell_volume   189.34293383
_cell_formula_units_Z   1
loop_
 _symmetry_equiv_pos_site_id
 _symmetry_equiv_pos_as_xyz
  1  'x, y, z'
loop_
 _atom_site_type_symbol
 _atom_site_label
 _atom_site_symmetry_multiplicity
 _atom_site_fract_x
 _atom_site_fract_y
 _atom_site_fract_z
 _atom_site_occupancy
  Nd  Nd0  1  0.408978  0.415225  0.000000  1
  Nd  Nd1  1  0.584775  0.993753  0.000000  1
  Nd  Nd2  1  0.006247  0.591022  0.000000  1
  Zn  Zn3  1  0.751885  0.754223  0.500000  1
  Zn  Zn4  1  0.245777  0.997662  0.500000  1
  Zn  Zn5  1  0.002338  0.248115  0.500000  1
  Ir  Ir6  1  0.333333  0.666667  0.500000  1
  Pd  Pd7  1  0.000000  0.000000  0.000000  1
  Pt  Pt8  1  0.666667  0.333333  0.500000  1
