# generated using pymatgen
data_Tb4YbY2PtI12
_symmetry_space_group_name_H-M   'P 1'
_cell_length_a   9.80806917
_cell_length_b   9.81032029
_cell_length_c   9.80633829
_cell_angle_alpha   107.03976241
_cell_angle_beta   107.00711888
_cell_angle_gamma   107.02995582
_symmetry_Int_Tables_number   1
_chemical_formula_structural   Tb4YbY2PtI12
_chemical_formula_sum   'Tb4 Yb1 Y2 Pt1 I12'
_cell_volume   785.26341027
_cell_formula_units_Z   1
loop_
 _symmetry_equiv_pos_site_id
 _symmetry_equiv_pos_as_xyz
  1  'x, y, z'
loop_
 _atom_site_type_symbol
 _atom_site_label
 _atom_site_symmetry_multiplicity
 _atom_site_fract_x
 _atom_site_fract_y
 _atom_site_fract_z
 _atom_site_occupancy
  Tb  Tb0  1  0.027925  0.303390  0.099379  1
  Tb  Tb1  1  0.900853  0.972385  0.696506  1
  Tb  Tb2  1  0.696546  0.900636  0.972525  1
  Tb  Tb3  1  0.972613  0.696837  0.900994  1
  Yb  Yb4  1  0.500034  0.499966  0.500024  1
  Y  Y5  1  0.099414  0.027883  0.303534  1
  Y  Y6  1  0.303614  0.099320  0.028107  1
  Pt  Pt7  1  0.999718  0.999987  0.999764  1
  I  I8  1  0.073512  0.679675  0.224533  1
  I  I9  1  0.224346  0.073357  0.678804  1
  I  I10  1  0.678404  0.224154  0.073278  1
  I  I11  1  0.926659  0.320735  0.775750  1
  I  I12  1  0.776246  0.926795  0.320709  1
  I  I13  1  0.320757  0.776274  0.926783  1
  I  I14  1  0.460094  0.153465  0.382883  1
  I  I15  1  0.383276  0.460144  0.153576  1
  I  I16  1  0.153754  0.382925  0.460640  1
  I  I17  1  0.539314  0.846121  0.616756  1
  I  I18  1  0.616710  0.539238  0.846133  1
  I  I19  1  0.846211  0.616710  0.539321  1
