# generated using pymatgen
data_Tm4NbCo4
_symmetry_space_group_name_H-M   'P 1'
_cell_length_a   5.56115345
_cell_length_b   5.56115356
_cell_length_c   8.91661523
_cell_angle_alpha   72.25209849
_cell_angle_beta   72.25209562
_cell_angle_gamma   41.16470878
_symmetry_Int_Tables_number   1
_chemical_formula_structural   Tm4NbCo4
_chemical_formula_sum   'Tm4 Nb1 Co4'
_cell_volume   171.61986287
_cell_formula_units_Z   1
loop_
 _symmetry_equiv_pos_site_id
 _symmetry_equiv_pos_as_xyz
  1  'x, y, z'
loop_
 _atom_site_type_symbol
 _atom_site_label
 _atom_site_symmetry_multiplicity
 _atom_site_fract_x
 _atom_site_fract_y
 _atom_site_fract_z
 _atom_site_occupancy
  Tm  Tm0  1  0.740102  0.740102  0.666010  1
  Tm  Tm1  1  0.259898  0.259898  0.333990  1
  Tm  Tm2  1  0.389291  0.389291  0.891454  1
  Tm  Tm3  1  0.610709  0.610709  0.108546  1
  Nb  Nb4  1  0.500000  0.500000  0.500000  1
  Co  Co5  1  0.031081  0.031081  0.651068  1
  Co  Co6  1  0.968919  0.968919  0.348932  1
  Co  Co7  1  0.088162  0.088162  0.881300  1
  Co  Co8  1  0.911838  0.911838  0.118700  1
