# generated using pymatgen
data_Li5SiAg2Ge
_symmetry_space_group_name_H-M   'P 1'
_cell_length_a   4.44365500
_cell_length_b   4.44365652
_cell_length_c   8.11851300
_cell_angle_alpha   90.00000000
_cell_angle_beta   90.00000000
_cell_angle_gamma   120.00001105
_symmetry_Int_Tables_number   1
_chemical_formula_structural   Li5SiAg2Ge
_chemical_formula_sum   'Li5 Si1 Ag2 Ge1'
_cell_volume   138.83145937
_cell_formula_units_Z   1
loop_
 _symmetry_equiv_pos_site_id
 _symmetry_equiv_pos_as_xyz
  1  'x, y, z'
loop_
 _atom_site_type_symbol
 _atom_site_label
 _atom_site_symmetry_multiplicity
 _atom_site_fract_x
 _atom_site_fract_y
 _atom_site_fract_z
 _atom_site_occupancy
  Li  Li0  1  0.333333  0.666667  0.110219  1
  Li  Li1  1  0.666667  0.333333  0.885858  1
  Li  Li2  1  0.333333  0.666667  0.437766  1
  Li  Li3  1  0.666667  0.333333  0.565138  1
  Li  Li4  1  0.000000  0.000000  0.999534  1
  Si  Si5  1  0.333333  0.666667  0.766902  1
  Ag  Ag6  1  0.000000  0.000000  0.317388  1
  Ag  Ag7  1  0.000000  0.000000  0.688359  1
  Ge  Ge8  1  0.666667  0.333333  0.228836  1
