# generated using pymatgen
data_YU3(ReB6)2
_symmetry_space_group_name_H-M   'P 1'
_cell_length_a   3.63823900
_cell_length_b   9.30036421
_cell_length_c   11.40174326
_cell_angle_alpha   89.97576041
_cell_angle_beta   90.00000000
_cell_angle_gamma   90.00000000
_symmetry_Int_Tables_number   1
_chemical_formula_structural   YU3(ReB6)2
_chemical_formula_sum   'Y2 U6 Re4 B24'
_cell_volume   385.80015655
_cell_formula_units_Z   2
loop_
 _symmetry_equiv_pos_site_id
 _symmetry_equiv_pos_as_xyz
  1  'x, y, z'
loop_
 _atom_site_type_symbol
 _atom_site_label
 _atom_site_symmetry_multiplicity
 _atom_site_fract_x
 _atom_site_fract_y
 _atom_site_fract_z
 _atom_site_occupancy
  Y  Y0  1  0.000000  0.336574  0.407882  1
  Y  Y1  1  0.000000  0.663426  0.592118  1
  U  U2  1  0.000000  0.836411  0.092756  1
  U  U3  1  0.000000  0.163589  0.907244  1
  U  U4  1  0.000000  0.956524  0.396432  1
  U  U5  1  0.000000  0.043476  0.603568  1
  U  U6  1  0.000000  0.457209  0.103430  1
  U  U7  1  0.000000  0.542791  0.896570  1
  Re  Re8  1  0.000000  0.647580  0.316376  1
  Re  Re9  1  0.000000  0.352420  0.683624  1
  Re  Re10  1  0.000000  0.143195  0.177763  1
  Re  Re11  1  0.000000  0.856805  0.822237  1
  B  B12  1  0.500000  0.552093  0.430664  1
  B  B13  1  0.500000  0.447907  0.569336  1
  B  B14  1  0.500000  0.049830  0.067440  1
  B  B15  1  0.500000  0.950170  0.932560  1
  B  B16  1  0.500000  0.742959  0.423098  1
  B  B17  1  0.500000  0.257041  0.576902  1
  B  B18  1  0.500000  0.243032  0.076240  1
  B  B19  1  0.500000  0.756968  0.923760  1
  B  B20  1  0.500000  0.803908  0.273464  1
  B  B21  1  0.500000  0.196092  0.726536  1
  B  B22  1  0.500000  0.302296  0.224966  1
  B  B23  1  0.500000  0.697704  0.775034  1
  B  B24  1  0.500000  0.645268  0.187835  1
  B  B25  1  0.500000  0.354732  0.812165  1
  B  B26  1  0.500000  0.144345  0.311331  1
  B  B27  1  0.500000  0.855655  0.688669  1
  B  B28  1  0.500000  0.987015  0.219022  1
  B  B29  1  0.500000  0.012985  0.780978  1
  B  B30  1  0.500000  0.488493  0.280557  1
  B  B31  1  0.500000  0.511507  0.719443  1
  B  B32  1  0.500000  0.643389  0.039407  1
  B  B33  1  0.500000  0.356611  0.960593  1
  B  B34  1  0.500000  0.140127  0.460936  1
  B  B35  1  0.500000  0.859873  0.539064  1
