# generated using pymatgen
data_V17Si12TcNi2
_symmetry_space_group_name_H-M   'P 1'
_cell_length_a   7.03268133
_cell_length_b   7.03268107
_cell_length_c   13.23240200
_cell_angle_alpha   90.00000000
_cell_angle_beta   90.00000000
_cell_angle_gamma   140.51617401
_symmetry_Int_Tables_number   1
_chemical_formula_structural   V17Si12TcNi2
_chemical_formula_sum   'V17 Si12 Tc1 Ni2'
_cell_volume   416.14272663
_cell_formula_units_Z   1
loop_
 _symmetry_equiv_pos_site_id
 _symmetry_equiv_pos_as_xyz
  1  'x, y, z'
loop_
 _atom_site_type_symbol
 _atom_site_label
 _atom_site_symmetry_multiplicity
 _atom_site_fract_x
 _atom_site_fract_y
 _atom_site_fract_z
 _atom_site_occupancy
  V  V0  1  0.071768  0.422574  0.398564  1
  V  V1  1  0.569455  0.932911  0.901654  1
  V  V2  1  0.422574  0.071768  0.601436  1
  V  V3  1  0.932911  0.569455  0.098346  1
  V  V4  1  0.850271  0.652628  0.679242  1
  V  V5  1  0.351236  0.150483  0.177960  1
  V  V6  1  0.652628  0.850271  0.320758  1
  V  V7  1  0.150483  0.351236  0.822040  1
  V  V8  1  0.652628  0.850271  0.679242  1
  V  V9  1  0.150483  0.351236  0.177960  1
  V  V10  1  0.850271  0.652628  0.320758  1
  V  V11  1  0.351236  0.150483  0.822040  1
  V  V12  1  0.422574  0.071768  0.398564  1
  V  V13  1  0.932911  0.569455  0.901654  1
  V  V14  1  0.071768  0.422574  0.601436  1
  V  V15  1  0.569455  0.932911  0.098346  1
  V  V16  1  0.997707  0.997707  0.500000  1
  Si  Si17  1  0.250419  0.749781  0.750652  1
  Si  Si18  1  0.749781  0.250419  0.249348  1
  Si  Si19  1  0.749781  0.250419  0.750652  1
  Si  Si20  1  0.250419  0.749781  0.249348  1
  Si  Si21  1  0.244592  0.244592  0.666635  1
  Si  Si22  1  0.751724  0.751724  0.155317  1
  Si  Si23  1  0.244592  0.244592  0.333365  1
  Si  Si24  1  0.751724  0.751724  0.844683  1
  Si  Si25  1  0.584905  0.919108  0.500000  1
  Si  Si26  1  0.095790  0.406415  0.000000  1
  Si  Si27  1  0.919108  0.584905  0.500000  1
  Si  Si28  1  0.406415  0.095790  0.000000  1
  Tc  Tc29  1  0.498013  0.498013  0.500000  1
  Ni  Ni30  1  0.500956  0.500956  0.000000  1
  Ni  Ni31  1  0.001417  0.001417  0.000000  1
