# generated using pymatgen
data_Re6P12Se
_symmetry_space_group_name_H-M   'P 1'
_cell_length_a   9.57145043
_cell_length_b   9.57145049
_cell_length_c   9.57145031
_cell_angle_alpha   111.84386978
_cell_angle_beta   111.84387511
_cell_angle_gamma   111.84387852
_symmetry_Int_Tables_number   1
_chemical_formula_structural   Re6P12Se
_chemical_formula_sum   'Re12 P24 Se2'
_cell_volume   608.55339287
_cell_formula_units_Z   2
loop_
 _symmetry_equiv_pos_site_id
 _symmetry_equiv_pos_as_xyz
  1  'x, y, z'
loop_
 _atom_site_type_symbol
 _atom_site_label
 _atom_site_symmetry_multiplicity
 _atom_site_fract_x
 _atom_site_fract_y
 _atom_site_fract_z
 _atom_site_occupancy
  Re  Re0  1  0.823049  0.913309  0.330818  1
  Re  Re1  1  0.913309  0.330818  0.823049  1
  Re  Re2  1  0.330818  0.823049  0.913309  1
  Re  Re3  1  0.176951  0.086691  0.669182  1
  Re  Re4  1  0.086691  0.669182  0.176951  1
  Re  Re5  1  0.669182  0.176951  0.086691  1
  Re  Re6  1  0.835620  0.727907  0.500294  1
  Re  Re7  1  0.727907  0.500294  0.835620  1
  Re  Re8  1  0.500294  0.835620  0.727907  1
  Re  Re9  1  0.164380  0.272093  0.499706  1
  Re  Re10  1  0.272093  0.499706  0.164380  1
  Re  Re11  1  0.499706  0.164380  0.272093  1
  P  P12  1  0.961707  0.002736  0.195765  1
  P  P13  1  0.002736  0.195765  0.961707  1
  P  P14  1  0.195765  0.961707  0.002736  1
  P  P15  1  0.038293  0.997264  0.804235  1
  P  P16  1  0.997264  0.804235  0.038293  1
  P  P17  1  0.804235  0.038293  0.997264  1
  P  P18  1  0.376741  0.005423  0.795635  1
  P  P19  1  0.005423  0.795635  0.376741  1
  P  P20  1  0.795635  0.376741  0.005423  1
  P  P21  1  0.623259  0.994577  0.204365  1
  P  P22  1  0.994577  0.204365  0.623259  1
  P  P23  1  0.204365  0.623259  0.994577  1
  P  P24  1  0.399692  0.221566  0.612948  1
  P  P25  1  0.221566  0.612949  0.399692  1
  P  P26  1  0.612949  0.399692  0.221566  1
  P  P27  1  0.600308  0.778434  0.387051  1
  P  P28  1  0.778434  0.387052  0.600308  1
  P  P29  1  0.387051  0.600308  0.778434  1
  P  P30  1  0.603247  0.611817  0.001670  1
  P  P31  1  0.611817  0.001670  0.603247  1
  P  P32  1  0.001670  0.603247  0.611817  1
  P  P33  1  0.396753  0.388183  0.998330  1
  P  P34  1  0.388183  0.998330  0.396753  1
  P  P35  1  0.998330  0.396753  0.388183  1
  Se  Se36  1  0.354697  0.354697  0.354697  1
  Se  Se37  1  0.645303  0.645303  0.645303  1
