# generated using pymatgen
data_Ti12CuSn2Sb7
_symmetry_space_group_name_H-M   'P 1'
_cell_length_a   9.22510700
_cell_length_b   9.22510724
_cell_length_c   5.59497200
_cell_angle_alpha   90.00000000
_cell_angle_beta   90.00000000
_cell_angle_gamma   120.00000273
_symmetry_Int_Tables_number   1
_chemical_formula_structural   Ti12CuSn2Sb7
_chemical_formula_sum   'Ti12 Cu1 Sn2 Sb7'
_cell_volume   412.35510224
_cell_formula_units_Z   1
loop_
 _symmetry_equiv_pos_site_id
 _symmetry_equiv_pos_as_xyz
  1  'x, y, z'
loop_
 _atom_site_type_symbol
 _atom_site_label
 _atom_site_symmetry_multiplicity
 _atom_site_fract_x
 _atom_site_fract_y
 _atom_site_fract_z
 _atom_site_occupancy
  Ti  Ti0  1  0.848786  0.697572  0.749002  1
  Ti  Ti1  1  0.151214  0.848786  0.250998  1
  Ti  Ti2  1  0.697572  0.848786  0.250998  1
  Ti  Ti3  1  0.302428  0.151214  0.749002  1
  Ti  Ti4  1  0.848786  0.151214  0.749002  1
  Ti  Ti5  1  0.151214  0.302428  0.250998  1
  Ti  Ti6  1  0.500000  0.000000  0.500000  1
  Ti  Ti7  1  0.500000  0.500000  0.000000  1
  Ti  Ti8  1  0.000000  0.500000  0.000000  1
  Ti  Ti9  1  0.000000  0.500000  0.500000  1
  Ti  Ti10  1  0.500000  0.000000  0.000000  1
  Ti  Ti11  1  0.500000  0.500000  0.500000  1
  Cu  Cu12  1  0.000000  0.000000  0.500000  1
  Sn  Sn13  1  0.666667  0.333333  0.751480  1
  Sn  Sn14  1  0.333333  0.666667  0.248520  1
  Sb  Sb15  1  0.200237  0.400476  0.745094  1
  Sb  Sb16  1  0.799763  0.200237  0.254906  1
  Sb  Sb17  1  0.400476  0.200237  0.254906  1
  Sb  Sb18  1  0.599524  0.799763  0.745094  1
  Sb  Sb19  1  0.200237  0.799763  0.745094  1
  Sb  Sb20  1  0.799763  0.599524  0.254906  1
  Sb  Sb21  1  0.000000  0.000000  0.000000  1
