# generated using pymatgen
data_Th5Sn3Cl
_symmetry_space_group_name_H-M   'P 1'
_cell_length_a   9.51675900
_cell_length_b   9.51675870
_cell_length_c   6.54897900
_cell_angle_alpha   90.00000000
_cell_angle_beta   90.00000000
_cell_angle_gamma   119.99999756
_symmetry_Int_Tables_number   1
_chemical_formula_structural   Th5Sn3Cl
_chemical_formula_sum   'Th10 Sn6 Cl2'
_cell_volume   513.66783235
_cell_formula_units_Z   2
loop_
 _symmetry_equiv_pos_site_id
 _symmetry_equiv_pos_as_xyz
  1  'x, y, z'
loop_
 _atom_site_type_symbol
 _atom_site_label
 _atom_site_symmetry_multiplicity
 _atom_site_fract_x
 _atom_site_fract_y
 _atom_site_fract_z
 _atom_site_occupancy
  Th  Th0  1  0.666667  0.333333  0.000000  1
  Th  Th1  1  0.333333  0.666667  0.500000  1
  Th  Th2  1  0.666667  0.333333  0.500000  1
  Th  Th3  1  0.333333  0.666667  0.000000  1
  Th  Th4  1  0.727469  0.000000  0.750000  1
  Th  Th5  1  0.727469  0.727469  0.250000  1
  Th  Th6  1  0.000000  0.272531  0.250000  1
  Th  Th7  1  0.000000  0.727469  0.750000  1
  Th  Th8  1  0.272531  0.272531  0.750000  1
  Th  Th9  1  0.272531  0.000000  0.250000  1
  Sn  Sn10  1  0.617849  0.617849  0.750000  1
  Sn  Sn11  1  0.000000  0.617849  0.250000  1
  Sn  Sn12  1  0.617849  0.000000  0.250000  1
  Sn  Sn13  1  0.382151  0.000000  0.750000  1
  Sn  Sn14  1  0.000000  0.382151  0.750000  1
  Sn  Sn15  1  0.382151  0.382151  0.250000  1
  Cl  Cl16  1  0.000000  0.000000  0.500000  1
  Cl  Cl17  1  0.000000  0.000000  0.000000  1
