# generated using pymatgen
data_Er6GaCoRu
_symmetry_space_group_name_H-M   'P 1'
_cell_length_a   8.25005198
_cell_length_b   8.25005288
_cell_length_c   8.25005270
_cell_angle_alpha   105.69663748
_cell_angle_beta   110.53458080
_cell_angle_gamma   112.25215441
_symmetry_Int_Tables_number   1
_chemical_formula_structural   Er6GaCoRu
_chemical_formula_sum   'Er12 Ga2 Co2 Ru2'
_cell_volume   430.76417838
_cell_formula_units_Z   2
loop_
 _symmetry_equiv_pos_site_id
 _symmetry_equiv_pos_as_xyz
  1  'x, y, z'
loop_
 _atom_site_type_symbol
 _atom_site_label
 _atom_site_symmetry_multiplicity
 _atom_site_fract_x
 _atom_site_fract_y
 _atom_site_fract_z
 _atom_site_occupancy
  Er  Er0  1  0.693339  0.255254  0.948593  1
  Er  Er1  1  0.306661  0.744746  0.051407  1
  Er  Er2  1  0.693339  0.744746  0.438086  1
  Er  Er3  1  0.306661  0.255254  0.561914  1
  Er  Er4  1  0.815037  0.139216  0.324178  1
  Er  Er5  1  0.815037  0.490859  0.675822  1
  Er  Er6  1  0.184963  0.860784  0.675822  1
  Er  Er7  1  0.184963  0.509141  0.324178  1
  Er  Er8  1  0.600158  0.780678  0.819480  1
  Er  Er9  1  0.961197  0.780678  0.180520  1
  Er  Er10  1  0.038803  0.219322  0.819480  1
  Er  Er11  1  0.399842  0.219322  0.180520  1
  Ga  Ga12  1  0.500000  0.500000  0.000000  1
  Ga  Ga13  1  0.500000  0.000000  0.500000  1
  Co  Co14  1  0.000000  0.113419  0.113419  1
  Co  Co15  1  0.000000  0.886581  0.886581  1
  Ru  Ru16  1  0.826574  0.500000  0.326574  1
  Ru  Ru17  1  0.173426  0.500000  0.673426  1
