# generated using pymatgen
data_HfZr5(Be2Ir5)2
_symmetry_space_group_name_H-M   'P 1'
_cell_length_a   9.47401600
_cell_length_b   9.47401600
_cell_length_c   3.39488300
_cell_angle_alpha   90.00000000
_cell_angle_beta   90.00000000
_cell_angle_gamma   90.00000000
_symmetry_Int_Tables_number   1
_chemical_formula_structural   HfZr5(Be2Ir5)2
_chemical_formula_sum   'Hf1 Zr5 Be4 Ir10'
_cell_volume   304.71444271
_cell_formula_units_Z   1
loop_
 _symmetry_equiv_pos_site_id
 _symmetry_equiv_pos_as_xyz
  1  'x, y, z'
loop_
 _atom_site_type_symbol
 _atom_site_label
 _atom_site_symmetry_multiplicity
 _atom_site_fract_x
 _atom_site_fract_y
 _atom_site_fract_z
 _atom_site_occupancy
  Hf  Hf0  1  0.000000  0.000000  0.000000  1
  Zr  Zr1  1  0.175036  0.675641  0.000000  1
  Zr  Zr2  1  0.324359  0.175036  0.000000  1
  Zr  Zr3  1  0.824964  0.324359  0.000000  1
  Zr  Zr4  1  0.500000  0.500000  0.000000  1
  Zr  Zr5  1  0.675641  0.824964  0.000000  1
  Be  Be6  1  0.380832  0.880927  0.000000  1
  Be  Be7  1  0.119073  0.380832  0.000000  1
  Be  Be8  1  0.880927  0.619168  0.000000  1
  Be  Be9  1  0.619168  0.119073  0.000000  1
  Ir  Ir10  1  0.216286  0.928080  0.500000  1
  Ir  Ir11  1  0.928080  0.783714  0.500000  1
  Ir  Ir12  1  0.427338  0.717543  0.500000  1
  Ir  Ir13  1  0.572662  0.282457  0.500000  1
  Ir  Ir14  1  0.717543  0.572662  0.500000  1
  Ir  Ir15  1  0.282457  0.427338  0.500000  1
  Ir  Ir16  1  0.071920  0.216286  0.500000  1
  Ir  Ir17  1  0.000000  0.500000  0.500000  1
  Ir  Ir18  1  0.500000  0.000000  0.500000  1
  Ir  Ir19  1  0.783714  0.071920  0.500000  1
