# generated using pymatgen
data_Tb3Dy5(InPd)2
_symmetry_space_group_name_H-M   'P 1'
_cell_length_a   9.69676180
_cell_length_b   9.69676225
_cell_length_c   9.69676300
_cell_angle_alpha   60.00000086
_cell_angle_beta   59.99999933
_cell_angle_gamma   59.99999517
_symmetry_Int_Tables_number   1
_chemical_formula_structural   Tb3Dy5(InPd)2
_chemical_formula_sum   'Tb6 Dy10 In4 Pd4'
_cell_volume   644.71124186
_cell_formula_units_Z   2
loop_
 _symmetry_equiv_pos_site_id
 _symmetry_equiv_pos_as_xyz
  1  'x, y, z'
loop_
 _atom_site_type_symbol
 _atom_site_label
 _atom_site_symmetry_multiplicity
 _atom_site_fract_x
 _atom_site_fract_y
 _atom_site_fract_z
 _atom_site_occupancy
  Tb  Tb0  1  0.937336  0.562664  0.562664  1
  Tb  Tb1  1  0.562664  0.937336  0.937336  1
  Tb  Tb2  1  0.562664  0.937336  0.562664  1
  Tb  Tb3  1  0.937336  0.562664  0.937336  1
  Tb  Tb4  1  0.562664  0.562664  0.937336  1
  Tb  Tb5  1  0.937336  0.937336  0.562664  1
  Dy  Dy6  1  0.352045  0.352045  0.352045  1
  Dy  Dy7  1  0.352045  0.352045  0.943868  1
  Dy  Dy8  1  0.352045  0.943868  0.352045  1
  Dy  Dy9  1  0.943868  0.352045  0.352045  1
  Dy  Dy10  1  0.811415  0.188585  0.188585  1
  Dy  Dy11  1  0.188585  0.811415  0.811415  1
  Dy  Dy12  1  0.188585  0.811415  0.188585  1
  Dy  Dy13  1  0.811415  0.188585  0.811415  1
  Dy  Dy14  1  0.188585  0.188585  0.811415  1
  Dy  Dy15  1  0.811415  0.811415  0.188585  1
  In  In16  1  0.582501  0.582501  0.582501  1
  In  In17  1  0.582501  0.582501  0.252496  1
  In  In18  1  0.582501  0.252496  0.582501  1
  In  In19  1  0.252496  0.582501  0.582501  1
  Pd  Pd20  1  0.144111  0.144111  0.144111  1
  Pd  Pd21  1  0.144111  0.144111  0.567668  1
  Pd  Pd22  1  0.144111  0.567668  0.144111  1
  Pd  Pd23  1  0.567668  0.144111  0.144111  1
