# generated using pymatgen
data_CaPr7(Si3Ir)4
_symmetry_space_group_name_H-M   'P 1'
_cell_length_a   8.26918979
_cell_length_b   8.26919090
_cell_length_c   8.56004600
_cell_angle_alpha   90.00000000
_cell_angle_beta   90.00000000
_cell_angle_gamma   120.07532109
_symmetry_Int_Tables_number   1
_chemical_formula_structural   CaPr7(Si3Ir)4
_chemical_formula_sum   'Ca1 Pr7 Si12 Ir4'
_cell_volume   506.52698148
_cell_formula_units_Z   1
loop_
 _symmetry_equiv_pos_site_id
 _symmetry_equiv_pos_as_xyz
  1  'x, y, z'
loop_
 _atom_site_type_symbol
 _atom_site_label
 _atom_site_symmetry_multiplicity
 _atom_site_fract_x
 _atom_site_fract_y
 _atom_site_fract_z
 _atom_site_occupancy
  Ca  Ca0  1  0.499509  0.500491  0.750000  1
  Pr  Pr1  1  0.500359  0.499641  0.250000  1
  Pr  Pr2  1  0.000987  0.500420  0.750000  1
  Pr  Pr3  1  0.999074  0.499576  0.250000  1
  Pr  Pr4  1  0.499580  0.999013  0.750000  1
  Pr  Pr5  1  0.500424  0.000926  0.250000  1
  Pr  Pr6  1  0.000059  0.999941  0.750000  1
  Pr  Pr7  1  0.999985  0.000015  0.250000  1
  Si  Si8  1  0.833622  0.166378  0.001475  1
  Si  Si9  1  0.166387  0.833613  0.000864  1
  Si  Si10  1  0.334837  0.168192  0.998968  1
  Si  Si11  1  0.166387  0.833613  0.499136  1
  Si  Si12  1  0.665206  0.831829  0.998285  1
  Si  Si13  1  0.833622  0.166378  0.498525  1
  Si  Si14  1  0.831808  0.665163  0.998968  1
  Si  Si15  1  0.665206  0.831829  0.501715  1
  Si  Si16  1  0.168171  0.334794  0.998285  1
  Si  Si17  1  0.334837  0.168192  0.501032  1
  Si  Si18  1  0.168171  0.334794  0.501715  1
  Si  Si19  1  0.831808  0.665163  0.501032  1
  Ir  Ir20  1  0.667293  0.332707  0.998733  1
  Ir  Ir21  1  0.332688  0.667312  0.002139  1
  Ir  Ir22  1  0.332688  0.667312  0.497861  1
  Ir  Ir23  1  0.667293  0.332707  0.501267  1
