# generated using pymatgen
data_Dy5Er3(MoI4)2
_symmetry_space_group_name_H-M   'P 1'
_cell_length_a   11.40737813
_cell_length_b   11.43323173
_cell_length_c   5.97020828
_cell_angle_alpha   90.26452251
_cell_angle_beta   90.28976428
_cell_angle_gamma   89.93382370
_symmetry_Int_Tables_number   1
_chemical_formula_structural   Dy5Er3(MoI4)2
_chemical_formula_sum   'Dy5 Er3 Mo2 I8'
_cell_volume   778.63489993
_cell_formula_units_Z   1
loop_
 _symmetry_equiv_pos_site_id
 _symmetry_equiv_pos_as_xyz
  1  'x, y, z'
loop_
 _atom_site_type_symbol
 _atom_site_label
 _atom_site_symmetry_multiplicity
 _atom_site_fract_x
 _atom_site_fract_y
 _atom_site_fract_z
 _atom_site_occupancy
  Dy  Dy0  1  0.205701  0.915883  0.001968  1
  Dy  Dy1  1  0.794526  0.084454  0.997843  1
  Dy  Dy2  1  0.084428  0.794531  0.498089  1
  Dy  Dy3  1  0.915854  0.205515  0.501605  1
  Dy  Dy4  1  0.794561  0.915128  0.496999  1
  Er  Er5  1  0.202410  0.083637  0.502621  1
  Er  Er6  1  0.083799  0.202392  0.002633  1
  Er  Er7  1  0.916763  0.797528  0.997243  1
  Mo  Mo8  1  0.999289  0.000218  0.250119  1
  Mo  Mo9  1  0.000117  0.000026  0.749758  1
  I  I10  1  0.358441  0.851789  0.498578  1
  I  I11  1  0.641644  0.150365  0.501666  1
  I  I12  1  0.149110  0.642381  0.001572  1
  I  I13  1  0.851743  0.357996  0.998433  1
  I  I14  1  0.356793  0.151123  0.009016  1
  I  I15  1  0.642866  0.848568  0.991758  1
  I  I16  1  0.850270  0.642182  0.490989  1
  I  I17  1  0.151684  0.356283  0.509110  1
