# generated using pymatgen
data_NaTa8PbSe16
_symmetry_space_group_name_H-M   'P 1'
_cell_length_a   7.06901490
_cell_length_b   7.06962127
_cell_length_c   15.13436800
_cell_angle_alpha   90.01699515
_cell_angle_beta   90.02895178
_cell_angle_gamma   119.98708507
_symmetry_Int_Tables_number   1
_chemical_formula_structural   NaTa8PbSe16
_chemical_formula_sum   'Na1 Ta8 Pb1 Se16'
_cell_volume   655.09808294
_cell_formula_units_Z   1
loop_
 _symmetry_equiv_pos_site_id
 _symmetry_equiv_pos_as_xyz
  1  'x, y, z'
loop_
 _atom_site_type_symbol
 _atom_site_label
 _atom_site_symmetry_multiplicity
 _atom_site_fract_x
 _atom_site_fract_y
 _atom_site_fract_z
 _atom_site_occupancy
  Na  Na0  1  0.000000  0.000000  0.500000  1
  Ta  Ta1  1  0.507691  0.492340  0.745398  1
  Ta  Ta2  1  0.015459  0.507843  0.254577  1
  Ta  Ta3  1  0.492396  0.984838  0.254644  1
  Ta  Ta4  1  0.507604  0.015162  0.745356  1
  Ta  Ta5  1  0.984541  0.492157  0.745423  1
  Ta  Ta6  1  0.492309  0.507660  0.254602  1
  Ta  Ta7  1  0.999634  0.999797  0.745327  1
  Ta  Ta8  1  0.000366  0.000203  0.254673  1
  Pb  Pb9  1  0.000000  0.000000  0.000000  1
  Se  Se10  1  0.831709  0.168743  0.361245  1
  Se  Se11  1  0.831590  0.663102  0.361224  1
  Se  Se12  1  0.337623  0.168916  0.361388  1
  Se  Se13  1  0.661497  0.830707  0.852611  1
  Se  Se14  1  0.168410  0.336898  0.638776  1
  Se  Se15  1  0.169207  0.830887  0.852583  1
  Se  Se16  1  0.169316  0.338239  0.852651  1
  Se  Se17  1  0.830793  0.169113  0.147417  1
  Se  Se18  1  0.338503  0.169293  0.147389  1
  Se  Se19  1  0.662377  0.831084  0.638612  1
  Se  Se20  1  0.333204  0.666719  0.141006  1
  Se  Se21  1  0.666486  0.333063  0.632121  1
  Se  Se22  1  0.666796  0.333281  0.858994  1
  Se  Se23  1  0.333514  0.666937  0.367879  1
  Se  Se24  1  0.830684  0.661761  0.147349  1
  Se  Se25  1  0.168291  0.831257  0.638755  1
