# generated using pymatgen
data_CaHo3(ReB4)4
_symmetry_space_group_name_H-M   'P 1'
_cell_length_a   5.97246900
_cell_length_b   11.55717300
_cell_length_c   3.60477600
_cell_angle_alpha   90.00000000
_cell_angle_beta   90.00000000
_cell_angle_gamma   90.00165758
_symmetry_Int_Tables_number   1
_chemical_formula_structural   CaHo3(ReB4)4
_chemical_formula_sum   'Ca1 Ho3 Re4 B16'
_cell_volume   248.81914956
_cell_formula_units_Z   1
loop_
 _symmetry_equiv_pos_site_id
 _symmetry_equiv_pos_as_xyz
  1  'x, y, z'
loop_
 _atom_site_type_symbol
 _atom_site_label
 _atom_site_symmetry_multiplicity
 _atom_site_fract_x
 _atom_site_fract_y
 _atom_site_fract_z
 _atom_site_occupancy
  Ca  Ca0  1  0.127095  0.150296  0.000000  1
  Ho  Ho1  1  0.628172  0.349688  0.000000  1
  Ho  Ho2  1  0.372465  0.649860  0.000000  1
  Ho  Ho3  1  0.873430  0.850036  0.000000  1
  Re  Re4  1  0.632206  0.084826  0.000000  1
  Re  Re5  1  0.134345  0.413478  0.000000  1
  Re  Re6  1  0.866353  0.587985  0.000000  1
  Re  Re7  1  0.369636  0.913262  0.000000  1
  B  B8  1  0.863921  0.031325  0.500001  1
  B  B9  1  0.385159  0.047545  0.500001  1
  B  B10  1  0.785923  0.184624  0.500001  1
  B  B11  1  0.478367  0.192197  0.500001  1
  B  B12  1  0.975840  0.307900  0.500001  1
  B  B13  1  0.286604  0.315271  0.500001  1
  B  B14  1  0.886262  0.452566  0.500001  1
  B  B15  1  0.363899  0.469189  0.500001  1
  B  B16  1  0.636243  0.531238  0.500001  1
  B  B17  1  0.113581  0.547589  0.500001  1
  B  B18  1  0.712690  0.685242  0.500001  1
  B  B19  1  0.023427  0.692568  0.500001  1
  B  B20  1  0.522255  0.807416  0.500001  1
  B  B21  1  0.212530  0.815521  0.500001  1
  B  B22  1  0.613510  0.952609  0.500001  1
  B  B23  1  0.136084  0.967768  0.500001  1
