# generated using pymatgen
data_Nd7Sm(SeO6)4
_symmetry_space_group_name_H-M   'P 1'
_cell_length_a   8.54032474
_cell_length_b   13.56510915
_cell_length_c   4.40623300
_cell_angle_alpha   90.17731377
_cell_angle_beta   89.96345688
_cell_angle_gamma   90.05483614
_symmetry_Int_Tables_number   1
_chemical_formula_structural   Nd7Sm(SeO6)4
_chemical_formula_sum   'Nd7 Sm1 Se4 O24'
_cell_volume   510.46123836
_cell_formula_units_Z   1
loop_
 _symmetry_equiv_pos_site_id
 _symmetry_equiv_pos_as_xyz
  1  'x, y, z'
loop_
 _atom_site_type_symbol
 _atom_site_label
 _atom_site_symmetry_multiplicity
 _atom_site_fract_x
 _atom_site_fract_y
 _atom_site_fract_z
 _atom_site_occupancy
  Nd  Nd0  1  0.624295  0.575153  0.242406  1
  Nd  Nd1  1  0.625072  0.923346  0.241291  1
  Nd  Nd2  1  0.126513  0.575284  0.258922  1
  Nd  Nd3  1  0.125201  0.923591  0.257262  1
  Nd  Nd4  1  0.874752  0.076990  0.742148  1
  Nd  Nd5  1  0.874882  0.422859  0.742054  1
  Nd  Nd6  1  0.374979  0.077174  0.758377  1
  Sm  Sm7  1  0.374802  0.423898  0.756258  1
  Se  Se8  1  0.123069  0.251051  0.201810  1
  Se  Se9  1  0.621446  0.251158  0.298611  1
  Se  Se10  1  0.377562  0.749713  0.701772  1
  Se  Se11  1  0.877718  0.749616  0.797936  1
  O  O12  1  0.718577  0.749628  0.023576  1
  O  O13  1  0.035344  0.749778  0.027125  1
  O  O14  1  0.621781  0.148040  0.089864  1
  O  O15  1  0.621654  0.352822  0.085835  1
  O  O16  1  0.874574  0.003847  0.228738  1
  O  O17  1  0.874847  0.495520  0.228893  1
  O  O18  1  0.374820  0.004058  0.271108  1
  O  O19  1  0.374740  0.494111  0.271351  1
  O  O20  1  0.123336  0.147972  0.408813  1
  O  O21  1  0.122959  0.352677  0.416667  1
  O  O22  1  0.535078  0.749611  0.471875  1
  O  O23  1  0.218852  0.749628  0.475299  1
  O  O24  1  0.780672  0.251054  0.524431  1
  O  O25  1  0.464061  0.251916  0.529377  1
  O  O26  1  0.877512  0.646863  0.587509  1
  O  O27  1  0.877512  0.852047  0.588166  1
  O  O28  1  0.622573  0.502213  0.728753  1
  O  O29  1  0.625311  0.996497  0.728803  1
  O  O30  1  0.128411  0.502280  0.772813  1
  O  O31  1  0.125333  0.996814  0.770549  1
  O  O32  1  0.377314  0.647291  0.911647  1
  O  O33  1  0.377298  0.852312  0.912387  1
  O  O34  1  0.965198  0.250970  0.972499  1
  O  O35  1  0.281958  0.252213  0.975090  1
