# generated using pymatgen
data_Er8Cd3Ni8Sn
_symmetry_space_group_name_H-M   'P 1'
_cell_length_a   7.34198300
_cell_length_b   7.34198300
_cell_length_c   7.28751800
_cell_angle_alpha   90.00000000
_cell_angle_beta   90.00000000
_cell_angle_gamma   90.00000000
_symmetry_Int_Tables_number   1
_chemical_formula_structural   Er8Cd3Ni8Sn
_chemical_formula_sum   'Er8 Cd3 Ni8 Sn1'
_cell_volume   392.83157627
_cell_formula_units_Z   1
loop_
 _symmetry_equiv_pos_site_id
 _symmetry_equiv_pos_as_xyz
  1  'x, y, z'
loop_
 _atom_site_type_symbol
 _atom_site_label
 _atom_site_symmetry_multiplicity
 _atom_site_fract_x
 _atom_site_fract_y
 _atom_site_fract_z
 _atom_site_occupancy
  Er  Er0  1  0.826271  0.174628  0.498166  1
  Er  Er1  1  0.173729  0.825372  0.498166  1
  Er  Er2  1  0.325372  0.326271  0.001834  1
  Er  Er3  1  0.674628  0.673729  0.001834  1
  Er  Er4  1  0.675288  0.674426  0.498298  1
  Er  Er5  1  0.324712  0.325574  0.498298  1
  Er  Er6  1  0.174426  0.824712  0.001702  1
  Er  Er7  1  0.825574  0.175288  0.001702  1
  Cd  Cd8  1  0.500000  0.000000  0.250000  1
  Cd  Cd9  1  0.000000  0.500000  0.750000  1
  Cd  Cd10  1  0.500000  0.000000  0.750000  1
  Ni  Ni11  1  0.622293  0.383836  0.251223  1
  Ni  Ni12  1  0.377707  0.616164  0.251223  1
  Ni  Ni13  1  0.119251  0.117256  0.750394  1
  Ni  Ni14  1  0.880749  0.882744  0.750394  1
  Ni  Ni15  1  0.382744  0.619251  0.749606  1
  Ni  Ni16  1  0.617256  0.380749  0.749606  1
  Ni  Ni17  1  0.883836  0.877707  0.248777  1
  Ni  Ni18  1  0.116164  0.122293  0.248777  1
  Sn  Sn19  1  0.000000  0.500000  0.250000  1
