# generated using pymatgen
data_ZnBi2Pd2Rh2PbO14
_symmetry_space_group_name_H-M   'P 1'
_cell_length_a   7.37007701
_cell_length_b   7.13750197
_cell_length_c   7.30689200
_cell_angle_alpha   58.82356984
_cell_angle_beta   59.71353622
_cell_angle_gamma   58.91611778
_symmetry_Int_Tables_number   1
_chemical_formula_structural   ZnBi2Pd2Rh2PbO14
_chemical_formula_sum   'Zn1 Bi2 Pd2 Rh2 Pb1 O14'
_cell_volume   266.49302561
_cell_formula_units_Z   1
loop_
 _symmetry_equiv_pos_site_id
 _symmetry_equiv_pos_as_xyz
  1  'x, y, z'
loop_
 _atom_site_type_symbol
 _atom_site_label
 _atom_site_symmetry_multiplicity
 _atom_site_fract_x
 _atom_site_fract_y
 _atom_site_fract_z
 _atom_site_occupancy
  Zn  Zn0  1  0.125000  0.625000  0.125000  1
  Bi  Bi1  1  0.125000  0.125000  0.125000  1
  Bi  Bi2  1  0.625000  0.125000  0.125000  1
  Pd  Pd3  1  0.625000  0.625000  0.125000  1
  Pd  Pd4  1  0.625000  0.125000  0.625000  1
  Rh  Rh5  1  0.625000  0.625000  0.625000  1
  Rh  Rh6  1  0.125000  0.625000  0.625000  1
  Pb  Pb7  1  0.125000  0.125000  0.625000  1
  O  O8  1  0.239247  0.281706  0.239801  1
  O  O9  1  0.290062  0.704170  0.294504  1
  O  O10  1  0.961263  0.962146  0.539493  1
  O  O11  1  0.537097  0.962146  0.539493  1
  O  O12  1  0.711265  0.704170  0.294504  1
  O  O13  1  0.958644  0.540165  0.542546  1
  O  O14  1  0.712903  0.287854  0.710507  1
  O  O15  1  0.288737  0.287854  0.710507  1
  O  O16  1  0.714047  0.283340  0.288564  1
  O  O17  1  0.291356  0.709835  0.707454  1
  O  O18  1  0.959938  0.545830  0.955496  1
  O  O19  1  0.538735  0.545830  0.955496  1
  O  O20  1  0.010753  0.968294  0.010199  1
  O  O21  1  0.535953  0.966660  0.961436  1
