# generated using pymatgen
data_Sm2Tc5(PRh)7
_symmetry_space_group_name_H-M   'P 1'
_cell_length_a   3.94991500
_cell_length_b   9.49344926
_cell_length_c   9.52208762
_cell_angle_alpha   119.62930591
_cell_angle_beta   89.99885935
_cell_angle_gamma   90.00490384
_symmetry_Int_Tables_number   1
_chemical_formula_structural   Sm2Tc5(PRh)7
_chemical_formula_sum   'Sm2 Tc5 P7 Rh7'
_cell_volume   310.37357877
_cell_formula_units_Z   1
loop_
 _symmetry_equiv_pos_site_id
 _symmetry_equiv_pos_as_xyz
  1  'x, y, z'
loop_
 _atom_site_type_symbol
 _atom_site_label
 _atom_site_symmetry_multiplicity
 _atom_site_fract_x
 _atom_site_fract_y
 _atom_site_fract_z
 _atom_site_occupancy
  Sm  Sm0  1  0.262003  0.668352  0.333255  1
  Sm  Sm1  1  0.762091  0.333351  0.666427  1
  Tc  Tc2  1  0.761893  0.093610  0.871327  1
  Tc  Tc3  1  0.761814  0.126864  0.218530  1
  Tc  Tc4  1  0.761831  0.781241  0.906972  1
  Tc  Tc5  1  0.261842  0.886393  0.159362  1
  Tc  Tc6  1  0.261932  0.841677  0.727455  1
  P  P7  1  0.261524  0.996831  0.997749  1
  P  P8  1  0.761954  0.883211  0.600882  1
  P  P9  1  0.761871  0.400946  0.287320  1
  P  P10  1  0.761829  0.718675  0.118794  1
  P  P11  1  0.262035  0.114400  0.409476  1
  P  P12  1  0.261997  0.589171  0.704237  1
  P  P13  1  0.262002  0.294465  0.882678  1
  Rh  Rh14  1  0.261841  0.271297  0.111910  1
  Rh  Rh15  1  0.761967  0.608726  0.558262  1
  Rh  Rh16  1  0.761862  0.441657  0.054245  1
  Rh  Rh17  1  0.761950  0.948413  0.391735  1
  Rh  Rh18  1  0.261942  0.368443  0.434091  1
  Rh  Rh19  1  0.261844  0.563651  0.933365  1
  Rh  Rh20  1  0.261978  0.068624  0.631931  1
