# generated using pymatgen
data_Pa4Al24RePt8
_symmetry_space_group_name_H-M   'P 1'
_cell_length_a   7.57496925
_cell_length_b   7.64342325
_cell_length_c   13.04487882
_cell_angle_alpha   84.97391560
_cell_angle_beta   79.13186705
_cell_angle_gamma   59.69091188
_symmetry_Int_Tables_number   1
_chemical_formula_structural   Pa4Al24RePt8
_chemical_formula_sum   'Pa4 Al24 Re1 Pt8'
_cell_volume   640.32558167
_cell_formula_units_Z   1
loop_
 _symmetry_equiv_pos_site_id
 _symmetry_equiv_pos_as_xyz
  1  'x, y, z'
loop_
 _atom_site_type_symbol
 _atom_site_label
 _atom_site_symmetry_multiplicity
 _atom_site_fract_x
 _atom_site_fract_y
 _atom_site_fract_z
 _atom_site_occupancy
  Pa  Pa0  1  0.383922  0.177833  0.809844  1
  Pa  Pa1  1  0.616078  0.822167  0.190156  1
  Pa  Pa2  1  0.742972  0.498477  0.809607  1
  Pa  Pa3  1  0.257028  0.501523  0.190393  1
  Al  Al4  1  0.686009  0.834320  0.944185  1
  Al  Al5  1  0.313991  0.165680  0.055815  1
  Al  Al6  1  0.145858  0.832190  0.561186  1
  Al  Al7  1  0.854142  0.167810  0.438814  1
  Al  Al8  1  0.482452  0.165930  0.558991  1
  Al  Al9  1  0.517548  0.834070  0.441009  1
  Al  Al10  1  0.217566  0.162492  0.328017  1
  Al  Al11  1  0.782434  0.837508  0.671983  1
  Al  Al12  1  0.436889  0.510035  0.672346  1
  Al  Al13  1  0.563111  0.489965  0.327654  1
  Al  Al14  1  0.110637  0.156645  0.667282  1
  Al  Al15  1  0.889363  0.843355  0.332718  1
  Al  Al16  1  0.351321  0.501887  0.944491  1
  Al  Al17  1  0.648679  0.498113  0.055509  1
  Al  Al18  1  0.013626  0.169096  0.957918  1
  Al  Al19  1  0.986374  0.830904  0.042082  1
  Al  Al20  1  0.187766  0.499188  0.441786  1
  Al  Al21  1  0.812234  0.500812  0.558214  1
  Al  Al22  1  0.734948  0.159127  0.182735  1
  Al  Al23  1  0.265052  0.840873  0.817265  1
  Al  Al24  1  0.060133  0.639134  0.818100  1
  Al  Al25  1  0.939867  0.360866  0.181900  1
  Al  Al26  1  0.855784  0.046411  0.817142  1
  Al  Al27  1  0.144216  0.953589  0.182858  1
  Re  Re28  1  0.000000  0.500000  0.000000  1
  Pt  Pt29  1  0.119702  0.490375  0.641017  1
  Pt  Pt30  1  0.880298  0.509625  0.358983  1
  Pt  Pt31  1  0.655423  0.172320  0.000060  1
  Pt  Pt32  1  0.344577  0.827680  0.999940  1
  Pt  Pt33  1  0.536387  0.167144  0.360921  1
  Pt  Pt34  1  0.463613  0.832856  0.639079  1
  Pt  Pt35  1  0.777971  0.175761  0.638285  1
  Pt  Pt36  1  0.222029  0.824239  0.361715  1
