# generated using pymatgen
data_Dy6BeFe4Os7
_symmetry_space_group_name_H-M   'P 1'
_cell_length_a   5.25817701
_cell_length_b   5.22655244
_cell_length_c   13.01357650
_cell_angle_alpha   89.76581055
_cell_angle_beta   89.81435186
_cell_angle_gamma   120.05484670
_symmetry_Int_Tables_number   1
_chemical_formula_structural   Dy6BeFe4Os7
_chemical_formula_sum   'Dy6 Be1 Fe4 Os7'
_cell_volume   309.54642818
_cell_formula_units_Z   1
loop_
 _symmetry_equiv_pos_site_id
 _symmetry_equiv_pos_as_xyz
  1  'x, y, z'
loop_
 _atom_site_type_symbol
 _atom_site_label
 _atom_site_symmetry_multiplicity
 _atom_site_fract_x
 _atom_site_fract_y
 _atom_site_fract_z
 _atom_site_occupancy
  Dy  Dy0  1  0.333089  0.667583  0.916613  1
  Dy  Dy1  1  0.997059  0.999062  0.250636  1
  Dy  Dy2  1  0.664649  0.335987  0.582492  1
  Dy  Dy3  1  0.335351  0.664013  0.667508  1
  Dy  Dy4  1  0.002941  0.000938  0.999364  1
  Dy  Dy5  1  0.666911  0.332417  0.333387  1
  Be  Be6  1  0.000000  0.000000  0.625000  1
  Fe  Fe7  1  0.500000  0.500000  0.125000  1
  Fe  Fe8  1  0.169720  0.833371  0.460233  1
  Fe  Fe9  1  0.830280  0.166629  0.789767  1
  Fe  Fe10  1  0.500000  0.000000  0.125000  1
  Os  Os11  1  0.164148  0.328573  0.462272  1
  Os  Os12  1  0.835852  0.671427  0.787728  1
  Os  Os13  1  0.333048  0.667651  0.292148  1
  Os  Os14  1  0.666952  0.332349  0.957852  1
  Os  Os15  1  0.000000  0.500000  0.125000  1
  Os  Os16  1  0.676744  0.840370  0.462726  1
  Os  Os17  1  0.323256  0.159630  0.787274  1
