# generated using pymatgen
data_Na2B3PIr4
_symmetry_space_group_name_H-M   'P 1'
_cell_length_a   7.28648499
_cell_length_b   6.19897951
_cell_length_c   5.54729912
_cell_angle_alpha   76.45566057
_cell_angle_beta   57.98989487
_cell_angle_gamma   47.74338885
_symmetry_Int_Tables_number   1
_chemical_formula_structural   Na2B3PIr4
_chemical_formula_sum   'Na2 B3 P1 Ir4'
_cell_volume   154.24371320
_cell_formula_units_Z   1
loop_
 _symmetry_equiv_pos_site_id
 _symmetry_equiv_pos_as_xyz
  1  'x, y, z'
loop_
 _atom_site_type_symbol
 _atom_site_label
 _atom_site_symmetry_multiplicity
 _atom_site_fract_x
 _atom_site_fract_y
 _atom_site_fract_z
 _atom_site_occupancy
  Na  Na0  1  0.996952  0.003048  0.996952  1
  Na  Na1  1  0.251965  0.248035  0.251965  1
  B  B2  1  0.572748  0.927252  0.572748  1
  B  B3  1  0.673676  0.326324  0.673676  1
  B  B4  1  0.931080  0.568920  0.931080  1
  P  P5  1  0.317974  0.682026  0.317974  1
  Ir  Ir6  1  0.641904  0.621988  0.365793  1
  Ir  Ir7  1  0.864423  0.882294  0.633485  1
  Ir  Ir8  1  0.633485  0.619798  0.864423  1
  Ir  Ir9  1  0.365793  0.370315  0.641904  1
