# generated using pymatgen
data_V5MoAs2
_symmetry_space_group_name_H-M   'P 1'
_cell_length_a   4.75377800
_cell_length_b   4.75377800
_cell_length_c   4.81858600
_cell_angle_alpha   90.00000000
_cell_angle_beta   90.00000000
_cell_angle_gamma   89.99998795
_symmetry_Int_Tables_number   1
_chemical_formula_structural   V5MoAs2
_chemical_formula_sum   'V5 Mo1 As2'
_cell_volume   108.89235927
_cell_formula_units_Z   1
loop_
 _symmetry_equiv_pos_site_id
 _symmetry_equiv_pos_as_xyz
  1  'x, y, z'
loop_
 _atom_site_type_symbol
 _atom_site_label
 _atom_site_symmetry_multiplicity
 _atom_site_fract_x
 _atom_site_fract_y
 _atom_site_fract_z
 _atom_site_occupancy
  V  V0  1  0.500001  0.249727  0.999239  1
  V  V1  1  0.499998  0.750272  0.999239  1
  V  V2  1  0.000000  0.499999  0.250000  1
  V  V3  1  0.250273  0.000000  0.500761  1
  V  V4  1  0.749726  0.000000  0.500761  1
  Mo  Mo5  1  0.000000  0.499999  0.750001  1
  As  As6  1  0.000000  0.000000  0.010112  1
  As  As7  1  0.500000  0.499999  0.489886  1
