# generated using pymatgen
data_Yb5IrPdPb
_symmetry_space_group_name_H-M   'P 1'
_cell_length_a   9.06219940
_cell_length_b   9.06223091
_cell_length_c   9.02243085
_cell_angle_alpha   128.91915149
_cell_angle_beta   128.91931771
_cell_angle_gamma   75.46753821
_symmetry_Int_Tables_number   1
_chemical_formula_structural   Yb5IrPdPb
_chemical_formula_sum   'Yb10 Ir2 Pd2 Pb2'
_cell_volume   435.69785475
_cell_formula_units_Z   2
loop_
 _symmetry_equiv_pos_site_id
 _symmetry_equiv_pos_as_xyz
  1  'x, y, z'
loop_
 _atom_site_type_symbol
 _atom_site_label
 _atom_site_symmetry_multiplicity
 _atom_site_fract_x
 _atom_site_fract_y
 _atom_site_fract_z
 _atom_site_occupancy
  Yb  Yb0  1  0.000000  0.000000  0.000000  1
  Yb  Yb1  1  0.500000  0.500000  0.000000  1
  Yb  Yb2  1  0.802605  0.302606  0.846777  1
  Yb  Yb3  1  0.197395  0.697394  0.153223  1
  Yb  Yb4  1  0.455829  0.955829  0.153225  1
  Yb  Yb5  1  0.291843  0.466643  0.500000  1
  Yb  Yb6  1  0.033358  0.208156  0.500000  1
  Yb  Yb7  1  0.544171  0.044171  0.846775  1
  Yb  Yb8  1  0.708157  0.533357  0.500000  1
  Yb  Yb9  1  0.966642  0.791844  0.500000  1
  Ir  Ir10  1  0.127661  0.627660  0.755321  1
  Ir  Ir11  1  0.872339  0.372340  0.244679  1
  Pd  Pd12  1  0.627927  0.872074  0.500000  1
  Pd  Pd13  1  0.372073  0.127926  0.500000  1
  Pb  Pb14  1  0.250001  0.249999  0.000001  1
  Pb  Pb15  1  0.749999  0.750001  0.999999  1
