# generated using pymatgen
data_Be6CuIr2Rh3
_symmetry_space_group_name_H-M   'P 1'
_cell_length_a   3.91453300
_cell_length_b   5.59855300
_cell_length_c   11.74509000
_cell_angle_alpha   90.00000000
_cell_angle_beta   89.99994146
_cell_angle_gamma   90.00000000
_symmetry_Int_Tables_number   1
_chemical_formula_structural   Be6CuIr2Rh3
_chemical_formula_sum   'Be12 Cu2 Ir4 Rh6'
_cell_volume   257.40210934
_cell_formula_units_Z   2
loop_
 _symmetry_equiv_pos_site_id
 _symmetry_equiv_pos_as_xyz
  1  'x, y, z'
loop_
 _atom_site_type_symbol
 _atom_site_label
 _atom_site_symmetry_multiplicity
 _atom_site_fract_x
 _atom_site_fract_y
 _atom_site_fract_z
 _atom_site_occupancy
  Be  Be0  1  0.500003  0.257333  0.001457  1
  Be  Be1  1  0.500003  0.742666  0.001457  1
  Be  Be2  1  0.000059  0.251712  0.166234  1
  Be  Be3  1  0.000059  0.748287  0.166234  1
  Be  Be4  1  0.500055  0.248346  0.333769  1
  Be  Be5  1  0.500055  0.751655  0.333769  1
  Be  Be6  1  0.000004  0.242676  0.498530  1
  Be  Be7  1  0.000004  0.757323  0.498530  1
  Be  Be8  1  0.499948  0.242620  0.663912  1
  Be  Be9  1  0.499948  0.757381  0.663912  1
  Be  Be10  1  0.999925  0.257329  0.836097  1
  Be  Be11  1  0.999925  0.742670  0.836097  1
  Cu  Cu12  1  0.999971  0.499999  0.666695  1
  Cu  Cu13  1  0.499940  0.000000  0.833353  1
  Ir  Ir14  1  0.000004  0.499999  0.995726  1
  Ir  Ir15  1  0.500043  0.000000  0.162755  1
  Ir  Ir16  1  0.000050  0.499999  0.337239  1
  Ir  Ir17  1  0.500000  0.000000  0.504248  1
  Rh  Rh18  1  0.000005  0.000000  0.991801  1
  Rh  Rh19  1  0.500038  0.499999  0.167814  1
  Rh  Rh20  1  0.000034  0.000000  0.332160  1
  Rh  Rh21  1  0.500009  0.499999  0.508225  1
  Rh  Rh22  1  0.999959  0.000000  0.677774  1
  Rh  Rh23  1  0.499960  0.499999  0.822210  1
