# generated using pymatgen
data_Pr5Sm3Sc12Si15As
_symmetry_space_group_name_H-M   'P 1'
_cell_length_a   7.26742318
_cell_length_b   7.50555303
_cell_length_c   14.18606302
_cell_angle_alpha   90.09659681
_cell_angle_beta   89.17493553
_cell_angle_gamma   90.26347785
_symmetry_Int_Tables_number   1
_chemical_formula_structural   Pr5Sm3Sc12Si15As
_chemical_formula_sum   'Pr5 Sm3 Sc12 Si15 As1'
_cell_volume   773.70399789
_cell_formula_units_Z   1
loop_
 _symmetry_equiv_pos_site_id
 _symmetry_equiv_pos_as_xyz
  1  'x, y, z'
loop_
 _atom_site_type_symbol
 _atom_site_label
 _atom_site_symmetry_multiplicity
 _atom_site_fract_x
 _atom_site_fract_y
 _atom_site_fract_z
 _atom_site_occupancy
  Pr  Pr0  1  0.011992  0.172481  0.098144  1
  Pr  Pr1  1  0.988865  0.828090  0.901587  1
  Pr  Pr2  1  0.488512  0.671938  0.902378  1
  Pr  Pr3  1  0.991678  0.823514  0.595391  1
  Pr  Pr4  1  0.512114  0.328598  0.098160  1
  Sm  Sm5  1  0.007821  0.178062  0.402823  1
  Sm  Sm6  1  0.504599  0.323910  0.401320  1
  Sm  Sm7  1  0.498551  0.674320  0.597850  1
  Sc  Sc8  1  0.162992  0.498601  0.749619  1
  Sc  Sc9  1  0.836899  0.500799  0.253472  1
  Sc  Sc10  1  0.337431  0.997963  0.251829  1
  Sc  Sc11  1  0.662712  0.002419  0.749021  1
  Sc  Sc12  1  0.338192  0.171745  0.626742  1
  Sc  Sc13  1  0.662841  0.826934  0.373613  1
  Sc  Sc14  1  0.160338  0.671768  0.377648  1
  Sc  Sc15  1  0.668816  0.825046  0.126690  1
  Sc  Sc16  1  0.836589  0.328875  0.621681  1
  Sc  Sc17  1  0.331026  0.174637  0.873310  1
  Sc  Sc18  1  0.831403  0.324047  0.874091  1
  Sc  Sc19  1  0.168744  0.676159  0.126063  1
  Si  Si20  1  0.035578  0.125420  0.747978  1
  Si  Si21  1  0.964525  0.877014  0.251682  1
  Si  Si22  1  0.459340  0.624041  0.250109  1
  Si  Si23  1  0.539529  0.376227  0.749774  1
  Si  Si24  1  0.291813  0.878940  0.748862  1
  Si  Si25  1  0.711065  0.120379  0.251614  1
  Si  Si26  1  0.209615  0.381914  0.252076  1
  Si  Si27  1  0.790467  0.616980  0.748743  1
  Si  Si28  1  0.816086  0.539261  0.454752  1
  Si  Si29  1  0.342059  0.963013  0.460433  1
  Si  Si30  1  0.849023  0.537464  0.039757  1
  Si  Si31  1  0.656842  0.038513  0.539202  1
  Si  Si32  1  0.150764  0.463386  0.959970  1
  Si  Si33  1  0.651182  0.036838  0.959884  1
  Si  Si34  1  0.349030  0.963816  0.040128  1
  As  As35  1  0.180967  0.456885  0.543604  1
