# generated using pymatgen
data_Ho2Sc(Si3Pt2)2
_symmetry_space_group_name_H-M   'P 1'
_cell_length_a   4.20825600
_cell_length_b   8.49595959
_cell_length_c   12.86399978
_cell_angle_alpha   80.31498243
_cell_angle_beta   90.00000000
_cell_angle_gamma   90.00000000
_symmetry_Int_Tables_number   1
_chemical_formula_structural   Ho2Sc(Si3Pt2)2
_chemical_formula_sum   'Ho4 Sc2 Si12 Pt8'
_cell_volume   453.37367063
_cell_formula_units_Z   2
loop_
 _symmetry_equiv_pos_site_id
 _symmetry_equiv_pos_as_xyz
  1  'x, y, z'
loop_
 _atom_site_type_symbol
 _atom_site_label
 _atom_site_symmetry_multiplicity
 _atom_site_fract_x
 _atom_site_fract_y
 _atom_site_fract_z
 _atom_site_occupancy
  Ho  Ho0  1  0.750000  0.234067  0.560423  1
  Ho  Ho1  1  0.750000  0.416506  0.812298  1
  Ho  Ho2  1  0.750000  0.926806  0.814696  1
  Ho  Ho3  1  0.250000  0.071750  0.185111  1
  Sc  Sc4  1  0.250000  0.765989  0.437736  1
  Sc  Sc5  1  0.250000  0.588640  0.187391  1
  Si  Si6  1  0.750000  0.591364  0.566269  1
  Si  Si7  1  0.750000  0.126356  0.007260  1
  Si  Si8  1  0.750000  0.871575  0.569479  1
  Si  Si9  1  0.250000  0.696615  0.712986  1
  Si  Si10  1  0.750000  0.303034  0.288529  1
  Si  Si11  1  0.750000  0.803414  0.279343  1
  Si  Si12  1  0.250000  0.871727  0.997201  1
  Si  Si13  1  0.250000  0.194857  0.723102  1
  Si  Si14  1  0.250000  0.380019  0.003714  1
  Si  Si15  1  0.250000  0.124821  0.426688  1
  Si  Si16  1  0.750000  0.620517  0.000331  1
  Si  Si17  1  0.250000  0.412918  0.426563  1
  Pt  Pt18  1  0.750000  0.353647  0.102547  1
  Pt  Pt19  1  0.250000  0.971017  0.621892  1
  Pt  Pt20  1  0.750000  0.846031  0.091892  1
  Pt  Pt21  1  0.750000  0.024915  0.376444  1
  Pt  Pt22  1  0.250000  0.648190  0.900309  1
  Pt  Pt23  1  0.250000  0.150994  0.912124  1
  Pt  Pt24  1  0.750000  0.535470  0.374714  1
  Pt  Pt25  1  0.250000  0.468760  0.620958  1
