# generated using pymatgen
data_Ca2Mg(P3Pd10)2
_symmetry_space_group_name_H-M   'P 1'
_cell_length_a   8.69890206
_cell_length_b   8.69892279
_cell_length_c   8.69885300
_cell_angle_alpha   60.00011749
_cell_angle_beta   60.00007024
_cell_angle_gamma   60.00043909
_symmetry_Int_Tables_number   1
_chemical_formula_structural   Ca2Mg(P3Pd10)2
_chemical_formula_sum   'Ca2 Mg1 P6 Pd20'
_cell_volume   465.45635961
_cell_formula_units_Z   1
loop_
 _symmetry_equiv_pos_site_id
 _symmetry_equiv_pos_as_xyz
  1  'x, y, z'
loop_
 _atom_site_type_symbol
 _atom_site_label
 _atom_site_symmetry_multiplicity
 _atom_site_fract_x
 _atom_site_fract_y
 _atom_site_fract_z
 _atom_site_occupancy
  Ca  Ca0  1  0.250001  0.250001  0.249999  1
  Ca  Ca1  1  0.749999  0.749999  0.750001  1
  Mg  Mg2  1  0.000000  0.000000  0.000000  1
  P  P3  1  0.737021  0.262978  0.262980  1
  P  P4  1  0.262979  0.737022  0.737020  1
  P  P5  1  0.262980  0.737020  0.262980  1
  P  P6  1  0.737020  0.262980  0.737020  1
  P  P7  1  0.262980  0.262980  0.737019  1
  P  P8  1  0.737020  0.737020  0.262981  1
  Pd  Pd9  1  0.386403  0.386403  0.386404  1
  Pd  Pd10  1  0.613597  0.613597  0.613596  1
  Pd  Pd11  1  0.386403  0.386404  0.840790  1
  Pd  Pd12  1  0.386401  0.840795  0.386402  1
  Pd  Pd13  1  0.613597  0.613596  0.159210  1
  Pd  Pd14  1  0.613599  0.159205  0.613598  1
  Pd  Pd15  1  0.840795  0.386402  0.386402  1
  Pd  Pd16  1  0.159205  0.613598  0.613598  1
  Pd  Pd17  1  0.343104  0.000000  0.000000  1
  Pd  Pd18  1  0.656896  0.000000  0.000000  1
  Pd  Pd19  1  0.000002  0.343103  0.656893  1
  Pd  Pd20  1  0.999998  0.656897  0.343107  1
  Pd  Pd21  1  0.000002  0.343103  0.000000  1
  Pd  Pd22  1  0.656897  0.999997  0.343106  1
  Pd  Pd23  1  0.999998  0.656897  0.000000  1
  Pd  Pd24  1  0.343103  0.000003  0.656894  1
  Pd  Pd25  1  0.999999  0.999998  0.343104  1
  Pd  Pd26  1  0.000001  0.000002  0.656896  1
  Pd  Pd27  1  0.656895  0.343105  0.000000  1
  Pd  Pd28  1  0.343105  0.656895  0.000000  1
