# generated using pymatgen
data_Ca2UAs3
_symmetry_space_group_name_H-M   'P 1'
_cell_length_a   7.25389110
_cell_length_b   7.25389127
_cell_length_c   7.25389156
_cell_angle_alpha   146.13150180
_cell_angle_beta   132.46103937
_cell_angle_gamma   59.64159512
_symmetry_Int_Tables_number   1
_chemical_formula_structural   Ca2UAs3
_chemical_formula_sum   'Ca2 U1 As3'
_cell_volume   155.50859966
_cell_formula_units_Z   1
loop_
 _symmetry_equiv_pos_site_id
 _symmetry_equiv_pos_as_xyz
  1  'x, y, z'
loop_
 _atom_site_type_symbol
 _atom_site_label
 _atom_site_symmetry_multiplicity
 _atom_site_fract_x
 _atom_site_fract_y
 _atom_site_fract_z
 _atom_site_occupancy
  Ca  Ca0  1  0.668595  0.668595  0.000000  1
  Ca  Ca1  1  0.331405  0.331405  0.000000  1
  U  U2  1  0.000000  0.000000  0.000000  1
  As  As3  1  0.500000  0.000000  0.500000  1
  As  As4  1  0.149615  0.649615  0.500000  1
  As  As5  1  0.850385  0.350385  0.500000  1
