# generated using pymatgen
data_HfZr4TaRh10
_symmetry_space_group_name_H-M   'P 1'
_cell_length_a   5.63028561
_cell_length_b   5.63028535
_cell_length_c   8.64118500
_cell_angle_alpha   90.00000000
_cell_angle_beta   90.00000000
_cell_angle_gamma   102.30418126
_symmetry_Int_Tables_number   1
_chemical_formula_structural   HfZr4TaRh10
_chemical_formula_sum   'Hf1 Zr4 Ta1 Rh10'
_cell_volume   267.63446868
_cell_formula_units_Z   1
loop_
 _symmetry_equiv_pos_site_id
 _symmetry_equiv_pos_as_xyz
  1  'x, y, z'
loop_
 _atom_site_type_symbol
 _atom_site_label
 _atom_site_symmetry_multiplicity
 _atom_site_fract_x
 _atom_site_fract_y
 _atom_site_fract_z
 _atom_site_occupancy
  Hf  Hf0  1  0.425607  0.425607  0.250000  1
  Zr  Zr1  1  0.792078  0.211108  0.499267  1
  Zr  Zr2  1  0.211108  0.792078  0.000733  1
  Zr  Zr3  1  0.211108  0.792078  0.499267  1
  Zr  Zr4  1  0.792078  0.211108  0.000733  1
  Ta  Ta5  1  0.570887  0.570887  0.750000  1
  Rh  Rh6  1  0.709944  0.709944  0.023469  1
  Rh  Rh7  1  0.709944  0.709944  0.476531  1
  Rh  Rh8  1  0.298039  0.298039  0.963261  1
  Rh  Rh9  1  0.298039  0.298039  0.536739  1
  Rh  Rh10  1  0.491374  0.006570  0.750000  1
  Rh  Rh11  1  0.509027  0.973198  0.250000  1
  Rh  Rh12  1  0.014562  0.014562  0.250000  1
  Rh  Rh13  1  0.986437  0.986437  0.750000  1
  Rh  Rh14  1  0.006570  0.491374  0.750000  1
  Rh  Rh15  1  0.973198  0.509027  0.250000  1
