# generated using pymatgen
data_LaPr2TeAs2
_symmetry_space_group_name_H-M   'P 1'
_cell_length_a   4.39663800
_cell_length_b   10.94672630
_cell_length_c   7.57298148
_cell_angle_alpha   89.95932832
_cell_angle_beta   90.00000000
_cell_angle_gamma   90.00000000
_symmetry_Int_Tables_number   1
_chemical_formula_structural   LaPr2TeAs2
_chemical_formula_sum   'La2 Pr4 Te2 As4'
_cell_volume   364.47836485
_cell_formula_units_Z   2
loop_
 _symmetry_equiv_pos_site_id
 _symmetry_equiv_pos_as_xyz
  1  'x, y, z'
loop_
 _atom_site_type_symbol
 _atom_site_label
 _atom_site_symmetry_multiplicity
 _atom_site_fract_x
 _atom_site_fract_y
 _atom_site_fract_z
 _atom_site_occupancy
  La  La0  1  0.250000  0.500057  0.249756  1
  La  La1  1  0.750000  0.499943  0.750244  1
  Pr  Pr2  1  0.250000  0.809799  0.915858  1
  Pr  Pr3  1  0.750000  0.190201  0.084142  1
  Pr  Pr4  1  0.750000  0.810108  0.417067  1
  Pr  Pr5  1  0.250000  0.189892  0.582933  1
  Te  Te6  1  0.750000  0.000294  0.749933  1
  Te  Te7  1  0.250000  0.999706  0.250067  1
  As  As8  1  0.250000  0.662780  0.583616  1
  As  As9  1  0.750000  0.337220  0.416384  1
  As  As10  1  0.750000  0.664016  0.083701  1
  As  As11  1  0.250000  0.335984  0.916299  1
