# generated using pymatgen
data_Zr6Zn20Ni3P
_symmetry_space_group_name_H-M   'P 1'
_cell_length_a   8.70844529
_cell_length_b   8.70844527
_cell_length_c   8.67363962
_cell_angle_alpha   59.64422397
_cell_angle_beta   59.64422490
_cell_angle_gamma   59.63443490
_symmetry_Int_Tables_number   1
_chemical_formula_structural   Zr6Zn20Ni3P
_chemical_formula_sum   'Zr6 Zn20 Ni3 P1'
_cell_volume   461.32809389
_cell_formula_units_Z   1
loop_
 _symmetry_equiv_pos_site_id
 _symmetry_equiv_pos_as_xyz
  1  'x, y, z'
loop_
 _atom_site_type_symbol
 _atom_site_label
 _atom_site_symmetry_multiplicity
 _atom_site_fract_x
 _atom_site_fract_y
 _atom_site_fract_z
 _atom_site_occupancy
  Zr  Zr0  1  0.705354  0.291812  0.294740  1
  Zr  Zr1  1  0.294646  0.708188  0.705260  1
  Zr  Zr2  1  0.291812  0.705354  0.294740  1
  Zr  Zr3  1  0.708188  0.294646  0.705260  1
  Zr  Zr4  1  0.295179  0.295179  0.701645  1
  Zr  Zr5  1  0.704821  0.704821  0.298355  1
  Zn  Zn6  1  0.117720  0.117720  0.117455  1
  Zn  Zn7  1  0.882280  0.882280  0.882545  1
  Zn  Zn8  1  0.123999  0.123999  0.641190  1
  Zn  Zn9  1  0.113932  0.643608  0.129356  1
  Zn  Zn10  1  0.876001  0.876001  0.358810  1
  Zn  Zn11  1  0.886068  0.356392  0.870644  1
  Zn  Zn12  1  0.643608  0.113932  0.129356  1
  Zn  Zn13  1  0.356392  0.886068  0.870644  1
  Zn  Zn14  1  0.500000  0.000000  0.000000  1
  Zn  Zn15  1  0.000000  0.500000  0.000000  1
  Zn  Zn16  1  0.000000  0.000000  0.500000  1
  Zn  Zn17  1  0.500000  0.500000  0.000000  1
  Zn  Zn18  1  0.329779  0.329779  0.339283  1
  Zn  Zn19  1  0.670221  0.670221  0.660717  1
  Zn  Zn20  1  0.332898  0.332898  0.001551  1
  Zn  Zn21  1  0.336355  0.002126  0.336879  1
  Zn  Zn22  1  0.667102  0.667102  0.998449  1
  Zn  Zn23  1  0.663645  0.997874  0.663121  1
  Zn  Zn24  1  0.002126  0.336355  0.336879  1
  Zn  Zn25  1  0.997874  0.663645  0.663121  1
  Ni  Ni26  1  0.000000  0.500000  0.500000  1
  Ni  Ni27  1  0.500000  0.000000  0.500000  1
  Ni  Ni28  1  0.000000  0.000000  0.000000  1
  P  P29  1  0.500000  0.500000  0.500000  1
