# generated using pymatgen
data_Y3Ga4Co7(NiB)2
_symmetry_space_group_name_H-M   'P 1'
_cell_length_a   5.20565158
_cell_length_b   5.19667166
_cell_length_c   10.39625400
_cell_angle_alpha   90.00000000
_cell_angle_beta   90.00000000
_cell_angle_gamma   119.94296840
_symmetry_Int_Tables_number   1
_chemical_formula_structural   Y3Ga4Co7(NiB)2
_chemical_formula_sum   'Y3 Ga4 Co7 Ni2 B2'
_cell_volume   243.70092935
_cell_formula_units_Z   1
loop_
 _symmetry_equiv_pos_site_id
 _symmetry_equiv_pos_as_xyz
  1  'x, y, z'
loop_
 _atom_site_type_symbol
 _atom_site_label
 _atom_site_symmetry_multiplicity
 _atom_site_fract_x
 _atom_site_fract_y
 _atom_site_fract_z
 _atom_site_occupancy
  Y  Y0  1  0.000000  0.000000  0.672062  1
  Y  Y1  1  0.000000  0.000000  0.327938  1
  Y  Y2  1  0.000000  0.000000  0.000000  1
  Ga  Ga3  1  0.670005  0.335002  0.685057  1
  Ga  Ga4  1  0.329995  0.664998  0.685057  1
  Ga  Ga5  1  0.329995  0.664998  0.314943  1
  Ga  Ga6  1  0.670005  0.335002  0.314943  1
  Co  Co7  1  0.500000  0.500000  0.870203  1
  Co  Co8  1  0.500000  0.000000  0.870203  1
  Co  Co9  1  0.000000  0.500000  0.870433  1
  Co  Co10  1  0.500000  0.500000  0.129797  1
  Co  Co11  1  0.500000  0.000000  0.129797  1
  Co  Co12  1  0.000000  0.500000  0.129567  1
  Co  Co13  1  0.000000  0.500000  0.500000  1
  Ni  Ni14  1  0.500000  0.500000  0.500000  1
  Ni  Ni15  1  0.500000  0.000000  0.500000  1
  B  B16  1  0.666913  0.333456  0.000000  1
  B  B17  1  0.333087  0.666544  0.000000  1
