# generated using pymatgen
data_Tm7(NbSn2)5
_symmetry_space_group_name_H-M   'P 1'
_cell_length_a   11.05432295
_cell_length_b   11.08064471
_cell_length_c   11.08064500
_cell_angle_alpha   149.11381368
_cell_angle_beta   131.53169647
_cell_angle_gamma   58.60835112
_symmetry_Int_Tables_number   1
_chemical_formula_structural   Tm7(NbSn2)5
_chemical_formula_sum   'Tm7 Nb5 Sn10'
_cell_volume   517.45615948
_cell_formula_units_Z   1
loop_
 _symmetry_equiv_pos_site_id
 _symmetry_equiv_pos_as_xyz
  1  'x, y, z'
loop_
 _atom_site_type_symbol
 _atom_site_label
 _atom_site_symmetry_multiplicity
 _atom_site_fract_x
 _atom_site_fract_y
 _atom_site_fract_z
 _atom_site_occupancy
  Tm  Tm0  1  0.320540  0.561934  0.758606  1
  Tm  Tm1  1  0.200085  0.936956  0.263129  1
  Tm  Tm2  1  0.796542  0.063211  0.733332  1
  Tm  Tm3  1  0.260194  0.148928  0.111266  1
  Tm  Tm4  1  0.741195  0.853704  0.887491  1
  Tm  Tm5  1  0.035136  0.647467  0.387669  1
  Tm  Tm6  1  0.972846  0.355620  0.617226  1
  Nb  Nb7  1  0.310174  0.556822  0.253313  1
  Nb  Nb8  1  0.693094  0.444183  0.753328  1
  Nb  Nb9  1  0.693094  0.939765  0.248910  1
  Nb  Nb10  1  0.310174  0.056861  0.753352  1
  Nb  Nb11  1  0.670388  0.437609  0.232779  1
  Sn  Sn12  1  0.590687  0.291042  0.299643  1
  Sn  Sn13  1  0.419358  0.714115  0.705242  1
  Sn  Sn14  1  0.989875  0.786531  0.203344  1
  Sn  Sn15  1  0.012273  0.214291  0.797983  1
  Sn  Sn16  1  0.987460  0.249710  0.244824  1
  Sn  Sn17  1  0.987460  0.742636  0.737750  1
  Sn  Sn18  1  0.473126  0.074573  0.398552  1
  Sn  Sn19  1  0.528145  0.927518  0.600628  1
  Sn  Sn20  1  0.671024  0.570147  0.100876  1
  Sn  Sn21  1  0.337133  0.426379  0.910753  1
