# generated using pymatgen
data_Dy2Tm2Sc3GaPt4
_symmetry_space_group_name_H-M   'P 1'
_cell_length_a   4.46335500
_cell_length_b   7.02431567
_cell_length_c   8.33078453
_cell_angle_alpha   93.48689525
_cell_angle_beta   90.00000000
_cell_angle_gamma   90.00000000
_symmetry_Int_Tables_number   1
_chemical_formula_structural   Dy2Tm2Sc3GaPt4
_chemical_formula_sum   'Dy2 Tm2 Sc3 Ga1 Pt4'
_cell_volume   260.70335116
_cell_formula_units_Z   1
loop_
 _symmetry_equiv_pos_site_id
 _symmetry_equiv_pos_as_xyz
  1  'x, y, z'
loop_
 _atom_site_type_symbol
 _atom_site_label
 _atom_site_symmetry_multiplicity
 _atom_site_fract_x
 _atom_site_fract_y
 _atom_site_fract_z
 _atom_site_occupancy
  Dy  Dy0  1  0.250000  0.981438  0.313304  1
  Dy  Dy1  1  0.250000  0.457523  0.168859  1
  Tm  Tm2  1  0.750000  0.034799  0.684989  1
  Tm  Tm3  1  0.750000  0.505542  0.842771  1
  Sc  Sc4  1  0.250000  0.370533  0.571645  1
  Sc  Sc5  1  0.250000  0.859517  0.935713  1
  Sc  Sc6  1  0.750000  0.641210  0.430035  1
  Ga  Ga7  1  0.750000  0.136300  0.068406  1
  Pt  Pt8  1  0.250000  0.236926  0.874431  1
  Pt  Pt9  1  0.250000  0.760008  0.601463  1
  Pt  Pt10  1  0.750000  0.759681  0.115626  1
  Pt  Pt11  1  0.750000  0.256524  0.392759  1
