# generated using pymatgen
data_Ho2Tm3ReOsC7
_symmetry_space_group_name_H-M   'P 1'
_cell_length_a   8.18374608
_cell_length_b   8.16692813
_cell_length_c   3.43531900
_cell_angle_alpha   90.00000000
_cell_angle_beta   90.00000000
_cell_angle_gamma   121.92662212
_symmetry_Int_Tables_number   1
_chemical_formula_structural   Ho2Tm3ReOsC7
_chemical_formula_sum   'Ho2 Tm3 Re1 Os1 C7'
_cell_volume   194.87022580
_cell_formula_units_Z   1
loop_
 _symmetry_equiv_pos_site_id
 _symmetry_equiv_pos_as_xyz
  1  'x, y, z'
loop_
 _atom_site_type_symbol
 _atom_site_label
 _atom_site_symmetry_multiplicity
 _atom_site_fract_x
 _atom_site_fract_y
 _atom_site_fract_z
 _atom_site_occupancy
  Ho  Ho0  1  0.500896  0.499635  0.000000  1
  Ho  Ho1  1  0.075284  0.335219  0.500000  1
  Tm  Tm2  1  0.921325  0.662407  0.500000  1
  Tm  Tm3  1  0.661154  0.923043  0.500000  1
  Tm  Tm4  1  0.339505  0.078281  0.500000  1
  Re  Re5  1  0.283732  0.715928  0.000000  1
  Os  Os6  1  0.713952  0.286531  0.000000  1
  C  C7  1  0.630881  0.370047  0.500000  1
  C  C8  1  0.374237  0.625661  0.500000  1
  C  C9  1  0.000309  0.000007  0.000000  1
  C  C10  1  0.172494  0.169350  0.000000  1
  C  C11  1  0.828149  0.829817  0.000000  1
  C  C12  1  0.998879  0.502878  0.000000  1
  C  C13  1  0.499202  0.001194  0.000000  1
