# generated using pymatgen
data_Tb16SmHo3Pb16
_symmetry_space_group_name_H-M   'P 1'
_cell_length_a   8.24101277
_cell_length_b   8.31533186
_cell_length_c   15.72096868
_cell_angle_alpha   90.00776736
_cell_angle_beta   89.74478888
_cell_angle_gamma   89.93574909
_symmetry_Int_Tables_number   1
_chemical_formula_structural   Tb16SmHo3Pb16
_chemical_formula_sum   'Tb16 Sm1 Ho3 Pb16'
_cell_volume   1077.29561062
_cell_formula_units_Z   1
loop_
 _symmetry_equiv_pos_site_id
 _symmetry_equiv_pos_as_xyz
  1  'x, y, z'
loop_
 _atom_site_type_symbol
 _atom_site_label
 _atom_site_symmetry_multiplicity
 _atom_site_fract_x
 _atom_site_fract_y
 _atom_site_fract_z
 _atom_site_occupancy
  Tb  Tb0  1  0.623812  0.158516  0.621283  1
  Tb  Tb1  1  0.122133  0.341315  0.880069  1
  Tb  Tb2  1  0.378349  0.842259  0.121155  1
  Tb  Tb3  1  0.875533  0.658047  0.378171  1
  Tb  Tb4  1  0.375674  0.841485  0.378614  1
  Tb  Tb5  1  0.877947  0.658231  0.121152  1
  Tb  Tb6  1  0.621507  0.158289  0.879399  1
  Tb  Tb7  1  0.123391  0.341348  0.621132  1
  Tb  Tb8  1  0.464603  0.675205  0.599545  1
  Tb  Tb9  1  0.963077  0.824174  0.899473  1
  Tb  Tb10  1  0.536440  0.324510  0.100515  1
  Tb  Tb11  1  0.035016  0.176412  0.400139  1
  Tb  Tb12  1  0.534782  0.323835  0.400238  1
  Tb  Tb13  1  0.036780  0.175595  0.100327  1
  Tb  Tb14  1  0.463605  0.675547  0.900472  1
  Tb  Tb15  1  0.790355  0.495941  0.750578  1
  Sm  Sm16  1  0.967631  0.823091  0.598201  1
  Ho  Ho17  1  0.290501  0.004610  0.750752  1
  Ho  Ho18  1  0.209336  0.504104  0.249882  1
  Ho  Ho19  1  0.709402  0.995694  0.249305  1
  Pb  Pb20  1  0.715657  0.967373  0.455556  1
  Pb  Pb21  1  0.219296  0.534428  0.043353  1
  Pb  Pb22  1  0.280539  0.032419  0.957706  1
  Pb  Pb23  1  0.781432  0.464585  0.542070  1
  Pb  Pb24  1  0.286205  0.036857  0.542239  1
  Pb  Pb25  1  0.780456  0.466485  0.958059  1
  Pb  Pb26  1  0.719711  0.966326  0.042496  1
  Pb  Pb27  1  0.216968  0.533694  0.457009  1
  Pb  Pb28  1  0.426387  0.374125  0.750346  1
  Pb  Pb29  1  0.927020  0.126235  0.750214  1
  Pb  Pb30  1  0.572440  0.625695  0.249818  1
  Pb  Pb31  1  0.073012  0.874536  0.249868  1
  Pb  Pb32  1  0.650598  0.846343  0.749899  1
  Pb  Pb33  1  0.153376  0.652998  0.750653  1
  Pb  Pb34  1  0.348348  0.154686  0.250359  1
  Pb  Pb35  1  0.848680  0.345004  0.249957  1
