# generated using pymatgen
data_Dy3Ni6B2Rh
_symmetry_space_group_name_H-M   'P 1'
_cell_length_a   5.07523700
_cell_length_b   5.07523710
_cell_length_c   14.62353400
_cell_angle_alpha   90.00000000
_cell_angle_beta   90.00000000
_cell_angle_gamma   120.00000586
_symmetry_Int_Tables_number   1
_chemical_formula_structural   Dy3Ni6B2Rh
_chemical_formula_sum   'Dy6 Ni12 B4 Rh2'
_cell_volume   326.20875202
_cell_formula_units_Z   2
loop_
 _symmetry_equiv_pos_site_id
 _symmetry_equiv_pos_as_xyz
  1  'x, y, z'
loop_
 _atom_site_type_symbol
 _atom_site_label
 _atom_site_symmetry_multiplicity
 _atom_site_fract_x
 _atom_site_fract_y
 _atom_site_fract_z
 _atom_site_occupancy
  Dy  Dy0  1  0.333333  0.666667  0.468084  1
  Dy  Dy1  1  0.666667  0.333333  0.968084  1
  Dy  Dy2  1  0.666667  0.333333  0.531916  1
  Dy  Dy3  1  0.333333  0.666667  0.031916  1
  Dy  Dy4  1  0.666667  0.333333  0.750000  1
  Dy  Dy5  1  0.333333  0.666667  0.250000  1
  Ni  Ni6  1  0.834218  0.668436  0.347730  1
  Ni  Ni7  1  0.331564  0.165782  0.347730  1
  Ni  Ni8  1  0.834218  0.165782  0.152270  1
  Ni  Ni9  1  0.668436  0.834218  0.652270  1
  Ni  Ni10  1  0.165782  0.331564  0.652270  1
  Ni  Ni11  1  0.834218  0.668436  0.152270  1
  Ni  Ni12  1  0.331564  0.165782  0.152270  1
  Ni  Ni13  1  0.668436  0.834218  0.847730  1
  Ni  Ni14  1  0.165782  0.331564  0.847730  1
  Ni  Ni15  1  0.165782  0.834218  0.652270  1
  Ni  Ni16  1  0.165782  0.834218  0.847730  1
  Ni  Ni17  1  0.834218  0.165782  0.347730  1
  B  B18  1  0.666667  0.333333  0.250000  1
  B  B19  1  0.333333  0.666667  0.750000  1
  B  B20  1  0.000000  0.000000  0.750000  1
  B  B21  1  0.000000  0.000000  0.250000  1
  Rh  Rh22  1  0.000000  0.000000  0.000000  1
  Rh  Rh23  1  0.000000  0.000000  0.500000  1
