# generated using pymatgen
data_YbEr2Se3
_symmetry_space_group_name_H-M   'P 1'
_cell_length_a   4.07002300
_cell_length_b   4.07002335
_cell_length_c   10.01252200
_cell_angle_alpha   90.00000000
_cell_angle_beta   90.00000000
_cell_angle_gamma   119.99998906
_symmetry_Int_Tables_number   1
_chemical_formula_structural   YbEr2Se3
_chemical_formula_sum   'Yb1 Er2 Se3'
_cell_volume   143.63752946
_cell_formula_units_Z   1
loop_
 _symmetry_equiv_pos_site_id
 _symmetry_equiv_pos_as_xyz
  1  'x, y, z'
loop_
 _atom_site_type_symbol
 _atom_site_label
 _atom_site_symmetry_multiplicity
 _atom_site_fract_x
 _atom_site_fract_y
 _atom_site_fract_z
 _atom_site_occupancy
  Yb  Yb0  1  0.000000  0.000000  0.000000  1
  Er  Er1  1  0.333333  0.666667  0.656067  1
  Er  Er2  1  0.666667  0.333333  0.343933  1
  Se  Se3  1  0.333333  0.666667  0.173092  1
  Se  Se4  1  0.666667  0.333333  0.826908  1
  Se  Se5  1  0.000000  0.000000  0.500000  1
