# generated using pymatgen
data_Pa3Ga3FePt2
_symmetry_space_group_name_H-M   'P 1'
_cell_length_a   6.95598000
_cell_length_b   6.95597966
_cell_length_c   3.94244900
_cell_angle_alpha   90.00000000
_cell_angle_beta   90.00000000
_cell_angle_gamma   120.00000160
_symmetry_Int_Tables_number   1
_chemical_formula_structural   Pa3Ga3FePt2
_chemical_formula_sum   'Pa3 Ga3 Fe1 Pt2'
_cell_volume   165.20125298
_cell_formula_units_Z   1
loop_
 _symmetry_equiv_pos_site_id
 _symmetry_equiv_pos_as_xyz
  1  'x, y, z'
loop_
 _atom_site_type_symbol
 _atom_site_label
 _atom_site_symmetry_multiplicity
 _atom_site_fract_x
 _atom_site_fract_y
 _atom_site_fract_z
 _atom_site_occupancy
  Pa  Pa0  1  0.413778  0.979569  0.500000  1
  Pa  Pa1  1  0.020431  0.434210  0.500000  1
  Pa  Pa2  1  0.565790  0.586222  0.500000  1
  Ga  Ga3  1  0.747290  0.992220  0.000000  1
  Ga  Ga4  1  0.007780  0.755070  0.000000  1
  Ga  Ga5  1  0.244930  0.252710  0.000000  1
  Fe  Fe6  1  0.333333  0.666667  0.000000  1
  Pt  Pt7  1  0.666667  0.333333  0.000000  1
  Pt  Pt8  1  0.000000  0.000000  0.500000  1
