# generated using pymatgen
data_Sm3Cd5Pt4
_symmetry_space_group_name_H-M   'P 1'
_cell_length_a   4.27248600
_cell_length_b   7.15244470
_cell_length_c   8.72710273
_cell_angle_alpha   90.76302204
_cell_angle_beta   90.00000000
_cell_angle_gamma   90.00000000
_symmetry_Int_Tables_number   1
_chemical_formula_structural   Sm3Cd5Pt4
_chemical_formula_sum   'Sm3 Cd5 Pt4'
_cell_volume   266.66543919
_cell_formula_units_Z   1
loop_
 _symmetry_equiv_pos_site_id
 _symmetry_equiv_pos_as_xyz
  1  'x, y, z'
loop_
 _atom_site_type_symbol
 _atom_site_label
 _atom_site_symmetry_multiplicity
 _atom_site_fract_x
 _atom_site_fract_y
 _atom_site_fract_z
 _atom_site_occupancy
  Sm  Sm0  1  0.250000  0.044193  0.325513  1
  Sm  Sm1  1  0.250000  0.541466  0.164144  1
  Sm  Sm2  1  0.750000  0.955183  0.683604  1
  Cd  Cd3  1  0.750000  0.456052  0.821484  1
  Cd  Cd4  1  0.250000  0.148193  0.938145  1
  Cd  Cd5  1  0.250000  0.629110  0.561854  1
  Cd  Cd6  1  0.750000  0.865939  0.057743  1
  Cd  Cd7  1  0.750000  0.365389  0.445495  1
  Pt  Pt8  1  0.250000  0.236254  0.628541  1
  Pt  Pt9  1  0.250000  0.742775  0.870244  1
  Pt  Pt10  1  0.750000  0.757456  0.367864  1
  Pt  Pt11  1  0.750000  0.257991  0.135371  1
