# generated using pymatgen
data_SrTc11WBr25
_symmetry_space_group_name_H-M   'P 1'
_cell_length_a   9.94649768
_cell_length_b   11.02220766
_cell_length_c   11.81713316
_cell_angle_alpha   85.44023533
_cell_angle_beta   76.21123373
_cell_angle_gamma   86.89129418
_symmetry_Int_Tables_number   1
_chemical_formula_structural   SrTc11WBr25
_chemical_formula_sum   'Sr1 Tc11 W1 Br25'
_cell_volume   1253.38859490
_cell_formula_units_Z   1
loop_
 _symmetry_equiv_pos_site_id
 _symmetry_equiv_pos_as_xyz
  1  'x, y, z'
loop_
 _atom_site_type_symbol
 _atom_site_label
 _atom_site_symmetry_multiplicity
 _atom_site_fract_x
 _atom_site_fract_y
 _atom_site_fract_z
 _atom_site_occupancy
  Sr  Sr0  1  0.495706  0.002331  0.004637  1
  Tc  Tc1  1  0.174908  0.747695  0.877050  1
  Tc  Tc2  1  0.749839  0.111047  0.285545  1
  Tc  Tc3  1  0.242501  0.877368  0.725134  1
  Tc  Tc4  1  0.070569  0.270076  0.187318  1
  Tc  Tc5  1  0.935043  0.728894  0.814497  1
  Tc  Tc6  1  0.850974  0.428185  0.263663  1
  Tc  Tc7  1  0.150327  0.574538  0.737299  1
  Tc  Tc8  1  0.775380  0.297282  0.412948  1
  Tc  Tc9  1  0.222502  0.702364  0.582856  1
  Tc  Tc10  1  0.993319  0.143909  0.338811  1
  Tc  Tc11  1  0.004632  0.854381  0.658580  1
  W  W12  1  0.824491  0.245885  0.132492  1
  Br  Br13  1  0.943189  0.953051  0.259493  1
  Br  Br14  1  0.058531  0.041764  0.740336  1
  Br  Br15  1  0.975049  0.272455  0.506150  1
  Br  Br16  1  0.021809  0.725585  0.491584  1
  Br  Br17  1  0.655072  0.426487  0.162284  1
  Br  Br18  1  0.353682  0.577241  0.830220  1
  Br  Br19  1  0.093998  0.463886  0.274420  1
  Br  Br20  1  0.907298  0.538759  0.720155  1
  Br  Br21  1  0.010550  0.531519  0.984970  1
  Br  Br22  1  0.593100  0.956175  0.231402  1
  Br  Br23  1  0.401475  0.035240  0.767966  1
  Br  Br24  1  0.194800  0.029175  0.400392  1
  Br  Br25  1  0.796374  0.963643  0.606999  1
  Br  Br26  1  0.545457  0.225576  0.399334  1
  Br  Br27  1  0.448335  0.777957  0.600416  1
  Br  Br28  1  0.051432  0.156420  0.018420  1
  Br  Br29  1  0.952682  0.851523  0.978319  1
  Br  Br30  1  0.778674  0.643009  0.311970  1
  Br  Br31  1  0.217767  0.360502  0.687892  1
  Br  Br32  1  0.724947  0.200281  0.955617  1
  Br  Br33  1  0.280427  0.794910  0.048958  1
  Br  Br34  1  0.335528  0.243000  0.109632  1
  Br  Br35  1  0.671166  0.754928  0.889337  1
  Br  Br36  1  0.648193  0.404955  0.587227  1
  Br  Br37  1  0.350275  0.588005  0.415677  1
