# generated using pymatgen
data_Pa2Cr5CoP4
_symmetry_space_group_name_H-M   'P 1'
_cell_length_a   3.83788200
_cell_length_b   10.56814600
_cell_length_c   12.55864800
_cell_angle_alpha   90.00000000
_cell_angle_beta   90.00000000
_cell_angle_gamma   90.00000000
_symmetry_Int_Tables_number   1
_chemical_formula_structural   Pa2Cr5CoP4
_chemical_formula_sum   'Pa6 Cr15 Co3 P12'
_cell_volume   509.36993800
_cell_formula_units_Z   3
loop_
 _symmetry_equiv_pos_site_id
 _symmetry_equiv_pos_as_xyz
  1  'x, y, z'
loop_
 _atom_site_type_symbol
 _atom_site_label
 _atom_site_symmetry_multiplicity
 _atom_site_fract_x
 _atom_site_fract_y
 _atom_site_fract_z
 _atom_site_occupancy
  Pa  Pa0  1  0.000000  0.500000  0.534509  1
  Pa  Pa1  1  0.500000  0.000000  0.467853  1
  Pa  Pa2  1  0.500000  0.823335  0.208302  1
  Pa  Pa3  1  0.500000  0.176665  0.208302  1
  Pa  Pa4  1  0.000000  0.677244  0.789540  1
  Pa  Pa5  1  0.000000  0.322756  0.789540  1
  Cr  Cr6  1  0.000000  0.500000  0.988166  1
  Cr  Cr7  1  0.500000  0.296578  0.427442  1
  Cr  Cr8  1  0.500000  0.703422  0.427442  1
  Cr  Cr9  1  0.000000  0.201045  0.568453  1
  Cr  Cr10  1  0.000000  0.798955  0.568453  1
  Cr  Cr11  1  0.500000  0.889900  0.702061  1
  Cr  Cr12  1  0.500000  0.110100  0.702061  1
  Cr  Cr13  1  0.000000  0.612349  0.304938  1
  Cr  Cr14  1  0.000000  0.387651  0.304938  1
  Cr  Cr15  1  0.500000  0.323550  0.000517  1
  Cr  Cr16  1  0.500000  0.676450  0.000517  1
  Cr  Cr17  1  0.000000  0.190135  0.999365  1
  Cr  Cr18  1  0.000000  0.809865  0.999365  1
  Cr  Cr19  1  0.500000  0.500000  0.158012  1
  Cr  Cr20  1  0.000000  0.000000  0.852072  1
  Co  Co21  1  0.500000  0.000000  0.008849  1
  Co  Co22  1  0.500000  0.500000  0.705109  1
  Co  Co23  1  0.000000  0.000000  0.285702  1
  P  P24  1  0.500000  0.313282  0.613958  1
  P  P25  1  0.500000  0.686718  0.613958  1
  P  P26  1  0.000000  0.181693  0.382810  1
  P  P27  1  0.000000  0.818307  0.382810  1
  P  P28  1  0.500000  0.500000  0.883867  1
  P  P29  1  0.000000  0.000000  0.104605  1
  P  P30  1  0.500000  0.850815  0.881882  1
  P  P31  1  0.500000  0.149185  0.881882  1
  P  P32  1  0.000000  0.644696  0.124559  1
  P  P33  1  0.000000  0.355304  0.124559  1
  P  P34  1  0.500000  0.500000  0.358371  1
  P  P35  1  0.000000  0.000000  0.645231  1
