# generated using pymatgen
data_TaNb3V8(BOs)12
_symmetry_space_group_name_H-M   'P 1'
_cell_length_a   3.01356800
_cell_length_b   8.86977883
_cell_length_c   15.39333079
_cell_angle_alpha   90.04850138
_cell_angle_beta   90.00000000
_cell_angle_gamma   90.00000000
_symmetry_Int_Tables_number   1
_chemical_formula_structural   TaNb3V8(BOs)12
_chemical_formula_sum   'Ta1 Nb3 V8 B12 Os12'
_cell_volume   411.45868440
_cell_formula_units_Z   1
loop_
 _symmetry_equiv_pos_site_id
 _symmetry_equiv_pos_as_xyz
  1  'x, y, z'
loop_
 _atom_site_type_symbol
 _atom_site_label
 _atom_site_symmetry_multiplicity
 _atom_site_fract_x
 _atom_site_fract_y
 _atom_site_fract_z
 _atom_site_occupancy
  Ta  Ta0  1  0.000000  0.686503  0.201605  1
  Nb  Nb1  1  0.000000  0.313127  0.798870  1
  Nb  Nb2  1  0.000000  0.186938  0.298845  1
  Nb  Nb3  1  0.000000  0.812987  0.700962  1
  V  V4  1  0.000000  0.790190  0.497392  1
  V  V5  1  0.000000  0.209484  0.502475  1
  V  V6  1  0.000000  0.290651  0.002646  1
  V  V7  1  0.000000  0.710179  0.997452  1
  V  V8  1  0.000000  0.518709  0.589014  1
  V  V9  1  0.000000  0.480830  0.411059  1
  V  V10  1  0.000000  0.018781  0.910867  1
  V  V11  1  0.000000  0.981630  0.088873  1
  B  B12  1  0.500000  0.602931  0.495158  1
  B  B13  1  0.500000  0.396755  0.504731  1
  B  B14  1  0.500000  0.103397  0.004726  1
  B  B15  1  0.500000  0.897054  0.995256  1
  B  B16  1  0.000000  0.609433  0.833999  1
  B  B17  1  0.000000  0.390365  0.166150  1
  B  B18  1  0.000000  0.109440  0.666060  1
  B  B19  1  0.000000  0.890524  0.334032  1
  B  B20  1  0.500000  0.709875  0.594449  1
  B  B21  1  0.500000  0.289972  0.405366  1
  B  B22  1  0.500000  0.210161  0.905300  1
  B  B23  1  0.500000  0.790359  0.095046  1
  Os  Os24  1  0.500000  0.714263  0.359597  1
  Os  Os25  1  0.500000  0.285359  0.640069  1
  Os  Os26  1  0.500000  0.214687  0.140158  1
  Os  Os27  1  0.500000  0.785626  0.859953  1
  Os  Os28  1  0.500000  0.518467  0.089221  1
  Os  Os29  1  0.500000  0.482920  0.911690  1
  Os  Os30  1  0.500000  0.016988  0.411153  1
  Os  Os31  1  0.500000  0.982639  0.588404  1
  Os  Os32  1  0.500000  0.559087  0.731025  1
  Os  Os33  1  0.500000  0.441289  0.268954  1
  Os  Os34  1  0.500000  0.058915  0.769034  1
  Os  Os35  1  0.500000  0.939489  0.230409  1
