# generated using pymatgen
data_Er16InNi3Ag3Ir
_symmetry_space_group_name_H-M   'P 1'
_cell_length_a   9.36857085
_cell_length_b   9.40430139
_cell_length_c   9.36857176
_cell_angle_alpha   60.35536163
_cell_angle_beta   60.27561020
_cell_angle_gamma   60.35536109
_symmetry_Int_Tables_number   1
_chemical_formula_structural   Er16InNi3Ag3Ir
_chemical_formula_sum   'Er16 In1 Ni3 Ag3 Ir1'
_cell_volume   587.99862069
_cell_formula_units_Z   1
loop_
 _symmetry_equiv_pos_site_id
 _symmetry_equiv_pos_as_xyz
  1  'x, y, z'
loop_
 _atom_site_type_symbol
 _atom_site_label
 _atom_site_symmetry_multiplicity
 _atom_site_fract_x
 _atom_site_fract_y
 _atom_site_fract_z
 _atom_site_occupancy
  Er  Er0  1  0.063924  0.064622  0.435438  1
  Er  Er1  1  0.650440  0.047928  0.650440  1
  Er  Er2  1  0.190494  0.808353  0.190494  1
  Er  Er3  1  0.435079  0.061447  0.435079  1
  Er  Er4  1  0.192102  0.187884  0.809776  1
  Er  Er5  1  0.647712  0.653839  0.647712  1
  Er  Er6  1  0.049987  0.653820  0.648254  1
  Er  Er7  1  0.435438  0.064622  0.063924  1
  Er  Er8  1  0.648254  0.653820  0.049987  1
  Er  Er9  1  0.189363  0.810196  0.811768  1
  Er  Er10  1  0.811389  0.185877  0.811389  1
  Er  Er11  1  0.809776  0.187884  0.192102  1
  Er  Er12  1  0.811768  0.810196  0.189363  1
  Er  Er13  1  0.058955  0.434941  0.439254  1
  Er  Er14  1  0.439254  0.434941  0.058955  1
  Er  Er15  1  0.062011  0.435699  0.062011  1
  In  In16  1  0.420653  0.419444  0.420653  1
  Ni  Ni17  1  0.857511  0.857623  0.857511  1
  Ni  Ni18  1  0.427167  0.857579  0.857659  1
  Ni  Ni19  1  0.857659  0.857579  0.427167  1
  Ag  Ag20  1  0.748321  0.416876  0.418041  1
  Ag  Ag21  1  0.418041  0.416876  0.748321  1
  Ag  Ag22  1  0.417251  0.749752  0.417251  1
  Ir  Ir23  1  0.857449  0.428198  0.857449  1
