# generated using pymatgen
data_Ca4Al18PdRh5
_symmetry_space_group_name_H-M   'P 1'
_cell_length_a   7.58297119
_cell_length_b   7.58297160
_cell_length_c   9.62792563
_cell_angle_alpha   90.03047258
_cell_angle_beta   90.03047061
_cell_angle_gamma   119.35627015
_symmetry_Int_Tables_number   1
_chemical_formula_structural   Ca4Al18PdRh5
_chemical_formula_sum   'Ca4 Al18 Pd1 Rh5'
_cell_volume   482.52817664
_cell_formula_units_Z   1
loop_
 _symmetry_equiv_pos_site_id
 _symmetry_equiv_pos_as_xyz
  1  'x, y, z'
loop_
 _atom_site_type_symbol
 _atom_site_label
 _atom_site_symmetry_multiplicity
 _atom_site_fract_x
 _atom_site_fract_y
 _atom_site_fract_z
 _atom_site_occupancy
  Ca  Ca0  1  0.994992  0.672015  0.250611  1
  Ca  Ca1  1  0.005008  0.327985  0.749389  1
  Ca  Ca2  1  0.672015  0.994992  0.250611  1
  Ca  Ca3  1  0.327985  0.005008  0.749389  1
  Al  Al4  1  0.131896  0.131896  0.252713  1
  Al  Al5  1  0.868104  0.868104  0.747287  1
  Al  Al6  1  0.002346  0.338851  0.073796  1
  Al  Al7  1  0.997654  0.661149  0.926204  1
  Al  Al8  1  0.998450  0.665066  0.571972  1
  Al  Al9  1  0.334934  0.001550  0.428028  1
  Al  Al10  1  0.001550  0.334934  0.428028  1
  Al  Al11  1  0.665066  0.998450  0.571972  1
  Al  Al12  1  0.661149  0.997654  0.926204  1
  Al  Al13  1  0.338851  0.002346  0.073796  1
  Al  Al14  1  0.334320  0.334320  0.546494  1
  Al  Al15  1  0.665680  0.665680  0.453506  1
  Al  Al16  1  0.662553  0.662553  0.048029  1
  Al  Al17  1  0.337447  0.337447  0.951971  1
  Al  Al18  1  0.337375  0.547565  0.250076  1
  Al  Al19  1  0.662625  0.452435  0.749924  1
  Al  Al20  1  0.547565  0.337375  0.250076  1
  Al  Al21  1  0.452435  0.662625  0.749924  1
  Pd  Pd22  1  0.000000  0.000000  0.000000  1
  Rh  Rh23  1  0.671258  0.328742  0.000000  1
  Rh  Rh24  1  0.328742  0.671258  0.000000  1
  Rh  Rh25  1  0.328991  0.671009  0.500000  1
  Rh  Rh26  1  0.671009  0.328991  0.500000  1
  Rh  Rh27  1  0.000000  0.000000  0.500000  1
