# generated using pymatgen
data_Y6CdSn5Pd5Pt
_symmetry_space_group_name_H-M   'P 1'
_cell_length_a   7.70466120
_cell_length_b   7.71269660
_cell_length_c   7.71082001
_cell_angle_alpha   90.00570556
_cell_angle_beta   89.99858085
_cell_angle_gamma   119.94002052
_symmetry_Int_Tables_number   1
_chemical_formula_structural   Y6CdSn5Pd5Pt
_chemical_formula_sum   'Y6 Cd1 Sn5 Pd5 Pt1'
_cell_volume   397.05727354
_cell_formula_units_Z   1
loop_
 _symmetry_equiv_pos_site_id
 _symmetry_equiv_pos_as_xyz
  1  'x, y, z'
loop_
 _atom_site_type_symbol
 _atom_site_label
 _atom_site_symmetry_multiplicity
 _atom_site_fract_x
 _atom_site_fract_y
 _atom_site_fract_z
 _atom_site_occupancy
  Y  Y0  1  0.405005  0.998773  0.245223  1
  Y  Y1  1  0.596579  0.600466  0.246159  1
  Y  Y2  1  0.998236  0.400353  0.246766  1
  Y  Y3  1  0.403308  0.995541  0.754815  1
  Y  Y4  1  0.594998  0.602167  0.753713  1
  Y  Y5  1  0.001450  0.401811  0.753351  1
  Cd  Cd6  1  0.739350  0.004649  0.000049  1
  Sn  Sn7  1  0.269864  0.266535  0.500000  1
  Sn  Sn8  1  0.999474  0.731431  0.500014  1
  Sn  Sn9  1  0.994084  0.740633  0.000026  1
  Sn  Sn10  1  0.255471  0.255725  0.000152  1
  Sn  Sn11  1  0.736709  0.001459  0.499975  1
  Pd  Pd12  1  0.333575  0.666157  0.497078  1
  Pd  Pd13  1  0.664448  0.338069  0.997196  1
  Pd  Pd14  1  0.667396  0.333680  0.503257  1
  Pd  Pd15  1  0.005714  0.999602  0.258360  1
  Pd  Pd16  1  0.005775  0.999680  0.741765  1
  Pt  Pt17  1  0.328562  0.663270  0.002103  1
