# generated using pymatgen
data_Dy5Mn2Fe(P3Ir4)4
_symmetry_space_group_name_H-M   'P 1'
_cell_length_a   12.67899270
_cell_length_b   12.66221041
_cell_length_c   3.95721400
_cell_angle_alpha   90.00000000
_cell_angle_beta   90.00000000
_cell_angle_gamma   119.95622382
_symmetry_Int_Tables_number   1
_chemical_formula_structural   Dy5Mn2Fe(P3Ir4)4
_chemical_formula_sum   'Dy5 Mn2 Fe1 P12 Ir16'
_cell_volume   550.43476070
_cell_formula_units_Z   1
loop_
 _symmetry_equiv_pos_site_id
 _symmetry_equiv_pos_as_xyz
  1  'x, y, z'
loop_
 _atom_site_type_symbol
 _atom_site_label
 _atom_site_symmetry_multiplicity
 _atom_site_fract_x
 _atom_site_fract_y
 _atom_site_fract_z
 _atom_site_occupancy
  Dy  Dy0  1  0.333328  0.666650  0.500000  1
  Dy  Dy1  1  0.666672  0.333321  0.500000  1
  Dy  Dy2  1  0.000000  0.809894  0.000000  1
  Dy  Dy3  1  0.189779  0.189687  0.000000  1
  Dy  Dy4  1  0.810221  0.999908  0.000000  1
  Mn  Mn5  1  0.541786  0.541995  0.500000  1
  Mn  Mn6  1  0.458214  0.000210  0.500000  1
  Fe  Fe7  1  0.000000  0.457031  0.500000  1
  P  P8  1  0.000000  0.633467  0.500000  1
  P  P9  1  0.365202  0.365327  0.500000  1
  P  P10  1  0.634798  0.000126  0.500000  1
  P  P11  1  0.517201  0.685945  0.000000  1
  P  P12  1  0.313801  0.830742  0.000000  1
  P  P13  1  0.169749  0.483554  0.000000  1
  P  P14  1  0.482799  0.168745  0.000000  1
  P  P15  1  0.686199  0.516941  0.000000  1
  P  P16  1  0.830251  0.313806  0.000000  1
  P  P17  1  0.000000  0.178812  0.500000  1
  P  P18  1  0.821620  0.821757  0.500000  1
  P  P19  1  0.178380  0.000137  0.500000  1
  Ir  Ir20  1  0.507933  0.868451  0.000000  1
  Ir  Ir21  1  0.131072  0.639937  0.000000  1
  Ir  Ir22  1  0.360460  0.491679  0.000000  1
  Ir  Ir23  1  0.492067  0.360517  0.000000  1
  Ir  Ir24  1  0.868928  0.508864  0.000000  1
  Ir  Ir25  1  0.639540  0.131219  0.000000  1
  Ir  Ir26  1  0.000000  0.284015  0.000000  1
  Ir  Ir27  1  0.717660  0.717608  0.000000  1
  Ir  Ir28  1  0.282340  0.999948  0.000000  1
  Ir  Ir29  1  0.623674  0.802698  0.500000  1
  Ir  Ir30  1  0.197632  0.820822  0.500000  1
  Ir  Ir31  1  0.179168  0.376472  0.500000  1
  Ir  Ir32  1  0.376326  0.179024  0.500000  1
  Ir  Ir33  1  0.802368  0.623190  0.500000  1
  Ir  Ir34  1  0.820832  0.197304  0.500000  1
  Ir  Ir35  1  0.000000  0.000196  0.500000  1
