# generated using pymatgen
data_Y11Cd4In5Ni4
_symmetry_space_group_name_H-M   'P 1'
_cell_length_a   13.05613356
_cell_length_b   13.05613416
_cell_length_c   3.65434400
_cell_angle_alpha   90.00000000
_cell_angle_beta   90.00000000
_cell_angle_gamma   111.75024604
_symmetry_Int_Tables_number   1
_chemical_formula_structural   Y11Cd4In5Ni4
_chemical_formula_sum   'Y11 Cd4 In5 Ni4'
_cell_volume   578.58150214
_cell_formula_units_Z   1
loop_
 _symmetry_equiv_pos_site_id
 _symmetry_equiv_pos_as_xyz
  1  'x, y, z'
loop_
 _atom_site_type_symbol
 _atom_site_label
 _atom_site_symmetry_multiplicity
 _atom_site_fract_x
 _atom_site_fract_y
 _atom_site_fract_z
 _atom_site_occupancy
  Y  Y0  1  0.081410  0.419557  0.000000  1
  Y  Y1  1  0.918590  0.580443  0.000000  1
  Y  Y2  1  0.419557  0.081410  0.000000  1
  Y  Y3  1  0.580443  0.918590  0.000000  1
  Y  Y4  1  0.627138  0.372862  0.000000  1
  Y  Y5  1  0.372862  0.627138  0.000000  1
  Y  Y6  1  0.839663  0.160337  0.000000  1
  Y  Y7  1  0.160337  0.839663  0.000000  1
  Y  Y8  1  0.000000  0.000000  0.000000  1
  Y  Y9  1  0.310711  0.310711  0.000000  1
  Y  Y10  1  0.689289  0.689289  0.000000  1
  Cd  Cd11  1  0.840402  0.367439  0.500000  1
  Cd  Cd12  1  0.159598  0.632561  0.500000  1
  Cd  Cd13  1  0.367439  0.840402  0.500000  1
  Cd  Cd14  1  0.632561  0.159598  0.500000  1
  In  In15  1  0.075964  0.219341  0.500000  1
  In  In16  1  0.924036  0.780659  0.500000  1
  In  In17  1  0.219341  0.075964  0.500000  1
  In  In18  1  0.780659  0.924036  0.500000  1
  In  In19  1  0.500000  0.500000  0.500000  1
  Ni  Ni20  1  0.249150  0.448909  0.500000  1
  Ni  Ni21  1  0.750850  0.551091  0.500000  1
  Ni  Ni22  1  0.448909  0.249150  0.500000  1
  Ni  Ni23  1  0.551091  0.750850  0.500000  1
