# generated using pymatgen
data_CeHo9(Al2Ru3)2
_symmetry_space_group_name_H-M   'P 1'
_cell_length_a   8.29218204
_cell_length_b   8.29218183
_cell_length_c   8.29218168
_cell_angle_alpha   109.40818029
_cell_angle_beta   109.40818034
_cell_angle_gamma   109.40819832
_symmetry_Int_Tables_number   1
_chemical_formula_structural   CeHo9(Al2Ru3)2
_chemical_formula_sum   'Ce1 Ho9 Al4 Ru6'
_cell_volume   439.94054450
_cell_formula_units_Z   1
loop_
 _symmetry_equiv_pos_site_id
 _symmetry_equiv_pos_as_xyz
  1  'x, y, z'
loop_
 _atom_site_type_symbol
 _atom_site_label
 _atom_site_symmetry_multiplicity
 _atom_site_fract_x
 _atom_site_fract_y
 _atom_site_fract_z
 _atom_site_occupancy
  Ce  Ce0  1  0.602992  0.602992  0.602992  1
  Ho  Ho1  1  0.476276  0.150803  0.220586  1
  Ho  Ho2  1  0.150803  0.220586  0.476276  1
  Ho  Ho3  1  0.220586  0.476276  0.150803  1
  Ho  Ho4  1  0.410730  0.693134  0.910345  1
  Ho  Ho5  1  0.693134  0.910345  0.410730  1
  Ho  Ho6  1  0.910345  0.410730  0.693134  1
  Ho  Ho7  1  0.658208  0.091151  0.839763  1
  Ho  Ho8  1  0.091151  0.839763  0.658208  1
  Ho  Ho9  1  0.839763  0.658208  0.091151  1
  Al  Al10  1  0.408918  0.317527  0.912268  1
  Al  Al11  1  0.317527  0.912268  0.408918  1
  Al  Al12  1  0.912268  0.408918  0.317527  1
  Al  Al13  1  0.994816  0.994816  0.994816  1
  Ru  Ru14  1  0.032137  0.158225  0.783208  1
  Ru  Ru15  1  0.158225  0.783208  0.032137  1
  Ru  Ru16  1  0.783208  0.032137  0.158225  1
  Ru  Ru17  1  0.659315  0.535042  0.294557  1
  Ru  Ru18  1  0.535042  0.294557  0.659315  1
  Ru  Ru19  1  0.294557  0.659315  0.535042  1
