# generated using pymatgen
data_Ce7Ho(AlRh)8
_symmetry_space_group_name_H-M   'P 1'
_cell_length_a   4.20284000
_cell_length_b   7.10133608
_cell_length_c   15.90120555
_cell_angle_alpha   89.66224121
_cell_angle_beta   90.00000000
_cell_angle_gamma   90.00000000
_symmetry_Int_Tables_number   1
_chemical_formula_structural   Ce7Ho(AlRh)8
_chemical_formula_sum   'Ce7 Ho1 Al8 Rh8'
_cell_volume   474.57562593
_cell_formula_units_Z   1
loop_
 _symmetry_equiv_pos_site_id
 _symmetry_equiv_pos_as_xyz
  1  'x, y, z'
loop_
 _atom_site_type_symbol
 _atom_site_label
 _atom_site_symmetry_multiplicity
 _atom_site_fract_x
 _atom_site_fract_y
 _atom_site_fract_z
 _atom_site_occupancy
  Ce  Ce0  1  0.750000  0.845115  0.441186  1
  Ce  Ce1  1  0.250000  0.653243  0.940834  1
  Ce  Ce2  1  0.750000  0.346344  0.059164  1
  Ce  Ce3  1  0.250000  0.027823  0.778919  1
  Ce  Ce4  1  0.750000  0.973217  0.220791  1
  Ce  Ce5  1  0.250000  0.527153  0.719108  1
  Ce  Ce6  1  0.750000  0.472886  0.280468  1
  Ho  Ho7  1  0.250000  0.156465  0.559788  1
  Al  Al8  1  0.250000  0.144046  0.350898  1
  Al  Al9  1  0.750000  0.858931  0.648650  1
  Al  Al10  1  0.250000  0.644325  0.150448  1
  Al  Al11  1  0.750000  0.356100  0.849057  1
  Al  Al12  1  0.250000  0.004852  0.062076  1
  Al  Al13  1  0.750000  0.995213  0.937944  1
  Al  Al14  1  0.250000  0.502786  0.439002  1
  Al  Al15  1  0.750000  0.489911  0.560954  1
  Rh  Rh16  1  0.750000  0.274780  0.427631  1
  Rh  Rh17  1  0.250000  0.724165  0.571849  1
  Rh  Rh18  1  0.750000  0.778554  0.073311  1
  Rh  Rh19  1  0.250000  0.221684  0.926452  1
  Rh  Rh20  1  0.750000  0.739033  0.817842  1
  Rh  Rh21  1  0.250000  0.264054  0.181710  1
  Rh  Rh22  1  0.750000  0.235465  0.683336  1
  Rh  Rh23  1  0.250000  0.763854  0.318584  1
