# generated using pymatgen
data_Ho3Tm3(Si3Ru)8
_symmetry_space_group_name_H-M   'P 1'
_cell_length_a   10.10649925
_cell_length_b   10.10649975
_cell_length_c   8.12537507
_cell_angle_alpha   89.95498445
_cell_angle_beta   90.04501617
_cell_angle_gamma   132.58263089
_symmetry_Int_Tables_number   1
_chemical_formula_structural   Ho3Tm3(Si3Ru)8
_chemical_formula_sum   'Ho3 Tm3 Si24 Ru8'
_cell_volume   611.08398364
_cell_formula_units_Z   1
loop_
 _symmetry_equiv_pos_site_id
 _symmetry_equiv_pos_as_xyz
  1  'x, y, z'
loop_
 _atom_site_type_symbol
 _atom_site_label
 _atom_site_symmetry_multiplicity
 _atom_site_fract_x
 _atom_site_fract_y
 _atom_site_fract_z
 _atom_site_occupancy
  Ho  Ho0  1  0.997407  0.497407  0.250000  1
  Ho  Ho1  1  0.497620  0.997620  0.250000  1
  Ho  Ho2  1  0.002353  0.502353  0.750000  1
  Tm  Tm3  1  0.499990  0.499986  0.500046  1
  Tm  Tm4  1  0.999986  0.999990  0.999954  1
  Tm  Tm5  1  0.502418  0.002418  0.750000  1
  Si  Si6  1  0.794982  0.205344  0.500292  1
  Si  Si7  1  0.294553  0.704909  0.999709  1
  Si  Si8  1  0.204909  0.794553  0.500291  1
  Si  Si9  1  0.705344  0.294982  0.999708  1
  Si  Si10  1  0.332224  0.332472  0.832787  1
  Si  Si11  1  0.667714  0.667619  0.167299  1
  Si  Si12  1  0.167619  0.167714  0.332701  1
  Si  Si13  1  0.832472  0.832224  0.667213  1
  Si  Si14  1  0.121789  0.887659  0.728434  1
  Si  Si15  1  0.111746  0.877233  0.271253  1
  Si  Si16  1  0.613010  0.378701  0.228778  1
  Si  Si17  1  0.621995  0.387787  0.771814  1
  Si  Si18  1  0.878701  0.113010  0.271222  1
  Si  Si19  1  0.887787  0.121995  0.728186  1
  Si  Si20  1  0.387659  0.621789  0.771566  1
  Si  Si21  1  0.377233  0.611746  0.228747  1
  Si  Si22  1  0.344836  0.111508  0.505181  1
  Si  Si23  1  0.887553  0.653438  0.494846  1
  Si  Si24  1  0.388551  0.155394  0.004179  1
  Si  Si25  1  0.846513  0.612401  0.995111  1
  Si  Si26  1  0.655394  0.888551  0.495821  1
  Si  Si27  1  0.112401  0.346513  0.504889  1
  Si  Si28  1  0.611508  0.844836  0.994819  1
  Si  Si29  1  0.153438  0.387553  0.005154  1
  Ru  Ru30  1  0.667639  0.329109  0.500867  1
  Ru  Ru31  1  0.170955  0.832351  0.999409  1
  Ru  Ru32  1  0.332351  0.670955  0.500591  1
  Ru  Ru33  1  0.829109  0.167639  0.999133  1
  Ru  Ru34  1  0.126594  0.126696  0.627036  1
  Ru  Ru35  1  0.873502  0.873444  0.372813  1
  Ru  Ru36  1  0.373444  0.373502  0.127187  1
  Ru  Ru37  1  0.626696  0.626594  0.872964  1
