# generated using pymatgen
data_Pr3Ir5Rh4
_symmetry_space_group_name_H-M   'P 1'
_cell_length_a   5.37994068
_cell_length_b   5.38985996
_cell_length_c   17.77131840
_cell_angle_alpha   89.99999896
_cell_angle_beta   90.06881760
_cell_angle_gamma   120.06101047
_symmetry_Int_Tables_number   1
_chemical_formula_structural   Pr3Ir5Rh4
_chemical_formula_sum   'Pr6 Ir10 Rh8'
_cell_volume   446.00271763
_cell_formula_units_Z   2
loop_
 _symmetry_equiv_pos_site_id
 _symmetry_equiv_pos_as_xyz
  1  'x, y, z'
loop_
 _atom_site_type_symbol
 _atom_site_label
 _atom_site_symmetry_multiplicity
 _atom_site_fract_x
 _atom_site_fract_y
 _atom_site_fract_z
 _atom_site_occupancy
  Pr  Pr0  1  0.332801  0.666401  0.541629  1
  Pr  Pr1  1  0.666733  0.333366  0.041357  1
  Pr  Pr2  1  0.665595  0.332797  0.457901  1
  Pr  Pr3  1  0.333494  0.666748  0.958592  1
  Pr  Pr4  1  0.333386  0.666694  0.749995  1
  Pr  Pr5  1  0.666663  0.333331  0.249363  1
  Ir  Ir6  1  0.166838  0.333202  0.128648  1
  Ir  Ir7  1  0.833122  0.666137  0.627932  1
  Ir  Ir8  1  0.665881  0.832940  0.128029  1
  Ir  Ir9  1  0.166838  0.833636  0.128648  1
  Ir  Ir10  1  0.833122  0.166985  0.627932  1
  Ir  Ir11  1  0.333567  0.166783  0.628028  1
  Ir  Ir12  1  0.833080  0.666564  0.871707  1
  Ir  Ir13  1  0.833080  0.166516  0.871707  1
  Ir  Ir14  1  0.333800  0.166900  0.871769  1
  Ir  Ir15  1  0.669323  0.834661  0.371838  1
  Rh  Rh16  1  0.168418  0.834305  0.372481  1
  Rh  Rh17  1  0.168418  0.334114  0.372481  1
  Rh  Rh18  1  0.998104  0.999051  0.250111  1
  Rh  Rh19  1  0.000097  0.000048  0.749836  1
  Rh  Rh20  1  0.334268  0.667134  0.250372  1
  Rh  Rh21  1  0.666684  0.333342  0.749884  1
  Rh  Rh22  1  0.000544  0.000272  0.999827  1
  Rh  Rh23  1  0.996145  0.998072  0.499933  1
