# generated using pymatgen
data_La3Nd(B10Ir)2
_symmetry_space_group_name_H-M   'P 1'
_cell_length_a   4.24525000
_cell_length_b   5.78138142
_cell_length_c   11.51960438
_cell_angle_alpha   89.99287014
_cell_angle_beta   90.00000000
_cell_angle_gamma   90.00000000
_symmetry_Int_Tables_number   1
_chemical_formula_structural   La3Nd(B10Ir)2
_chemical_formula_sum   'La3 Nd1 B20 Ir2'
_cell_volume   282.73036530
_cell_formula_units_Z   1
loop_
 _symmetry_equiv_pos_site_id
 _symmetry_equiv_pos_as_xyz
  1  'x, y, z'
loop_
 _atom_site_type_symbol
 _atom_site_label
 _atom_site_symmetry_multiplicity
 _atom_site_fract_x
 _atom_site_fract_y
 _atom_site_fract_z
 _atom_site_occupancy
  La  La0  1  0.500000  0.291485  0.866414  1
  La  La1  1  0.500000  0.707745  0.134160  1
  La  La2  1  0.500000  0.791653  0.632947  1
  Nd  Nd3  1  0.500000  0.207190  0.366631  1
  B  B4  1  0.000000  0.119602  0.542901  1
  B  B5  1  0.000000  0.880762  0.456384  1
  B  B6  1  0.000000  0.619403  0.956659  1
  B  B7  1  0.000000  0.380274  0.043902  1
  B  B8  1  0.000000  0.138376  0.696125  1
  B  B9  1  0.000000  0.860898  0.302822  1
  B  B10  1  0.299631  0.217749  0.119055  1
  B  B11  1  0.299301  0.782393  0.881967  1
  B  B12  1  0.700145  0.719047  0.381877  1
  B  B13  1  0.700360  0.283013  0.617940  1
  B  B14  1  0.700699  0.782393  0.881967  1
  B  B15  1  0.700369  0.217749  0.119055  1
  B  B16  1  0.299640  0.283013  0.617940  1
  B  B17  1  0.299855  0.719047  0.381877  1
  B  B18  1  0.000000  0.055503  0.193053  1
  B  B19  1  0.000000  0.943898  0.806938  1
  B  B20  1  0.000000  0.555658  0.307185  1
  B  B21  1  0.000000  0.444124  0.692615  1
  B  B22  1  0.000000  0.361506  0.197299  1
  B  B23  1  0.000000  0.638762  0.803124  1
  Ir  Ir24  1  0.000000  0.498687  0.498915  1
  Ir  Ir25  1  0.000000  0.000071  0.000251  1
