# generated using pymatgen
data_Yb3PdRh2Pb3
_symmetry_space_group_name_H-M   'P 1'
_cell_length_a   7.65021400
_cell_length_b   7.65021479
_cell_length_c   4.04441600
_cell_angle_alpha   90.00000000
_cell_angle_beta   90.00000000
_cell_angle_gamma   120.00000524
_symmetry_Int_Tables_number   1
_chemical_formula_structural   Yb3PdRh2Pb3
_chemical_formula_sum   'Yb3 Pd1 Rh2 Pb3'
_cell_volume   204.99045575
_cell_formula_units_Z   1
loop_
 _symmetry_equiv_pos_site_id
 _symmetry_equiv_pos_as_xyz
  1  'x, y, z'
loop_
 _atom_site_type_symbol
 _atom_site_label
 _atom_site_symmetry_multiplicity
 _atom_site_fract_x
 _atom_site_fract_y
 _atom_site_fract_z
 _atom_site_occupancy
  Yb  Yb0  1  0.410055  0.398703  0.500000  1
  Yb  Yb1  1  0.601297  0.011352  0.500000  1
  Yb  Yb2  1  0.988648  0.589945  0.500000  1
  Pd  Pd3  1  0.333333  0.666667  0.000000  1
  Rh  Rh4  1  0.666667  0.333333  0.000000  1
  Rh  Rh5  1  0.000000  0.000000  0.500000  1
  Pb  Pb6  1  0.738822  0.734480  0.000000  1
  Pb  Pb7  1  0.265520  0.004342  0.000000  1
  Pb  Pb8  1  0.995658  0.261178  0.000000  1
