# generated using pymatgen
data_Hf8NiIr3C
_symmetry_space_group_name_H-M   'P 1'
_cell_length_a   8.71936618
_cell_length_b   8.71936649
_cell_length_c   8.71936636
_cell_angle_alpha   120.42836352
_cell_angle_beta   119.65433112
_cell_angle_gamma   89.92971131
_symmetry_Int_Tables_number   1
_chemical_formula_structural   Hf8NiIr3C
_chemical_formula_sum   'Hf16 Ni2 Ir6 C2'
_cell_volume   468.42827205
_cell_formula_units_Z   2
loop_
 _symmetry_equiv_pos_site_id
 _symmetry_equiv_pos_as_xyz
  1  'x, y, z'
loop_
 _atom_site_type_symbol
 _atom_site_label
 _atom_site_symmetry_multiplicity
 _atom_site_fract_x
 _atom_site_fract_y
 _atom_site_fract_z
 _atom_site_occupancy
  Hf  Hf0  1  0.940377  0.190377  0.750000  1
  Hf  Hf1  1  0.323975  0.573975  0.750000  1
  Hf  Hf2  1  0.935839  0.564745  0.755491  1
  Hf  Hf3  1  0.309253  0.180348  0.744509  1
  Hf  Hf4  1  0.935839  0.180348  0.371094  1
  Hf  Hf5  1  0.309253  0.564745  0.128906  1
  Hf  Hf6  1  0.060000  0.810000  0.250000  1
  Hf  Hf7  1  0.692190  0.442190  0.250000  1
  Hf  Hf8  1  0.060818  0.440820  0.244952  1
  Hf  Hf9  1  0.695869  0.815866  0.255048  1
  Hf  Hf10  1  0.060818  0.815866  0.619997  1
  Hf  Hf11  1  0.695869  0.440820  0.880003  1
  Hf  Hf12  1  0.491090  0.018524  0.027436  1
  Hf  Hf13  1  0.491090  0.463654  0.472564  1
  Hf  Hf14  1  0.499451  0.007891  0.491560  1
  Hf  Hf15  1  0.016331  0.007891  0.008440  1
  Ni  Ni16  1  0.270879  0.223359  0.047519  1
  Ni  Ni17  1  0.675838  0.223359  0.452481  1
  Ir  Ir18  1  0.705996  0.776883  0.570888  1
  Ir  Ir19  1  0.705996  0.135108  0.929112  1
  Ir  Ir20  1  0.700199  0.786939  0.913260  1
  Ir  Ir21  1  0.373680  0.786939  0.586740  1
  Ir  Ir22  1  0.275579  0.221611  0.446031  1
  Ir  Ir23  1  0.275579  0.829548  0.053969  1
  C  C24  1  0.999097  0.499516  0.000419  1
  C  C25  1  0.999097  0.998677  0.499581  1
