# generated using pymatgen
data_Tb7Pr2Er(In2Pd)4
_symmetry_space_group_name_H-M   'P 1'
_cell_length_a   3.66910300
_cell_length_b   8.21998891
_cell_length_c   18.46365403
_cell_angle_alpha   89.94615071
_cell_angle_beta   90.00000000
_cell_angle_gamma   90.00000000
_symmetry_Int_Tables_number   1
_chemical_formula_structural   Tb7Pr2Er(In2Pd)4
_chemical_formula_sum   'Tb7 Pr2 Er1 In8 Pd4'
_cell_volume   556.86330065
_cell_formula_units_Z   1
loop_
 _symmetry_equiv_pos_site_id
 _symmetry_equiv_pos_as_xyz
  1  'x, y, z'
loop_
 _atom_site_type_symbol
 _atom_site_label
 _atom_site_symmetry_multiplicity
 _atom_site_fract_x
 _atom_site_fract_y
 _atom_site_fract_z
 _atom_site_occupancy
  Tb  Tb0  1  0.000000  0.738457  0.282149  1
  Tb  Tb1  1  0.000000  0.261801  0.718140  1
  Tb  Tb2  1  0.000000  0.761848  0.781891  1
  Tb  Tb3  1  0.000000  0.237950  0.218248  1
  Tb  Tb4  1  0.000000  0.620758  0.083884  1
  Tb  Tb5  1  0.000000  0.379122  0.916286  1
  Tb  Tb6  1  0.000000  0.879067  0.583581  1
  Pr  Pr7  1  0.000000  0.500045  0.499948  1
  Pr  Pr8  1  0.000000  0.999919  0.000031  1
  Er  Er9  1  0.000000  0.119895  0.414989  1
  In  In10  1  0.500000  0.700569  0.931032  1
  In  In11  1  0.500000  0.299413  0.068976  1
  In  In12  1  0.500000  0.801172  0.431291  1
  In  In13  1  0.500000  0.200143  0.568242  1
  In  In14  1  0.500000  0.583340  0.653577  1
  In  In15  1  0.500000  0.415529  0.346681  1
  In  In16  1  0.500000  0.916902  0.153672  1
  In  In17  1  0.500000  0.083196  0.846462  1
  Pd  Pd18  1  0.500000  0.523545  0.195973  1
  Pd  Pd19  1  0.500000  0.476387  0.804069  1
  Pd  Pd20  1  0.500000  0.976511  0.695906  1
  Pd  Pd21  1  0.500000  0.024429  0.304972  1
