# generated using pymatgen
data_Y8Ho2InSb5
_symmetry_space_group_name_H-M   'P 1'
_cell_length_a   6.39924400
_cell_length_b   8.99244437
_cell_length_c   8.97850010
_cell_angle_alpha   120.05147027
_cell_angle_beta   89.99890245
_cell_angle_gamma   90.00277161
_symmetry_Int_Tables_number   1
_chemical_formula_structural   Y8Ho2InSb5
_chemical_formula_sum   'Y8 Ho2 In1 Sb5'
_cell_volume   447.21398152
_cell_formula_units_Z   1
loop_
 _symmetry_equiv_pos_site_id
 _symmetry_equiv_pos_as_xyz
  1  'x, y, z'
loop_
 _atom_site_type_symbol
 _atom_site_label
 _atom_site_symmetry_multiplicity
 _atom_site_fract_x
 _atom_site_fract_y
 _atom_site_fract_z
 _atom_site_occupancy
  Y  Y0  1  0.000888  0.666138  0.331697  1
  Y  Y1  1  0.000886  0.334440  0.668303  1
  Y  Y2  1  0.749931  0.244640  0.999997  1
  Y  Y3  1  0.749917  0.753795  0.757191  1
  Y  Y4  1  0.749916  0.996605  0.242807  1
  Y  Y5  1  0.250100  0.756629  0.999998  1
  Y  Y6  1  0.250034  0.247013  0.245223  1
  Y  Y7  1  0.250031  0.001790  0.754778  1
  Ho  Ho8  1  0.499189  0.334582  0.668434  1
  Ho  Ho9  1  0.499189  0.666155  0.331577  1
  In  In10  1  0.749374  0.606368  0.000000  1
  Sb  Sb11  1  0.749473  0.388735  0.389560  1
  Sb  Sb12  1  0.749474  0.999174  0.610438  1
  Sb  Sb13  1  0.250584  0.391128  0.999999  1
  Sb  Sb14  1  0.250510  0.611667  0.610525  1
  Sb  Sb15  1  0.250510  0.001141  0.389474  1
