# generated using pymatgen
data_Ho2Tm14In4RuRh3
_symmetry_space_group_name_H-M   'P 1'
_cell_length_a   9.53725600
_cell_length_b   9.52995712
_cell_length_c   9.52946508
_cell_angle_alpha   59.97551762
_cell_angle_beta   59.97294951
_cell_angle_gamma   59.97466695
_symmetry_Int_Tables_number   1
_chemical_formula_structural   Ho2Tm14In4RuRh3
_chemical_formula_sum   'Ho2 Tm14 In4 Ru1 Rh3'
_cell_volume   612.09031761
_cell_formula_units_Z   1
loop_
 _symmetry_equiv_pos_site_id
 _symmetry_equiv_pos_as_xyz
  1  'x, y, z'
loop_
 _atom_site_type_symbol
 _atom_site_label
 _atom_site_symmetry_multiplicity
 _atom_site_fract_x
 _atom_site_fract_y
 _atom_site_fract_z
 _atom_site_occupancy
  Ho  Ho0  1  0.060014  0.060472  0.437059  1
  Ho  Ho1  1  0.442456  0.060472  0.437059  1
  Tm  Tm2  1  0.062128  0.438518  0.060882  1
  Tm  Tm3  1  0.047231  0.650857  0.649873  1
  Tm  Tm4  1  0.438472  0.438518  0.060882  1
  Tm  Tm5  1  0.651295  0.047758  0.649654  1
  Tm  Tm6  1  0.188103  0.809582  0.192563  1
  Tm  Tm7  1  0.190087  0.191046  0.809678  1
  Tm  Tm8  1  0.809753  0.809582  0.192563  1
  Tm  Tm9  1  0.438772  0.062042  0.060414  1
  Tm  Tm10  1  0.809737  0.188438  0.192088  1
  Tm  Tm11  1  0.059931  0.442855  0.437285  1
  Tm  Tm12  1  0.809189  0.191046  0.809678  1
  Tm  Tm13  1  0.190507  0.809166  0.809819  1
  Tm  Tm14  1  0.650722  0.649934  0.048623  1
  Tm  Tm15  1  0.652040  0.650857  0.649873  1
  In  In16  1  0.416779  0.416912  0.416704  1
  In  In17  1  0.749605  0.416912  0.416704  1
  In  In18  1  0.417079  0.749306  0.416537  1
  In  In19  1  0.416902  0.416776  0.749420  1
  Ru  Ru20  1  0.858418  0.857822  0.425341  1
  Rh  Rh21  1  0.858282  0.858269  0.859276  1
  Rh  Rh22  1  0.424174  0.858269  0.859276  1
  Rh  Rh23  1  0.858327  0.424592  0.858754  1
