# generated using pymatgen
data_Ho7Lu3In8(IrPt)2
_symmetry_space_group_name_H-M   'P 1'
_cell_length_a   3.60617100
_cell_length_b   8.08954112
_cell_length_c   18.08688883
_cell_angle_alpha   89.92487093
_cell_angle_beta   90.00000000
_cell_angle_gamma   90.00000000
_symmetry_Int_Tables_number   1
_chemical_formula_structural   Ho7Lu3In8(IrPt)2
_chemical_formula_sum   'Ho7 Lu3 In8 Ir2 Pt2'
_cell_volume   527.63512495
_cell_formula_units_Z   1
loop_
 _symmetry_equiv_pos_site_id
 _symmetry_equiv_pos_as_xyz
  1  'x, y, z'
loop_
 _atom_site_type_symbol
 _atom_site_label
 _atom_site_symmetry_multiplicity
 _atom_site_fract_x
 _atom_site_fract_y
 _atom_site_fract_z
 _atom_site_occupancy
  Ho  Ho0  1  0.000000  0.616958  0.086021  1
  Ho  Ho1  1  0.000000  0.235465  0.222342  1
  Ho  Ho2  1  0.000000  0.765150  0.777940  1
  Ho  Ho3  1  0.000000  0.249119  0.720077  1
  Ho  Ho4  1  0.000000  0.750967  0.279892  1
  Ho  Ho5  1  0.000000  0.999861  0.999687  1
  Ho  Ho6  1  0.000000  0.500261  0.500016  1
  Lu  Lu7  1  0.000000  0.115018  0.411824  1
  Lu  Lu8  1  0.000000  0.885176  0.588402  1
  Lu  Lu9  1  0.000000  0.383483  0.912946  1
  In  In10  1  0.500000  0.421132  0.351863  1
  In  In11  1  0.500000  0.578349  0.648584  1
  In  In12  1  0.500000  0.075829  0.851166  1
  In  In13  1  0.500000  0.927628  0.149068  1
  In  In14  1  0.500000  0.292629  0.065049  1
  In  In15  1  0.500000  0.705191  0.933827  1
  In  In16  1  0.500000  0.203900  0.565943  1
  In  In17  1  0.500000  0.796338  0.433952  1
  Ir  Ir18  1  0.500000  0.021808  0.305119  1
  Ir  Ir19  1  0.500000  0.977919  0.694863  1
  Pt  Pt20  1  0.500000  0.476921  0.804739  1
  Pt  Pt21  1  0.500000  0.520898  0.196681  1
