# generated using pymatgen
data_DyEr2ThPt4
_symmetry_space_group_name_H-M   'P 1'
_cell_length_a   4.55877900
_cell_length_b   5.61540026
_cell_length_c   7.04024366
_cell_angle_alpha   89.75713061
_cell_angle_beta   90.00000000
_cell_angle_gamma   90.00000000
_symmetry_Int_Tables_number   1
_chemical_formula_structural   DyEr2ThPt4
_chemical_formula_sum   'Dy1 Er2 Th1 Pt4'
_cell_volume   180.22417461
_cell_formula_units_Z   1
loop_
 _symmetry_equiv_pos_site_id
 _symmetry_equiv_pos_as_xyz
  1  'x, y, z'
loop_
 _atom_site_type_symbol
 _atom_site_label
 _atom_site_symmetry_multiplicity
 _atom_site_fract_x
 _atom_site_fract_y
 _atom_site_fract_z
 _atom_site_occupancy
  Dy  Dy0  1  0.750000  0.356641  0.814036  1
  Er  Er1  1  0.750000  0.142422  0.321155  1
  Er  Er2  1  0.250000  0.859389  0.682930  1
  Th  Th3  1  0.250000  0.641136  0.182824  1
  Pt  Pt4  1  0.250000  0.156978  0.043891  1
  Pt  Pt5  1  0.750000  0.843412  0.952549  1
  Pt  Pt6  1  0.750000  0.659528  0.459516  1
  Pt  Pt7  1  0.250000  0.340494  0.543099  1
