# generated using pymatgen
data_AcCe(NiP)2
_symmetry_space_group_name_H-M   'P 1'
_cell_length_a   4.02113500
_cell_length_b   4.02113433
_cell_length_c   16.40345400
_cell_angle_alpha   90.00000000
_cell_angle_beta   90.00000000
_cell_angle_gamma   120.00001374
_symmetry_Int_Tables_number   1
_chemical_formula_structural   AcCe(NiP)2
_chemical_formula_sum   'Ac2 Ce2 Ni4 P4'
_cell_volume   229.70111949
_cell_formula_units_Z   2
loop_
 _symmetry_equiv_pos_site_id
 _symmetry_equiv_pos_as_xyz
  1  'x, y, z'
loop_
 _atom_site_type_symbol
 _atom_site_label
 _atom_site_symmetry_multiplicity
 _atom_site_fract_x
 _atom_site_fract_y
 _atom_site_fract_z
 _atom_site_occupancy
  Ac  Ac0  1  0.000000  0.000000  0.500000  1
  Ac  Ac1  1  0.000000  0.000000  0.000000  1
  Ce  Ce2  1  0.000000  0.000000  0.250000  1
  Ce  Ce3  1  0.000000  0.000000  0.750000  1
  Ni  Ni4  1  0.333333  0.666667  0.367405  1
  Ni  Ni5  1  0.666667  0.333333  0.632595  1
  Ni  Ni6  1  0.666667  0.333333  0.867405  1
  Ni  Ni7  1  0.333333  0.666667  0.132595  1
  P  P8  1  0.333333  0.666667  0.864267  1
  P  P9  1  0.666667  0.333333  0.135733  1
  P  P10  1  0.666667  0.333333  0.364267  1
  P  P11  1  0.333333  0.666667  0.635733  1
