# generated using pymatgen
data_RbHfZrSe4
_symmetry_space_group_name_H-M   'P 1'
_cell_length_a   6.57001200
_cell_length_b   7.57711500
_cell_length_c   17.11230300
_cell_angle_alpha   90.00000000
_cell_angle_beta   90.00000000
_cell_angle_gamma   90.00000000
_symmetry_Int_Tables_number   1
_chemical_formula_structural   RbHfZrSe4
_chemical_formula_sum   'Rb4 Hf4 Zr4 Se16'
_cell_volume   851.88015843
_cell_formula_units_Z   4
loop_
 _symmetry_equiv_pos_site_id
 _symmetry_equiv_pos_as_xyz
  1  'x, y, z'
loop_
 _atom_site_type_symbol
 _atom_site_label
 _atom_site_symmetry_multiplicity
 _atom_site_fract_x
 _atom_site_fract_y
 _atom_site_fract_z
 _atom_site_occupancy
  Rb  Rb0  1  0.347966  0.000000  0.000000  1
  Rb  Rb1  1  0.652034  0.500000  0.500000  1
  Rb  Rb2  1  0.030682  0.000000  0.500000  1
  Rb  Rb3  1  0.969318  0.500000  0.000000  1
  Hf  Hf4  1  0.500000  0.250000  0.250000  1
  Hf  Hf5  1  0.500000  0.750000  0.750000  1
  Hf  Hf6  1  0.500000  0.750000  0.250000  1
  Hf  Hf7  1  0.500000  0.250000  0.750000  1
  Zr  Zr8  1  0.001200  0.000000  0.248986  1
  Zr  Zr9  1  0.001200  0.000000  0.751014  1
  Zr  Zr10  1  0.998800  0.500000  0.251014  1
  Zr  Zr11  1  0.998800  0.500000  0.748986  1
  Se  Se12  1  0.829697  0.248274  0.344991  1
  Se  Se13  1  0.829697  0.751726  0.655009  1
  Se  Se14  1  0.170303  0.748274  0.155009  1
  Se  Se15  1  0.170303  0.251726  0.844991  1
  Se  Se16  1  0.170303  0.251726  0.155009  1
  Se  Se17  1  0.170303  0.748274  0.844991  1
  Se  Se18  1  0.829697  0.751726  0.344991  1
  Se  Se19  1  0.829697  0.248274  0.655009  1
  Se  Se20  1  0.665991  0.000000  0.156748  1
  Se  Se21  1  0.665991  0.000000  0.843252  1
  Se  Se22  1  0.334009  0.500000  0.343252  1
  Se  Se23  1  0.334009  0.500000  0.656748  1
  Se  Se24  1  0.340174  0.000000  0.342454  1
  Se  Se25  1  0.340174  0.000000  0.657546  1
  Se  Se26  1  0.659826  0.500000  0.157546  1
  Se  Se27  1  0.659826  0.500000  0.842454  1
