# generated using pymatgen
data_Ho2MnRe3(SiC)2
_symmetry_space_group_name_H-M   'P 1'
_cell_length_a   5.73901696
_cell_length_b   5.73901689
_cell_length_c   7.14483879
_cell_angle_alpha   88.76470757
_cell_angle_beta   91.23529293
_cell_angle_gamma   139.95093903
_symmetry_Int_Tables_number   1
_chemical_formula_structural   Ho2MnRe3(SiC)2
_chemical_formula_sum   'Ho2 Mn1 Re3 Si2 C2'
_cell_volume   151.37821665
_cell_formula_units_Z   1
loop_
 _symmetry_equiv_pos_site_id
 _symmetry_equiv_pos_as_xyz
  1  'x, y, z'
loop_
 _atom_site_type_symbol
 _atom_site_label
 _atom_site_symmetry_multiplicity
 _atom_site_fract_x
 _atom_site_fract_y
 _atom_site_fract_z
 _atom_site_occupancy
  Ho  Ho0  1  0.542986  0.457014  0.254262  1
  Ho  Ho1  1  0.456323  0.543677  0.743801  1
  Mn  Mn2  1  0.830522  0.169478  0.428482  1
  Re  Re3  1  0.822240  0.177760  0.059795  1
  Re  Re4  1  0.179965  0.820035  0.944673  1
  Re  Re5  1  0.164297  0.835703  0.567501  1
  Si  Si6  1  0.271330  0.728670  0.276363  1
  Si  Si7  1  0.739066  0.260934  0.725242  1
  C  C8  1  0.001364  0.998636  0.003284  1
  C  C9  1  0.991907  0.008093  0.496598  1
