# generated using pymatgen
data_Zn21AgPd4
_symmetry_space_group_name_H-M   'P 1'
_cell_length_a   7.95523248
_cell_length_b   7.90977629
_cell_length_c   7.95523373
_cell_angle_alpha   109.35551005
_cell_angle_beta   109.58668233
_cell_angle_gamma   109.35552383
_symmetry_Int_Tables_number   1
_chemical_formula_structural   Zn21AgPd4
_chemical_formula_sum   'Zn21 Ag1 Pd4'
_cell_volume   385.89242238
_cell_formula_units_Z   1
loop_
 _symmetry_equiv_pos_site_id
 _symmetry_equiv_pos_as_xyz
  1  'x, y, z'
loop_
 _atom_site_type_symbol
 _atom_site_label
 _atom_site_symmetry_multiplicity
 _atom_site_fract_x
 _atom_site_fract_y
 _atom_site_fract_z
 _atom_site_occupancy
  Zn  Zn0  1  0.784325  0.997389  0.000000  1
  Zn  Zn1  1  0.000000  0.997389  0.784325  1
  Zn  Zn2  1  0.215675  0.213064  0.215675  1
  Zn  Zn3  1  0.346111  0.623451  0.346111  1
  Zn  Zn4  1  0.276830  0.004614  0.651780  1
  Zn  Zn5  1  0.651780  0.004614  0.276830  1
  Zn  Zn6  1  0.284971  0.651671  0.000000  1
  Zn  Zn7  1  0.723170  0.727784  0.374949  1
  Zn  Zn8  1  0.374949  0.727784  0.723170  1
  Zn  Zn9  1  0.000000  0.651671  0.284971  1
  Zn  Zn10  1  0.000000  0.277338  0.653889  1
  Zn  Zn11  1  0.653889  0.277338  0.000000  1
  Zn  Zn12  1  0.348220  0.352835  0.625051  1
  Zn  Zn13  1  0.625051  0.352835  0.348220  1
  Zn  Zn14  1  0.715029  0.366699  0.715029  1
  Zn  Zn15  1  0.356691  0.354838  0.000000  1
  Zn  Zn16  1  0.000000  0.644727  0.641241  1
  Zn  Zn17  1  0.000000  0.354838  0.356691  1
  Zn  Zn18  1  0.358759  0.003486  0.358759  1
  Zn  Zn19  1  0.643309  0.998147  0.643309  1
  Zn  Zn20  1  0.641241  0.644727  0.000000  1
  Ag  Ag21  1  0.000000  0.761539  0.000000  1
  Pd  Pd22  1  0.000000  0.348556  0.000000  1
  Pd  Pd23  1  0.357146  0.006604  0.000000  1
  Pd  Pd24  1  0.000000  0.006604  0.357146  1
  Pd  Pd25  1  0.642854  0.649457  0.642854  1
