# generated using pymatgen
data_Y6CdSn5Pd6
_symmetry_space_group_name_H-M   'P 1'
_cell_length_a   7.69317500
_cell_length_b   7.70050960
_cell_length_c   7.75846941
_cell_angle_alpha   89.99590304
_cell_angle_beta   90.00000000
_cell_angle_gamma   119.96849284
_symmetry_Int_Tables_number   1
_chemical_formula_structural   Y6CdSn5Pd6
_chemical_formula_sum   'Y6 Cd1 Sn5 Pd6'
_cell_volume   398.17093585
_cell_formula_units_Z   1
loop_
 _symmetry_equiv_pos_site_id
 _symmetry_equiv_pos_as_xyz
  1  'x, y, z'
loop_
 _atom_site_type_symbol
 _atom_site_label
 _atom_site_symmetry_multiplicity
 _atom_site_fract_x
 _atom_site_fract_y
 _atom_site_fract_z
 _atom_site_occupancy
  Y  Y0  1  0.406610  0.002103  0.246631  1
  Y  Y1  1  0.598757  0.598580  0.247817  1
  Y  Y2  1  0.995821  0.399324  0.247979  1
  Y  Y3  1  0.404507  0.997897  0.753369  1
  Y  Y4  1  0.596497  0.600676  0.752021  1
  Y  Y5  1  0.000176  0.401420  0.752183  1
  Cd  Cd6  1  0.737549  0.000000  0.000000  1
  Sn  Sn7  1  0.268998  0.267470  0.499826  1
  Sn  Sn8  1  0.001528  0.732530  0.500174  1
  Sn  Sn9  1  0.996170  0.744308  0.999830  1
  Sn  Sn10  1  0.251861  0.255692  0.000170  1
  Sn  Sn11  1  0.735554  0.000000  0.500000  1
  Pd  Pd12  1  0.326682  0.662114  0.003682  1
  Pd  Pd13  1  0.333831  0.665716  0.495910  1
  Pd  Pd14  1  0.664569  0.337886  0.996318  1
  Pd  Pd15  1  0.668116  0.334284  0.504090  1
  Pd  Pd16  1  0.006288  0.999801  0.259276  1
  Pd  Pd17  1  0.006488  0.000199  0.740724  1
