# generated using pymatgen
data_Nd3As4Pd7
_symmetry_space_group_name_H-M   'P 1'
_cell_length_a   8.28973169
_cell_length_b   8.28973160
_cell_length_c   9.74531341
_cell_angle_alpha   55.21511943
_cell_angle_beta   55.21511995
_cell_angle_gamma   29.38490350
_symmetry_Int_Tables_number   1
_chemical_formula_structural   Nd3As4Pd7
_chemical_formula_sum   'Nd3 As4 Pd7'
_cell_volume   265.36649886
_cell_formula_units_Z   1
loop_
 _symmetry_equiv_pos_site_id
 _symmetry_equiv_pos_as_xyz
  1  'x, y, z'
loop_
 _atom_site_type_symbol
 _atom_site_label
 _atom_site_symmetry_multiplicity
 _atom_site_fract_x
 _atom_site_fract_y
 _atom_site_fract_z
 _atom_site_occupancy
  Nd  Nd0  1  0.677894  0.677894  0.827212  1
  Nd  Nd1  1  0.322106  0.322106  0.172788  1
  Nd  Nd2  1  0.000000  0.000000  0.500000  1
  As  As3  1  0.339850  0.339850  0.756420  1
  As  As4  1  0.660150  0.660150  0.243580  1
  As  As5  1  0.106081  0.106081  0.676565  1
  As  As6  1  0.893919  0.893919  0.323435  1
  Pd  Pd7  1  0.694874  0.694874  0.473582  1
  Pd  Pd8  1  0.511162  0.511162  0.209868  1
  Pd  Pd9  1  0.166105  0.166105  0.076084  1
  Pd  Pd10  1  0.305126  0.305126  0.526418  1
  Pd  Pd11  1  0.833895  0.833895  0.923916  1
  Pd  Pd12  1  0.000000  0.000000  0.000000  1
  Pd  Pd13  1  0.488838  0.488838  0.790132  1
