# generated using pymatgen
data_LaPr11(PtBr3)4
_symmetry_space_group_name_H-M   'P 1'
_cell_length_a   10.63837936
_cell_length_b   10.64347571
_cell_length_c   10.62838470
_cell_angle_alpha   109.38821200
_cell_angle_beta   109.47934664
_cell_angle_gamma   109.53678577
_symmetry_Int_Tables_number   1
_chemical_formula_structural   LaPr11(PtBr3)4
_chemical_formula_sum   'La1 Pr11 Pt4 Br12'
_cell_volume   926.51764343
_cell_formula_units_Z   1
loop_
 _symmetry_equiv_pos_site_id
 _symmetry_equiv_pos_as_xyz
  1  'x, y, z'
loop_
 _atom_site_type_symbol
 _atom_site_label
 _atom_site_symmetry_multiplicity
 _atom_site_fract_x
 _atom_site_fract_y
 _atom_site_fract_z
 _atom_site_occupancy
  La  La0  1  0.469889  0.484945  0.234945  1
  Pr  Pr1  1  0.750626  0.235050  0.265153  1
  Pr  Pr2  1  0.750626  0.015576  0.485474  1
  Pr  Pr3  1  0.234669  0.470306  0.485726  1
  Pr  Pr4  1  0.264487  0.750426  0.235214  1
  Pr  Pr5  1  0.027427  0.263713  0.013713  1
  Pr  Pr6  1  0.015592  0.030169  0.264813  1
  Pr  Pr7  1  0.485689  0.751216  0.015228  1
  Pr  Pr8  1  0.485689  0.234473  0.470461  1
  Pr  Pr9  1  0.015592  0.485422  0.750778  1
  Pr  Pr10  1  0.264487  0.014060  0.029274  1
  Pr  Pr11  1  0.234669  0.264362  0.748943  1
  Pt  Pt12  1  0.249839  0.250180  0.249666  1
  Pt  Pt13  1  0.499984  0.999992  0.249992  1
  Pt  Pt14  1  0.000188  0.250094  0.500094  1
  Pt  Pt15  1  0.249839  0.499658  0.000172  1
  Br  Br16  1  0.250066  0.753635  0.746516  1
  Br  Br17  1  0.507153  0.503577  0.753577  1
  Br  Br18  1  0.993035  0.746517  0.996517  1
  Br  Br19  1  0.746612  0.250037  0.753622  1
  Br  Br20  1  0.996451  0.992920  0.746410  1
  Br  Br21  1  0.250066  0.996431  0.503550  1
  Br  Br22  1  0.753718  0.507069  0.503646  1
  Br  Br23  1  0.503413  0.249709  0.996177  1
  Br  Br24  1  0.753718  0.746650  0.250073  1
  Br  Br25  1  0.746612  0.996575  0.992991  1
  Br  Br26  1  0.996451  0.503530  0.250040  1
  Br  Br27  1  0.503413  0.753704  0.507238  1
