# generated using pymatgen
data_Tm4MnRe5Tc2
_symmetry_space_group_name_H-M   'P 1'
_cell_length_a   5.34737805
_cell_length_b   5.32146039
_cell_length_c   8.89388601
_cell_angle_alpha   89.99999837
_cell_angle_beta   89.87540704
_cell_angle_gamma   119.83979249
_symmetry_Int_Tables_number   1
_chemical_formula_structural   Tm4MnRe5Tc2
_chemical_formula_sum   'Tm4 Mn1 Re5 Tc2'
_cell_volume   219.52874477
_cell_formula_units_Z   1
loop_
 _symmetry_equiv_pos_site_id
 _symmetry_equiv_pos_as_xyz
  1  'x, y, z'
loop_
 _atom_site_type_symbol
 _atom_site_label
 _atom_site_symmetry_multiplicity
 _atom_site_fract_x
 _atom_site_fract_y
 _atom_site_fract_z
 _atom_site_occupancy
  Tm  Tm0  1  0.332894  0.666447  0.437257  1
  Tm  Tm1  1  0.666991  0.333495  0.562777  1
  Tm  Tm2  1  0.667027  0.333513  0.936201  1
  Tm  Tm3  1  0.332814  0.666408  0.063950  1
  Mn  Mn4  1  0.001751  0.000876  0.499839  1
  Re  Re5  1  0.829775  0.170089  0.252269  1
  Re  Re6  1  0.829775  0.659685  0.252269  1
  Re  Re7  1  0.340785  0.170392  0.252924  1
  Re  Re8  1  0.169405  0.829587  0.747755  1
  Re  Re9  1  0.169405  0.339817  0.747755  1
  Tc  Tc10  1  0.001661  0.000831  0.999820  1
  Tc  Tc11  1  0.657718  0.828859  0.747184  1
