# generated using pymatgen
data_Sm6Zn4Pd11Pt2
_symmetry_space_group_name_H-M   'P 1'
_cell_length_a   8.35289866
_cell_length_b   8.35289966
_cell_length_c   8.33699412
_cell_angle_alpha   109.44247169
_cell_angle_beta   109.44247501
_cell_angle_gamma   109.60581850
_symmetry_Int_Tables_number   1
_chemical_formula_structural   Sm6Zn4Pd11Pt2
_chemical_formula_sum   'Sm6 Zn4 Pd11 Pt2'
_cell_volume   447.34980602
_cell_formula_units_Z   1
loop_
 _symmetry_equiv_pos_site_id
 _symmetry_equiv_pos_as_xyz
  1  'x, y, z'
loop_
 _atom_site_type_symbol
 _atom_site_label
 _atom_site_symmetry_multiplicity
 _atom_site_fract_x
 _atom_site_fract_y
 _atom_site_fract_z
 _atom_site_occupancy
  Sm  Sm0  1  0.699059  0.699059  0.999334  1
  Sm  Sm1  1  0.299898  0.001009  0.300907  1
  Sm  Sm2  1  0.001009  0.299898  0.300907  1
  Sm  Sm3  1  0.300276  0.300276  0.999334  1
  Sm  Sm4  1  0.699942  0.000073  0.700015  1
  Sm  Sm5  1  0.000073  0.699942  0.700015  1
  Zn  Zn6  1  0.999961  0.999961  0.499896  1
  Zn  Zn7  1  0.000016  0.500016  0.000032  1
  Zn  Zn8  1  0.500016  0.000016  0.000032  1
  Zn  Zn9  1  0.499935  0.499935  0.499896  1
  Pd  Pd10  1  0.667968  0.000031  0.331788  1
  Pd  Pd11  1  0.000031  0.667968  0.331788  1
  Pd  Pd12  1  0.668424  0.331692  0.000116  1
  Pd  Pd13  1  0.331757  0.663822  0.331788  1
  Pd  Pd14  1  0.999668  0.332058  0.668261  1
  Pd  Pd15  1  0.331692  0.668424  0.000116  1
  Pd  Pd16  1  0.332058  0.999668  0.668261  1
  Pd  Pd17  1  0.663822  0.331757  0.331788  1
  Pd  Pd18  1  0.668410  0.668410  0.336819  1
  Pd  Pd19  1  0.668592  0.336201  0.668261  1
  Pd  Pd20  1  0.336201  0.668592  0.668261  1
  Pt  Pt21  1  0.331406  0.331406  0.662814  1
  Pt  Pt22  1  0.999784  0.999784  0.999569  1
