# generated using pymatgen
data_K8BePAu16
_symmetry_space_group_name_H-M   'P 1'
_cell_length_a   10.98077731
_cell_length_b   10.98077702
_cell_length_c   11.26944996
_cell_angle_alpha   82.77137736
_cell_angle_beta   82.77137278
_cell_angle_gamma   29.27534618
_symmetry_Int_Tables_number   1
_chemical_formula_structural   K8BePAu16
_chemical_formula_sum   'K8 Be1 P1 Au16'
_cell_volume   658.84018545
_cell_formula_units_Z   1
loop_
 _symmetry_equiv_pos_site_id
 _symmetry_equiv_pos_as_xyz
  1  'x, y, z'
loop_
 _atom_site_type_symbol
 _atom_site_label
 _atom_site_symmetry_multiplicity
 _atom_site_fract_x
 _atom_site_fract_y
 _atom_site_fract_z
 _atom_site_occupancy
  K  K0  1  0.481608  0.481608  0.832704  1
  K  K1  1  0.521595  0.521595  0.163048  1
  K  K2  1  0.282076  0.282076  0.896781  1
  K  K3  1  0.719355  0.719355  0.098038  1
  K  K4  1  0.219421  0.219421  0.600079  1
  K  K5  1  0.777688  0.777688  0.406341  1
  K  K6  1  0.040204  0.040204  0.656316  1
  K  K7  1  0.957844  0.957844  0.342146  1
  Be  Be8  1  0.669471  0.669471  0.757964  1
  P  P9  1  0.331897  0.331897  0.243103  1
  Au  Au10  1  0.775906  0.775906  0.734792  1
  Au  Au11  1  0.220027  0.220027  0.271424  1
  Au  Au12  1  0.622215  0.622215  0.590094  1
  Au  Au13  1  0.373392  0.373392  0.427558  1
  Au  Au14  1  0.499781  0.499781  0.493551  1
  Au  Au15  1  0.001250  0.001250  0.998608  1
  Au  Au16  1  0.112974  0.112974  0.137285  1
  Au  Au17  1  0.890531  0.890531  0.859026  1
  Au  Au18  1  0.860928  0.360915  0.370928  1
  Au  Au19  1  0.636624  0.141339  0.638667  1
  Au  Au20  1  0.141339  0.636624  0.638667  1
  Au  Au21  1  0.360915  0.860928  0.370928  1
  Au  Au22  1  0.127564  0.637125  0.080042  1
  Au  Au23  1  0.366455  0.871818  0.905934  1
  Au  Au24  1  0.871818  0.366455  0.905934  1
  Au  Au25  1  0.637125  0.127564  0.080042  1
