# generated using pymatgen
data_Tm3ScOs7W
_symmetry_space_group_name_H-M   'P 1'
_cell_length_a   5.40544661
_cell_length_b   5.22165988
_cell_length_c   8.82839315
_cell_angle_alpha   89.98649942
_cell_angle_beta   89.99261765
_cell_angle_gamma   121.05171084
_symmetry_Int_Tables_number   1
_chemical_formula_structural   Tm3ScOs7W
_chemical_formula_sum   'Tm3 Sc1 Os7 W1'
_cell_volume   213.47726826
_cell_formula_units_Z   1
loop_
 _symmetry_equiv_pos_site_id
 _symmetry_equiv_pos_as_xyz
  1  'x, y, z'
loop_
 _atom_site_type_symbol
 _atom_site_label
 _atom_site_symmetry_multiplicity
 _atom_site_fract_x
 _atom_site_fract_y
 _atom_site_fract_z
 _atom_site_occupancy
  Tm  Tm0  1  0.334284  0.669349  0.435943  1
  Tm  Tm1  1  0.333900  0.668422  0.065933  1
  Tm  Tm2  1  0.671062  0.341728  0.935355  1
  Sc  Sc3  1  0.672940  0.345140  0.565212  1
  Os  Os4  1  0.004504  0.010136  0.497378  1
  Os  Os5  1  0.006219  0.013066  0.002282  1
  Os  Os6  1  0.172651  0.822785  0.747422  1
  Os  Os7  1  0.649739  0.823215  0.747322  1
  Os  Os8  1  0.823137  0.646726  0.252256  1
  Os  Os9  1  0.827217  0.165807  0.251338  1
  Os  Os10  1  0.340676  0.166953  0.251457  1
  W  W11  1  0.163671  0.326674  0.748102  1
