# generated using pymatgen
data_Sc5P12Ir3Ru15Rh
_symmetry_space_group_name_H-M   'P 1'
_cell_length_a   12.43384695
_cell_length_b   12.42651883
_cell_length_c   3.92312000
_cell_angle_alpha   90.00000000
_cell_angle_beta   90.00000000
_cell_angle_gamma   119.94058436
_symmetry_Int_Tables_number   1
_chemical_formula_structural   Sc5P12Ir3Ru15Rh
_chemical_formula_sum   'Sc5 P12 Ir3 Ru15 Rh1'
_cell_volume   525.26314484
_cell_formula_units_Z   1
loop_
 _symmetry_equiv_pos_site_id
 _symmetry_equiv_pos_as_xyz
  1  'x, y, z'
loop_
 _atom_site_type_symbol
 _atom_site_label
 _atom_site_symmetry_multiplicity
 _atom_site_fract_x
 _atom_site_fract_y
 _atom_site_fract_z
 _atom_site_occupancy
  Sc  Sc0  1  0.333413  0.666662  0.000000  1
  Sc  Sc1  1  0.666586  0.333383  0.000000  1
  Sc  Sc2  1  0.813353  0.000027  0.500000  1
  Sc  Sc3  1  0.000567  0.814139  0.500000  1
  Sc  Sc4  1  0.186528  0.186681  0.500000  1
  P  P5  1  0.179815  0.996458  0.000000  1
  P  P6  1  0.003537  0.183082  0.000000  1
  P  P7  1  0.816288  0.819754  0.000000  1
  P  P8  1  0.172589  0.479850  0.500000  1
  P  P9  1  0.520429  0.692648  0.500000  1
  P  P10  1  0.307262  0.827295  0.500000  1
  P  P11  1  0.687922  0.518273  0.500000  1
  P  P12  1  0.830087  0.312314  0.500000  1
  P  P13  1  0.481773  0.169847  0.500000  1
  P  P14  1  0.627335  0.995831  0.000000  1
  P  P15  1  0.003617  0.630799  0.000000  1
  P  P16  1  0.368771  0.372947  0.000000  1
  Ir  Ir17  1  0.814589  0.185067  0.000000  1
  Ir  Ir18  1  0.370191  0.185342  0.000000  1
  Ir  Ir19  1  0.999826  0.999483  0.000000  1
  Ru  Ru20  1  0.449091  0.006104  0.000000  1
  Ru  Ru21  1  0.993583  0.442555  0.000000  1
  Ru  Ru22  1  0.556908  0.550318  0.000000  1
  Ru  Ru23  1  0.365894  0.491944  0.500000  1
  Ru  Ru24  1  0.508074  0.873858  0.500000  1
  Ru  Ru25  1  0.126100  0.634166  0.500000  1
  Ru  Ru26  1  0.869827  0.509801  0.500000  1
  Ru  Ru27  1  0.639281  0.131060  0.500000  1
  Ru  Ru28  1  0.491253  0.360421  0.500000  1
  Ru  Ru29  1  0.183319  0.377121  0.000000  1
  Ru  Ru30  1  0.622989  0.806193  0.000000  1
  Ru  Ru31  1  0.193549  0.816745  0.000000  1
  Ru  Ru32  1  0.281718  0.001813  0.500000  1
  Ru  Ru33  1  0.998086  0.279686  0.500000  1
  Ru  Ru34  1  0.721260  0.718840  0.500000  1
  Rh  Rh35  1  0.814588  0.629491  0.000000  1
