# generated using pymatgen
data_Ba4YRuO8
_symmetry_space_group_name_H-M   'P 1'
_cell_length_a   7.44029100
_cell_length_b   7.44028914
_cell_length_c   5.97768500
_cell_angle_alpha   90.00000000
_cell_angle_beta   90.00000000
_cell_angle_gamma   132.88680751
_symmetry_Int_Tables_number   1
_chemical_formula_structural   Ba4YRuO8
_chemical_formula_sum   'Ba4 Y1 Ru1 O8'
_cell_volume   242.45923184
_cell_formula_units_Z   1
loop_
 _symmetry_equiv_pos_site_id
 _symmetry_equiv_pos_as_xyz
  1  'x, y, z'
loop_
 _atom_site_type_symbol
 _atom_site_label
 _atom_site_symmetry_multiplicity
 _atom_site_fract_x
 _atom_site_fract_y
 _atom_site_fract_z
 _atom_site_occupancy
  Ba  Ba0  1  0.354962  0.645038  0.000000  1
  Ba  Ba1  1  0.853693  0.146307  0.500000  1
  Ba  Ba2  1  0.146307  0.853693  0.500000  1
  Ba  Ba3  1  0.645038  0.354962  0.000000  1
  Y  Y4  1  0.000000  0.000000  0.000000  1
  Ru  Ru5  1  0.500000  0.500000  0.500000  1
  O  O6  1  0.263061  0.263061  0.731899  1
  O  O7  1  0.736939  0.736939  0.268101  1
  O  O8  1  0.736939  0.736939  0.731899  1
  O  O9  1  0.263061  0.263061  0.268101  1
  O  O10  1  0.165799  0.834201  0.000000  1
  O  O11  1  0.649579  0.350421  0.500000  1
  O  O12  1  0.350421  0.649579  0.500000  1
  O  O13  1  0.834201  0.165799  0.000000  1
