# generated using pymatgen
data_CsMg2Zn2Sb3
_symmetry_space_group_name_H-M   'P 1'
_cell_length_a   4.71701800
_cell_length_b   4.54106900
_cell_length_c   11.42872800
_cell_angle_alpha   90.00000000
_cell_angle_beta   90.00000000
_cell_angle_gamma   90.00000000
_symmetry_Int_Tables_number   1
_chemical_formula_structural   CsMg2Zn2Sb3
_chemical_formula_sum   'Cs1 Mg2 Zn2 Sb3'
_cell_volume   244.80683052
_cell_formula_units_Z   1
loop_
 _symmetry_equiv_pos_site_id
 _symmetry_equiv_pos_as_xyz
  1  'x, y, z'
loop_
 _atom_site_type_symbol
 _atom_site_label
 _atom_site_symmetry_multiplicity
 _atom_site_fract_x
 _atom_site_fract_y
 _atom_site_fract_z
 _atom_site_occupancy
  Cs  Cs0  1  0.000000  0.000000  0.500000  1
  Mg  Mg1  1  0.000000  0.500000  0.157062  1
  Mg  Mg2  1  0.000000  0.500000  0.842938  1
  Zn  Zn3  1  0.500000  0.000000  0.839474  1
  Zn  Zn4  1  0.500000  0.000000  0.160526  1
  Sb  Sb5  1  0.000000  0.000000  0.000000  1
  Sb  Sb6  1  0.500000  0.500000  0.293632  1
  Sb  Sb7  1  0.500000  0.500000  0.706368  1
