# generated using pymatgen
data_Tb4ReTc3Os4
_symmetry_space_group_name_H-M   'P 1'
_cell_length_a   5.36446143
_cell_length_b   5.21386983
_cell_length_c   8.99732500
_cell_angle_alpha   90.00000000
_cell_angle_beta   90.00000000
_cell_angle_gamma   118.19638416
_symmetry_Int_Tables_number   1
_chemical_formula_structural   Tb4ReTc3Os4
_chemical_formula_sum   'Tb4 Re1 Tc3 Os4'
_cell_volume   221.78894013
_cell_formula_units_Z   1
loop_
 _symmetry_equiv_pos_site_id
 _symmetry_equiv_pos_as_xyz
  1  'x, y, z'
loop_
 _atom_site_type_symbol
 _atom_site_label
 _atom_site_symmetry_multiplicity
 _atom_site_fract_x
 _atom_site_fract_y
 _atom_site_fract_z
 _atom_site_occupancy
  Tb  Tb0  1  0.327248  0.666180  0.436349  1
  Tb  Tb1  1  0.670092  0.336526  0.563428  1
  Tb  Tb2  1  0.670092  0.336526  0.936572  1
  Tb  Tb3  1  0.327248  0.666180  0.063651  1
  Re  Re4  1  0.833154  0.163657  0.250000  1
  Tc  Tc5  1  0.828382  0.652581  0.250000  1
  Tc  Tc6  1  0.174350  0.826820  0.750000  1
  Tc  Tc7  1  0.171526  0.340427  0.750000  1
  Os  Os8  1  0.995158  0.004331  0.500706  1
  Os  Os9  1  0.995158  0.004331  0.999294  1
  Os  Os10  1  0.349515  0.172632  0.250000  1
  Os  Os11  1  0.658081  0.829807  0.750000  1
