# generated using pymatgen
data_Li2TbSm(SiO4)2
_symmetry_space_group_name_H-M   'P 1'
_cell_length_a   6.29337396
_cell_length_b   5.49346570
_cell_length_c   11.04840348
_cell_angle_alpha   66.53582917
_cell_angle_beta   90.22075587
_cell_angle_gamma   90.25853673
_symmetry_Int_Tables_number   1
_chemical_formula_structural   Li2TbSm(SiO4)2
_chemical_formula_sum   'Li4 Tb2 Sm2 Si4 O16'
_cell_volume   350.38034919
_cell_formula_units_Z   2
loop_
 _symmetry_equiv_pos_site_id
 _symmetry_equiv_pos_as_xyz
  1  'x, y, z'
loop_
 _atom_site_type_symbol
 _atom_site_label
 _atom_site_symmetry_multiplicity
 _atom_site_fract_x
 _atom_site_fract_y
 _atom_site_fract_z
 _atom_site_occupancy
  Li  Li0  1  0.133909  0.920099  0.429789  1
  Li  Li1  1  0.633531  0.077407  0.071268  1
  Li  Li2  1  0.866091  0.079901  0.570211  1
  Li  Li3  1  0.366469  0.922593  0.928732  1
  Tb  Tb4  1  0.615937  0.555956  0.650516  1
  Tb  Tb5  1  0.384063  0.444044  0.349484  1
  Sm  Sm6  1  0.117095  0.444490  0.847336  1
  Sm  Sm7  1  0.882905  0.555510  0.152664  1
  Si  Si8  1  0.649212  0.904698  0.360485  1
  Si  Si9  1  0.350788  0.095302  0.639515  1
  Si  Si10  1  0.155301  0.092254  0.143174  1
  Si  Si11  1  0.844699  0.907746  0.856826  1
  O  O12  1  0.853925  0.231410  0.774242  1
  O  O13  1  0.638121  0.228317  0.279492  1
  O  O14  1  0.164866  0.182490  0.525140  1
  O  O15  1  0.833317  0.762317  0.751424  1
  O  O16  1  0.146075  0.768590  0.225758  1
  O  O17  1  0.570755  0.227403  0.554236  1
  O  O18  1  0.658594  0.761644  0.254004  1
  O  O19  1  0.429245  0.772597  0.445764  1
  O  O20  1  0.067966  0.783211  0.940783  1
  O  O21  1  0.661644  0.820178  0.972137  1
  O  O22  1  0.166683  0.237683  0.248576  1
  O  O23  1  0.932034  0.216789  0.059217  1
  O  O24  1  0.338356  0.179822  0.027863  1
  O  O25  1  0.341406  0.238356  0.745996  1
  O  O26  1  0.361879  0.771683  0.720508  1
  O  O27  1  0.835134  0.817510  0.474860  1
