# generated using pymatgen
data_Dy2AlGaIrPt
_symmetry_space_group_name_H-M   'P 1'
_cell_length_a   4.36822500
_cell_length_b   6.81592558
_cell_length_c   7.84358541
_cell_angle_alpha   89.85679613
_cell_angle_beta   90.00000000
_cell_angle_gamma   90.00000000
_symmetry_Int_Tables_number   1
_chemical_formula_structural   Dy2AlGaIrPt
_chemical_formula_sum   'Dy4 Al2 Ga2 Ir2 Pt2'
_cell_volume   233.53023350
_cell_formula_units_Z   2
loop_
 _symmetry_equiv_pos_site_id
 _symmetry_equiv_pos_as_xyz
  1  'x, y, z'
loop_
 _atom_site_type_symbol
 _atom_site_label
 _atom_site_symmetry_multiplicity
 _atom_site_fract_x
 _atom_site_fract_y
 _atom_site_fract_z
 _atom_site_occupancy
  Dy  Dy0  1  0.250000  0.468516  0.182751  1
  Dy  Dy1  1  0.750000  0.531484  0.817249  1
  Dy  Dy2  1  0.750000  0.028548  0.682359  1
  Dy  Dy3  1  0.250000  0.971452  0.317641  1
  Al  Al4  1  0.750000  0.640066  0.439718  1
  Al  Al5  1  0.250000  0.359934  0.560282  1
  Ga  Ga6  1  0.250000  0.848112  0.934863  1
  Ga  Ga7  1  0.750000  0.151888  0.065137  1
  Ir  Ir8  1  0.250000  0.732100  0.615202  1
  Ir  Ir9  1  0.750000  0.267900  0.384798  1
  Pt  Pt10  1  0.750000  0.767670  0.123103  1
  Pt  Pt11  1  0.250000  0.232330  0.876897  1
