# generated using pymatgen
data_Ti2Mn3NbSi2B
_symmetry_space_group_name_H-M   'P 1'
_cell_length_a   6.39986900
_cell_length_b   6.39553690
_cell_length_c   3.16387200
_cell_angle_alpha   90.00000000
_cell_angle_beta   90.00000000
_cell_angle_gamma   120.02241470
_symmetry_Int_Tables_number   1
_chemical_formula_structural   Ti2Mn3NbSi2B
_chemical_formula_sum   'Ti2 Mn3 Nb1 Si2 B1'
_cell_volume   112.12423516
_cell_formula_units_Z   1
loop_
 _symmetry_equiv_pos_site_id
 _symmetry_equiv_pos_as_xyz
  1  'x, y, z'
loop_
 _atom_site_type_symbol
 _atom_site_label
 _atom_site_symmetry_multiplicity
 _atom_site_fract_x
 _atom_site_fract_y
 _atom_site_fract_z
 _atom_site_occupancy
  Ti  Ti0  1  0.382820  0.380672  0.000000  1
  Ti  Ti1  1  0.002148  0.619328  0.000000  1
  Mn  Mn2  1  0.236793  0.000000  0.500000  1
  Mn  Mn3  1  0.765805  0.764360  0.500000  1
  Mn  Mn4  1  0.001445  0.235640  0.500000  1
  Nb  Nb5  1  0.612322  0.000000  0.000000  1
  Si  Si6  1  0.327329  0.657757  0.500000  1
  Si  Si7  1  0.669573  0.342243  0.500000  1
  B  B8  1  0.001766  0.000000  0.000000  1
