# generated using pymatgen
data_NbPd7Pt
_symmetry_space_group_name_H-M   'P 1'
_cell_length_a   6.24006835
_cell_length_b   6.24006776
_cell_length_c   6.30649453
_cell_angle_alpha   95.73805249
_cell_angle_beta   95.73804051
_cell_angle_gamma   142.93103334
_symmetry_Int_Tables_number   1
_chemical_formula_structural   NbPd7Pt
_chemical_formula_sum   'Nb1 Pd7 Pt1'
_cell_volume   140.50844886
_cell_formula_units_Z   1
loop_
 _symmetry_equiv_pos_site_id
 _symmetry_equiv_pos_as_xyz
  1  'x, y, z'
loop_
 _atom_site_type_symbol
 _atom_site_label
 _atom_site_symmetry_multiplicity
 _atom_site_fract_x
 _atom_site_fract_y
 _atom_site_fract_z
 _atom_site_occupancy
  Nb  Nb0  1  0.001650  0.001650  0.003302  1
  Pd  Pd1  1  0.334687  0.663796  0.998484  1
  Pd  Pd2  1  0.663796  0.334687  0.998484  1
  Pd  Pd3  1  0.336339  0.336339  0.672678  1
  Pd  Pd4  1  0.670997  0.999402  0.670399  1
  Pd  Pd5  1  0.999402  0.670997  0.670399  1
  Pd  Pd6  1  0.000269  0.330225  0.330495  1
  Pd  Pd7  1  0.330225  0.000269  0.330495  1
  Pt  Pt8  1  0.662633  0.662633  0.325265  1
