# generated using pymatgen
data_DyHo3HfPt15
_symmetry_space_group_name_H-M   'P 1'
_cell_length_a   4.10379600
_cell_length_b   4.10379600
_cell_length_c   20.45739000
_cell_angle_alpha   90.00000000
_cell_angle_beta   90.00000000
_cell_angle_gamma   90.00000000
_symmetry_Int_Tables_number   1
_chemical_formula_structural   DyHo3HfPt15
_chemical_formula_sum   'Dy1 Ho3 Hf1 Pt15'
_cell_volume   344.52580195
_cell_formula_units_Z   1
loop_
 _symmetry_equiv_pos_site_id
 _symmetry_equiv_pos_as_xyz
  1  'x, y, z'
loop_
 _atom_site_type_symbol
 _atom_site_label
 _atom_site_symmetry_multiplicity
 _atom_site_fract_x
 _atom_site_fract_y
 _atom_site_fract_z
 _atom_site_occupancy
  Dy  Dy0  1  0.000000  0.000000  0.198872  1
  Ho  Ho1  1  0.000000  0.000000  0.399551  1
  Ho  Ho2  1  0.000000  0.000000  0.600463  1
  Ho  Ho3  1  0.000000  0.000000  0.801126  1
  Hf  Hf4  1  0.000000  0.000000  0.999965  1
  Pt  Pt5  1  0.500000  0.500000  0.999950  1
  Pt  Pt6  1  0.500000  0.500000  0.196776  1
  Pt  Pt7  1  0.500000  0.500000  0.399181  1
  Pt  Pt8  1  0.500000  0.500000  0.600848  1
  Pt  Pt9  1  0.500000  0.500000  0.803217  1
  Pt  Pt10  1  0.500000  0.000000  0.094934  1
  Pt  Pt11  1  0.500000  0.000000  0.298469  1
  Pt  Pt12  1  0.500000  0.000000  0.500007  1
  Pt  Pt13  1  0.500000  0.000000  0.701718  1
  Pt  Pt14  1  0.500000  0.000000  0.904896  1
  Pt  Pt15  1  0.000000  0.500000  0.094934  1
  Pt  Pt16  1  0.000000  0.500000  0.298469  1
  Pt  Pt17  1  0.000000  0.500000  0.500007  1
  Pt  Pt18  1  0.000000  0.500000  0.701718  1
  Pt  Pt19  1  0.000000  0.500000  0.904896  1
