# generated using pymatgen
data_Dy2Y5(LuIn2)3
_symmetry_space_group_name_H-M   'P 1'
_cell_length_a   9.11999539
_cell_length_b   9.11999518
_cell_length_c   9.12289537
_cell_angle_alpha   96.40199381
_cell_angle_beta   96.50204849
_cell_angle_gamma   140.82193565
_symmetry_Int_Tables_number   1
_chemical_formula_structural   Dy2Y5(LuIn2)3
_chemical_formula_sum   'Dy2 Y5 Lu3 In6'
_cell_volume   451.62649946
_cell_formula_units_Z   1
loop_
 _symmetry_equiv_pos_site_id
 _symmetry_equiv_pos_as_xyz
  1  'x, y, z'
loop_
 _atom_site_type_symbol
 _atom_site_label
 _atom_site_symmetry_multiplicity
 _atom_site_fract_x
 _atom_site_fract_y
 _atom_site_fract_z
 _atom_site_occupancy
  Dy  Dy0  1  0.417639  0.282597  0.700238  1
  Dy  Dy1  1  0.081739  0.782274  0.864013  1
  Y  Y2  1  0.717284  0.418011  0.135295  1
  Y  Y3  1  0.282306  0.581687  0.863994  1
  Y  Y4  1  0.582623  0.717676  0.300299  1
  Y  Y5  1  0.217421  0.081967  0.299386  1
  Y  Y6  1  0.917743  0.217205  0.134950  1
  Lu  Lu7  1  0.750223  0.250027  0.500350  1
  Lu  Lu8  1  0.250322  0.750127  0.500350  1
  Lu  Lu9  1  0.783070  0.918262  0.701333  1
  In  In10  1  0.838991  0.661292  0.500282  1
  In  In11  1  0.339276  0.839305  0.178581  1
  In  In12  1  0.749826  0.749992  0.999639  1
  In  In13  1  0.660959  0.160480  0.821439  1
  In  In14  1  0.160929  0.339286  0.500215  1
  In  In15  1  0.249647  0.249813  0.999639  1
