# generated using pymatgen
data_Lu3In2Ga2CuAg
_symmetry_space_group_name_H-M   'P 1'
_cell_length_a   7.09585255
_cell_length_b   7.09585144
_cell_length_c   4.31683300
_cell_angle_alpha   90.00000000
_cell_angle_beta   90.00000000
_cell_angle_gamma   120.66173941
_symmetry_Int_Tables_number   1
_chemical_formula_structural   Lu3In2Ga2CuAg
_chemical_formula_sum   'Lu3 In2 Ga2 Cu1 Ag1'
_cell_volume   186.96927874
_cell_formula_units_Z   1
loop_
 _symmetry_equiv_pos_site_id
 _symmetry_equiv_pos_as_xyz
  1  'x, y, z'
loop_
 _atom_site_type_symbol
 _atom_site_label
 _atom_site_symmetry_multiplicity
 _atom_site_fract_x
 _atom_site_fract_y
 _atom_site_fract_z
 _atom_site_occupancy
  Lu  Lu0  1  0.998026  0.586454  0.500000  1
  Lu  Lu1  1  0.422688  0.422688  0.500000  1
  Lu  Lu2  1  0.586454  0.998026  0.500000  1
  In  In3  1  0.994006  0.238450  0.000000  1
  In  In4  1  0.238450  0.994006  0.000000  1
  Ga  Ga5  1  0.340639  0.667814  0.000000  1
  Ga  Ga6  1  0.667814  0.340639  0.000000  1
  Cu  Cu7  1  0.001096  0.001096  0.500000  1
  Ag  Ag8  1  0.750826  0.750826  0.000000  1
