# generated using pymatgen
data_Dy11Y9(IrPt5)2
_symmetry_space_group_name_H-M   'P 1'
_cell_length_a   11.06320541
_cell_length_b   11.06265000
_cell_length_c   6.43047324
_cell_angle_alpha   90.00090471
_cell_angle_beta   90.03122492
_cell_angle_gamma   90.00215437
_symmetry_Int_Tables_number   1
_chemical_formula_structural   Dy11Y9(IrPt5)2
_chemical_formula_sum   'Dy11 Y9 Ir2 Pt10'
_cell_volume   787.01501655
_cell_formula_units_Z   1
loop_
 _symmetry_equiv_pos_site_id
 _symmetry_equiv_pos_as_xyz
  1  'x, y, z'
loop_
 _atom_site_type_symbol
 _atom_site_label
 _atom_site_symmetry_multiplicity
 _atom_site_fract_x
 _atom_site_fract_y
 _atom_site_fract_z
 _atom_site_occupancy
  Dy  Dy0  1  0.204479  0.587847  0.123292  1
  Dy  Dy1  1  0.795369  0.412153  0.123467  1
  Dy  Dy2  1  0.795561  0.587786  0.623487  1
  Dy  Dy3  1  0.912146  0.704571  0.123414  1
  Dy  Dy4  1  0.912185  0.295556  0.623476  1
  Dy  Dy5  1  0.087786  0.704443  0.623464  1
  Dy  Dy6  1  0.087787  0.295540  0.123283  1
  Dy  Dy7  1  0.000042  0.000020  0.500840  1
  Dy  Dy8  1  0.999976  0.999967  0.000874  1
  Dy  Dy9  1  0.499941  0.500020  0.000667  1
  Dy  Dy10  1  0.500151  0.500041  0.500779  1
  Y  Y11  1  0.292421  0.088637  0.376634  1
  Y  Y12  1  0.292462  0.911297  0.876677  1
  Y  Y13  1  0.707560  0.088696  0.876638  1
  Y  Y14  1  0.707543  0.911344  0.376671  1
  Y  Y15  1  0.588678  0.792421  0.876707  1
  Y  Y16  1  0.588610  0.207619  0.376690  1
  Y  Y17  1  0.411289  0.792362  0.376631  1
  Y  Y18  1  0.411358  0.207418  0.876642  1
  Y  Y19  1  0.205102  0.412107  0.623745  1
  Ir  Ir20  1  0.999566  0.500209  0.878647  1
  Ir  Ir21  1  0.999489  0.500208  0.377498  1
  Pt  Pt22  1  0.846949  0.153262  0.250346  1
  Pt  Pt23  1  0.846911  0.846788  0.750313  1
  Pt  Pt24  1  0.153056  0.152742  0.750594  1
  Pt  Pt25  1  0.153042  0.846786  0.250354  1
  Pt  Pt26  1  0.653255  0.346933  0.750298  1
  Pt  Pt27  1  0.653264  0.653073  0.250422  1
  Pt  Pt28  1  0.347092  0.346828  0.249539  1
  Pt  Pt29  1  0.346931  0.653275  0.750395  1
  Pt  Pt30  1  0.500007  0.000041  0.118813  1
  Pt  Pt31  1  0.499990  0.000008  0.618703  1
