# generated using pymatgen
data_Y3AlSiRu2
_symmetry_space_group_name_H-M   'P 1'
_cell_length_a   5.61206100
_cell_length_b   7.69213800
_cell_length_c   13.56884600
_cell_angle_alpha   90.00000000
_cell_angle_beta   90.00000000
_cell_angle_gamma   90.00000000
_symmetry_Int_Tables_number   1
_chemical_formula_structural   Y3AlSiRu2
_chemical_formula_sum   'Y12 Al4 Si4 Ru8'
_cell_volume   585.75008923
_cell_formula_units_Z   4
loop_
 _symmetry_equiv_pos_site_id
 _symmetry_equiv_pos_as_xyz
  1  'x, y, z'
loop_
 _atom_site_type_symbol
 _atom_site_label
 _atom_site_symmetry_multiplicity
 _atom_site_fract_x
 _atom_site_fract_y
 _atom_site_fract_z
 _atom_site_occupancy
  Y  Y0  1  0.146349  0.600054  0.100576  1
  Y  Y1  1  0.146349  0.899946  0.899424  1
  Y  Y2  1  0.853651  0.100054  0.399424  1
  Y  Y3  1  0.853651  0.399946  0.600576  1
  Y  Y4  1  0.853651  0.399946  0.899424  1
  Y  Y5  1  0.853651  0.100054  0.100576  1
  Y  Y6  1  0.146349  0.899946  0.600576  1
  Y  Y7  1  0.146349  0.600054  0.399424  1
  Y  Y8  1  0.370188  0.240601  0.250000  1
  Y  Y9  1  0.370188  0.259399  0.750000  1
  Y  Y10  1  0.629812  0.740601  0.250000  1
  Y  Y11  1  0.629812  0.759399  0.750000  1
  Al  Al12  1  0.379538  0.250000  0.000000  1
  Al  Al13  1  0.620462  0.750000  0.500000  1
  Al  Al14  1  0.620462  0.750000  0.000000  1
  Al  Al15  1  0.379538  0.250000  0.500000  1
  Si  Si16  1  0.866555  0.393450  0.250000  1
  Si  Si17  1  0.866555  0.106550  0.750000  1
  Si  Si18  1  0.133445  0.893450  0.250000  1
  Si  Si19  1  0.133445  0.606550  0.750000  1
  Ru  Ru20  1  0.647136  0.466349  0.096045  1
  Ru  Ru21  1  0.647136  0.033651  0.903955  1
  Ru  Ru22  1  0.352864  0.966349  0.403955  1
  Ru  Ru23  1  0.352864  0.533651  0.596045  1
  Ru  Ru24  1  0.352864  0.533651  0.903955  1
  Ru  Ru25  1  0.352864  0.966349  0.096045  1
  Ru  Ru26  1  0.647136  0.033651  0.596045  1
  Ru  Ru27  1  0.647136  0.466349  0.403955  1
