# generated using pymatgen
data_Tb11Th(AlAu5)4
_symmetry_space_group_name_H-M   'P 1'
_cell_length_a   8.52111603
_cell_length_b   8.52111624
_cell_length_c   13.57714600
_cell_angle_alpha   90.00000000
_cell_angle_beta   90.00000000
_cell_angle_gamma   128.55413854
_symmetry_Int_Tables_number   1
_chemical_formula_structural   Tb11Th(AlAu5)4
_chemical_formula_sum   'Tb11 Th1 Al4 Au20'
_cell_volume   770.93736110
_cell_formula_units_Z   1
loop_
 _symmetry_equiv_pos_site_id
 _symmetry_equiv_pos_as_xyz
  1  'x, y, z'
loop_
 _atom_site_type_symbol
 _atom_site_label
 _atom_site_symmetry_multiplicity
 _atom_site_fract_x
 _atom_site_fract_y
 _atom_site_fract_z
 _atom_site_occupancy
  Tb  Tb0  1  0.072714  0.927286  0.750000  1
  Tb  Tb1  1  0.318940  0.681060  0.250000  1
  Tb  Tb2  1  0.679063  0.320937  0.750000  1
  Tb  Tb3  1  0.631719  0.368281  0.465720  1
  Tb  Tb4  1  0.367651  0.632349  0.535478  1
  Tb  Tb5  1  0.631719  0.368281  0.034280  1
  Tb  Tb6  1  0.367651  0.632349  0.964522  1
  Tb  Tb7  1  0.880940  0.119060  0.948994  1
  Tb  Tb8  1  0.119350  0.880650  0.047956  1
  Tb  Tb9  1  0.880940  0.119060  0.551006  1
  Tb  Tb10  1  0.119350  0.880650  0.452044  1
  Th  Th11  1  0.930373  0.069627  0.250000  1
  Al  Al12  1  0.719005  0.280995  0.250000  1
  Al  Al13  1  0.280290  0.719710  0.750000  1
  Al  Al14  1  0.532933  0.467067  0.250000  1
  Al  Al15  1  0.466614  0.533386  0.750000  1
  Au  Au16  1  0.322330  0.068638  0.250000  1
  Au  Au17  1  0.069262  0.323422  0.750000  1
  Au  Au18  1  0.676578  0.930738  0.750000  1
  Au  Au19  1  0.931362  0.677670  0.250000  1
  Au  Au20  1  0.571532  0.005026  0.397285  1
  Au  Au21  1  0.003455  0.570519  0.603473  1
  Au  Au22  1  0.571532  0.005026  0.102715  1
  Au  Au23  1  0.003455  0.570519  0.896527  1
  Au  Au24  1  0.429481  0.996545  0.603473  1
  Au  Au25  1  0.994974  0.428468  0.397285  1
  Au  Au26  1  0.429481  0.996545  0.896527  1
  Au  Au27  1  0.994974  0.428468  0.102715  1
  Au  Au28  1  0.683158  0.737164  0.396665  1
  Au  Au29  1  0.740521  0.685349  0.605412  1
  Au  Au30  1  0.683158  0.737164  0.103335  1
  Au  Au31  1  0.740521  0.685349  0.894588  1
  Au  Au32  1  0.314651  0.259479  0.605412  1
  Au  Au33  1  0.262836  0.316842  0.396665  1
  Au  Au34  1  0.314651  0.259479  0.894588  1
  Au  Au35  1  0.262836  0.316842  0.103335  1
