# generated using pymatgen
data_Ce3CoSn3Ir2
_symmetry_space_group_name_H-M   'P 1'
_cell_length_a   7.45484700
_cell_length_b   7.45512661
_cell_length_c   4.00529400
_cell_angle_alpha   90.00000000
_cell_angle_beta   90.00000000
_cell_angle_gamma   120.00014650
_symmetry_Int_Tables_number   1
_chemical_formula_structural   Ce3CoSn3Ir2
_chemical_formula_sum   'Ce3 Co1 Sn3 Ir2'
_cell_volume   192.77830104
_cell_formula_units_Z   1
loop_
 _symmetry_equiv_pos_site_id
 _symmetry_equiv_pos_as_xyz
  1  'x, y, z'
loop_
 _atom_site_type_symbol
 _atom_site_label
 _atom_site_symmetry_multiplicity
 _atom_site_fract_x
 _atom_site_fract_y
 _atom_site_fract_z
 _atom_site_occupancy
  Ce  Ce0  1  0.410561  0.410556  0.000000  1
  Ce  Ce1  1  0.589445  0.000043  0.000000  1
  Ce  Ce2  1  0.999998  0.589427  0.000000  1
  Co  Co3  1  0.999997  0.000003  0.000000  1
  Sn  Sn4  1  0.999999  0.246566  0.500000  1
  Sn  Sn5  1  0.753417  0.753423  0.500000  1
  Sn  Sn6  1  0.246581  0.000001  0.500000  1
  Ir  Ir7  1  0.666651  0.333314  0.500000  1
  Ir  Ir8  1  0.333350  0.666668  0.500000  1
