# generated using pymatgen
data_Nd18Ho2Si15Os
_symmetry_space_group_name_H-M   'P 1'
_cell_length_a   7.66970020
_cell_length_b   7.98738362
_cell_length_c   15.10180400
_cell_angle_alpha   90.00000000
_cell_angle_beta   90.00000000
_cell_angle_gamma   89.92792519
_symmetry_Int_Tables_number   1
_chemical_formula_structural   Nd18Ho2Si15Os
_chemical_formula_sum   'Nd18 Ho2 Si15 Os1'
_cell_volume   925.14843221
_cell_formula_units_Z   1
loop_
 _symmetry_equiv_pos_site_id
 _symmetry_equiv_pos_as_xyz
  1  'x, y, z'
loop_
 _atom_site_type_symbol
 _atom_site_label
 _atom_site_symmetry_multiplicity
 _atom_site_fract_x
 _atom_site_fract_y
 _atom_site_fract_z
 _atom_site_occupancy
  Nd  Nd0  1  0.139247  0.516832  0.750000  1
  Nd  Nd1  1  0.811501  0.320657  0.621167  1
  Nd  Nd2  1  0.461521  0.689687  0.900172  1
  Nd  Nd3  1  0.962988  0.812692  0.901673  1
  Nd  Nd4  1  0.198551  0.675951  0.127317  1
  Nd  Nd5  1  0.681436  0.813659  0.124871  1
  Nd  Nd6  1  0.311819  0.181799  0.877894  1
  Nd  Nd7  1  0.198551  0.675951  0.372683  1
  Nd  Nd8  1  0.036422  0.185442  0.099730  1
  Nd  Nd9  1  0.311819  0.181799  0.622106  1
  Nd  Nd10  1  0.531502  0.323170  0.399560  1
  Nd  Nd11  1  0.811501  0.320657  0.878833  1
  Nd  Nd12  1  0.962988  0.812692  0.598327  1
  Nd  Nd13  1  0.461521  0.689687  0.599828  1
  Nd  Nd14  1  0.036422  0.185442  0.400270  1
  Nd  Nd15  1  0.681436  0.813659  0.375129  1
  Nd  Nd16  1  0.638047  0.986370  0.750000  1
  Nd  Nd17  1  0.531502  0.323170  0.100440  1
  Ho  Ho18  1  0.845106  0.485088  0.250000  1
  Ho  Ho19  1  0.363374  0.016026  0.250000  1
  Si  Si20  1  0.246197  0.365623  0.250000  1
  Si  Si21  1  0.868233  0.524307  0.457270  1
  Si  Si22  1  0.518832  0.402109  0.750000  1
  Si  Si23  1  0.635516  0.027177  0.960404  1
  Si  Si24  1  0.015702  0.098976  0.750000  1
  Si  Si25  1  0.751506  0.621108  0.750000  1
  Si  Si26  1  0.751115  0.122793  0.250000  1
  Si  Si27  1  0.359895  0.976951  0.457991  1
  Si  Si28  1  0.988514  0.903726  0.250000  1
  Si  Si29  1  0.359895  0.976951  0.042009  1
  Si  Si30  1  0.635516  0.027177  0.539596  1
  Si  Si31  1  0.140697  0.473424  0.961798  1
  Si  Si32  1  0.140697  0.473424  0.538202  1
  Si  Si33  1  0.868233  0.524307  0.042730  1
  Si  Si34  1  0.250015  0.879428  0.750000  1
  Os  Os35  1  0.492182  0.592084  0.250000  1
