# generated using pymatgen
data_Dy3Ho13Cd4TcNi3
_symmetry_space_group_name_H-M   'P 1'
_cell_length_a   9.55345143
_cell_length_b   9.55432349
_cell_length_c   9.55432302
_cell_angle_alpha   59.41964488
_cell_angle_beta   59.42211468
_cell_angle_gamma   59.42210752
_symmetry_Int_Tables_number   1
_chemical_formula_structural   Dy3Ho13Cd4TcNi3
_chemical_formula_sum   'Dy3 Ho13 Cd4 Tc1 Ni3'
_cell_volume   608.53913923
_cell_formula_units_Z   1
loop_
 _symmetry_equiv_pos_site_id
 _symmetry_equiv_pos_as_xyz
  1  'x, y, z'
loop_
 _atom_site_type_symbol
 _atom_site_label
 _atom_site_symmetry_multiplicity
 _atom_site_fract_x
 _atom_site_fract_y
 _atom_site_fract_z
 _atom_site_occupancy
  Dy  Dy0  1  0.347108  0.347250  0.347250  1
  Dy  Dy1  1  0.352199  0.352250  0.952937  1
  Dy  Dy2  1  0.352199  0.952937  0.352250  1
  Ho  Ho3  1  0.953238  0.352205  0.352205  1
  Ho  Ho4  1  0.810809  0.187507  0.187507  1
  Ho  Ho5  1  0.187113  0.811252  0.811252  1
  Ho  Ho6  1  0.187435  0.810805  0.187458  1
  Ho  Ho7  1  0.811202  0.187190  0.811204  1
  Ho  Ho8  1  0.187435  0.187458  0.810805  1
  Ho  Ho9  1  0.811202  0.811204  0.187190  1
  Ho  Ho10  1  0.936022  0.565520  0.565520  1
  Ho  Ho11  1  0.555617  0.939077  0.939077  1
  Ho  Ho12  1  0.565645  0.935918  0.565552  1
  Ho  Ho13  1  0.939161  0.555445  0.939235  1
  Ho  Ho14  1  0.565645  0.565552  0.935918  1
  Ho  Ho15  1  0.939161  0.939235  0.555445  1
  Cd  Cd16  1  0.580112  0.579782  0.579782  1
  Cd  Cd17  1  0.579883  0.579738  0.255637  1
  Cd  Cd18  1  0.579883  0.255637  0.579738  1
  Cd  Cd19  1  0.255633  0.579760  0.579760  1
  Tc  Tc20  1  0.143543  0.143981  0.143981  1
  Ni  Ni21  1  0.141935  0.142351  0.575743  1
  Ni  Ni22  1  0.141935  0.575743  0.142351  1
  Ni  Ni23  1  0.575882  0.142200  0.142200  1
