# generated using pymatgen
data_Rb8Tb2O7
_symmetry_space_group_name_H-M   'P 1'
_cell_length_a   19.07793200
_cell_length_b   7.25534858
_cell_length_c   7.32726510
_cell_angle_alpha   61.08820628
_cell_angle_beta   90.00000000
_cell_angle_gamma   90.00000000
_symmetry_Int_Tables_number   1
_chemical_formula_structural   Rb8Tb2O7
_chemical_formula_sum   'Rb16 Tb4 O14'
_cell_volume   887.81131741
_cell_formula_units_Z   2
loop_
 _symmetry_equiv_pos_site_id
 _symmetry_equiv_pos_as_xyz
  1  'x, y, z'
loop_
 _atom_site_type_symbol
 _atom_site_label
 _atom_site_symmetry_multiplicity
 _atom_site_fract_x
 _atom_site_fract_y
 _atom_site_fract_z
 _atom_site_occupancy
  Rb  Rb0  1  0.703956  0.548591  0.220070  1
  Rb  Rb1  1  0.590298  0.004382  0.645061  1
  Rb  Rb2  1  0.796044  0.048591  0.220070  1
  Rb  Rb3  1  0.296044  0.451409  0.779930  1
  Rb  Rb4  1  0.691348  0.455089  0.781722  1
  Rb  Rb5  1  0.409702  0.995618  0.354939  1
  Rb  Rb6  1  0.308652  0.544911  0.218278  1
  Rb  Rb7  1  0.504530  0.525590  0.241818  1
  Rb  Rb8  1  0.808652  0.955089  0.781722  1
  Rb  Rb9  1  0.995470  0.025590  0.241818  1
  Rb  Rb10  1  0.090298  0.495618  0.354939  1
  Rb  Rb11  1  0.004530  0.974410  0.758182  1
  Rb  Rb12  1  0.495470  0.474410  0.758182  1
  Rb  Rb13  1  0.909702  0.504382  0.645061  1
  Rb  Rb14  1  0.191348  0.044911  0.218278  1
  Rb  Rb15  1  0.203956  0.951409  0.779930  1
  Tb  Tb16  1  0.098878  0.499684  0.846494  1
  Tb  Tb17  1  0.401122  0.999684  0.846494  1
  Tb  Tb18  1  0.598878  0.000316  0.153506  1
  Tb  Tb19  1  0.901122  0.500316  0.153506  1
  O  O20  1  0.317935  0.002706  0.047434  1
  O  O21  1  0.398905  0.280861  0.545816  1
  O  O22  1  0.898905  0.219139  0.454184  1
  O  O23  1  0.101095  0.780861  0.545816  1
  O  O24  1  0.182065  0.502706  0.047434  1
  O  O25  1  0.392631  0.716040  0.819789  1
  O  O26  1  0.892631  0.783960  0.180211  1
  O  O27  1  0.601095  0.719139  0.454184  1
  O  O28  1  0.000000  0.500000  0.000000  1
  O  O29  1  0.607369  0.283960  0.180211  1
  O  O30  1  0.682065  0.997294  0.952566  1
  O  O31  1  0.817935  0.497294  0.952566  1
  O  O32  1  0.500000  0.000000  0.000000  1
  O  O33  1  0.107369  0.216040  0.819789  1
