# generated using pymatgen
data_La2Tb3Tl4
_symmetry_space_group_name_H-M   'P 1'
_cell_length_a   8.21573100
_cell_length_b   8.49217200
_cell_length_c   16.07159200
_cell_angle_alpha   90.00000000
_cell_angle_beta   90.00000000
_cell_angle_gamma   90.00000000
_symmetry_Int_Tables_number   1
_chemical_formula_structural   La2Tb3Tl4
_chemical_formula_sum   'La8 Tb12 Tl16'
_cell_volume   1121.30534306
_cell_formula_units_Z   4
loop_
 _symmetry_equiv_pos_site_id
 _symmetry_equiv_pos_as_xyz
  1  'x, y, z'
loop_
 _atom_site_type_symbol
 _atom_site_label
 _atom_site_symmetry_multiplicity
 _atom_site_fract_x
 _atom_site_fract_y
 _atom_site_fract_z
 _atom_site_occupancy
  La  La0  1  0.005227  0.184277  0.095098  1
  La  La1  1  0.505227  0.315723  0.404902  1
  La  La2  1  0.494773  0.684277  0.904902  1
  La  La3  1  0.994773  0.815723  0.595098  1
  La  La4  1  0.994773  0.815723  0.904902  1
  La  La5  1  0.494773  0.684277  0.595098  1
  La  La6  1  0.505227  0.315723  0.095098  1
  La  La7  1  0.005227  0.184277  0.404902  1
  Tb  Tb8  1  0.843667  0.663589  0.123453  1
  Tb  Tb9  1  0.343667  0.836411  0.376547  1
  Tb  Tb10  1  0.656333  0.163589  0.876547  1
  Tb  Tb11  1  0.156333  0.336411  0.623453  1
  Tb  Tb12  1  0.156333  0.336411  0.876547  1
  Tb  Tb13  1  0.656333  0.163589  0.623453  1
  Tb  Tb14  1  0.343667  0.836411  0.123453  1
  Tb  Tb15  1  0.843667  0.663589  0.376547  1
  Tb  Tb16  1  0.683093  0.998997  0.250000  1
  Tb  Tb17  1  0.183093  0.501003  0.250000  1
  Tb  Tb18  1  0.816907  0.498997  0.750000  1
  Tb  Tb19  1  0.316907  0.001003  0.750000  1
  Tl  Tl20  1  0.043163  0.877458  0.250000  1
  Tl  Tl21  1  0.543163  0.622542  0.250000  1
  Tl  Tl22  1  0.456837  0.377458  0.750000  1
  Tl  Tl23  1  0.956837  0.122542  0.750000  1
  Tl  Tl24  1  0.808806  0.363663  0.250000  1
  Tl  Tl25  1  0.308806  0.136337  0.250000  1
  Tl  Tl26  1  0.691194  0.863663  0.750000  1
  Tl  Tl27  1  0.191194  0.636337  0.750000  1
  Tl  Tl28  1  0.817115  0.462545  0.959872  1
  Tl  Tl29  1  0.317115  0.037455  0.540128  1
  Tl  Tl30  1  0.682885  0.962545  0.040128  1
  Tl  Tl31  1  0.182885  0.537455  0.459872  1
  Tl  Tl32  1  0.182885  0.537455  0.040128  1
  Tl  Tl33  1  0.682885  0.962545  0.459872  1
  Tl  Tl34  1  0.317115  0.037455  0.959872  1
  Tl  Tl35  1  0.817115  0.462545  0.540128  1
