# generated using pymatgen
data_Yb3Mn2O7
_symmetry_space_group_name_H-M   'P 1'
_cell_length_a   5.30179800
_cell_length_b   5.24978958
_cell_length_c   9.94466973
_cell_angle_alpha   74.69771910
_cell_angle_beta   90.00094009
_cell_angle_gamma   90.00017640
_symmetry_Int_Tables_number   1
_chemical_formula_structural   Yb3Mn2O7
_chemical_formula_sum   'Yb6 Mn4 O14'
_cell_volume   266.98003958
_cell_formula_units_Z   2
loop_
 _symmetry_equiv_pos_site_id
 _symmetry_equiv_pos_as_xyz
  1  'x, y, z'
loop_
 _atom_site_type_symbol
 _atom_site_label
 _atom_site_symmetry_multiplicity
 _atom_site_fract_x
 _atom_site_fract_y
 _atom_site_fract_z
 _atom_site_occupancy
  Yb  Yb0  1  0.297843  0.756224  0.000014  1
  Yb  Yb1  1  0.797853  0.243781  0.999981  1
  Yb  Yb2  1  0.210059  0.569912  0.373283  1
  Yb  Yb3  1  0.710059  0.056887  0.373265  1
  Yb  Yb4  1  0.710062  0.430066  0.626728  1
  Yb  Yb5  1  0.210048  0.943121  0.626749  1
  Mn  Mn6  1  0.250580  0.152020  0.197290  1
  Mn  Mn7  1  0.750594  0.650742  0.197326  1
  Mn  Mn8  1  0.750578  0.847985  0.802657  1
  Mn  Mn9  1  0.250563  0.349265  0.802699  1
  O  O10  1  0.233881  0.323684  0.000007  1
  O  O11  1  0.733883  0.676309  0.000010  1
  O  O12  1  0.044555  0.039205  0.832384  1
  O  O13  1  0.544580  0.128321  0.832378  1
  O  O14  1  0.544571  0.960781  0.167620  1
  O  O15  1  0.044587  0.871673  0.167627  1
  O  O16  1  0.958108  0.567971  0.776651  1
  O  O17  1  0.458126  0.655293  0.776630  1
  O  O18  1  0.458137  0.432034  0.223350  1
  O  O19  1  0.958133  0.344723  0.223369  1
  O  O20  1  0.260797  0.394494  0.605592  1
  O  O21  1  0.760797  0.999745  0.605612  1
  O  O22  1  0.760801  0.605529  0.394381  1
  O  O23  1  0.260804  0.000233  0.394399  1
