# generated using pymatgen
data_BaSr11(GeAu)12
_symmetry_space_group_name_H-M   'P 1'
_cell_length_a   4.67564200
_cell_length_b   7.98129834
_cell_length_c   23.13014200
_cell_angle_alpha   89.98316582
_cell_angle_beta   90.00000000
_cell_angle_gamma   90.00000000
_symmetry_Int_Tables_number   1
_chemical_formula_structural   BaSr11(GeAu)12
_chemical_formula_sum   'Ba1 Sr11 Ge12 Au12'
_cell_volume   863.16351839
_cell_formula_units_Z   1
loop_
 _symmetry_equiv_pos_site_id
 _symmetry_equiv_pos_as_xyz
  1  'x, y, z'
loop_
 _atom_site_type_symbol
 _atom_site_label
 _atom_site_symmetry_multiplicity
 _atom_site_fract_x
 _atom_site_fract_y
 _atom_site_fract_z
 _atom_site_occupancy
  Ba  Ba0  1  0.750000  0.198214  0.833027  1
  Sr  Sr1  1  0.250000  0.795668  0.166841  1
  Sr  Sr2  1  0.250000  0.783517  0.501097  1
  Sr  Sr3  1  0.250000  0.705556  0.332458  1
  Sr  Sr4  1  0.750000  0.215531  0.498664  1
  Sr  Sr5  1  0.750000  0.296462  0.666931  1
  Sr  Sr6  1  0.750000  0.286734  0.999528  1
  Sr  Sr7  1  0.250000  0.794751  0.832819  1
  Sr  Sr8  1  0.250000  0.712723  0.002708  1
  Sr  Sr9  1  0.750000  0.205387  0.167636  1
  Sr  Sr10  1  0.750000  0.295726  0.333487  1
  Sr  Sr11  1  0.250000  0.703376  0.665367  1
  Ge  Ge12  1  0.250000  0.422557  0.894144  1
  Ge  Ge13  1  0.750000  0.917536  0.721939  1
  Ge  Ge14  1  0.750000  0.581603  0.225427  1
  Ge  Ge15  1  0.250000  0.089667  0.067683  1
  Ge  Ge16  1  0.750000  0.906968  0.936509  1
  Ge  Ge17  1  0.750000  0.915191  0.605310  1
  Ge  Ge18  1  0.250000  0.408825  0.567425  1
  Ge  Ge19  1  0.250000  0.083596  0.393448  1
  Ge  Ge20  1  0.250000  0.082105  0.274628  1
  Ge  Ge21  1  0.750000  0.590180  0.432452  1
  Ge  Ge22  1  0.250000  0.425212  0.773075  1
  Ge  Ge23  1  0.750000  0.584067  0.107033  1
  Au  Au24  1  0.750000  0.587927  0.905797  1
  Au  Au25  1  0.250000  0.417787  0.430933  1
  Au  Au26  1  0.750000  0.582028  0.568740  1
  Au  Au27  1  0.750000  0.915284  0.404380  1
  Au  Au28  1  0.250000  0.414651  0.096074  1
  Au  Au29  1  0.250000  0.415086  0.237081  1
  Au  Au30  1  0.750000  0.915171  0.262984  1
  Au  Au31  1  0.250000  0.080541  0.732042  1
  Au  Au32  1  0.250000  0.077943  0.936404  1
  Au  Au33  1  0.750000  0.917251  0.069324  1
  Au  Au34  1  0.250000  0.084547  0.595163  1
  Au  Au35  1  0.750000  0.590633  0.761440  1
