# generated using pymatgen
data_Hf3Zr(CS)2
_symmetry_space_group_name_H-M   'P 1'
_cell_length_a   3.39087500
_cell_length_b   3.39087534
_cell_length_c   12.12281500
_cell_angle_alpha   90.00000000
_cell_angle_beta   90.00000000
_cell_angle_gamma   120.00000640
_symmetry_Int_Tables_number   1
_chemical_formula_structural   Hf3Zr(CS)2
_chemical_formula_sum   'Hf3 Zr1 C2 S2'
_cell_volume   120.71401258
_cell_formula_units_Z   1
loop_
 _symmetry_equiv_pos_site_id
 _symmetry_equiv_pos_as_xyz
  1  'x, y, z'
loop_
 _atom_site_type_symbol
 _atom_site_label
 _atom_site_symmetry_multiplicity
 _atom_site_fract_x
 _atom_site_fract_y
 _atom_site_fract_z
 _atom_site_occupancy
  Hf  Hf0  1  0.333333  0.666667  0.400892  1
  Hf  Hf1  1  0.666667  0.333333  0.898867  1
  Hf  Hf2  1  0.666667  0.333333  0.600156  1
  Zr  Zr3  1  0.333333  0.666667  0.100867  1
  C  C4  1  0.000000  0.000000  0.500775  1
  C  C5  1  0.000000  0.000000  0.995118  1
  S  S6  1  0.666667  0.333333  0.254184  1
  S  S7  1  0.333333  0.666667  0.749141  1
