# generated using pymatgen
data_Sc5Al3C4
_symmetry_space_group_name_H-M   'P 1'
_cell_length_a   10.30097900
_cell_length_b   10.30097900
_cell_length_c   3.31762000
_cell_angle_alpha   90.00000000
_cell_angle_beta   90.00000000
_cell_angle_gamma   90.00000000
_symmetry_Int_Tables_number   1
_chemical_formula_structural   Sc5Al3C4
_chemical_formula_sum   'Sc10 Al6 C8'
_cell_volume   352.03321675
_cell_formula_units_Z   2
loop_
 _symmetry_equiv_pos_site_id
 _symmetry_equiv_pos_as_xyz
  1  'x, y, z'
loop_
 _atom_site_type_symbol
 _atom_site_label
 _atom_site_symmetry_multiplicity
 _atom_site_fract_x
 _atom_site_fract_y
 _atom_site_fract_z
 _atom_site_occupancy
  Sc  Sc0  1  0.548977  0.736894  0.500000  1
  Sc  Sc1  1  0.451023  0.263106  0.500000  1
  Sc  Sc2  1  0.048977  0.763106  0.500000  1
  Sc  Sc3  1  0.951023  0.236894  0.500000  1
  Sc  Sc4  1  0.263106  0.548977  0.500000  1
  Sc  Sc5  1  0.736894  0.451023  0.500000  1
  Sc  Sc6  1  0.236894  0.048977  0.500000  1
  Sc  Sc7  1  0.763106  0.951023  0.500000  1
  Sc  Sc8  1  0.500000  0.000000  0.000000  1
  Sc  Sc9  1  0.000000  0.500000  0.000000  1
  Al  Al10  1  0.703217  0.203217  0.000000  1
  Al  Al11  1  0.296783  0.796783  0.000000  1
  Al  Al12  1  0.203217  0.296783  0.000000  1
  Al  Al13  1  0.796783  0.703217  0.000000  1
  Al  Al14  1  0.500000  0.500000  0.000000  1
  Al  Al15  1  0.000000  0.000000  0.000000  1
  C  C16  1  0.624536  0.124536  0.500000  1
  C  C17  1  0.375464  0.875464  0.500000  1
  C  C18  1  0.124536  0.375464  0.500000  1
  C  C19  1  0.875464  0.624536  0.500000  1
  C  C20  1  0.158167  0.658167  0.000000  1
  C  C21  1  0.841833  0.341833  0.000000  1
  C  C22  1  0.658167  0.841833  0.000000  1
  C  C23  1  0.341833  0.158167  0.000000  1
