# generated using pymatgen
data_Y2Ga5Ir3
_symmetry_space_group_name_H-M   'P 1'
_cell_length_a   8.60188532
_cell_length_b   8.60188514
_cell_length_c   8.60188565
_cell_angle_alpha   141.23952536
_cell_angle_beta   109.84235722
_cell_angle_gamma   83.15387070
_symmetry_Int_Tables_number   1
_chemical_formula_structural   Y2Ga5Ir3
_chemical_formula_sum   'Y4 Ga10 Ir6'
_cell_volume   363.20093852
_cell_formula_units_Z   2
loop_
 _symmetry_equiv_pos_site_id
 _symmetry_equiv_pos_as_xyz
  1  'x, y, z'
loop_
 _atom_site_type_symbol
 _atom_site_label
 _atom_site_symmetry_multiplicity
 _atom_site_fract_x
 _atom_site_fract_y
 _atom_site_fract_z
 _atom_site_occupancy
  Y  Y0  1  0.628888  0.356177  0.272710  1
  Y  Y1  1  0.371112  0.643823  0.727290  1
  Y  Y2  1  0.916532  0.143823  0.772710  1
  Y  Y3  1  0.083468  0.856177  0.227290  1
  Ga  Ga4  1  0.403250  0.084254  0.318995  1
  Ga  Ga5  1  0.596750  0.915746  0.681005  1
  Ga  Ga6  1  0.234741  0.415746  0.818995  1
  Ga  Ga7  1  0.765259  0.584254  0.181005  1
  Ga  Ga8  1  0.299418  0.549418  0.250000  1
  Ga  Ga9  1  0.700582  0.950582  0.250000  1
  Ga  Ga10  1  0.700582  0.450582  0.750000  1
  Ga  Ga11  1  0.299418  0.049418  0.750000  1
  Ga  Ga12  1  0.000000  0.250000  0.250000  1
  Ga  Ga13  1  0.000000  0.750000  0.750000  1
  Ir  Ir14  1  0.239600  0.152274  0.087327  1
  Ir  Ir15  1  0.760400  0.847726  0.912673  1
  Ir  Ir16  1  0.935052  0.347726  0.587327  1
  Ir  Ir17  1  0.064948  0.652274  0.412673  1
  Ir  Ir18  1  0.500000  0.250000  0.750000  1
  Ir  Ir19  1  0.500000  0.750000  0.250000  1
