# generated using pymatgen
data_Si12P12Ir3Pt
_symmetry_space_group_name_H-M   'P 1'
_cell_length_a   5.95679690
_cell_length_b   6.12070599
_cell_length_c   13.02953551
_cell_angle_alpha   89.94119139
_cell_angle_beta   90.15211076
_cell_angle_gamma   90.49718491
_symmetry_Int_Tables_number   1
_chemical_formula_structural   Si12P12Ir3Pt
_chemical_formula_sum   'Si12 P12 Ir3 Pt1'
_cell_volume   475.03449227
_cell_formula_units_Z   1
loop_
 _symmetry_equiv_pos_site_id
 _symmetry_equiv_pos_as_xyz
  1  'x, y, z'
loop_
 _atom_site_type_symbol
 _atom_site_label
 _atom_site_symmetry_multiplicity
 _atom_site_fract_x
 _atom_site_fract_y
 _atom_site_fract_z
 _atom_site_occupancy
  Si  Si0  1  0.960741  0.153550  0.318654  1
  Si  Si1  1  0.464657  0.840341  0.681143  1
  Si  Si2  1  0.928052  0.632904  0.211415  1
  Si  Si3  1  0.431946  0.369355  0.786642  1
  Si  Si4  1  0.339984  0.916520  0.949623  1
  Si  Si5  1  0.839776  0.081508  0.049461  1
  Si  Si6  1  0.915130  0.529902  0.673719  1
  Si  Si7  1  0.419877  0.469257  0.325209  1
  Si  Si8  1  0.995291  0.062338  0.571021  1
  Si  Si9  1  0.500209  0.937306  0.429642  1
  Si  Si10  1  0.906271  0.622717  0.927652  1
  Si  Si11  1  0.405605  0.375991  0.072383  1
  P  P12  1  0.580219  0.028025  0.825270  1
  P  P13  1  0.081654  0.972529  0.174603  1
  P  P14  1  0.517370  0.561826  0.930076  1
  P  P15  1  0.018317  0.437029  0.070643  1
  P  P16  1  0.611985  0.112923  0.573831  1
  P  P17  1  0.113798  0.893128  0.426851  1
  P  P18  1  0.544597  0.646933  0.180667  1
  P  P19  1  0.046158  0.354466  0.819296  1
  P  P20  1  0.576777  0.134495  0.288240  1
  P  P21  1  0.079542  0.867502  0.711056  1
  P  P22  1  0.156253  0.402292  0.555844  1
  P  P23  1  0.649745  0.598724  0.447771  1
  Ir  Ir24  1  0.966191  0.985049  0.879414  1
  Ir  Ir25  1  0.466300  0.014297  0.120205  1
  Ir  Ir26  1  0.538246  0.484060  0.619617  1
  Pt  Pt27  1  0.039110  0.515035  0.380049  1
