# generated using pymatgen
data_TlSb2F7
_symmetry_space_group_name_H-M   'P 1'
_cell_length_a   10.52839979
_cell_length_b   10.52839979
_cell_length_c   5.74957200
_cell_angle_alpha   88.45111539
_cell_angle_beta   88.45111539
_cell_angle_gamma   38.49666338
_symmetry_Int_Tables_number   1
_chemical_formula_structural   TlSb2F7
_chemical_formula_sum   'Tl2 Sb4 F14'
_cell_volume   396.55182699
_cell_formula_units_Z   2
loop_
 _symmetry_equiv_pos_site_id
 _symmetry_equiv_pos_as_xyz
  1  'x, y, z'
loop_
 _atom_site_type_symbol
 _atom_site_label
 _atom_site_symmetry_multiplicity
 _atom_site_fract_x
 _atom_site_fract_y
 _atom_site_fract_z
 _atom_site_occupancy
  Tl  Tl0  1  0.000000  0.500000  0.500000  1
  Tl  Tl1  1  0.500000  0.000000  0.000000  1
  Sb  Sb2  1  0.847323  0.328346  0.063995  1
  Sb  Sb3  1  0.328346  0.847323  0.563995  1
  Sb  Sb4  1  0.671654  0.152677  0.436005  1
  Sb  Sb5  1  0.152677  0.671654  0.936005  1
  F  F6  1  0.517601  0.328410  0.156132  1
  F  F7  1  0.820128  0.907553  0.248826  1
  F  F8  1  0.465699  0.170095  0.469120  1
  F  F9  1  0.328410  0.517601  0.656132  1
  F  F10  1  0.170095  0.465699  0.969120  1
  F  F11  1  0.179872  0.092447  0.751174  1
  F  F12  1  0.482399  0.671590  0.843868  1
  F  F13  1  0.534301  0.829905  0.530880  1
  F  F14  1  0.904488  0.095512  0.250000  1
  F  F15  1  0.095512  0.904488  0.750000  1
  F  F16  1  0.829905  0.534301  0.030880  1
  F  F17  1  0.907553  0.820128  0.748826  1
  F  F18  1  0.092447  0.179872  0.251174  1
  F  F19  1  0.671590  0.482399  0.343868  1
