# generated using pymatgen
data_Ta4TcB4Os3
_symmetry_space_group_name_H-M   'P 1'
_cell_length_a   3.11731100
_cell_length_b   9.08143411
_cell_length_c   15.79388000
_cell_angle_alpha   89.96090243
_cell_angle_beta   90.00000000
_cell_angle_gamma   90.00000000
_symmetry_Int_Tables_number   1
_chemical_formula_structural   Ta4TcB4Os3
_chemical_formula_sum   'Ta12 Tc3 B12 Os9'
_cell_volume   447.11918129
_cell_formula_units_Z   3
loop_
 _symmetry_equiv_pos_site_id
 _symmetry_equiv_pos_as_xyz
  1  'x, y, z'
loop_
 _atom_site_type_symbol
 _atom_site_label
 _atom_site_symmetry_multiplicity
 _atom_site_fract_x
 _atom_site_fract_y
 _atom_site_fract_z
 _atom_site_occupancy
  Ta  Ta0  1  0.000000  0.800935  0.495038  1
  Ta  Ta1  1  0.000000  0.199675  0.504933  1
  Ta  Ta2  1  0.000000  0.300329  0.004934  1
  Ta  Ta3  1  0.000000  0.700060  0.995666  1
  Ta  Ta4  1  0.000000  0.516027  0.593538  1
  Ta  Ta5  1  0.000000  0.484752  0.405295  1
  Ta  Ta6  1  0.000000  0.015992  0.906024  1
  Ta  Ta7  1  0.000000  0.984447  0.094399  1
  Ta  Ta8  1  0.000000  0.685368  0.204890  1
  Ta  Ta9  1  0.000000  0.310271  0.796323  1
  Ta  Ta10  1  0.000000  0.186137  0.295036  1
  Ta  Ta11  1  0.000000  0.816113  0.703755  1
  Tc  Tc12  1  0.500000  0.434280  0.266800  1
  Tc  Tc13  1  0.500000  0.064439  0.766943  1
  Tc  Tc14  1  0.500000  0.933538  0.232732  1
  B  B15  1  0.500000  0.606694  0.496559  1
  B  B16  1  0.500000  0.394227  0.503206  1
  B  B17  1  0.500000  0.106545  0.003708  1
  B  B18  1  0.500000  0.893529  0.996454  1
  B  B19  1  0.000000  0.609563  0.832723  1
  B  B20  1  0.000000  0.391488  0.168702  1
  B  B21  1  0.000000  0.108101  0.668883  1
  B  B22  1  0.000000  0.891672  0.331173  1
  B  B23  1  0.500000  0.716438  0.598597  1
  B  B24  1  0.500000  0.284598  0.400382  1
  B  B25  1  0.500000  0.214467  0.901155  1
  B  B26  1  0.500000  0.784797  0.099565  1
  Os  Os27  1  0.500000  0.718594  0.357074  1
  Os  Os28  1  0.500000  0.282772  0.643504  1
  Os  Os29  1  0.500000  0.218424  0.142864  1
  Os  Os30  1  0.500000  0.780234  0.856981  1
  Os  Os31  1  0.500000  0.517332  0.093584  1
  Os  Os32  1  0.500000  0.482165  0.905237  1
  Os  Os33  1  0.500000  0.017663  0.405677  1
  Os  Os34  1  0.500000  0.984339  0.593924  1
  Os  Os35  1  0.500000  0.563993  0.733741  1
