# generated using pymatgen
data_SrCaCrBrO4
_symmetry_space_group_name_H-M   'P 1'
_cell_length_a   6.30063500
_cell_length_b   7.45184900
_cell_length_c   11.76339900
_cell_angle_alpha   90.00000000
_cell_angle_beta   90.00000000
_cell_angle_gamma   90.00000000
_symmetry_Int_Tables_number   1
_chemical_formula_structural   SrCaCrBrO4
_chemical_formula_sum   'Sr4 Ca4 Cr4 Br4 O16'
_cell_volume   552.30782388
_cell_formula_units_Z   4
loop_
 _symmetry_equiv_pos_site_id
 _symmetry_equiv_pos_as_xyz
  1  'x, y, z'
loop_
 _atom_site_type_symbol
 _atom_site_label
 _atom_site_symmetry_multiplicity
 _atom_site_fract_x
 _atom_site_fract_y
 _atom_site_fract_z
 _atom_site_occupancy
  Sr  Sr0  1  0.888044  0.974270  0.250000  1
  Sr  Sr1  1  0.111956  0.474270  0.250000  1
  Sr  Sr2  1  0.888044  0.525730  0.750000  1
  Sr  Sr3  1  0.111956  0.025730  0.750000  1
  Ca  Ca4  1  0.374625  0.750000  0.000000  1
  Ca  Ca5  1  0.625375  0.250000  0.500000  1
  Ca  Ca6  1  0.374625  0.750000  0.500000  1
  Ca  Ca7  1  0.625375  0.250000  0.000000  1
  Cr  Cr8  1  0.872945  0.750000  0.000000  1
  Cr  Cr9  1  0.127055  0.250000  0.000000  1
  Cr  Cr10  1  0.872945  0.750000  0.500000  1
  Cr  Cr11  1  0.127055  0.250000  0.500000  1
  Br  Br12  1  0.541176  0.834360  0.750000  1
  Br  Br13  1  0.458824  0.165640  0.250000  1
  Br  Br14  1  0.458824  0.334360  0.750000  1
  Br  Br15  1  0.541176  0.665640  0.250000  1
  O  O16  1  0.046388  0.739493  0.115361  1
  O  O17  1  0.291609  0.427994  0.028237  1
  O  O18  1  0.046388  0.760507  0.884639  1
  O  O19  1  0.291609  0.072006  0.528237  1
  O  O20  1  0.953612  0.260507  0.884639  1
  O  O21  1  0.708391  0.572006  0.528237  1
  O  O22  1  0.046388  0.739493  0.384639  1
  O  O23  1  0.291609  0.427994  0.471763  1
  O  O24  1  0.708391  0.927994  0.028237  1
  O  O25  1  0.291609  0.072006  0.971763  1
  O  O26  1  0.708391  0.927994  0.471763  1
  O  O27  1  0.953612  0.239493  0.384639  1
  O  O28  1  0.708391  0.572006  0.971763  1
  O  O29  1  0.953612  0.260507  0.615361  1
  O  O30  1  0.953612  0.239493  0.115361  1
  O  O31  1  0.046388  0.760507  0.615361  1
