# generated using pymatgen
data_Nd6ErIrBr12
_symmetry_space_group_name_H-M   'P 1'
_cell_length_a   9.63187164
_cell_length_b   9.63187149
_cell_length_c   9.63187221
_cell_angle_alpha   107.30308559
_cell_angle_beta   107.30308256
_cell_angle_gamma   107.30306228
_symmetry_Int_Tables_number   1
_chemical_formula_structural   Nd6ErIrBr12
_chemical_formula_sum   'Nd6 Er1 Ir1 Br12'
_cell_volume   737.94062086
_cell_formula_units_Z   1
loop_
 _symmetry_equiv_pos_site_id
 _symmetry_equiv_pos_as_xyz
  1  'x, y, z'
loop_
 _atom_site_type_symbol
 _atom_site_label
 _atom_site_symmetry_multiplicity
 _atom_site_fract_x
 _atom_site_fract_y
 _atom_site_fract_z
 _atom_site_occupancy
  Nd  Nd0  1  0.103256  0.312966  0.024300  1
  Nd  Nd1  1  0.312966  0.024301  0.103255  1
  Nd  Nd2  1  0.024301  0.103255  0.312967  1
  Nd  Nd3  1  0.975700  0.896745  0.687034  1
  Nd  Nd4  1  0.687034  0.975700  0.896745  1
  Nd  Nd5  1  0.896744  0.687034  0.975700  1
  Er  Er6  1  0.500000  0.500000  0.500000  1
  Ir  Ir7  1  0.000000  0.000000  0.000000  1
  Br  Br8  1  0.221885  0.684796  0.074280  1
  Br  Br9  1  0.466629  0.391212  0.182487  1
  Br  Br10  1  0.684797  0.074280  0.221885  1
  Br  Br11  1  0.925721  0.778115  0.315204  1
  Br  Br12  1  0.182487  0.466629  0.391212  1
  Br  Br13  1  0.391212  0.182487  0.466629  1
  Br  Br14  1  0.608788  0.817513  0.533372  1
  Br  Br15  1  0.817514  0.533371  0.608788  1
  Br  Br16  1  0.074280  0.221885  0.684797  1
  Br  Br17  1  0.315204  0.925721  0.778115  1
  Br  Br18  1  0.533371  0.608788  0.817514  1
  Br  Br19  1  0.778115  0.315204  0.925720  1
