# generated using pymatgen
data_Ca3Th5(SiPd)8
_symmetry_space_group_name_H-M   'P 1'
_cell_length_a   5.84840822
_cell_length_b   7.86071962
_cell_length_c   10.74787228
_cell_angle_alpha   88.05121184
_cell_angle_beta   89.73557404
_cell_angle_gamma   89.73375162
_symmetry_Int_Tables_number   1
_chemical_formula_structural   Ca3Th5(SiPd)8
_chemical_formula_sum   'Ca3 Th5 Si8 Pd8'
_cell_volume   493.81265428
_cell_formula_units_Z   1
loop_
 _symmetry_equiv_pos_site_id
 _symmetry_equiv_pos_as_xyz
  1  'x, y, z'
loop_
 _atom_site_type_symbol
 _atom_site_label
 _atom_site_symmetry_multiplicity
 _atom_site_fract_x
 _atom_site_fract_y
 _atom_site_fract_z
 _atom_site_occupancy
  Ca  Ca0  1  0.633640  0.033260  0.860324  1
  Ca  Ca1  1  0.860078  0.533752  0.856312  1
  Ca  Ca2  1  0.369487  0.968139  0.139366  1
  Th  Th3  1  0.631498  0.325077  0.369635  1
  Th  Th4  1  0.127493  0.175825  0.633653  1
  Th  Th5  1  0.370881  0.676255  0.632986  1
  Th  Th6  1  0.870849  0.824195  0.367289  1
  Th  Th7  1  0.139845  0.467759  0.138512  1
  Si  Si8  1  0.632992  0.035234  0.575298  1
  Si  Si9  1  0.133635  0.465694  0.425016  1
  Si  Si10  1  0.365003  0.964137  0.424040  1
  Si  Si11  1  0.861694  0.536046  0.575674  1
  Si  Si12  1  0.856586  0.118601  0.147147  1
  Si  Si13  1  0.355616  0.375411  0.854236  1
  Si  Si14  1  0.141926  0.880288  0.852600  1
  Si  Si15  1  0.652070  0.620761  0.149069  1
  Pd  Pd16  1  0.909807  0.833182  0.050919  1
  Pd  Pd17  1  0.396150  0.663937  0.948171  1
  Pd  Pd18  1  0.093816  0.164855  0.948898  1
  Pd  Pd19  1  0.598397  0.335989  0.052232  1
  Pd  Pd20  1  0.896024  0.821187  0.667043  1
  Pd  Pd21  1  0.393945  0.678914  0.332471  1
  Pd  Pd22  1  0.107426  0.180945  0.332167  1
  Pd  Pd23  1  0.601144  0.320557  0.666943  1
