# generated using pymatgen
data_DyTm4CoSb2
_symmetry_space_group_name_H-M   'P 1'
_cell_length_a   7.78940800
_cell_length_b   8.75378900
_cell_length_c   12.04876500
_cell_angle_alpha   90.00000000
_cell_angle_beta   90.00000000
_cell_angle_gamma   90.00000000
_symmetry_Int_Tables_number   1
_chemical_formula_structural   DyTm4CoSb2
_chemical_formula_sum   'Dy4 Tm16 Co4 Sb8'
_cell_volume   821.56713977
_cell_formula_units_Z   4
loop_
 _symmetry_equiv_pos_site_id
 _symmetry_equiv_pos_as_xyz
  1  'x, y, z'
loop_
 _atom_site_type_symbol
 _atom_site_label
 _atom_site_symmetry_multiplicity
 _atom_site_fract_x
 _atom_site_fract_y
 _atom_site_fract_z
 _atom_site_occupancy
  Dy  Dy0  1  0.621118  0.750000  0.307320  1
  Dy  Dy1  1  0.878882  0.750000  0.807320  1
  Dy  Dy2  1  0.378882  0.250000  0.692680  1
  Dy  Dy3  1  0.121118  0.250000  0.192680  1
  Tm  Tm4  1  0.155045  0.750000  0.203092  1
  Tm  Tm5  1  0.344955  0.750000  0.703092  1
  Tm  Tm6  1  0.844955  0.250000  0.796908  1
  Tm  Tm7  1  0.655045  0.250000  0.296908  1
  Tm  Tm8  1  0.450581  0.750000  0.998147  1
  Tm  Tm9  1  0.049419  0.750000  0.498147  1
  Tm  Tm10  1  0.549419  0.250000  0.001853  1
  Tm  Tm11  1  0.950581  0.250000  0.501853  1
  Tm  Tm12  1  0.823435  0.536384  0.065062  1
  Tm  Tm13  1  0.676565  0.963616  0.565062  1
  Tm  Tm14  1  0.176565  0.036384  0.934938  1
  Tm  Tm15  1  0.323435  0.463616  0.434938  1
  Tm  Tm16  1  0.176565  0.463616  0.934938  1
  Tm  Tm17  1  0.323435  0.036384  0.434938  1
  Tm  Tm18  1  0.823435  0.963616  0.065062  1
  Tm  Tm19  1  0.676565  0.536384  0.565062  1
  Co  Co20  1  0.432772  0.750000  0.491451  1
  Co  Co21  1  0.067228  0.750000  0.991451  1
  Co  Co22  1  0.567228  0.250000  0.508549  1
  Co  Co23  1  0.932772  0.250000  0.008549  1
  Sb  Sb24  1  0.929880  0.509080  0.328061  1
  Sb  Sb25  1  0.570120  0.990920  0.828061  1
  Sb  Sb26  1  0.070120  0.009080  0.671939  1
  Sb  Sb27  1  0.429880  0.490920  0.171939  1
  Sb  Sb28  1  0.070120  0.490920  0.671939  1
  Sb  Sb29  1  0.429880  0.009080  0.171939  1
  Sb  Sb30  1  0.929880  0.990920  0.328061  1
  Sb  Sb31  1  0.570120  0.509080  0.828061  1
