# generated using pymatgen
data_Nd4Sc4IrPt3
_symmetry_space_group_name_H-M   'P 1'
_cell_length_a   4.61302000
_cell_length_b   7.13800867
_cell_length_c   8.63621469
_cell_angle_alpha   90.65883480
_cell_angle_beta   90.00000000
_cell_angle_gamma   90.00000000
_symmetry_Int_Tables_number   1
_chemical_formula_structural   Nd4Sc4IrPt3
_chemical_formula_sum   'Nd4 Sc4 Ir1 Pt3'
_cell_volume   284.35254944
_cell_formula_units_Z   1
loop_
 _symmetry_equiv_pos_site_id
 _symmetry_equiv_pos_as_xyz
  1  'x, y, z'
loop_
 _atom_site_type_symbol
 _atom_site_label
 _atom_site_symmetry_multiplicity
 _atom_site_fract_x
 _atom_site_fract_y
 _atom_site_fract_z
 _atom_site_occupancy
  Nd  Nd0  1  0.250000  0.519753  0.823755  1
  Nd  Nd1  1  0.250000  0.018960  0.681387  1
  Nd  Nd2  1  0.750000  0.977330  0.318140  1
  Nd  Nd3  1  0.750000  0.487048  0.176400  1
  Sc  Sc4  1  0.250000  0.137573  0.073909  1
  Sc  Sc5  1  0.750000  0.361428  0.571263  1
  Sc  Sc6  1  0.250000  0.637579  0.428197  1
  Sc  Sc7  1  0.750000  0.859679  0.930904  1
  Ir  Ir8  1  0.250000  0.766003  0.092438  1
  Pt  Pt9  1  0.250000  0.263294  0.406574  1
  Pt  Pt10  1  0.750000  0.735796  0.594161  1
  Pt  Pt11  1  0.750000  0.235558  0.902872  1
