# generated using pymatgen
data_NaLaSiS4
_symmetry_space_group_name_H-M   'P 1'
_cell_length_a   6.60059444
_cell_length_b   6.58090500
_cell_length_c   8.20905566
_cell_angle_alpha   90.00000000
_cell_angle_beta   106.65680987
_cell_angle_gamma   90.00000000
_symmetry_Int_Tables_number   1
_chemical_formula_structural   NaLaSiS4
_chemical_formula_sum   'Na2 La2 Si2 S8'
_cell_volume   341.62133567
_cell_formula_units_Z   2
loop_
 _symmetry_equiv_pos_site_id
 _symmetry_equiv_pos_as_xyz
  1  'x, y, z'
loop_
 _atom_site_type_symbol
 _atom_site_label
 _atom_site_symmetry_multiplicity
 _atom_site_fract_x
 _atom_site_fract_y
 _atom_site_fract_z
 _atom_site_occupancy
  Na  Na0  1  0.268808  0.750001  0.065610  1
  Na  Na1  1  0.731191  0.250000  0.934390  1
  La  La2  1  0.766314  0.250000  0.445182  1
  La  La3  1  0.233687  0.750001  0.554818  1
  Si  Si4  1  0.216757  0.250000  0.303616  1
  Si  Si5  1  0.783243  0.750001  0.696384  1
  S  S6  1  0.414826  0.250000  0.143148  1
  S  S7  1  0.005064  0.502028  0.258300  1
  S  S8  1  0.005064  0.997972  0.258300  1
  S  S9  1  0.608077  0.750001  0.431414  1
  S  S10  1  0.391923  0.250000  0.568586  1
  S  S11  1  0.994934  0.002027  0.741699  1
  S  S12  1  0.994934  0.497972  0.741699  1
  S  S13  1  0.585174  0.750001  0.856851  1
