# generated using pymatgen
data_NdY3(LuPt)4
_symmetry_space_group_name_H-M   'P 1'
_cell_length_a   4.74458800
_cell_length_b   7.11203084
_cell_length_c   8.65781000
_cell_angle_alpha   89.81309636
_cell_angle_beta   90.00000000
_cell_angle_gamma   90.00000000
_symmetry_Int_Tables_number   1
_chemical_formula_structural   NdY3(LuPt)4
_chemical_formula_sum   'Nd1 Y3 Lu4 Pt4'
_cell_volume   292.14460952
_cell_formula_units_Z   1
loop_
 _symmetry_equiv_pos_site_id
 _symmetry_equiv_pos_as_xyz
  1  'x, y, z'
loop_
 _atom_site_type_symbol
 _atom_site_label
 _atom_site_symmetry_multiplicity
 _atom_site_fract_x
 _atom_site_fract_y
 _atom_site_fract_z
 _atom_site_occupancy
  Nd  Nd0  1  0.250000  0.988170  0.326831  1
  Y  Y1  1  0.250000  0.487751  0.170261  1
  Y  Y2  1  0.750000  0.012208  0.674941  1
  Y  Y3  1  0.750000  0.513704  0.826061  1
  Lu  Lu4  1  0.250000  0.856821  0.922051  1
  Lu  Lu5  1  0.250000  0.354678  0.577646  1
  Lu  Lu6  1  0.750000  0.145245  0.073772  1
  Lu  Lu7  1  0.750000  0.642628  0.423546  1
  Pt  Pt8  1  0.250000  0.250643  0.904936  1
  Pt  Pt9  1  0.250000  0.747477  0.599163  1
  Pt  Pt10  1  0.750000  0.748361  0.092296  1
  Pt  Pt11  1  0.750000  0.252312  0.408494  1
