# generated using pymatgen
data_ZnCo3(SnO4)2
_symmetry_space_group_name_H-M   'P 1'
_cell_length_a   6.20445001
_cell_length_b   6.20445011
_cell_length_c   6.20444992
_cell_angle_alpha   121.29052633
_cell_angle_beta   118.83264952
_cell_angle_gamma   89.90655915
_symmetry_Int_Tables_number   1
_chemical_formula_structural   ZnCo3(SnO4)2
_chemical_formula_sum   'Zn1 Co3 Sn2 O8'
_cell_volume   168.63178343
_cell_formula_units_Z   1
loop_
 _symmetry_equiv_pos_site_id
 _symmetry_equiv_pos_as_xyz
  1  'x, y, z'
loop_
 _atom_site_type_symbol
 _atom_site_label
 _atom_site_symmetry_multiplicity
 _atom_site_fract_x
 _atom_site_fract_y
 _atom_site_fract_z
 _atom_site_occupancy
  Zn  Zn0  1  0.109973  0.859973  0.250000  1
  Co  Co1  1  0.888584  0.138584  0.750000  1
  Co  Co2  1  0.499950  0.000056  0.000105  1
  Co  Co3  1  0.499950  0.499845  0.499895  1
  Sn  Sn4  1  0.999906  0.499955  0.499951  1
  Sn  Sn5  1  0.500003  0.499955  0.000049  1
  O  O6  1  0.748138  0.264919  0.016781  1
  O  O7  1  0.748138  0.731357  0.483219  1
  O  O8  1  0.747175  0.264990  0.482185  1
  O  O9  1  0.282805  0.264990  0.017815  1
  O  O10  1  0.717249  0.735367  0.981882  1
  O  O11  1  0.253484  0.735367  0.518118  1
  O  O12  1  0.252321  0.268892  0.516571  1
  O  O13  1  0.252321  0.735750  0.983429  1
