# generated using pymatgen
data_Ni7Mo12RhN4
_symmetry_space_group_name_H-M   'P 1'
_cell_length_a   6.68169201
_cell_length_b   6.68169201
_cell_length_c   6.68169201
_cell_angle_alpha   89.99574686
_cell_angle_beta   90.00425314
_cell_angle_gamma   89.99574686
_symmetry_Int_Tables_number   1
_chemical_formula_structural   Ni7Mo12RhN4
_chemical_formula_sum   'Ni7 Mo12 Rh1 N4'
_cell_volume   298.30419145
_cell_formula_units_Z   1
loop_
 _symmetry_equiv_pos_site_id
 _symmetry_equiv_pos_as_xyz
  1  'x, y, z'
loop_
 _atom_site_type_symbol
 _atom_site_label
 _atom_site_symmetry_multiplicity
 _atom_site_fract_x
 _atom_site_fract_y
 _atom_site_fract_z
 _atom_site_occupancy
  Ni  Ni0  1  0.188816  0.820778  0.313736  1
  Ni  Ni1  1  0.433937  0.934041  0.566913  1
  Ni  Ni2  1  0.679222  0.686264  0.688816  1
  Ni  Ni3  1  0.813736  0.311184  0.179222  1
  Ni  Ni4  1  0.316350  0.183650  0.816350  1
  Ni  Ni5  1  0.565959  0.433087  0.933937  1
  Ni  Ni6  1  0.066913  0.066063  0.065959  1
  Mo  Mo7  1  0.200872  0.450518  0.123052  1
  Mo  Mo8  1  0.049482  0.876948  0.700872  1
  Mo  Mo9  1  0.451185  0.125394  0.200268  1
  Mo  Mo10  1  0.302397  0.549465  0.627083  1
  Mo  Mo11  1  0.950535  0.372917  0.802397  1
  Mo  Mo12  1  0.546915  0.624900  0.299018  1
  Mo  Mo13  1  0.700268  0.048815  0.874606  1
  Mo  Mo14  1  0.623052  0.299128  0.549482  1
  Mo  Mo15  1  0.875100  0.700982  0.046915  1
  Mo  Mo16  1  0.374606  0.799732  0.951185  1
  Mo  Mo17  1  0.127083  0.197603  0.450535  1
  Mo  Mo18  1  0.799018  0.953085  0.375100  1
  Rh  Rh19  1  0.934879  0.565121  0.434879  1
  N  N20  1  0.875659  0.125967  0.624730  1
  N  N21  1  0.625251  0.874749  0.125251  1
  N  N22  1  0.124730  0.624341  0.874033  1
  N  N23  1  0.374033  0.375270  0.375659  1
