# generated using pymatgen
data_Tb4MnAlTc6
_symmetry_space_group_name_H-M   'P 1'
_cell_length_a   5.31631600
_cell_length_b   5.31631488
_cell_length_c   9.11403700
_cell_angle_alpha   90.00000000
_cell_angle_beta   90.00000000
_cell_angle_gamma   119.99999450
_symmetry_Int_Tables_number   1
_chemical_formula_structural   Tb4MnAlTc6
_chemical_formula_sum   'Tb4 Mn1 Al1 Tc6'
_cell_volume   223.08117675
_cell_formula_units_Z   1
loop_
 _symmetry_equiv_pos_site_id
 _symmetry_equiv_pos_as_xyz
  1  'x, y, z'
loop_
 _atom_site_type_symbol
 _atom_site_label
 _atom_site_symmetry_multiplicity
 _atom_site_fract_x
 _atom_site_fract_y
 _atom_site_fract_z
 _atom_site_occupancy
  Tb  Tb0  1  0.333333  0.666667  0.431987  1
  Tb  Tb1  1  0.666667  0.333333  0.568013  1
  Tb  Tb2  1  0.666667  0.333333  0.932169  1
  Tb  Tb3  1  0.333333  0.666667  0.067831  1
  Mn  Mn4  1  0.000000  0.000000  0.500000  1
  Al  Al5  1  0.000000  0.000000  0.000000  1
  Tc  Tc6  1  0.830950  0.169050  0.250265  1
  Tc  Tc7  1  0.830950  0.661901  0.250265  1
  Tc  Tc8  1  0.338099  0.169050  0.250265  1
  Tc  Tc9  1  0.169050  0.830950  0.749735  1
  Tc  Tc10  1  0.169050  0.338099  0.749735  1
  Tc  Tc11  1  0.661901  0.830950  0.749735  1
