# generated using pymatgen
data_V3Tc3Ge2
_symmetry_space_group_name_H-M   'P 1'
_cell_length_a   4.80380928
_cell_length_b   4.80380928
_cell_length_c   4.80380928
_cell_angle_alpha   90.19065870
_cell_angle_beta   89.80934130
_cell_angle_gamma   90.19065870
_symmetry_Int_Tables_number   1
_chemical_formula_structural   V3Tc3Ge2
_chemical_formula_sum   'V3 Tc3 Ge2'
_cell_volume   110.85366899
_cell_formula_units_Z   1
loop_
 _symmetry_equiv_pos_site_id
 _symmetry_equiv_pos_as_xyz
  1  'x, y, z'
loop_
 _atom_site_type_symbol
 _atom_site_label
 _atom_site_symmetry_multiplicity
 _atom_site_fract_x
 _atom_site_fract_y
 _atom_site_fract_z
 _atom_site_occupancy
  V  V0  1  0.001236  0.501236  0.250000  1
  V  V1  1  0.498764  0.750000  0.001236  1
  V  V2  1  0.250000  0.998764  0.498764  1
  Tc  Tc3  1  0.002078  0.502078  0.750000  1
  Tc  Tc4  1  0.497922  0.250000  0.002078  1
  Tc  Tc5  1  0.750000  0.997922  0.497922  1
  Ge  Ge6  1  0.498049  0.501951  0.498049  1
  Ge  Ge7  1  0.001951  0.998049  0.001951  1
