# generated using pymatgen
data_TiNb7Cr2(B2P)2
_symmetry_space_group_name_H-M   'P 1'
_cell_length_a   6.02982260
_cell_length_b   6.02982333
_cell_length_c   7.13774407
_cell_angle_alpha   114.85737628
_cell_angle_beta   114.85737102
_cell_angle_gamma   89.92666931
_symmetry_Int_Tables_number   1
_chemical_formula_structural   TiNb7Cr2(B2P)2
_chemical_formula_sum   'Ti1 Nb7 Cr2 B4 P2'
_cell_volume   208.75507646
_cell_formula_units_Z   1
loop_
 _symmetry_equiv_pos_site_id
 _symmetry_equiv_pos_as_xyz
  1  'x, y, z'
loop_
 _atom_site_type_symbol
 _atom_site_label
 _atom_site_symmetry_multiplicity
 _atom_site_fract_x
 _atom_site_fract_y
 _atom_site_fract_z
 _atom_site_occupancy
  Ti  Ti0  1  0.034899  0.534899  0.726894  1
  Nb  Nb1  1  0.692398  0.192398  0.723951  1
  Nb  Nb2  1  0.191188  0.032934  0.725430  1
  Nb  Nb3  1  0.532934  0.691188  0.725430  1
  Nb  Nb4  1  0.966043  0.466043  0.275661  1
  Nb  Nb5  1  0.309115  0.809115  0.275037  1
  Nb  Nb6  1  0.808765  0.966295  0.275231  1
  Nb  Nb7  1  0.466295  0.308765  0.275231  1
  Cr  Cr8  1  0.498051  0.500052  0.998026  1
  Cr  Cr9  1  0.000052  0.998051  0.998026  1
  B  B10  1  0.379060  0.879060  0.998234  1
  B  B11  1  0.619016  0.119016  0.000046  1
  B  B12  1  0.116964  0.383824  0.997718  1
  B  B13  1  0.883824  0.616964  0.997718  1
  P  P14  1  0.248077  0.253319  0.503684  1
  P  P15  1  0.753319  0.748077  0.503684  1
