# generated using pymatgen
data_Lu6CrCo16P12Rh
_symmetry_space_group_name_H-M   'P 1'
_cell_length_a   3.66237000
_cell_length_b   10.47934700
_cell_length_c   12.13092800
_cell_angle_alpha   90.00000000
_cell_angle_beta   90.00000000
_cell_angle_gamma   90.00000000
_symmetry_Int_Tables_number   1
_chemical_formula_structural   Lu6CrCo16P12Rh
_chemical_formula_sum   'Lu6 Cr1 Co16 P12 Rh1'
_cell_volume   465.57587080
_cell_formula_units_Z   1
loop_
 _symmetry_equiv_pos_site_id
 _symmetry_equiv_pos_as_xyz
  1  'x, y, z'
loop_
 _atom_site_type_symbol
 _atom_site_label
 _atom_site_symmetry_multiplicity
 _atom_site_fract_x
 _atom_site_fract_y
 _atom_site_fract_z
 _atom_site_occupancy
  Lu  Lu0  1  0.000000  0.500000  0.524948  1
  Lu  Lu1  1  0.500000  0.000000  0.474024  1
  Lu  Lu2  1  0.500000  0.818542  0.207186  1
  Lu  Lu3  1  0.500000  0.181458  0.207186  1
  Lu  Lu4  1  0.000000  0.680209  0.794114  1
  Lu  Lu5  1  0.000000  0.319791  0.794114  1
  Cr  Cr6  1  0.500000  0.500000  0.158366  1
  Co  Co7  1  0.500000  0.500000  0.702845  1
  Co  Co8  1  0.000000  0.000000  0.296424  1
  Co  Co9  1  0.000000  0.500000  0.987848  1
  Co  Co10  1  0.500000  0.000000  0.014543  1
  Co  Co11  1  0.500000  0.333658  0.993457  1
  Co  Co12  1  0.500000  0.666342  0.993457  1
  Co  Co13  1  0.000000  0.168229  0.008597  1
  Co  Co14  1  0.000000  0.831771  0.008597  1
  Co  Co15  1  0.500000  0.296815  0.431560  1
  Co  Co16  1  0.500000  0.703185  0.431560  1
  Co  Co17  1  0.000000  0.202721  0.568053  1
  Co  Co18  1  0.000000  0.797279  0.568053  1
  Co  Co19  1  0.500000  0.876667  0.706754  1
  Co  Co20  1  0.500000  0.123333  0.706754  1
  Co  Co21  1  0.000000  0.621623  0.292021  1
  Co  Co22  1  0.000000  0.378377  0.292021  1
  P  P23  1  0.500000  0.500000  0.881292  1
  P  P24  1  0.000000  0.000000  0.118439  1
  P  P25  1  0.500000  0.500000  0.349988  1
  P  P26  1  0.000000  0.000000  0.645965  1
  P  P27  1  0.500000  0.313309  0.616644  1
  P  P28  1  0.500000  0.686691  0.616644  1
  P  P29  1  0.000000  0.187334  0.383105  1
  P  P30  1  0.000000  0.812666  0.383105  1
  P  P31  1  0.500000  0.843693  0.892690  1
  P  P32  1  0.500000  0.156307  0.892690  1
  P  P33  1  0.000000  0.653869  0.109256  1
  P  P34  1  0.000000  0.346131  0.109256  1
  Rh  Rh35  1  0.000000  0.000000  0.838441  1
