# generated using pymatgen
data_Tb3Al12Fe3Cu
_symmetry_space_group_name_H-M   'P 1'
_cell_length_a   8.71427000
_cell_length_b   8.71426909
_cell_length_c   9.34656000
_cell_angle_alpha   90.00000000
_cell_angle_beta   90.00000000
_cell_angle_gamma   119.51065945
_symmetry_Int_Tables_number   1
_chemical_formula_structural   Tb3Al12Fe3Cu
_chemical_formula_sum   'Tb6 Al24 Fe6 Cu2'
_cell_volume   617.68183513
_cell_formula_units_Z   2
loop_
 _symmetry_equiv_pos_site_id
 _symmetry_equiv_pos_as_xyz
  1  'x, y, z'
loop_
 _atom_site_type_symbol
 _atom_site_label
 _atom_site_symmetry_multiplicity
 _atom_site_fract_x
 _atom_site_fract_y
 _atom_site_fract_z
 _atom_site_occupancy
  Tb  Tb0  1  0.384571  0.188336  0.250000  1
  Tb  Tb1  1  0.805564  0.194436  0.250000  1
  Tb  Tb2  1  0.811664  0.615429  0.250000  1
  Tb  Tb3  1  0.615429  0.811664  0.750000  1
  Tb  Tb4  1  0.194436  0.805564  0.750000  1
  Tb  Tb5  1  0.188336  0.384571  0.750000  1
  Al  Al6  1  0.441010  0.881538  0.250000  1
  Al  Al7  1  0.118462  0.558990  0.250000  1
  Al  Al8  1  0.437815  0.562185  0.250000  1
  Al  Al9  1  0.558990  0.118462  0.750000  1
  Al  Al10  1  0.881538  0.441010  0.750000  1
  Al  Al11  1  0.562185  0.437815  0.750000  1
  Al  Al12  1  0.162232  0.837768  0.423864  1
  Al  Al13  1  0.152231  0.320301  0.423932  1
  Al  Al14  1  0.679699  0.847769  0.423932  1
  Al  Al15  1  0.837768  0.162232  0.576136  1
  Al  Al16  1  0.847769  0.679699  0.576068  1
  Al  Al17  1  0.320301  0.152231  0.576068  1
  Al  Al18  1  0.837768  0.162232  0.923864  1
  Al  Al19  1  0.847769  0.679699  0.923932  1
  Al  Al20  1  0.320301  0.152231  0.923932  1
  Al  Al21  1  0.162232  0.837768  0.076136  1
  Al  Al22  1  0.152231  0.320301  0.076068  1
  Al  Al23  1  0.679699  0.847769  0.076068  1
  Al  Al24  1  0.329024  0.670976  0.515250  1
  Al  Al25  1  0.670976  0.329024  0.484750  1
  Al  Al26  1  0.670976  0.329024  0.015250  1
  Al  Al27  1  0.329024  0.670976  0.984750  1
  Al  Al28  1  0.001346  0.998654  0.250000  1
  Al  Al29  1  0.998654  0.001346  0.750000  1
  Fe  Fe30  1  0.000000  0.000000  0.500000  1
  Fe  Fe31  1  0.000000  0.000000  0.000000  1
  Fe  Fe32  1  0.500000  0.000000  0.500000  1
  Fe  Fe33  1  0.000000  0.500000  0.500000  1
  Fe  Fe34  1  0.500000  0.000000  0.000000  1
  Fe  Fe35  1  0.000000  0.500000  0.000000  1
  Cu  Cu36  1  0.500000  0.500000  0.500000  1
  Cu  Cu37  1  0.500000  0.500000  0.000000  1
