# generated using pymatgen
data_DyY3B16OsRu3
_symmetry_space_group_name_H-M   'P 1'
_cell_length_a   3.56410100
_cell_length_b   5.96702009
_cell_length_c   11.54771800
_cell_angle_alpha   90.00883477
_cell_angle_beta   90.00000000
_cell_angle_gamma   90.00000000
_symmetry_Int_Tables_number   1
_chemical_formula_structural   DyY3B16OsRu3
_chemical_formula_sum   'Dy1 Y3 B16 Os1 Ru3'
_cell_volume   245.58603470
_cell_formula_units_Z   1
loop_
 _symmetry_equiv_pos_site_id
 _symmetry_equiv_pos_as_xyz
  1  'x, y, z'
loop_
 _atom_site_type_symbol
 _atom_site_label
 _atom_site_symmetry_multiplicity
 _atom_site_fract_x
 _atom_site_fract_y
 _atom_site_fract_z
 _atom_site_occupancy
  Dy  Dy0  1  0.000000  0.371169  0.150140  1
  Y  Y1  1  0.000000  0.128694  0.649699  1
  Y  Y2  1  0.000000  0.871283  0.350284  1
  Y  Y3  1  0.000000  0.628804  0.849778  1
  B  B4  1  0.500000  0.476598  0.691723  1
  B  B5  1  0.500000  0.523667  0.308181  1
  B  B6  1  0.500000  0.975764  0.808281  1
  B  B7  1  0.500000  0.024022  0.191737  1
  B  B8  1  0.500000  0.289055  0.814144  1
  B  B9  1  0.500000  0.710941  0.185738  1
  B  B10  1  0.500000  0.788870  0.685571  1
  B  B11  1  0.500000  0.211096  0.314477  1
  B  B12  1  0.500000  0.363724  0.970085  1
  B  B13  1  0.500000  0.636160  0.030210  1
  B  B14  1  0.500000  0.863848  0.530242  1
  B  B15  1  0.500000  0.136075  0.469655  1
  B  B16  1  0.500000  0.388103  0.546551  1
  B  B17  1  0.500000  0.611954  0.453351  1
  B  B18  1  0.500000  0.887901  0.953266  1
  B  B19  1  0.500000  0.112201  0.046787  1
  Os  Os20  1  0.000000  0.141030  0.907325  1
  Ru  Ru21  1  0.000000  0.858936  0.092745  1
  Ru  Ru22  1  0.000000  0.640217  0.592692  1
  Ru  Ru23  1  0.000000  0.359888  0.407335  1
