# generated using pymatgen
data_LiNd3Zn(AgSn2)2
_symmetry_space_group_name_H-M   'P 1'
_cell_length_a   8.83586689
_cell_length_b   8.89643740
_cell_length_c   8.89643824
_cell_angle_alpha   149.46427444
_cell_angle_beta   130.73663268
_cell_angle_gamma   59.13981165
_symmetry_Int_Tables_number   1
_chemical_formula_structural   LiNd3Zn(AgSn2)2
_chemical_formula_sum   'Li1 Nd3 Zn1 Ag2 Sn4'
_cell_volume   267.02432270
_cell_formula_units_Z   1
loop_
 _symmetry_equiv_pos_site_id
 _symmetry_equiv_pos_as_xyz
  1  'x, y, z'
loop_
 _atom_site_type_symbol
 _atom_site_label
 _atom_site_symmetry_multiplicity
 _atom_site_fract_x
 _atom_site_fract_y
 _atom_site_fract_z
 _atom_site_occupancy
  Li  Li0  1  0.861677  0.675262  0.186415  1
  Nd  Nd1  1  0.499345  0.996743  0.502601  1
  Nd  Nd2  1  0.863963  0.873779  0.990183  1
  Nd  Nd3  1  0.137653  0.127439  0.010215  1
  Zn  Zn4  1  0.480934  0.668312  0.812623  1
  Ag  Ag5  1  0.123990  0.322276  0.801713  1
  Ag  Ag6  1  0.530250  0.336512  0.193739  1
  Sn  Sn7  1  0.289212  0.780475  0.508737  1
  Sn  Sn8  1  0.703626  0.212873  0.490753  1
  Sn  Sn9  1  0.813947  0.508315  0.305630  1
  Sn  Sn10  1  0.195404  0.498014  0.697390  1
