# generated using pymatgen
data_Tm3Lu(Fe2Br)2
_symmetry_space_group_name_H-M   'P 1'
_cell_length_a   3.88597400
_cell_length_b   3.88597519
_cell_length_c   16.22559800
_cell_angle_alpha   90.00000000
_cell_angle_beta   90.00000000
_cell_angle_gamma   120.00000689
_symmetry_Int_Tables_number   1
_chemical_formula_structural   Tm3Lu(Fe2Br)2
_chemical_formula_sum   'Tm3 Lu1 Fe4 Br2'
_cell_volume   212.19308530
_cell_formula_units_Z   1
loop_
 _symmetry_equiv_pos_site_id
 _symmetry_equiv_pos_as_xyz
  1  'x, y, z'
loop_
 _atom_site_type_symbol
 _atom_site_label
 _atom_site_symmetry_multiplicity
 _atom_site_fract_x
 _atom_site_fract_y
 _atom_site_fract_z
 _atom_site_occupancy
  Tm  Tm0  1  0.000000  0.000000  0.391657  1
  Tm  Tm1  1  0.000000  0.000000  0.608346  1
  Tm  Tm2  1  0.000000  0.000000  0.891877  1
  Lu  Lu3  1  0.000000  0.000000  0.107174  1
  Fe  Fe4  1  0.333333  0.666665  0.006303  1
  Fe  Fe5  1  0.333333  0.666665  0.493758  1
  Fe  Fe6  1  0.666666  0.333333  0.506826  1
  Fe  Fe7  1  0.666666  0.333333  0.994213  1
  Br  Br8  1  0.666666  0.333333  0.249634  1
  Br  Br9  1  0.333333  0.666665  0.750213  1
