# generated using pymatgen
data_Y8ZnSiBr12
_symmetry_space_group_name_H-M   'P 1'
_cell_length_a   4.05330300
_cell_length_b   13.34559368
_cell_length_c   14.11020729
_cell_angle_alpha   89.86179872
_cell_angle_beta   90.00000000
_cell_angle_gamma   90.00000000
_symmetry_Int_Tables_number   1
_chemical_formula_structural   Y8ZnSiBr12
_chemical_formula_sum   'Y8 Zn1 Si1 Br12'
_cell_volume   763.27159208
_cell_formula_units_Z   1
loop_
 _symmetry_equiv_pos_site_id
 _symmetry_equiv_pos_as_xyz
  1  'x, y, z'
loop_
 _atom_site_type_symbol
 _atom_site_label
 _atom_site_symmetry_multiplicity
 _atom_site_fract_x
 _atom_site_fract_y
 _atom_site_fract_z
 _atom_site_occupancy
  Y  Y0  1  0.500000  0.119173  0.339895  1
  Y  Y1  1  0.500000  0.880827  0.660105  1
  Y  Y2  1  0.500000  0.616975  0.157574  1
  Y  Y3  1  0.500000  0.383025  0.842426  1
  Y  Y4  1  0.000000  0.121950  0.581100  1
  Y  Y5  1  0.000000  0.878050  0.418900  1
  Y  Y6  1  0.000000  0.617626  0.921802  1
  Y  Y7  1  0.000000  0.382374  0.078198  1
  Zn  Zn8  1  0.500000  0.000000  0.500000  1
  Si  Si9  1  0.500000  0.500000  0.000000  1
  Br  Br10  1  0.500000  0.245149  0.162578  1
  Br  Br11  1  0.500000  0.754851  0.837422  1
  Br  Br12  1  0.500000  0.743224  0.335583  1
  Br  Br13  1  0.500000  0.256776  0.664417  1
  Br  Br14  1  0.000000  0.256609  0.410541  1
  Br  Br15  1  0.000000  0.743391  0.589459  1
  Br  Br16  1  0.000000  0.754797  0.088855  1
  Br  Br17  1  0.000000  0.245203  0.911145  1
  Br  Br18  1  0.000000  0.002345  0.241725  1
  Br  Br19  1  0.000000  0.997655  0.758275  1
  Br  Br20  1  0.000000  0.501842  0.256548  1
  Br  Br21  1  0.000000  0.498158  0.743452  1
