# generated using pymatgen
data_Yb3(Bi2Pt)4
_symmetry_space_group_name_H-M   'P 1'
_cell_length_a   4.24701100
_cell_length_b   10.95525400
_cell_length_c   17.03086700
_cell_angle_alpha   90.00000000
_cell_angle_beta   90.00000000
_cell_angle_gamma   90.00000000
_symmetry_Int_Tables_number   1
_chemical_formula_structural   Yb3(Bi2Pt)4
_chemical_formula_sum   'Yb6 Bi16 Pt8'
_cell_volume   792.39658369
_cell_formula_units_Z   2
loop_
 _symmetry_equiv_pos_site_id
 _symmetry_equiv_pos_as_xyz
  1  'x, y, z'
loop_
 _atom_site_type_symbol
 _atom_site_label
 _atom_site_symmetry_multiplicity
 _atom_site_fract_x
 _atom_site_fract_y
 _atom_site_fract_z
 _atom_site_occupancy
  Yb  Yb0  1  0.500000  0.000000  0.500000  1
  Yb  Yb1  1  0.500000  0.500000  0.000000  1
  Yb  Yb2  1  0.500000  0.863186  0.195521  1
  Yb  Yb3  1  0.500000  0.136814  0.804479  1
  Yb  Yb4  1  0.500000  0.363186  0.304479  1
  Yb  Yb5  1  0.500000  0.636814  0.695521  1
  Bi  Bi6  1  0.000000  0.112917  0.213877  1
  Bi  Bi7  1  0.000000  0.887083  0.786123  1
  Bi  Bi8  1  0.000000  0.612917  0.286123  1
  Bi  Bi9  1  0.000000  0.387083  0.713877  1
  Bi  Bi10  1  0.000000  0.391869  0.141017  1
  Bi  Bi11  1  0.000000  0.608131  0.858983  1
  Bi  Bi12  1  0.000000  0.891869  0.358983  1
  Bi  Bi13  1  0.000000  0.108131  0.641017  1
  Bi  Bi14  1  0.500000  0.130829  0.037710  1
  Bi  Bi15  1  0.500000  0.869171  0.962290  1
  Bi  Bi16  1  0.500000  0.630829  0.462290  1
  Bi  Bi17  1  0.500000  0.369171  0.537710  1
  Bi  Bi18  1  0.000000  0.694454  0.084873  1
  Bi  Bi19  1  0.000000  0.305546  0.915127  1
  Bi  Bi20  1  0.000000  0.194454  0.415127  1
  Bi  Bi21  1  0.000000  0.805546  0.584873  1
  Pt  Pt22  1  0.000000  0.952731  0.080909  1
  Pt  Pt23  1  0.000000  0.047269  0.919091  1
  Pt  Pt24  1  0.000000  0.452731  0.419091  1
  Pt  Pt25  1  0.000000  0.547269  0.580909  1
  Pt  Pt26  1  0.500000  0.571404  0.175907  1
  Pt  Pt27  1  0.500000  0.428596  0.824093  1
  Pt  Pt28  1  0.500000  0.071404  0.324093  1
  Pt  Pt29  1  0.500000  0.928596  0.675907  1
