# generated using pymatgen
data_Mn4AsPd9Au2
_symmetry_space_group_name_H-M   'P 1'
_cell_length_a   6.88538889
_cell_length_b   6.88538852
_cell_length_c   6.88538872
_cell_angle_alpha   107.22158393
_cell_angle_beta   107.22158050
_cell_angle_gamma   114.07074825
_symmetry_Int_Tables_number   1
_chemical_formula_structural   Mn4AsPd9Au2
_chemical_formula_sum   'Mn4 As1 Pd9 Au2'
_cell_volume   250.05858914
_cell_formula_units_Z   1
loop_
 _symmetry_equiv_pos_site_id
 _symmetry_equiv_pos_as_xyz
  1  'x, y, z'
loop_
 _atom_site_type_symbol
 _atom_site_label
 _atom_site_symmetry_multiplicity
 _atom_site_fract_x
 _atom_site_fract_y
 _atom_site_fract_z
 _atom_site_occupancy
  Mn  Mn0  1  0.234195  0.234195  0.468390  1
  Mn  Mn1  1  0.765805  0.765805  0.531610  1
  Mn  Mn2  1  0.234195  0.765805  0.000000  1
  Mn  Mn3  1  0.765805  0.234195  0.000000  1
  As  As4  1  0.500000  0.500000  0.000000  1
  Pd  Pd5  1  0.508496  0.263962  0.244533  1
  Pd  Pd6  1  0.491504  0.736038  0.755467  1
  Pd  Pd7  1  0.019430  0.263962  0.755467  1
  Pd  Pd8  1  0.263962  0.019430  0.755467  1
  Pd  Pd9  1  0.980570  0.736038  0.244533  1
  Pd  Pd10  1  0.736038  0.980570  0.244533  1
  Pd  Pd11  1  0.263962  0.508496  0.244533  1
  Pd  Pd12  1  0.736038  0.491504  0.755467  1
  Pd  Pd13  1  0.000000  0.000000  0.000000  1
  Au  Au14  1  0.500000  0.000000  0.500000  1
  Au  Au15  1  0.000000  0.500000  0.500000  1
