# generated using pymatgen
data_Pm4Al(CoO4)3
_symmetry_space_group_name_H-M   'P 1'
_cell_length_a   5.33165113
_cell_length_b   5.41188683
_cell_length_c   7.57160737
_cell_angle_alpha   90.44138084
_cell_angle_beta   89.98268920
_cell_angle_gamma   89.98294032
_symmetry_Int_Tables_number   1
_chemical_formula_structural   Pm4Al(CoO4)3
_chemical_formula_sum   'Pm4 Al1 Co3 O12'
_cell_volume   218.46687178
_cell_formula_units_Z   1
loop_
 _symmetry_equiv_pos_site_id
 _symmetry_equiv_pos_as_xyz
  1  'x, y, z'
loop_
 _atom_site_type_symbol
 _atom_site_label
 _atom_site_symmetry_multiplicity
 _atom_site_fract_x
 _atom_site_fract_y
 _atom_site_fract_z
 _atom_site_occupancy
  Pm  Pm0  1  0.993104  0.048507  0.249632  1
  Pm  Pm1  1  0.514138  0.547247  0.249850  1
  Pm  Pm2  1  0.485862  0.452754  0.750149  1
  Pm  Pm3  1  0.006897  0.951494  0.750367  1
  Al  Al4  1  0.500000  0.000000  0.000000  1
  Co  Co5  1  0.000000  0.500000  0.000000  1
  Co  Co6  1  0.500000  0.000000  0.500001  1
  Co  Co7  1  0.000000  0.500000  0.500001  1
  O  O8  1  0.712748  0.283623  0.038163  1
  O  O9  1  0.785001  0.788504  0.037926  1
  O  O10  1  0.081912  0.484626  0.250530  1
  O  O11  1  0.429552  0.988219  0.248161  1
  O  O12  1  0.708196  0.291133  0.457269  1
  O  O13  1  0.793526  0.791604  0.456504  1
  O  O14  1  0.206475  0.208395  0.543496  1
  O  O15  1  0.291805  0.708867  0.542731  1
  O  O16  1  0.570447  0.011782  0.751838  1
  O  O17  1  0.918089  0.515375  0.749469  1
  O  O18  1  0.215000  0.211495  0.962074  1
  O  O19  1  0.287253  0.716377  0.961837  1
