# generated using pymatgen
data_Y5Ho3Cu3Si12Rh
_symmetry_space_group_name_H-M   'P 1'
_cell_length_a   8.03487700
_cell_length_b   8.03484255
_cell_length_c   8.12679600
_cell_angle_alpha   89.99987226
_cell_angle_beta   90.00021038
_cell_angle_gamma   119.99993251
_symmetry_Int_Tables_number   1
_chemical_formula_structural   Y5Ho3Cu3Si12Rh
_chemical_formula_sum   'Y5 Ho3 Cu3 Si12 Rh1'
_cell_volume   454.36711240
_cell_formula_units_Z   1
loop_
 _symmetry_equiv_pos_site_id
 _symmetry_equiv_pos_as_xyz
  1  'x, y, z'
loop_
 _atom_site_type_symbol
 _atom_site_label
 _atom_site_symmetry_multiplicity
 _atom_site_fract_x
 _atom_site_fract_y
 _atom_site_fract_z
 _atom_site_occupancy
  Y  Y0  1  0.999999  0.000000  0.249970  1
  Y  Y1  1  0.999999  0.999998  0.750127  1
  Y  Y2  1  0.500295  0.499706  0.248476  1
  Y  Y3  1  0.500295  0.000592  0.248475  1
  Y  Y4  1  0.999410  0.499707  0.248476  1
  Ho  Ho5  1  0.498376  0.501623  0.751844  1
  Ho  Ho6  1  0.498378  0.996752  0.751844  1
  Ho  Ho7  1  0.003247  0.501623  0.751844  1
  Cu  Cu8  1  0.333327  0.666660  0.497487  1
  Cu  Cu9  1  0.666666  0.333332  0.505483  1
  Cu  Cu10  1  0.666673  0.333338  0.995165  1
  Si  Si11  1  0.169121  0.830881  0.500963  1
  Si  Si12  1  0.169121  0.338242  0.500964  1
  Si  Si13  1  0.661763  0.830882  0.500963  1
  Si  Si14  1  0.830760  0.169241  0.500617  1
  Si  Si15  1  0.830762  0.661522  0.500617  1
  Si  Si16  1  0.338477  0.169238  0.500617  1
  Si  Si17  1  0.831845  0.168155  0.998313  1
  Si  Si18  1  0.831844  0.663689  0.998313  1
  Si  Si19  1  0.336307  0.168153  0.998312  1
  Si  Si20  1  0.168069  0.831932  0.000271  1
  Si  Si21  1  0.168069  0.336136  0.000270  1
  Si  Si22  1  0.663863  0.831931  0.000271  1
  Rh  Rh23  1  0.333332  0.666665  0.000315  1
