# generated using pymatgen
data_Yb10Bi6PtBr
_symmetry_space_group_name_H-M   'P 1'
_cell_length_a   9.30471400
_cell_length_b   9.30471563
_cell_length_c   7.22681100
_cell_angle_alpha   90.00000000
_cell_angle_beta   90.00000000
_cell_angle_gamma   120.00000133
_symmetry_Int_Tables_number   1
_chemical_formula_structural   Yb10Bi6PtBr
_chemical_formula_sum   'Yb10 Bi6 Pt1 Br1'
_cell_volume   541.85546286
_cell_formula_units_Z   1
loop_
 _symmetry_equiv_pos_site_id
 _symmetry_equiv_pos_as_xyz
  1  'x, y, z'
loop_
 _atom_site_type_symbol
 _atom_site_label
 _atom_site_symmetry_multiplicity
 _atom_site_fract_x
 _atom_site_fract_y
 _atom_site_fract_z
 _atom_site_occupancy
  Yb  Yb0  1  0.753906  0.000000  0.733917  1
  Yb  Yb1  1  0.000000  0.246094  0.266083  1
  Yb  Yb2  1  0.753906  0.753906  0.266083  1
  Yb  Yb3  1  0.333333  0.666667  0.500000  1
  Yb  Yb4  1  0.333333  0.666667  0.000000  1
  Yb  Yb5  1  0.666667  0.333333  0.500000  1
  Yb  Yb6  1  0.666667  0.333333  0.000000  1
  Yb  Yb7  1  0.246094  0.000000  0.266083  1
  Yb  Yb8  1  0.246094  0.246094  0.733917  1
  Yb  Yb9  1  0.000000  0.753906  0.733917  1
  Bi  Bi10  1  0.399453  0.000000  0.754770  1
  Bi  Bi11  1  0.600547  0.000000  0.245230  1
  Bi  Bi12  1  0.000000  0.600547  0.245230  1
  Bi  Bi13  1  0.600547  0.600547  0.754770  1
  Bi  Bi14  1  0.000000  0.399453  0.754770  1
  Bi  Bi15  1  0.399453  0.399453  0.245230  1
  Pt  Pt16  1  0.000000  0.000000  0.500000  1
  Br  Br17  1  0.000000  0.000000  0.000000  1
