# generated using pymatgen
data_Nd8Zn8AgRh7
_symmetry_space_group_name_H-M   'P 1'
_cell_length_a   4.01289700
_cell_length_b   7.39434986
_cell_length_c   16.75178049
_cell_angle_alpha   90.32028695
_cell_angle_beta   90.00000000
_cell_angle_gamma   90.00000000
_symmetry_Int_Tables_number   1
_chemical_formula_structural   Nd8Zn8AgRh7
_chemical_formula_sum   'Nd8 Zn8 Ag1 Rh7'
_cell_volume   497.06386873
_cell_formula_units_Z   1
loop_
 _symmetry_equiv_pos_site_id
 _symmetry_equiv_pos_as_xyz
  1  'x, y, z'
loop_
 _atom_site_type_symbol
 _atom_site_label
 _atom_site_symmetry_multiplicity
 _atom_site_fract_x
 _atom_site_fract_y
 _atom_site_fract_z
 _atom_site_occupancy
  Nd  Nd0  1  0.250000  0.169755  0.939279  1
  Nd  Nd1  1  0.250000  0.665130  0.571709  1
  Nd  Nd2  1  0.750000  0.324673  0.440136  1
  Nd  Nd3  1  0.750000  0.959702  0.275891  1
  Nd  Nd4  1  0.750000  0.829145  0.059630  1
  Nd  Nd5  1  0.750000  0.448026  0.212780  1
  Nd  Nd6  1  0.250000  0.052625  0.717282  1
  Nd  Nd7  1  0.250000  0.548277  0.787625  1
  Zn  Zn8  1  0.750000  0.008103  0.566663  1
  Zn  Zn9  1  0.250000  0.613552  0.339878  1
  Zn  Zn10  1  0.750000  0.377493  0.653624  1
  Zn  Zn11  1  0.250000  0.498586  0.059504  1
  Zn  Zn12  1  0.750000  0.500348  0.940730  1
  Zn  Zn13  1  0.250000  0.007137  0.439580  1
  Zn  Zn14  1  0.250000  0.123070  0.147666  1
  Zn  Zn15  1  0.750000  0.878846  0.849407  1
  Ag  Ag16  1  0.750000  0.754350  0.432687  1
  Rh  Rh17  1  0.250000  0.244072  0.314637  1
  Rh  Rh18  1  0.750000  0.251678  0.814086  1
  Rh  Rh19  1  0.750000  0.755816  0.686697  1
  Rh  Rh20  1  0.250000  0.245390  0.565132  1
  Rh  Rh21  1  0.250000  0.746231  0.186660  1
  Rh  Rh22  1  0.750000  0.254254  0.064131  1
  Rh  Rh23  1  0.250000  0.743741  0.934587  1
