# generated using pymatgen
data_ZnSb2F12
_symmetry_space_group_name_H-M   'P 1'
_cell_length_a   5.54230041
_cell_length_b   11.21060248
_cell_length_c   5.55926313
_cell_angle_alpha   57.48024542
_cell_angle_beta   57.07860236
_cell_angle_gamma   57.31021012
_symmetry_Int_Tables_number   1
_chemical_formula_structural   ZnSb2F12
_chemical_formula_sum   'Zn1 Sb2 F12'
_cell_volume   228.99488602
_cell_formula_units_Z   1
loop_
 _symmetry_equiv_pos_site_id
 _symmetry_equiv_pos_as_xyz
  1  'x, y, z'
loop_
 _atom_site_type_symbol
 _atom_site_label
 _atom_site_symmetry_multiplicity
 _atom_site_fract_x
 _atom_site_fract_y
 _atom_site_fract_z
 _atom_site_occupancy
  Zn  Zn0  1  0.000000  0.500000  0.000000  1
  Sb  Sb1  1  0.489602  0.245120  0.515875  1
  Sb  Sb2  1  0.510398  0.754880  0.484125  1
  F  F3  1  0.119735  0.207190  0.726332  1
  F  F4  1  0.171996  0.674875  0.738405  1
  F  F5  1  0.360357  0.377790  0.157116  1
  F  F6  1  0.393669  0.856591  0.142228  1
  F  F7  1  0.732494  0.084063  0.367459  1
  F  F8  1  0.739343  0.571454  0.369047  1
  F  F9  1  0.260657  0.428546  0.630953  1
  F  F10  1  0.267506  0.915937  0.632541  1
  F  F11  1  0.606331  0.143409  0.857772  1
  F  F12  1  0.639643  0.622210  0.842884  1
  F  F13  1  0.828004  0.325125  0.261595  1
  F  F14  1  0.880265  0.792810  0.273668  1
