# generated using pymatgen
data_Tb5In4HgPt
_symmetry_space_group_name_H-M   'P 1'
_cell_length_a   3.71600300
_cell_length_b   8.26020758
_cell_length_c   18.51683037
_cell_angle_alpha   89.89218727
_cell_angle_beta   90.00000000
_cell_angle_gamma   90.00000000
_symmetry_Int_Tables_number   1
_chemical_formula_structural   Tb5In4HgPt
_chemical_formula_sum   'Tb10 In8 Hg2 Pt2'
_cell_volume   568.37228990
_cell_formula_units_Z   2
loop_
 _symmetry_equiv_pos_site_id
 _symmetry_equiv_pos_as_xyz
  1  'x, y, z'
loop_
 _atom_site_type_symbol
 _atom_site_label
 _atom_site_symmetry_multiplicity
 _atom_site_fract_x
 _atom_site_fract_y
 _atom_site_fract_z
 _atom_site_occupancy
  Tb  Tb0  1  0.000000  0.122771  0.423140  1
  Tb  Tb1  1  0.000000  0.877229  0.576860  1
  Tb  Tb2  1  0.000000  0.384433  0.916914  1
  Tb  Tb3  1  0.000000  0.615567  0.083086  1
  Tb  Tb4  1  0.000000  0.263236  0.213837  1
  Tb  Tb5  1  0.000000  0.736764  0.786163  1
  Tb  Tb6  1  0.000000  0.283909  0.721282  1
  Tb  Tb7  1  0.000000  0.716091  0.278718  1
  Tb  Tb8  1  0.000000  0.000000  0.000000  1
  Tb  Tb9  1  0.000000  0.500000  0.500000  1
  In  In10  1  0.500000  0.420511  0.353603  1
  In  In11  1  0.500000  0.579489  0.646397  1
  In  In12  1  0.500000  0.080818  0.853863  1
  In  In13  1  0.500000  0.919182  0.146137  1
  In  In14  1  0.500000  0.291835  0.064632  1
  In  In15  1  0.500000  0.708165  0.935368  1
  In  In16  1  0.500000  0.211539  0.568771  1
  In  In17  1  0.500000  0.788461  0.431229  1
  Hg  Hg18  1  0.500000  0.027095  0.300580  1
  Hg  Hg19  1  0.500000  0.972905  0.699420  1
  Pt  Pt20  1  0.500000  0.473130  0.805233  1
  Pt  Pt21  1  0.500000  0.526870  0.194767  1
