# generated using pymatgen
data_LaInPRh3
_symmetry_space_group_name_H-M   'P 1'
_cell_length_a   6.95509910
_cell_length_b   6.95360952
_cell_length_c   6.95509846
_cell_angle_alpha   130.87845416
_cell_angle_beta   113.67692910
_cell_angle_gamma   86.79506929
_symmetry_Int_Tables_number   1
_chemical_formula_structural   LaInPRh3
_chemical_formula_sum   'La2 In2 P2 Rh6'
_cell_volume   222.27957526
_cell_formula_units_Z   2
loop_
 _symmetry_equiv_pos_site_id
 _symmetry_equiv_pos_as_xyz
  1  'x, y, z'
loop_
 _atom_site_type_symbol
 _atom_site_label
 _atom_site_symmetry_multiplicity
 _atom_site_fract_x
 _atom_site_fract_y
 _atom_site_fract_z
 _atom_site_occupancy
  La  La0  1  0.771553  0.020982  0.249429  1
  La  La1  1  0.228447  0.979018  0.750571  1
  In  In2  1  0.559359  0.309096  0.749737  1
  In  In3  1  0.440641  0.690904  0.250263  1
  P  P4  1  0.108817  0.359159  0.250342  1
  P  P5  1  0.891183  0.640841  0.749658  1
  Rh  Rh6  1  0.197188  0.500000  0.697188  1
  Rh  Rh7  1  0.803097  0.000000  0.803097  1
  Rh  Rh8  1  0.802812  0.500000  0.302812  1
  Rh  Rh9  1  0.196903  0.000000  0.196903  1
  Rh  Rh10  1  0.500000  0.500000  0.500000  1
  Rh  Rh11  1  0.000000  0.500000  0.000000  1
