# generated using pymatgen
data_K4UCrCl12
_symmetry_space_group_name_H-M   'P 1'
_cell_length_a   7.26334600
_cell_length_b   7.26334600
_cell_length_c   10.68436100
_cell_angle_alpha   90.00000000
_cell_angle_beta   90.00000000
_cell_angle_gamma   90.00000000
_symmetry_Int_Tables_number   1
_chemical_formula_structural   K4UCrCl12
_chemical_formula_sum   'K4 U1 Cr1 Cl12'
_cell_volume   563.66623360
_cell_formula_units_Z   1
loop_
 _symmetry_equiv_pos_site_id
 _symmetry_equiv_pos_as_xyz
  1  'x, y, z'
loop_
 _atom_site_type_symbol
 _atom_site_label
 _atom_site_symmetry_multiplicity
 _atom_site_fract_x
 _atom_site_fract_y
 _atom_site_fract_z
 _atom_site_occupancy
  K  K0  1  0.500000  0.000000  0.808588  1
  K  K1  1  0.500000  0.000000  0.191412  1
  K  K2  1  0.000000  0.500000  0.191412  1
  K  K3  1  0.000000  0.500000  0.808588  1
  U  U4  1  0.500000  0.500000  0.500000  1
  Cr  Cr5  1  0.000000  0.000000  0.000000  1
  Cl  Cl6  1  0.770288  0.234000  0.000000  1
  Cl  Cl7  1  0.229712  0.766000  0.000000  1
  Cl  Cl8  1  0.500000  0.500000  0.260605  1
  Cl  Cl9  1  0.297472  0.218019  0.500000  1
  Cl  Cl10  1  0.234000  0.229712  0.000000  1
  Cl  Cl11  1  0.781981  0.297472  0.500000  1
  Cl  Cl12  1  0.000000  0.000000  0.220986  1
  Cl  Cl13  1  0.702528  0.781981  0.500000  1
  Cl  Cl14  1  0.218019  0.702528  0.500000  1
  Cl  Cl15  1  0.500000  0.500000  0.739395  1
  Cl  Cl16  1  0.766000  0.770288  0.000000  1
  Cl  Cl17  1  0.000000  0.000000  0.779014  1
