# generated using pymatgen
data_Sc12Ga5Si7Pt4
_symmetry_space_group_name_H-M   'P 1'
_cell_length_a   11.93132089
_cell_length_b   4.06218500
_cell_length_c   10.40988080
_cell_angle_alpha   90.00000000
_cell_angle_beta   89.95542654
_cell_angle_gamma   90.00000000
_symmetry_Int_Tables_number   1
_chemical_formula_structural   Sc12Ga5Si7Pt4
_chemical_formula_sum   'Sc12 Ga5 Si7 Pt4'
_cell_volume   504.53796289
_cell_formula_units_Z   1
loop_
 _symmetry_equiv_pos_site_id
 _symmetry_equiv_pos_as_xyz
  1  'x, y, z'
loop_
 _atom_site_type_symbol
 _atom_site_label
 _atom_site_symmetry_multiplicity
 _atom_site_fract_x
 _atom_site_fract_y
 _atom_site_fract_z
 _atom_site_occupancy
  Sc  Sc0  1  0.298314  0.249999  0.841264  1
  Sc  Sc1  1  0.199665  0.750000  0.342117  1
  Sc  Sc2  1  0.799205  0.249999  0.659112  1
  Sc  Sc3  1  0.701334  0.750000  0.158947  1
  Sc  Sc4  1  0.520336  0.249999  0.621878  1
  Sc  Sc5  1  0.979921  0.750000  0.121002  1
  Sc  Sc6  1  0.019388  0.249999  0.877725  1
  Sc  Sc7  1  0.481519  0.750000  0.380180  1
  Sc  Sc8  1  0.107131  0.249999  0.583458  1
  Sc  Sc9  1  0.394356  0.750000  0.080685  1
  Sc  Sc10  1  0.608012  0.249999  0.916835  1
  Sc  Sc11  1  0.893030  0.750000  0.416821  1
  Ga  Ga12  1  0.043670  0.249999  0.313063  1
  Ga  Ga13  1  0.456442  0.750000  0.813420  1
  Ga  Ga14  1  0.546186  0.249999  0.185728  1
  Ga  Ga15  1  0.955979  0.750000  0.686207  1
  Ga  Ga16  1  0.343724  0.249999  0.252485  1
  Si  Si17  1  0.156983  0.750000  0.753789  1
  Si  Si18  1  0.842466  0.249999  0.246183  1
  Si  Si19  1  0.657801  0.750000  0.746217  1
  Si  Si20  1  0.322616  0.249999  0.485770  1
  Si  Si21  1  0.177593  0.750000  0.981735  1
  Si  Si22  1  0.823646  0.249999  0.017878  1
  Si  Si23  1  0.677380  0.750000  0.518444  1
  Pt  Pt24  1  0.173509  0.249999  0.104724  1
  Pt  Pt25  1  0.319144  0.750000  0.611435  1
  Pt  Pt26  1  0.681549  0.249999  0.391608  1
  Pt  Pt27  1  0.819096  0.750000  0.891288  1
