# generated using pymatgen
data_Dy4Er4Ti11Si16Rh
_symmetry_space_group_name_H-M   'P 1'
_cell_length_a   7.02908792
_cell_length_b   7.02939117
_cell_length_c   12.85611102
_cell_angle_alpha   89.89784372
_cell_angle_beta   90.11011953
_cell_angle_gamma   89.81736189
_symmetry_Int_Tables_number   1
_chemical_formula_structural   Dy4Er4Ti11Si16Rh
_chemical_formula_sum   'Dy4 Er4 Ti11 Si16 Rh1'
_cell_volume   635.21770991
_cell_formula_units_Z   1
loop_
 _symmetry_equiv_pos_site_id
 _symmetry_equiv_pos_as_xyz
  1  'x, y, z'
loop_
 _atom_site_type_symbol
 _atom_site_label
 _atom_site_symmetry_multiplicity
 _atom_site_fract_x
 _atom_site_fract_y
 _atom_site_fract_z
 _atom_site_occupancy
  Dy  Dy0  1  0.841100  0.498949  0.285048  1
  Dy  Dy1  1  0.503482  0.158536  0.217692  1
  Dy  Dy2  1  0.498884  0.840930  0.714986  1
  Dy  Dy3  1  0.342287  0.001779  0.468167  1
  Er  Er4  1  0.996480  0.659656  0.032655  1
  Er  Er5  1  0.001411  0.342668  0.532085  1
  Er  Er6  1  0.659680  0.996380  0.967159  1
  Er  Er7  1  0.158211  0.502953  0.782243  1
  Ti  Ti8  1  0.344015  0.505965  0.374936  1
  Ti  Ti9  1  0.850484  0.996182  0.376322  1
  Ti  Ti10  1  0.006184  0.150948  0.124676  1
  Ti  Ti11  1  0.996421  0.850475  0.623954  1
  Ti  Ti12  1  0.506112  0.344371  0.625363  1
  Ti  Ti13  1  0.150863  0.006150  0.875120  1
  Ti  Ti14  1  0.824603  0.173303  0.748726  1
  Ti  Ti15  1  0.173039  0.824396  0.251212  1
  Ti  Ti16  1  0.326394  0.326549  0.999891  1
  Ti  Ti17  1  0.493097  0.650894  0.127433  1
  Ti  Ti18  1  0.650699  0.493237  0.872335  1
  Si  Si19  1  0.049405  0.712520  0.436149  1
  Si  Si20  1  0.952361  0.292090  0.934323  1
  Si  Si21  1  0.713940  0.050422  0.564141  1
  Si  Si22  1  0.207643  0.453407  0.184042  1
  Si  Si23  1  0.791129  0.550067  0.682575  1
  Si  Si24  1  0.452818  0.208022  0.815929  1
  Si  Si25  1  0.550781  0.789812  0.317331  1
  Si  Si26  1  0.291652  0.951804  0.065286  1
  Si  Si27  1  0.797974  0.867072  0.184787  1
  Si  Si28  1  0.296178  0.626914  0.566180  1
  Si  Si29  1  0.704748  0.369140  0.065540  1
  Si  Si30  1  0.628342  0.297419  0.434507  1
  Si  Si31  1  0.368511  0.704225  0.933876  1
  Si  Si32  1  0.131049  0.203480  0.316098  1
  Si  Si33  1  0.202697  0.132526  0.683952  1
  Si  Si34  1  0.867638  0.797342  0.815267  1
  Rh  Rh35  1  0.669690  0.669420  0.500013  1
