# generated using pymatgen
data_Sc2Mn14Si3C2
_symmetry_space_group_name_H-M   'P 1'
_cell_length_a   6.28351539
_cell_length_b   6.42972443
_cell_length_c   6.28351663
_cell_angle_alpha   83.27790438
_cell_angle_beta   80.86119989
_cell_angle_gamma   83.27789993
_symmetry_Int_Tables_number   1
_chemical_formula_structural   Sc2Mn14Si3C2
_chemical_formula_sum   'Sc2 Mn14 Si3 C2'
_cell_volume   247.65845236
_cell_formula_units_Z   1
loop_
 _symmetry_equiv_pos_site_id
 _symmetry_equiv_pos_as_xyz
  1  'x, y, z'
loop_
 _atom_site_type_symbol
 _atom_site_label
 _atom_site_symmetry_multiplicity
 _atom_site_fract_x
 _atom_site_fract_y
 _atom_site_fract_z
 _atom_site_occupancy
  Sc  Sc0  1  0.659312  0.665448  0.659312  1
  Sc  Sc1  1  0.340688  0.334552  0.340688  1
  Mn  Mn2  1  0.848220  0.342811  0.346854  1
  Mn  Mn3  1  0.346854  0.342811  0.848220  1
  Mn  Mn4  1  0.151780  0.657189  0.653146  1
  Mn  Mn5  1  0.653146  0.657189  0.151780  1
  Mn  Mn6  1  0.500000  0.000000  0.000000  1
  Mn  Mn7  1  0.000000  0.000000  0.500000  1
  Mn  Mn8  1  0.712383  0.000000  0.287617  1
  Mn  Mn9  1  0.996134  0.277364  0.720097  1
  Mn  Mn10  1  0.279903  0.722636  0.003866  1
  Mn  Mn11  1  0.003866  0.722636  0.279903  1
  Mn  Mn12  1  0.720097  0.277364  0.996134  1
  Mn  Mn13  1  0.287617  0.000000  0.712383  1
  Mn  Mn14  1  0.905417  0.905548  0.905417  1
  Mn  Mn15  1  0.094583  0.094452  0.094583  1
  Si  Si16  1  0.353255  0.859959  0.353255  1
  Si  Si17  1  0.646745  0.140041  0.646745  1
  Si  Si18  1  0.000000  0.500000  0.000000  1
  C  C19  1  0.000000  0.500000  0.500000  1
  C  C20  1  0.500000  0.500000  0.000000  1
