# generated using pymatgen
data_Sc10In8Cu2IrRh
_symmetry_space_group_name_H-M   'P 1'
_cell_length_a   3.37346700
_cell_length_b   7.70724949
_cell_length_c   17.54170820
_cell_angle_alpha   89.91008359
_cell_angle_beta   90.00000000
_cell_angle_gamma   90.00000000
_symmetry_Int_Tables_number   1
_chemical_formula_structural   Sc10In8Cu2IrRh
_chemical_formula_sum   'Sc10 In8 Cu2 Ir1 Rh1'
_cell_volume   456.08651463
_cell_formula_units_Z   1
loop_
 _symmetry_equiv_pos_site_id
 _symmetry_equiv_pos_as_xyz
  1  'x, y, z'
loop_
 _atom_site_type_symbol
 _atom_site_label
 _atom_site_symmetry_multiplicity
 _atom_site_fract_x
 _atom_site_fract_y
 _atom_site_fract_z
 _atom_site_occupancy
  Sc  Sc0  1  0.000000  0.999892  0.999956  1
  Sc  Sc1  1  0.000000  0.499989  0.500069  1
  Sc  Sc2  1  0.000000  0.736713  0.779975  1
  Sc  Sc3  1  0.000000  0.263087  0.220033  1
  Sc  Sc4  1  0.000000  0.256824  0.720950  1
  Sc  Sc5  1  0.000000  0.743525  0.279121  1
  Sc  Sc6  1  0.000000  0.874052  0.582257  1
  Sc  Sc7  1  0.000000  0.125889  0.417751  1
  Sc  Sc8  1  0.000000  0.373898  0.915829  1
  Sc  Sc9  1  0.000000  0.625812  0.084442  1
  In  In10  1  0.500000  0.797994  0.432512  1
  In  In11  1  0.500000  0.201877  0.567398  1
  In  In12  1  0.500000  0.296704  0.066728  1
  In  In13  1  0.500000  0.703492  0.933585  1
  In  In14  1  0.500000  0.930187  0.151055  1
  In  In15  1  0.500000  0.069612  0.849022  1
  In  In16  1  0.500000  0.427247  0.351929  1
  In  In17  1  0.500000  0.573070  0.647757  1
  Cu  Cu18  1  0.500000  0.963210  0.696138  1
  Cu  Cu19  1  0.500000  0.036715  0.303734  1
  Ir  Ir20  1  0.500000  0.460988  0.804573  1
  Rh  Rh21  1  0.500000  0.539223  0.195187  1
