# generated using pymatgen
data_Th3Zn4Pt3Rh
_symmetry_space_group_name_H-M   'P 1'
_cell_length_a   8.36266495
_cell_length_b   8.36266464
_cell_length_c   8.36266424
_cell_angle_alpha   152.06706589
_cell_angle_beta   125.43471432
_cell_angle_gamma   62.40158818
_symmetry_Int_Tables_number   1
_chemical_formula_structural   Th3Zn4Pt3Rh
_chemical_formula_sum   'Th3 Zn4 Pt3 Rh1'
_cell_volume   221.37161100
_cell_formula_units_Z   1
loop_
 _symmetry_equiv_pos_site_id
 _symmetry_equiv_pos_as_xyz
  1  'x, y, z'
loop_
 _atom_site_type_symbol
 _atom_site_label
 _atom_site_symmetry_multiplicity
 _atom_site_fract_x
 _atom_site_fract_y
 _atom_site_fract_z
 _atom_site_occupancy
  Th  Th0  1  0.496957  0.996957  0.500000  1
  Th  Th1  1  0.873256  0.873256  0.000000  1
  Th  Th2  1  0.130777  0.130777  0.000000  1
  Zn  Zn3  1  0.477625  0.675849  0.801776  1
  Zn  Zn4  1  0.874073  0.675849  0.198224  1
  Zn  Zn5  1  0.130557  0.325279  0.805278  1
  Zn  Zn6  1  0.520001  0.325279  0.194722  1
  Pt  Pt7  1  0.718996  0.218996  0.500000  1
  Pt  Pt8  1  0.799834  0.499946  0.299888  1
  Pt  Pt9  1  0.200058  0.499946  0.700112  1
  Rh  Rh10  1  0.277866  0.777866  0.500000  1
