# generated using pymatgen
data_Tb6Ho4(SnSb)3
_symmetry_space_group_name_H-M   'P 1'
_cell_length_a   9.00930100
_cell_length_b   9.00930042
_cell_length_c   6.40876600
_cell_angle_alpha   90.00000000
_cell_angle_beta   90.00000000
_cell_angle_gamma   120.00001315
_symmetry_Int_Tables_number   1
_chemical_formula_structural   Tb6Ho4(SnSb)3
_chemical_formula_sum   'Tb6 Ho4 Sn3 Sb3'
_cell_volume   450.49207434
_cell_formula_units_Z   1
loop_
 _symmetry_equiv_pos_site_id
 _symmetry_equiv_pos_as_xyz
  1  'x, y, z'
loop_
 _atom_site_type_symbol
 _atom_site_label
 _atom_site_symmetry_multiplicity
 _atom_site_fract_x
 _atom_site_fract_y
 _atom_site_fract_z
 _atom_site_occupancy
  Tb  Tb0  1  0.758356  0.000000  0.000000  1
  Tb  Tb1  1  0.000000  0.758356  0.000000  1
  Tb  Tb2  1  0.241644  0.241644  0.000000  1
  Tb  Tb3  1  0.242156  0.000000  0.500000  1
  Tb  Tb4  1  0.000000  0.242156  0.500000  1
  Tb  Tb5  1  0.757844  0.757844  0.500000  1
  Ho  Ho6  1  0.333333  0.666667  0.251112  1
  Ho  Ho7  1  0.666667  0.333333  0.251112  1
  Ho  Ho8  1  0.666667  0.333333  0.748888  1
  Ho  Ho9  1  0.333333  0.666667  0.748888  1
  Sn  Sn10  1  0.606908  0.000000  0.500000  1
  Sn  Sn11  1  0.000000  0.606908  0.500000  1
  Sn  Sn12  1  0.393092  0.393092  0.500000  1
  Sb  Sb13  1  0.392800  0.000000  0.000000  1
  Sb  Sb14  1  0.000000  0.392800  0.000000  1
  Sb  Sb15  1  0.607200  0.607200  0.000000  1
