# generated using pymatgen
data_Eu10ZnSi3Hg2
_symmetry_space_group_name_H-M   'P 1'
_cell_length_a   9.64640547
_cell_length_b   9.64640625
_cell_length_c   9.74558200
_cell_angle_alpha   131.61881152
_cell_angle_beta   131.61881562
_cell_angle_gamma   70.00121627
_symmetry_Int_Tables_number   1
_chemical_formula_structural   Eu10ZnSi3Hg2
_chemical_formula_sum   'Eu10 Zn1 Si3 Hg2'
_cell_volume   498.78519678
_cell_formula_units_Z   1
loop_
 _symmetry_equiv_pos_site_id
 _symmetry_equiv_pos_as_xyz
  1  'x, y, z'
loop_
 _atom_site_type_symbol
 _atom_site_label
 _atom_site_symmetry_multiplicity
 _atom_site_fract_x
 _atom_site_fract_y
 _atom_site_fract_z
 _atom_site_occupancy
  Eu  Eu0  1  0.999147  0.008438  0.007585  1
  Eu  Eu1  1  0.508438  0.499147  0.007585  1
  Eu  Eu2  1  0.808275  0.308275  0.841320  1
  Eu  Eu3  1  0.314029  0.462090  0.494890  1
  Eu  Eu4  1  0.962090  0.814029  0.494890  1
  Eu  Eu5  1  0.680862  0.532800  0.494890  1
  Eu  Eu6  1  0.032800  0.180862  0.494890  1
  Eu  Eu7  1  0.533043  0.033043  0.841320  1
  Eu  Eu8  1  0.192675  0.692675  0.167686  1
  Eu  Eu9  1  0.475011  0.975011  0.167686  1
  Zn  Zn10  1  0.111366  0.611366  0.722731  1
  Si  Si11  1  0.885730  0.385730  0.271461  1
  Si  Si12  1  0.388138  0.110969  0.499106  1
  Si  Si13  1  0.610969  0.888138  0.499106  1
  Hg  Hg14  1  0.248713  0.248713  0.997427  1
  Hg  Hg15  1  0.748713  0.748713  0.997427  1
