# generated using pymatgen
data_La8MgPd23Au
_symmetry_space_group_name_H-M   'P 1'
_cell_length_a   8.53754500
_cell_length_b   8.59888200
_cell_length_c   8.61101000
_cell_angle_alpha   90.00000000
_cell_angle_beta   90.00000000
_cell_angle_gamma   90.00000000
_symmetry_Int_Tables_number   1
_chemical_formula_structural   La8MgPd23Au
_chemical_formula_sum   'La8 Mg1 Pd23 Au1'
_cell_volume   632.16302231
_cell_formula_units_Z   1
loop_
 _symmetry_equiv_pos_site_id
 _symmetry_equiv_pos_as_xyz
  1  'x, y, z'
loop_
 _atom_site_type_symbol
 _atom_site_label
 _atom_site_symmetry_multiplicity
 _atom_site_fract_x
 _atom_site_fract_y
 _atom_site_fract_z
 _atom_site_occupancy
  La  La0  1  0.250813  0.247131  0.256280  1
  La  La1  1  0.748325  0.748087  0.748745  1
  La  La2  1  0.748325  0.748087  0.251255  1
  La  La3  1  0.748325  0.251913  0.748745  1
  La  La4  1  0.250813  0.247131  0.743720  1
  La  La5  1  0.250813  0.752869  0.256280  1
  La  La6  1  0.250813  0.752869  0.743720  1
  La  La7  1  0.748325  0.251913  0.251255  1
  Mg  Mg8  1  0.000212  0.000000  0.000000  1
  Pd  Pd9  1  0.736424  0.500000  0.000000  1
  Pd  Pd10  1  0.998312  0.263928  0.500000  1
  Pd  Pd11  1  0.499558  0.261992  0.000000  1
  Pd  Pd12  1  0.998312  0.736072  0.500000  1
  Pd  Pd13  1  0.499558  0.738008  0.000000  1
  Pd  Pd14  1  0.500664  0.000000  0.263433  1
  Pd  Pd15  1  0.264266  0.000000  0.500000  1
  Pd  Pd16  1  0.500664  0.000000  0.736567  1
  Pd  Pd17  1  0.735239  0.000000  0.500000  1
  Pd  Pd18  1  0.001119  0.500000  0.264019  1
  Pd  Pd19  1  0.001119  0.500000  0.735981  1
  Pd  Pd20  1  0.253721  0.500000  0.500000  1
  Pd  Pd21  1  0.745834  0.500000  0.500000  1
  Pd  Pd22  1  0.500789  0.254410  0.500000  1
  Pd  Pd23  1  0.500789  0.745590  0.500000  1
  Pd  Pd24  1  0.499142  0.500000  0.255948  1
  Pd  Pd25  1  0.499142  0.500000  0.744052  1
  Pd  Pd26  1  0.304153  0.000000  0.000000  1
  Pd  Pd27  1  0.695902  0.000000  0.000000  1
  Pd  Pd28  1  0.001807  0.303386  0.000000  1
  Pd  Pd29  1  0.001807  0.696614  0.000000  1
  Pd  Pd30  1  0.998600  0.000000  0.304514  1
  Pd  Pd31  1  0.998600  0.000000  0.695486  1
  Au  Au32  1  0.267715  0.500000  0.000000  1
