# generated using pymatgen
data_Pa2Ta4AlZn6
_symmetry_space_group_name_H-M   'P 1'
_cell_length_a   10.25444735
_cell_length_b   10.25444714
_cell_length_c   10.25444717
_cell_angle_alpha   28.69614775
_cell_angle_beta   28.69614924
_cell_angle_gamma   28.69615157
_symmetry_Int_Tables_number   1
_chemical_formula_structural   Pa2Ta4AlZn6
_chemical_formula_sum   'Pa2 Ta4 Al1 Zn6'
_cell_volume   219.79686587
_cell_formula_units_Z   1
loop_
 _symmetry_equiv_pos_site_id
 _symmetry_equiv_pos_as_xyz
  1  'x, y, z'
loop_
 _atom_site_type_symbol
 _atom_site_label
 _atom_site_symmetry_multiplicity
 _atom_site_fract_x
 _atom_site_fract_y
 _atom_site_fract_z
 _atom_site_occupancy
  Pa  Pa0  1  0.834630  0.834630  0.834630  1
  Pa  Pa1  1  0.165370  0.165370  0.165370  1
  Ta  Ta2  1  0.649567  0.649567  0.649567  1
  Ta  Ta3  1  0.350433  0.350433  0.350433  1
  Ta  Ta4  1  0.546212  0.546212  0.546212  1
  Ta  Ta5  1  0.453788  0.453788  0.453788  1
  Al  Al6  1  0.000000  0.000000  0.000000  1
  Zn  Zn7  1  0.901243  0.411027  0.901243  1
  Zn  Zn8  1  0.901243  0.901243  0.411027  1
  Zn  Zn9  1  0.411027  0.901243  0.901243  1
  Zn  Zn10  1  0.098757  0.588973  0.098757  1
  Zn  Zn11  1  0.098757  0.098757  0.588973  1
  Zn  Zn12  1  0.588973  0.098757  0.098757  1
