# generated using pymatgen
data_NdYNCl3
_symmetry_space_group_name_H-M   'P 1'
_cell_length_a   8.54329147
_cell_length_b   8.54329097
_cell_length_c   10.92964457
_cell_angle_alpha   60.27317704
_cell_angle_beta   60.27317898
_cell_angle_gamma   26.73642500
_symmetry_Int_Tables_number   1
_chemical_formula_structural   NdYNCl3
_chemical_formula_sum   'Nd2 Y2 N2 Cl6'
_cell_volume   308.77593053
_cell_formula_units_Z   2
loop_
 _symmetry_equiv_pos_site_id
 _symmetry_equiv_pos_as_xyz
  1  'x, y, z'
loop_
 _atom_site_type_symbol
 _atom_site_label
 _atom_site_symmetry_multiplicity
 _atom_site_fract_x
 _atom_site_fract_y
 _atom_site_fract_z
 _atom_site_occupancy
  Nd  Nd0  1  0.862587  0.862587  0.291809  1
  Nd  Nd1  1  0.137413  0.137413  0.708191  1
  Y  Y2  1  0.582879  0.582879  0.044922  1
  Y  Y3  1  0.417121  0.417121  0.955078  1
  N  N4  1  0.426596  0.426596  0.152469  1
  N  N5  1  0.573404  0.573404  0.847531  1
  Cl  Cl6  1  0.050089  0.050089  0.242687  1
  Cl  Cl7  1  0.949911  0.949911  0.757313  1
  Cl  Cl8  1  0.664178  0.664178  0.486450  1
  Cl  Cl9  1  0.335822  0.335822  0.513550  1
  Cl  Cl10  1  0.783849  0.783849  0.107206  1
  Cl  Cl11  1  0.216151  0.216151  0.892794  1
