# generated using pymatgen
data_Nd8ErThRu4
_symmetry_space_group_name_H-M   'P 1'
_cell_length_a   6.58219753
_cell_length_b   7.26382094
_cell_length_c   8.90771505
_cell_angle_alpha   96.38764295
_cell_angle_beta   111.68270159
_cell_angle_gamma   89.99999719
_symmetry_Int_Tables_number   1
_chemical_formula_structural   Nd8ErThRu4
_chemical_formula_sum   'Nd8 Er1 Th1 Ru4'
_cell_volume   392.91356443
_cell_formula_units_Z   1
loop_
 _symmetry_equiv_pos_site_id
 _symmetry_equiv_pos_as_xyz
  1  'x, y, z'
loop_
 _atom_site_type_symbol
 _atom_site_label
 _atom_site_symmetry_multiplicity
 _atom_site_fract_x
 _atom_site_fract_y
 _atom_site_fract_z
 _atom_site_occupancy
  Nd  Nd0  1  0.795010  0.580370  0.815927  1
  Nd  Nd1  1  0.979083  0.919630  0.184073  1
  Nd  Nd2  1  0.201640  0.413486  0.184704  1
  Nd  Nd3  1  0.016936  0.086514  0.815296  1
  Nd  Nd4  1  0.209903  0.687594  0.565639  1
  Nd  Nd5  1  0.644265  0.812406  0.434361  1
  Nd  Nd6  1  0.791131  0.313239  0.430943  1
  Nd  Nd7  1  0.360188  0.186761  0.569057  1
  Er  Er8  1  0.569849  0.250000  0.000000  1
  Th  Th9  1  0.427689  0.750000  0.000000  1
  Ru  Ru10  1  0.597270  0.926862  0.791493  1
  Ru  Ru11  1  0.805776  0.573138  0.208507  1
  Ru  Ru12  1  0.405141  0.062608  0.209021  1
  Ru  Ru13  1  0.196120  0.437392  0.790979  1
