# generated using pymatgen
data_Dy8Al2IrPt
_symmetry_space_group_name_H-M   'P 1'
_cell_length_a   9.56941558
_cell_length_b   9.56941601
_cell_length_c   9.52415100
_cell_angle_alpha   60.15634650
_cell_angle_beta   60.15634501
_cell_angle_gamma   60.39249564
_symmetry_Int_Tables_number   1
_chemical_formula_structural   Dy8Al2IrPt
_chemical_formula_sum   'Dy16 Al4 Ir2 Pt2'
_cell_volume   619.98645702
_cell_formula_units_Z   2
loop_
 _symmetry_equiv_pos_site_id
 _symmetry_equiv_pos_as_xyz
  1  'x, y, z'
loop_
 _atom_site_type_symbol
 _atom_site_label
 _atom_site_symmetry_multiplicity
 _atom_site_fract_x
 _atom_site_fract_y
 _atom_site_fract_z
 _atom_site_occupancy
  Dy  Dy0  1  0.602737  0.602737  0.597647  1
  Dy  Dy1  1  0.602737  0.602737  0.196881  1
  Dy  Dy2  1  0.607792  0.186777  0.602716  1
  Dy  Dy3  1  0.186777  0.607792  0.602716  1
  Dy  Dy4  1  0.052604  0.445393  0.443294  1
  Dy  Dy5  1  0.445393  0.052604  0.058709  1
  Dy  Dy6  1  0.445393  0.052604  0.443294  1
  Dy  Dy7  1  0.052604  0.445393  0.058709  1
  Dy  Dy8  1  0.445253  0.445253  0.054747  1
  Dy  Dy9  1  0.056537  0.056537  0.443463  1
  Dy  Dy10  1  0.187769  0.815190  0.810709  1
  Dy  Dy11  1  0.815190  0.187769  0.186331  1
  Dy  Dy12  1  0.815190  0.187769  0.810709  1
  Dy  Dy13  1  0.187769  0.815190  0.186331  1
  Dy  Dy14  1  0.813433  0.813433  0.186567  1
  Dy  Dy15  1  0.187376  0.187376  0.812624  1
  Al  Al16  1  0.827334  0.827334  0.826930  1
  Al  Al17  1  0.827334  0.827334  0.518401  1
  Al  Al18  1  0.826313  0.519170  0.827258  1
  Al  Al19  1  0.519170  0.826313  0.827258  1
  Ir  Ir20  1  0.389284  0.823828  0.393444  1
  Ir  Ir21  1  0.823828  0.389284  0.393444  1
  Pt  Pt22  1  0.391091  0.391091  0.395835  1
  Pt  Pt23  1  0.391091  0.391091  0.821982  1
