# generated using pymatgen
data_MgTa5(B2Ru5)2
_symmetry_space_group_name_H-M   'P 1'
_cell_length_a   9.43602882
_cell_length_b   9.43602882
_cell_length_c   3.04600700
_cell_angle_alpha   90.00000000
_cell_angle_beta   90.00000000
_cell_angle_gamma   89.95214032
_symmetry_Int_Tables_number   1
_chemical_formula_structural   MgTa5(B2Ru5)2
_chemical_formula_sum   'Mg1 Ta5 B4 Ru10'
_cell_volume   271.21222593
_cell_formula_units_Z   1
loop_
 _symmetry_equiv_pos_site_id
 _symmetry_equiv_pos_as_xyz
  1  'x, y, z'
loop_
 _atom_site_type_symbol
 _atom_site_label
 _atom_site_symmetry_multiplicity
 _atom_site_fract_x
 _atom_site_fract_y
 _atom_site_fract_z
 _atom_site_occupancy
  Mg  Mg0  1  0.822205  0.677795  0.000000  1
  Ta  Ta1  1  0.174159  0.325841  0.000000  1
  Ta  Ta2  1  0.324624  0.821639  0.000000  1
  Ta  Ta3  1  0.678361  0.175376  0.000000  1
  Ta  Ta4  1  0.505053  0.501638  0.000000  1
  Ta  Ta5  1  0.998362  0.994947  0.000000  1
  B  B6  1  0.623482  0.876518  0.000000  1
  B  B7  1  0.377615  0.122385  0.000000  1
  B  B8  1  0.120978  0.619621  0.000000  1
  B  B9  1  0.880379  0.379022  0.000000  1
  Ru  Ru10  1  0.560399  0.722796  0.500000  1
  Ru  Ru11  1  0.425470  0.283626  0.500000  1
  Ru  Ru12  1  0.081656  0.782849  0.500000  1
  Ru  Ru13  1  0.932023  0.216089  0.500000  1
  Ru  Ru14  1  0.283911  0.567977  0.500000  1
  Ru  Ru15  1  0.717151  0.418344  0.500000  1
  Ru  Ru16  1  0.216374  0.074530  0.500000  1
  Ru  Ru17  1  0.777204  0.939601  0.500000  1
  Ru  Ru18  1  0.496932  0.003068  0.500000  1
  Ru  Ru19  1  0.003662  0.496338  0.500000  1
