# generated using pymatgen
data_MnGa2H7
_symmetry_space_group_name_H-M   'P 1'
_cell_length_a   4.60502875
_cell_length_b   4.59723468
_cell_length_c   7.12605374
_cell_angle_alpha   90.68591269
_cell_angle_beta   86.04864174
_cell_angle_gamma   98.48373224
_symmetry_Int_Tables_number   1
_chemical_formula_structural   MnGa2H7
_chemical_formula_sum   'Mn1 Ga2 H7'
_cell_volume   148.85570011
_cell_formula_units_Z   1
loop_
 _symmetry_equiv_pos_site_id
 _symmetry_equiv_pos_as_xyz
  1  'x, y, z'
loop_
 _atom_site_type_symbol
 _atom_site_label
 _atom_site_symmetry_multiplicity
 _atom_site_fract_x
 _atom_site_fract_y
 _atom_site_fract_z
 _atom_site_occupancy
  Mn  Mn0  1  0.285446  0.629770  0.940014  1
  Ga  Ga1  1  0.330706  0.133790  0.956403  1
  Ga  Ga2  1  0.784736  0.659506  0.965253  1
  H  H3  1  0.217966  0.214543  0.481595  1
  H  H4  1  0.112004  0.439208  0.107869  1
  H  H5  1  0.093585  0.392714  0.816290  1
  H  H6  1  0.201567  0.798379  0.767706  1
  H  H7  1  0.179789  0.073249  0.429091  1
  H  H8  1  0.358706  0.767089  0.137852  1
  H  H9  1  0.504442  0.615848  0.761223  1
