# generated using pymatgen
data_Er3Al12(CoOs)2
_symmetry_space_group_name_H-M   'P 1'
_cell_length_a   8.72259319
_cell_length_b   8.72259289
_cell_length_c   9.38180329
_cell_angle_alpha   90.34004133
_cell_angle_beta   89.65995769
_cell_angle_gamma   120.26367345
_symmetry_Int_Tables_number   1
_chemical_formula_structural   Er3Al12(CoOs)2
_chemical_formula_sum   'Er6 Al24 Co4 Os4'
_cell_volume   616.50693214
_cell_formula_units_Z   2
loop_
 _symmetry_equiv_pos_site_id
 _symmetry_equiv_pos_as_xyz
  1  'x, y, z'
loop_
 _atom_site_type_symbol
 _atom_site_label
 _atom_site_symmetry_multiplicity
 _atom_site_fract_x
 _atom_site_fract_y
 _atom_site_fract_z
 _atom_site_occupancy
  Er  Er0  1  0.199787  0.390761  0.248417  1
  Er  Er1  1  0.800213  0.609239  0.751583  1
  Er  Er2  1  0.609239  0.800213  0.248417  1
  Er  Er3  1  0.390761  0.199787  0.751583  1
  Er  Er4  1  0.194694  0.805306  0.251810  1
  Er  Er5  1  0.805306  0.194694  0.748190  1
  Al  Al6  1  0.329933  0.670067  0.018699  1
  Al  Al7  1  0.670067  0.329933  0.981301  1
  Al  Al8  1  0.666757  0.333243  0.515526  1
  Al  Al9  1  0.333243  0.666757  0.484474  1
  Al  Al10  1  0.158774  0.319723  0.576020  1
  Al  Al11  1  0.841226  0.680277  0.423980  1
  Al  Al12  1  0.680277  0.841226  0.576020  1
  Al  Al13  1  0.840905  0.676204  0.074713  1
  Al  Al14  1  0.319723  0.158774  0.423980  1
  Al  Al15  1  0.159095  0.323796  0.925287  1
  Al  Al16  1  0.159439  0.840561  0.578638  1
  Al  Al17  1  0.323796  0.159095  0.074713  1
  Al  Al18  1  0.840561  0.159439  0.421362  1
  Al  Al19  1  0.676204  0.840905  0.925287  1
  Al  Al20  1  0.839274  0.160726  0.073726  1
  Al  Al21  1  0.160726  0.839274  0.926274  1
  Al  Al22  1  0.560766  0.117922  0.242769  1
  Al  Al23  1  0.439234  0.882078  0.757231  1
  Al  Al24  1  0.882078  0.439234  0.242769  1
  Al  Al25  1  0.117922  0.560766  0.757231  1
  Al  Al26  1  0.564023  0.435977  0.247917  1
  Al  Al27  1  0.435977  0.564023  0.752083  1
  Al  Al28  1  0.000787  0.999213  0.250243  1
  Al  Al29  1  0.999213  0.000787  0.749757  1
  Co  Co30  1  0.500000  0.000000  0.000000  1
  Co  Co31  1  0.000000  0.500000  0.000000  1
  Co  Co32  1  0.000000  0.000000  0.000000  1
  Co  Co33  1  0.000000  0.000000  0.500000  1
  Os  Os34  1  0.500000  0.000000  0.500000  1
  Os  Os35  1  0.500000  0.500000  0.000000  1
  Os  Os36  1  0.000000  0.500000  0.500000  1
  Os  Os37  1  0.500000  0.500000  0.500000  1
