# generated using pymatgen
data_LaMgZn2In
_symmetry_space_group_name_H-M   'P 1'
_cell_length_a   4.45731214
_cell_length_b   4.45731177
_cell_length_c   6.57132303
_cell_angle_alpha   70.17497802
_cell_angle_beta   70.17498709
_cell_angle_gamma   90.00000215
_symmetry_Int_Tables_number   1
_chemical_formula_structural   LaMgZn2In
_chemical_formula_sum   'La1 Mg1 Zn2 In1'
_cell_volume   114.55971229
_cell_formula_units_Z   1
loop_
 _symmetry_equiv_pos_site_id
 _symmetry_equiv_pos_as_xyz
  1  'x, y, z'
loop_
 _atom_site_type_symbol
 _atom_site_label
 _atom_site_symmetry_multiplicity
 _atom_site_fract_x
 _atom_site_fract_y
 _atom_site_fract_z
 _atom_site_occupancy
  La  La0  1  0.000000  0.000000  0.000000  1
  Mg  Mg1  1  0.750000  0.250000  0.500000  1
  Zn  Zn2  1  0.393799  0.393799  0.212402  1
  Zn  Zn3  1  0.606201  0.606201  0.787598  1
  In  In4  1  0.250000  0.750000  0.500000  1
