# generated using pymatgen
data_La2Co12As7
_symmetry_space_group_name_H-M   'P 1'
_cell_length_a   9.44027700
_cell_length_b   9.44027788
_cell_length_c   3.82002400
_cell_angle_alpha   90.00000000
_cell_angle_beta   90.00000000
_cell_angle_gamma   119.99999343
_symmetry_Int_Tables_number   1
_chemical_formula_structural   La2Co12As7
_chemical_formula_sum   'La2 Co12 As7'
_cell_volume   294.82633082
_cell_formula_units_Z   1
loop_
 _symmetry_equiv_pos_site_id
 _symmetry_equiv_pos_as_xyz
  1  'x, y, z'
loop_
 _atom_site_type_symbol
 _atom_site_label
 _atom_site_symmetry_multiplicity
 _atom_site_fract_x
 _atom_site_fract_y
 _atom_site_fract_z
 _atom_site_occupancy
  La  La0  1  0.666667  0.333333  0.000000  1
  La  La1  1  0.333333  0.666667  0.500000  1
  Co  Co2  1  0.057263  0.624416  0.000000  1
  Co  Co3  1  0.567153  0.942737  0.000000  1
  Co  Co4  1  0.375584  0.432847  0.000000  1
  Co  Co5  1  0.274734  0.125146  0.000000  1
  Co  Co6  1  0.850413  0.725266  0.000000  1
  Co  Co7  1  0.874854  0.149587  0.000000  1
  Co  Co8  1  0.427189  0.051231  0.500000  1
  Co  Co9  1  0.624041  0.572811  0.500000  1
  Co  Co10  1  0.948769  0.375959  0.500000  1
  Co  Co11  1  0.100127  0.881356  0.500000  1
  Co  Co12  1  0.781230  0.899873  0.500000  1
  Co  Co13  1  0.118644  0.218770  0.500000  1
  As  As14  1  0.292708  0.891594  0.000000  1
  As  As15  1  0.598887  0.707292  0.000000  1
  As  As16  1  0.108406  0.401113  0.000000  1
  As  As17  1  0.398880  0.295114  0.500000  1
  As  As18  1  0.896234  0.601120  0.500000  1
  As  As19  1  0.704886  0.103766  0.500000  1
  As  As20  1  0.000000  0.000000  0.000000  1
