# generated using pymatgen
data_Yb3(LuSn2)2
_symmetry_space_group_name_H-M   'P 1'
_cell_length_a   7.78432105
_cell_length_b   8.37647692
_cell_length_c   15.88892089
_cell_angle_alpha   90.01644889
_cell_angle_beta   90.03450526
_cell_angle_gamma   90.15889720
_symmetry_Int_Tables_number   1
_chemical_formula_structural   Yb3(LuSn2)2
_chemical_formula_sum   'Yb12 Lu8 Sn16'
_cell_volume   1036.03581955
_cell_formula_units_Z   4
loop_
 _symmetry_equiv_pos_site_id
 _symmetry_equiv_pos_as_xyz
  1  'x, y, z'
loop_
 _atom_site_type_symbol
 _atom_site_label
 _atom_site_symmetry_multiplicity
 _atom_site_fract_x
 _atom_site_fract_y
 _atom_site_fract_z
 _atom_site_occupancy
  Yb  Yb0  1  0.176939  0.334032  0.620548  1
  Yb  Yb1  1  0.500910  0.686530  0.593245  1
  Yb  Yb2  1  0.001358  0.814571  0.909139  1
  Yb  Yb3  1  0.495842  0.312714  0.092141  1
  Yb  Yb4  1  0.998707  0.188088  0.407009  1
  Yb  Yb5  1  0.496595  0.313005  0.407927  1
  Yb  Yb6  1  0.997637  0.186866  0.092287  1
  Yb  Yb7  1  0.501123  0.686652  0.907693  1
  Yb  Yb8  1  0.002878  0.813550  0.591589  1
  Yb  Yb9  1  0.333426  0.991386  0.749565  1
  Yb  Yb10  1  0.165111  0.489142  0.249290  1
  Yb  Yb11  1  0.666571  0.010175  0.250508  1
  Lu  Lu12  1  0.672586  0.163986  0.622446  1
  Lu  Lu13  1  0.173174  0.333993  0.878762  1
  Lu  Lu14  1  0.326786  0.834215  0.121677  1
  Lu  Lu15  1  0.828119  0.664359  0.377517  1
  Lu  Lu16  1  0.326828  0.834754  0.377169  1
  Lu  Lu17  1  0.826994  0.664801  0.121242  1
  Lu  Lu18  1  0.672164  0.163613  0.879183  1
  Lu  Lu19  1  0.837917  0.507804  0.748740  1
  Sn  Sn20  1  0.675446  0.961492  0.459677  1
  Sn  Sn21  1  0.170808  0.537337  0.040178  1
  Sn  Sn22  1  0.327369  0.037092  0.959463  1
  Sn  Sn23  1  0.823395  0.466243  0.542752  1
  Sn  Sn24  1  0.336180  0.034045  0.540059  1
  Sn  Sn25  1  0.827279  0.465091  0.955789  1
  Sn  Sn26  1  0.671956  0.962196  0.041157  1
  Sn  Sn27  1  0.167942  0.539250  0.456762  1
  Sn  Sn28  1  0.477338  0.379901  0.754120  1
  Sn  Sn29  1  0.966510  0.129438  0.751379  1
  Sn  Sn30  1  0.529943  0.630340  0.249511  1
  Sn  Sn31  1  0.029641  0.869445  0.248261  1
  Sn  Sn32  1  0.719075  0.865519  0.751515  1
  Sn  Sn33  1  0.209977  0.628187  0.753505  1
  Sn  Sn34  1  0.283928  0.126415  0.249201  1
  Sn  Sn35  1  0.781548  0.373775  0.248993  1
