# generated using pymatgen
data_Li6SiSeO8
_symmetry_space_group_name_H-M   'P 1'
_cell_length_a   5.31033243
_cell_length_b   5.31033215
_cell_length_c   6.27571700
_cell_angle_alpha   90.00000000
_cell_angle_beta   90.00000000
_cell_angle_gamma   91.18643505
_symmetry_Int_Tables_number   1
_chemical_formula_structural   Li6SiSeO8
_chemical_formula_sum   'Li6 Si1 Se1 O8'
_cell_volume   176.93495090
_cell_formula_units_Z   1
loop_
 _symmetry_equiv_pos_site_id
 _symmetry_equiv_pos_as_xyz
  1  'x, y, z'
loop_
 _atom_site_type_symbol
 _atom_site_label
 _atom_site_symmetry_multiplicity
 _atom_site_fract_x
 _atom_site_fract_y
 _atom_site_fract_z
 _atom_site_occupancy
  Li  Li0  1  0.804534  0.165780  0.726986  1
  Li  Li1  1  0.165780  0.804534  0.273014  1
  Li  Li2  1  0.165794  0.804495  0.726985  1
  Li  Li3  1  0.804495  0.165794  0.273015  1
  Li  Li4  1  0.712352  0.712352  0.000000  1
  Li  Li5  1  0.338485  0.338485  0.500000  1
  Si  Si6  1  0.676516  0.676516  0.500000  1
  Se  Se7  1  0.328064  0.328064  0.000000  1
  O  O8  1  0.804579  0.804580  0.716174  1
  O  O9  1  0.197565  0.197569  0.217684  1
  O  O10  1  0.197569  0.197565  0.782316  1
  O  O11  1  0.804580  0.804579  0.283826  1
  O  O12  1  0.640370  0.286420  0.000003  1
  O  O13  1  0.366027  0.706869  0.499990  1
  O  O14  1  0.706869  0.366027  0.500010  1
  O  O15  1  0.286420  0.640370  0.999997  1
