# generated using pymatgen
data_Nd3Th(HgPd2)2
_symmetry_space_group_name_H-M   'P 1'
_cell_length_a   7.90111247
_cell_length_b   7.90111163
_cell_length_c   3.85240100
_cell_angle_alpha   90.00000000
_cell_angle_beta   90.00000000
_cell_angle_gamma   91.16134061
_symmetry_Int_Tables_number   1
_chemical_formula_structural   Nd3Th(HgPd2)2
_chemical_formula_sum   'Nd3 Th1 Hg2 Pd4'
_cell_volume   240.44663817
_cell_formula_units_Z   1
loop_
 _symmetry_equiv_pos_site_id
 _symmetry_equiv_pos_as_xyz
  1  'x, y, z'
loop_
 _atom_site_type_symbol
 _atom_site_label
 _atom_site_symmetry_multiplicity
 _atom_site_fract_x
 _atom_site_fract_y
 _atom_site_fract_z
 _atom_site_occupancy
  Nd  Nd0  1  0.323317  0.823317  0.500000  1
  Nd  Nd1  1  0.176259  0.325754  0.500000  1
  Nd  Nd2  1  0.825754  0.676259  0.500000  1
  Th  Th3  1  0.673520  0.173520  0.500000  1
  Hg  Hg4  1  0.004497  0.998818  0.000000  1
  Hg  Hg5  1  0.498818  0.504497  0.000000  1
  Pd  Pd6  1  0.120213  0.620213  0.000000  1
  Pd  Pd7  1  0.866013  0.366013  0.000000  1
  Pd  Pd8  1  0.629323  0.882287  0.000000  1
  Pd  Pd9  1  0.382287  0.129323  0.000000  1
