# generated using pymatgen
data_Y16In4PdRu3
_symmetry_space_group_name_H-M   'P 1'
_cell_length_a   9.70594053
_cell_length_b   9.70584398
_cell_length_c   9.70584400
_cell_angle_alpha   59.99999992
_cell_angle_beta   60.00032899
_cell_angle_gamma   60.00032830
_symmetry_Int_Tables_number   1
_chemical_formula_structural   Y16In4PdRu3
_chemical_formula_sum   'Y16 In4 Pd1 Ru3'
_cell_volume   646.53404321
_cell_formula_units_Z   1
loop_
 _symmetry_equiv_pos_site_id
 _symmetry_equiv_pos_as_xyz
  1  'x, y, z'
loop_
 _atom_site_type_symbol
 _atom_site_label
 _atom_site_symmetry_multiplicity
 _atom_site_fract_x
 _atom_site_fract_y
 _atom_site_fract_z
 _atom_site_occupancy
  Y  Y0  1  0.442117  0.435223  0.061330  1
  Y  Y1  1  0.653669  0.647098  0.052138  1
  Y  Y2  1  0.183355  0.809428  0.197789  1
  Y  Y3  1  0.060774  0.439897  0.059433  1
  Y  Y4  1  0.183355  0.809428  0.809428  1
  Y  Y5  1  0.060774  0.439897  0.439897  1
  Y  Y6  1  0.810341  0.190040  0.190040  1
  Y  Y7  1  0.653669  0.647098  0.647098  1
  Y  Y8  1  0.810341  0.190040  0.809580  1
  Y  Y9  1  0.183355  0.197789  0.809428  1
  Y  Y10  1  0.047619  0.650794  0.650794  1
  Y  Y11  1  0.442117  0.061330  0.061330  1
  Y  Y12  1  0.060774  0.059433  0.439897  1
  Y  Y13  1  0.653669  0.052138  0.647098  1
  Y  Y14  1  0.810341  0.809580  0.190040  1
  Y  Y15  1  0.442117  0.061330  0.435223  1
  In  In16  1  0.417210  0.417330  0.417330  1
  In  In17  1  0.417210  0.417330  0.748132  1
  In  In18  1  0.417210  0.748132  0.417330  1
  In  In19  1  0.750159  0.416614  0.416614  1
  Pd  Pd20  1  0.427601  0.857466  0.857466  1
  Ru  Ru21  1  0.857409  0.858480  0.858480  1
  Ru  Ru22  1  0.857409  0.425629  0.858480  1
  Ru  Ru23  1  0.857409  0.858480  0.425629  1
