# generated using pymatgen
data_Tb3HoAl18CrPd5
_symmetry_space_group_name_H-M   'P 1'
_cell_length_a   7.61714963
_cell_length_b   7.61814262
_cell_length_c   9.51425305
_cell_angle_alpha   89.77825108
_cell_angle_beta   89.76141641
_cell_angle_gamma   119.11171498
_symmetry_Int_Tables_number   1
_chemical_formula_structural   Tb3HoAl18CrPd5
_chemical_formula_sum   'Tb3 Ho1 Al18 Cr1 Pd5'
_cell_volume   482.33794253
_cell_formula_units_Z   1
loop_
 _symmetry_equiv_pos_site_id
 _symmetry_equiv_pos_as_xyz
  1  'x, y, z'
loop_
 _atom_site_type_symbol
 _atom_site_label
 _atom_site_symmetry_multiplicity
 _atom_site_fract_x
 _atom_site_fract_y
 _atom_site_fract_z
 _atom_site_occupancy
  Tb  Tb0  1  0.994778  0.673830  0.247956  1
  Tb  Tb1  1  0.005309  0.326151  0.752013  1
  Tb  Tb2  1  0.673775  0.994718  0.247990  1
  Ho  Ho3  1  0.325938  0.005258  0.752222  1
  Al  Al4  1  0.128356  0.128328  0.243804  1
  Al  Al5  1  0.871980  0.871785  0.756171  1
  Al  Al6  1  0.001335  0.328498  0.073864  1
  Al  Al7  1  0.998988  0.671801  0.925925  1
  Al  Al8  1  0.998614  0.663279  0.578387  1
  Al  Al9  1  0.336913  0.001584  0.421969  1
  Al  Al10  1  0.001605  0.336951  0.421776  1
  Al  Al11  1  0.662803  0.998391  0.578402  1
  Al  Al12  1  0.671252  0.998679  0.925969  1
  Al  Al13  1  0.328517  0.001325  0.073603  1
  Al  Al14  1  0.333541  0.333321  0.555280  1
  Al  Al15  1  0.666462  0.666463  0.444963  1
  Al  Al16  1  0.673152  0.673151  0.050131  1
  Al  Al17  1  0.326865  0.326594  0.949624  1
  Al  Al18  1  0.341145  0.548147  0.249329  1
  Al  Al19  1  0.658661  0.451574  0.750660  1
  Al  Al20  1  0.548126  0.341100  0.249337  1
  Al  Al21  1  0.451749  0.659010  0.750655  1
  Cr  Cr22  1  0.000187  0.000029  0.999848  1
  Pd  Pd23  1  0.672759  0.327131  0.999935  1
  Pd  Pd24  1  0.327182  0.672884  0.999929  1
  Pd  Pd25  1  0.327838  0.672258  0.500072  1
  Pd  Pd26  1  0.672074  0.327756  0.500076  1
  Pd  Pd27  1  0.000096  0.000005  0.500109  1
