# generated using pymatgen
data_Lu12Ni4HgOs
_symmetry_space_group_name_H-M   'P 1'
_cell_length_a   8.09298101
_cell_length_b   8.09229559
_cell_length_c   8.09298250
_cell_angle_alpha   111.42149597
_cell_angle_beta   110.03860713
_cell_angle_gamma   106.98829702
_symmetry_Int_Tables_number   1
_chemical_formula_structural   Lu12Ni4HgOs
_chemical_formula_sum   'Lu12 Ni4 Hg1 Os1'
_cell_volume   407.35512848
_cell_formula_units_Z   1
loop_
 _symmetry_equiv_pos_site_id
 _symmetry_equiv_pos_as_xyz
  1  'x, y, z'
loop_
 _atom_site_type_symbol
 _atom_site_label
 _atom_site_symmetry_multiplicity
 _atom_site_fract_x
 _atom_site_fract_y
 _atom_site_fract_z
 _atom_site_occupancy
  Lu  Lu0  1  0.675096  0.871203  0.196108  1
  Lu  Lu1  1  0.324917  0.521105  0.196187  1
  Lu  Lu2  1  0.821407  0.777081  0.598471  1
  Lu  Lu3  1  0.178610  0.777081  0.955674  1
  Lu  Lu4  1  0.821390  0.222919  0.044326  1
  Lu  Lu5  1  0.178593  0.222919  0.401529  1
  Lu  Lu6  1  0.675083  0.478895  0.803813  1
  Lu  Lu7  1  0.324904  0.128797  0.803892  1
  Lu  Lu8  1  0.581377  0.271204  0.310188  1
  Lu  Lu9  1  0.418623  0.728796  0.689812  1
  Lu  Lu10  1  0.038982  0.728796  0.310171  1
  Lu  Lu11  1  0.961018  0.271204  0.689829  1
  Ni  Ni12  1  0.352348  0.500000  0.852348  1
  Ni  Ni13  1  0.647652  0.500000  0.147652  1
  Ni  Ni14  1  0.879624  0.879612  0.999988  1
  Ni  Ni15  1  0.120376  0.120388  0.000012  1
  Hg  Hg16  1  0.500000  0.000000  0.500000  1
  Os  Os17  1  0.000000  0.500000  0.500000  1
