# generated using pymatgen
data_ScZn4Rh
_symmetry_space_group_name_H-M   'P 1'
_cell_length_a   5.02125800
_cell_length_b   5.02125801
_cell_length_c   8.20388800
_cell_angle_alpha   90.00000000
_cell_angle_beta   90.00000000
_cell_angle_gamma   119.99999993
_symmetry_Int_Tables_number   1
_chemical_formula_structural   ScZn4Rh
_chemical_formula_sum   'Sc2 Zn8 Rh2'
_cell_volume   179.13292981
_cell_formula_units_Z   2
loop_
 _symmetry_equiv_pos_site_id
 _symmetry_equiv_pos_as_xyz
  1  'x, y, z'
loop_
 _atom_site_type_symbol
 _atom_site_label
 _atom_site_symmetry_multiplicity
 _atom_site_fract_x
 _atom_site_fract_y
 _atom_site_fract_z
 _atom_site_occupancy
  Sc  Sc0  1  0.666667  0.333333  0.434545  1
  Sc  Sc1  1  0.333333  0.666667  0.934545  1
  Zn  Zn2  1  0.000000  0.000000  0.000547  1
  Zn  Zn3  1  0.000000  0.000000  0.500547  1
  Zn  Zn4  1  0.170707  0.341413  0.248316  1
  Zn  Zn5  1  0.829293  0.170707  0.748316  1
  Zn  Zn6  1  0.341413  0.170707  0.748316  1
  Zn  Zn7  1  0.658587  0.829293  0.248316  1
  Zn  Zn8  1  0.170707  0.829293  0.248316  1
  Zn  Zn9  1  0.829293  0.658587  0.748316  1
  Rh  Rh10  1  0.333333  0.666667  0.569961  1
  Rh  Rh11  1  0.666667  0.333333  0.069961  1
