# generated using pymatgen
data_Li4ZnN2
_symmetry_space_group_name_H-M   'P 1'
_cell_length_a   3.63961543
_cell_length_b   3.64388283
_cell_length_c   6.75688477
_cell_angle_alpha   74.20051970
_cell_angle_beta   74.03699760
_cell_angle_gamma   59.88370516
_symmetry_Int_Tables_number   1
_chemical_formula_structural   Li4ZnN2
_chemical_formula_sum   'Li4 Zn1 N2'
_cell_volume   73.54832380
_cell_formula_units_Z   1
loop_
 _symmetry_equiv_pos_site_id
 _symmetry_equiv_pos_as_xyz
  1  'x, y, z'
loop_
 _atom_site_type_symbol
 _atom_site_label
 _atom_site_symmetry_multiplicity
 _atom_site_fract_x
 _atom_site_fract_y
 _atom_site_fract_z
 _atom_site_occupancy
  Li  Li0  1  0.805047  0.859547  0.768594  1
  Li  Li1  1  0.186658  0.239692  0.628271  1
  Li  Li2  1  0.977330  0.022084  0.279149  1
  Li  Li3  1  0.596410  0.641977  0.419269  1
  Zn  Zn4  1  0.391643  0.440906  0.023800  1
  N  N5  1  0.482064  0.538002  0.734755  1
  N  N6  1  0.300638  0.343584  0.312858  1
