# generated using pymatgen
data_K3Rb5Fe8P8(O7F2)4
_symmetry_space_group_name_H-M   'P 1'
_cell_length_a   6.94419900
_cell_length_b   10.57902200
_cell_length_c   11.41415900
_cell_angle_alpha   90.00000000
_cell_angle_beta   90.00000000
_cell_angle_gamma   90.00000000
_symmetry_Int_Tables_number   1
_chemical_formula_structural   K3Rb5Fe8P8(O7F2)4
_chemical_formula_sum   'K3 Rb5 Fe8 P8 O28 F8'
_cell_volume   838.51646779
_cell_formula_units_Z   1
loop_
 _symmetry_equiv_pos_site_id
 _symmetry_equiv_pos_as_xyz
  1  'x, y, z'
loop_
 _atom_site_type_symbol
 _atom_site_label
 _atom_site_symmetry_multiplicity
 _atom_site_fract_x
 _atom_site_fract_y
 _atom_site_fract_z
 _atom_site_occupancy
  K  K0  1  0.000854  0.434208  0.325844  1
  K  K1  1  0.998701  0.066561  0.326831  1
  K  K2  1  0.500881  0.565021  0.174411  1
  Rb  Rb3  1  0.498676  0.069152  0.829725  1
  Rb  Rb4  1  0.001677  0.568204  0.669852  1
  Rb  Rb5  1  0.998796  0.931339  0.669490  1
  Rb  Rb6  1  0.501175  0.431072  0.830179  1
  Rb  Rb7  1  0.503231  0.932124  0.171254  1
  Fe  Fe8  1  0.999824  0.250373  0.836047  1
  Fe  Fe9  1  0.500070  0.749862  0.663406  1
  Fe  Fe10  1  0.001632  0.748802  0.163836  1
  Fe  Fe11  1  0.499962  0.251070  0.336361  1
  Fe  Fe12  1  0.999421  0.000438  0.001887  1
  Fe  Fe13  1  0.501081  0.500192  0.497460  1
  Fe  Fe14  1  0.498481  0.000030  0.497643  1
  Fe  Fe15  1  0.000628  0.499640  0.002456  1
  P  P16  1  0.217269  0.248474  0.577139  1
  P  P17  1  0.282124  0.746840  0.921585  1
  P  P18  1  0.717406  0.750968  0.922736  1
  P  P19  1  0.783107  0.251837  0.576565  1
  P  P20  1  0.781090  0.752153  0.418477  1
  P  P21  1  0.718532  0.252867  0.082203  1
  P  P22  1  0.280271  0.249054  0.082099  1
  P  P23  1  0.217641  0.746850  0.418919  1
  O  O24  1  0.000356  0.249938  0.518030  1
  O  O25  1  0.499440  0.745855  0.979633  1
  O  O26  1  0.999196  0.748669  0.474821  1
  O  O27  1  0.499493  0.249385  0.027137  1
  O  O28  1  0.174268  0.329101  0.989520  1
  O  O29  1  0.325966  0.827126  0.510311  1
  O  O30  1  0.672244  0.672430  0.510019  1
  O  O31  1  0.826033  0.172988  0.990126  1
  O  O32  1  0.826554  0.670176  0.013480  1
  O  O33  1  0.673987  0.170416  0.486322  1
  O  O34  1  0.326518  0.329805  0.486917  1
  O  O35  1  0.174100  0.828773  0.011800  1
  O  O36  1  0.280881  0.110063  0.580651  1
  O  O37  1  0.217117  0.608761  0.918998  1
  O  O38  1  0.778267  0.890099  0.922202  1
  O  O39  1  0.719889  0.390352  0.579025  1
  O  O40  1  0.721352  0.891562  0.416328  1
  O  O41  1  0.778344  0.392232  0.084207  1
  O  O42  1  0.216635  0.110671  0.084597  1
  O  O43  1  0.278834  0.607809  0.416035  1
  O  O44  1  0.201697  0.307534  0.698962  1
  O  O45  1  0.297516  0.806068  0.799885  1
  O  O46  1  0.705279  0.693583  0.800166  1
  O  O47  1  0.797768  0.193204  0.698625  1
  O  O48  1  0.791585  0.692005  0.296852  1
  O  O49  1  0.709428  0.193086  0.204008  1
  O  O50  1  0.291601  0.309851  0.203353  1
  O  O51  1  0.205339  0.807340  0.297819  1
  F  F52  1  0.109201  0.076608  0.847026  1
  F  F53  1  0.390886  0.576031  0.652831  1
  F  F54  1  0.609295  0.923849  0.652528  1
  F  F55  1  0.889717  0.423645  0.847246  1
  F  F56  1  0.894985  0.924875  0.158107  1
  F  F57  1  0.617741  0.424611  0.342883  1
  F  F58  1  0.378027  0.079144  0.346137  1
  F  F59  1  0.117934  0.575226  0.157008  1
