# generated using pymatgen
data_Pr4Hf3VF28
_symmetry_space_group_name_H-M   'P 1'
_cell_length_a   5.79440405
_cell_length_b   9.32287917
_cell_length_c   12.45834032
_cell_angle_alpha   62.13603680
_cell_angle_beta   90.04013045
_cell_angle_gamma   89.95362726
_symmetry_Int_Tables_number   1
_chemical_formula_structural   Pr4Hf3VF28
_chemical_formula_sum   'Pr4 Hf3 V1 F28'
_cell_volume   594.97700447
_cell_formula_units_Z   1
loop_
 _symmetry_equiv_pos_site_id
 _symmetry_equiv_pos_as_xyz
  1  'x, y, z'
loop_
 _atom_site_type_symbol
 _atom_site_label
 _atom_site_symmetry_multiplicity
 _atom_site_fract_x
 _atom_site_fract_y
 _atom_site_fract_z
 _atom_site_occupancy
  Pr  Pr0  1  0.758139  0.812703  0.765037  1
  Pr  Pr1  1  0.256928  0.190221  0.727915  1
  Pr  Pr2  1  0.242325  0.191005  0.240239  1
  Pr  Pr3  1  0.742464  0.813161  0.265700  1
  Hf  Hf4  1  0.754659  0.274063  0.956726  1
  Hf  Hf5  1  0.254491  0.725703  0.542483  1
  Hf  Hf6  1  0.245636  0.727051  0.042997  1
  V  V7  1  0.743888  0.275037  0.455939  1
  F  F8  1  0.453184  0.709822  0.921072  1
  F  F9  1  0.938049  0.286446  0.575166  1
  F  F10  1  0.543962  0.287842  0.079274  1
  F  F11  1  0.048034  0.710197  0.419456  1
  F  F12  1  0.471449  0.281411  0.541209  1
  F  F13  1  0.958187  0.718245  0.954535  1
  F  F14  1  0.541962  0.714195  0.455480  1
  F  F15  1  0.037284  0.280753  0.049141  1
  F  F16  1  0.769455  0.516960  0.861723  1
  F  F17  1  0.265521  0.483450  0.636892  1
  F  F18  1  0.229369  0.484662  0.139690  1
  F  F19  1  0.734947  0.498161  0.368774  1
  F  F20  1  0.759995  0.031364  0.055389  1
  F  F21  1  0.263555  0.967698  0.447745  1
  F  F22  1  0.238504  0.968178  0.942360  1
  F  F23  1  0.740214  0.051823  0.545341  1
  F  F24  1  0.977753  0.734068  0.636157  1
  F  F25  1  0.484464  0.268067  0.857791  1
  F  F26  1  0.007640  0.268206  0.367727  1
  F  F27  1  0.519678  0.729177  0.141179  1
  F  F28  1  0.046002  0.744188  0.169074  1
  F  F29  1  0.553889  0.258353  0.336267  1
  F  F30  1  0.959036  0.255804  0.832320  1
  F  F31  1  0.455537  0.744724  0.667480  1
  F  F32  1  0.412284  0.969321  0.234596  1
  F  F33  1  0.914354  0.030641  0.271352  1
  F  F34  1  0.586656  0.031261  0.768223  1
  F  F35  1  0.090503  0.966037  0.727555  1
