# generated using pymatgen
data_Ca4TbPrU2O12
_symmetry_space_group_name_H-M   'P 1'
_cell_length_a   6.87147630
_cell_length_b   6.85630760
_cell_length_c   6.82621955
_cell_angle_alpha   91.63228021
_cell_angle_beta   91.59576397
_cell_angle_gamma   91.16440916
_symmetry_Int_Tables_number   1
_chemical_formula_structural   Ca4TbPrU2O12
_chemical_formula_sum   'Ca4 Tb1 Pr1 U2 O12'
_cell_volume   321.27644825
_cell_formula_units_Z   1
loop_
 _symmetry_equiv_pos_site_id
 _symmetry_equiv_pos_as_xyz
  1  'x, y, z'
loop_
 _atom_site_type_symbol
 _atom_site_label
 _atom_site_symmetry_multiplicity
 _atom_site_fract_x
 _atom_site_fract_y
 _atom_site_fract_z
 _atom_site_occupancy
  Ca  Ca0  1  0.551669  0.251777  0.057847  1
  Ca  Ca1  1  0.251707  0.060796  0.557862  1
  Ca  Ca2  1  0.064228  0.554279  0.249677  1
  Ca  Ca3  1  0.444075  0.749635  0.941827  1
  Tb  Tb4  1  0.938118  0.443345  0.750136  1
  Pr  Pr5  1  0.748283  0.938365  0.441612  1
  U  U6  1  0.003202  0.999929  0.998612  1
  U  U7  1  0.494410  0.497328  0.501620  1
  O  O8  1  0.294569  0.061021  0.924292  1
  O  O9  1  0.065493  0.920117  0.298479  1
  O  O10  1  0.928404  0.301295  0.056833  1
  O  O11  1  0.706515  0.938649  0.080201  1
  O  O12  1  0.934128  0.094602  0.695560  1
  O  O13  1  0.070000  0.695645  0.925692  1
  O  O14  1  0.194149  0.410600  0.548059  1
  O  O15  1  0.411362  0.542114  0.205118  1
  O  O16  1  0.462924  0.798270  0.592262  1
  O  O17  1  0.600124  0.456890  0.797086  1
  O  O18  1  0.803081  0.586848  0.469598  1
  O  O19  1  0.533561  0.198499  0.407626  1
