# generated using pymatgen
data_Zr3V3Tc2W
_symmetry_space_group_name_H-M   'P 1'
_cell_length_a   5.23290502
_cell_length_b   5.27529982
_cell_length_c   12.92717446
_cell_angle_alpha   90.40849157
_cell_angle_beta   89.27809149
_cell_angle_gamma   119.54904803
_symmetry_Int_Tables_number   1
_chemical_formula_structural   Zr3V3Tc2W
_chemical_formula_sum   'Zr6 V6 Tc4 W2'
_cell_volume   310.41672999
_cell_formula_units_Z   2
loop_
 _symmetry_equiv_pos_site_id
 _symmetry_equiv_pos_as_xyz
  1  'x, y, z'
loop_
 _atom_site_type_symbol
 _atom_site_label
 _atom_site_symmetry_multiplicity
 _atom_site_fract_x
 _atom_site_fract_y
 _atom_site_fract_z
 _atom_site_occupancy
  Zr  Zr0  1  0.333759  0.663818  0.917807  1
  Zr  Zr1  1  0.001171  0.002123  0.248443  1
  Zr  Zr2  1  0.666963  0.333056  0.583136  1
  Zr  Zr3  1  0.333037  0.666944  0.666864  1
  Zr  Zr4  1  0.998829  0.997877  0.001556  1
  Zr  Zr5  1  0.666241  0.336182  0.332193  1
  V  V6  1  0.334630  0.670969  0.289614  1
  V  V7  1  0.000000  0.000000  0.625000  1
  V  V8  1  0.665370  0.329031  0.960386  1
  V  V9  1  0.000000  0.500000  0.125000  1
  V  V10  1  0.666054  0.834162  0.457886  1
  V  V11  1  0.333946  0.165838  0.792114  1
  Tc  Tc12  1  0.500000  0.500000  0.125000  1
  Tc  Tc13  1  0.166317  0.834396  0.457542  1
  Tc  Tc14  1  0.833683  0.165604  0.792458  1
  Tc  Tc15  1  0.500000  0.000000  0.125000  1
  W  W16  1  0.166968  0.335092  0.457428  1
  W  W17  1  0.833032  0.664908  0.792572  1
