# generated using pymatgen
data_Er11Tm8Lu(CoBi2)4
_symmetry_space_group_name_H-M   'P 1'
_cell_length_a   7.87060505
_cell_length_b   8.84170615
_cell_length_c   12.32386151
_cell_angle_alpha   89.98242265
_cell_angle_beta   90.01054282
_cell_angle_gamma   89.98886404
_symmetry_Int_Tables_number   1
_chemical_formula_structural   Er11Tm8Lu(CoBi2)4
_chemical_formula_sum   'Er11 Tm8 Lu1 Co4 Bi8'
_cell_volume   857.61223873
_cell_formula_units_Z   1
loop_
 _symmetry_equiv_pos_site_id
 _symmetry_equiv_pos_as_xyz
  1  'x, y, z'
loop_
 _atom_site_type_symbol
 _atom_site_label
 _atom_site_symmetry_multiplicity
 _atom_site_fract_x
 _atom_site_fract_y
 _atom_site_fract_z
 _atom_site_occupancy
  Er  Er0  1  0.346581  0.250020  0.300619  1
  Er  Er1  1  0.153471  0.250083  0.800425  1
  Er  Er2  1  0.846537  0.749986  0.199392  1
  Er  Er3  1  0.118532  0.749916  0.814150  1
  Er  Er4  1  0.880946  0.250149  0.185943  1
  Er  Er5  1  0.619003  0.249991  0.686083  1
  Er  Er6  1  0.380882  0.749993  0.313798  1
  Er  Er7  1  0.554856  0.749894  0.997203  1
  Er  Er8  1  0.445720  0.250075  0.002549  1
  Er  Er9  1  0.054717  0.250009  0.502881  1
  Er  Er10  1  0.945056  0.750024  0.497385  1
  Tm  Tm11  1  0.653370  0.749956  0.699156  1
  Tm  Tm12  1  0.172745  0.536734  0.063762  1
  Tm  Tm13  1  0.327040  0.537234  0.564066  1
  Tm  Tm14  1  0.173059  0.963267  0.063860  1
  Tm  Tm15  1  0.673032  0.463109  0.436171  1
  Tm  Tm16  1  0.827021  0.036931  0.936056  1
  Tm  Tm17  1  0.673026  0.036897  0.436184  1
  Tm  Tm18  1  0.327037  0.962767  0.564079  1
  Lu  Lu19  1  0.827809  0.463036  0.936219  1
  Co  Co20  1  0.936181  0.749738  0.993069  1
  Co  Co21  1  0.063380  0.250265  0.006781  1
  Co  Co22  1  0.436266  0.250002  0.507103  1
  Co  Co23  1  0.563759  0.749997  0.493095  1
  Bi  Bi24  1  0.932147  0.007622  0.673340  1
  Bi  Bi25  1  0.067529  0.992190  0.326764  1
  Bi  Bi26  1  0.432813  0.991878  0.826576  1
  Bi  Bi27  1  0.067533  0.507788  0.326776  1
  Bi  Bi28  1  0.567448  0.007895  0.173218  1
  Bi  Bi29  1  0.932093  0.492364  0.673417  1
  Bi  Bi30  1  0.567398  0.492102  0.173217  1
  Bi  Bi31  1  0.433012  0.508088  0.826663  1
