# generated using pymatgen
data_Er12Co4HgRh
_symmetry_space_group_name_H-M   'P 1'
_cell_length_a   8.20006639
_cell_length_b   8.20120929
_cell_length_c   8.20006810
_cell_angle_alpha   110.96660742
_cell_angle_beta   110.46677049
_cell_angle_gamma   107.00298002
_symmetry_Int_Tables_number   1
_chemical_formula_structural   Er12Co4HgRh
_chemical_formula_sum   'Er12 Co4 Hg1 Rh1'
_cell_volume   423.94647228
_cell_formula_units_Z   1
loop_
 _symmetry_equiv_pos_site_id
 _symmetry_equiv_pos_as_xyz
  1  'x, y, z'
loop_
 _atom_site_type_symbol
 _atom_site_label
 _atom_site_symmetry_multiplicity
 _atom_site_fract_x
 _atom_site_fract_y
 _atom_site_fract_z
 _atom_site_occupancy
  Er  Er0  1  0.185626  0.289366  0.475016  1
  Er  Er1  1  0.814374  0.710634  0.524984  1
  Er  Er2  1  0.185650  0.710634  0.896260  1
  Er  Er3  1  0.814350  0.289366  0.103740  1
  Er  Er4  1  0.314347  0.618474  0.304127  1
  Er  Er5  1  0.685653  0.381526  0.695873  1
  Er  Er6  1  0.314284  0.010158  0.695874  1
  Er  Er7  1  0.685716  0.989842  0.304126  1
  Er  Er8  1  0.411360  0.216149  0.195221  1
  Er  Er9  1  0.588640  0.783851  0.804779  1
  Er  Er10  1  0.020929  0.216149  0.804790  1
  Er  Er11  1  0.979071  0.783851  0.195210  1
  Co  Co12  1  0.113227  0.613229  0.500002  1
  Co  Co13  1  0.886773  0.386771  0.499998  1
  Co  Co14  1  0.377670  0.000000  0.377670  1
  Co  Co15  1  0.622330  0.000000  0.622330  1
  Hg  Hg16  1  0.500000  0.500000  0.000000  1
  Rh  Rh17  1  0.000000  0.000000  0.000000  1
