# generated using pymatgen
data_Mn(SCl6)2
_symmetry_space_group_name_H-M   'P 1'
_cell_length_a   8.34513591
_cell_length_b   8.34513630
_cell_length_c   8.34513612
_cell_angle_alpha   78.84225201
_cell_angle_beta   78.84224998
_cell_angle_gamma   78.84224215
_symmetry_Int_Tables_number   1
_chemical_formula_structural   Mn(SCl6)2
_chemical_formula_sum   'Mn1 S2 Cl12'
_cell_volume   552.00168364
_cell_formula_units_Z   1
loop_
 _symmetry_equiv_pos_site_id
 _symmetry_equiv_pos_as_xyz
  1  'x, y, z'
loop_
 _atom_site_type_symbol
 _atom_site_label
 _atom_site_symmetry_multiplicity
 _atom_site_fract_x
 _atom_site_fract_y
 _atom_site_fract_z
 _atom_site_occupancy
  Mn  Mn0  1  0.000000  0.000000  0.000000  1
  S  S1  1  0.208537  0.208537  0.208537  1
  S  S2  1  0.791463  0.791463  0.791463  1
  Cl  Cl3  1  0.835066  0.835066  0.538626  1
  Cl  Cl4  1  0.874597  0.179475  0.179475  1
  Cl  Cl5  1  0.179475  0.179475  0.874597  1
  Cl  Cl6  1  0.179475  0.874597  0.179475  1
  Cl  Cl7  1  0.820525  0.125403  0.820525  1
  Cl  Cl8  1  0.125403  0.820525  0.820525  1
  Cl  Cl9  1  0.820525  0.820525  0.125403  1
  Cl  Cl10  1  0.461374  0.164934  0.164934  1
  Cl  Cl11  1  0.164934  0.164934  0.461374  1
  Cl  Cl12  1  0.164934  0.461374  0.164934  1
  Cl  Cl13  1  0.835066  0.538626  0.835066  1
  Cl  Cl14  1  0.538626  0.835066  0.835066  1
