# generated using pymatgen
data_Ce2NdY5(Si3Pd)4
_symmetry_space_group_name_H-M   'P 1'
_cell_length_a   8.17140200
_cell_length_b   8.16749318
_cell_length_c   8.26475800
_cell_angle_alpha   90.00000000
_cell_angle_beta   90.00000000
_cell_angle_gamma   120.01581643
_symmetry_Int_Tables_number   1
_chemical_formula_structural   Ce2NdY5(Si3Pd)4
_chemical_formula_sum   'Ce2 Nd1 Y5 Si12 Pd4'
_cell_volume   477.61382785
_cell_formula_units_Z   1
loop_
 _symmetry_equiv_pos_site_id
 _symmetry_equiv_pos_as_xyz
  1  'x, y, z'
loop_
 _atom_site_type_symbol
 _atom_site_label
 _atom_site_symmetry_multiplicity
 _atom_site_fract_x
 _atom_site_fract_y
 _atom_site_fract_z
 _atom_site_occupancy
  Ce  Ce0  1  0.999965  0.999929  0.750000  1
  Ce  Ce1  1  0.000024  0.000048  0.250000  1
  Nd  Nd2  1  0.500232  0.000464  0.250000  1
  Y  Y3  1  0.499791  0.500192  0.750000  1
  Y  Y4  1  0.500190  0.499871  0.250000  1
  Y  Y5  1  0.000401  0.500192  0.750000  1
  Y  Y6  1  0.999680  0.499871  0.250000  1
  Y  Y7  1  0.499759  0.999517  0.750000  1
  Si  Si8  1  0.834985  0.166054  0.998097  1
  Si  Si9  1  0.165026  0.833938  0.998624  1
  Si  Si10  1  0.331070  0.166054  0.998097  1
  Si  Si11  1  0.165026  0.833938  0.501376  1
  Si  Si12  1  0.668912  0.833938  0.998624  1
  Si  Si13  1  0.834985  0.166054  0.501903  1
  Si  Si14  1  0.834389  0.668780  0.000410  1
  Si  Si15  1  0.668912  0.833938  0.501376  1
  Si  Si16  1  0.165602  0.331203  0.000749  1
  Si  Si17  1  0.331070  0.166054  0.501903  1
  Si  Si18  1  0.165602  0.331203  0.499251  1
  Si  Si19  1  0.834389  0.668780  0.499590  1
  Pd  Pd20  1  0.667356  0.334712  0.995294  1
  Pd  Pd21  1  0.332639  0.665278  0.996033  1
  Pd  Pd22  1  0.332639  0.665278  0.503967  1
  Pd  Pd23  1  0.667356  0.334712  0.504706  1
