# generated using pymatgen
data_Te10MoW
_symmetry_space_group_name_H-M   'P 1'
_cell_length_a   6.89456481
_cell_length_b   7.54300870
_cell_length_c   8.41553686
_cell_angle_alpha   111.66422005
_cell_angle_beta   112.71066160
_cell_angle_gamma   91.22438752
_symmetry_Int_Tables_number   1
_chemical_formula_structural   Te10MoW
_chemical_formula_sum   'Te10 Mo1 W1'
_cell_volume   368.28533872
_cell_formula_units_Z   1
loop_
 _symmetry_equiv_pos_site_id
 _symmetry_equiv_pos_as_xyz
  1  'x, y, z'
loop_
 _atom_site_type_symbol
 _atom_site_label
 _atom_site_symmetry_multiplicity
 _atom_site_fract_x
 _atom_site_fract_y
 _atom_site_fract_z
 _atom_site_occupancy
  Te  Te0  1  0.908069  0.659092  0.823191  1
  Te  Te1  1  0.126672  0.936923  0.274146  1
  Te  Te2  1  0.873035  0.063051  0.725883  1
  Te  Te3  1  0.471672  0.243944  0.928596  1
  Te  Te4  1  0.640507  0.181094  0.290303  1
  Te  Te5  1  0.359851  0.818902  0.709697  1
  Te  Te6  1  0.091323  0.340964  0.176818  1
  Te  Te7  1  0.528025  0.755994  0.071444  1
  Te  Te8  1  0.721452  0.656961  0.433854  1
  Te  Te9  1  0.279144  0.343147  0.565991  1
  Mo  Mo10  1  0.211404  0.999636  0.999951  1
  W  W11  1  0.788846  0.000292  0.000126  1
