# generated using pymatgen
data_Er6InTcNi
_symmetry_space_group_name_H-M   'P 1'
_cell_length_a   8.40147716
_cell_length_b   8.40147655
_cell_length_c   8.40147641
_cell_angle_alpha   113.71350040
_cell_angle_beta   110.93689421
_cell_angle_gamma   103.91587882
_symmetry_Int_Tables_number   1
_chemical_formula_structural   Er6InTcNi
_chemical_formula_sum   'Er12 In2 Tc2 Ni2'
_cell_volume   453.03173713
_cell_formula_units_Z   2
loop_
 _symmetry_equiv_pos_site_id
 _symmetry_equiv_pos_as_xyz
  1  'x, y, z'
loop_
 _atom_site_type_symbol
 _atom_site_label
 _atom_site_symmetry_multiplicity
 _atom_site_fract_x
 _atom_site_fract_y
 _atom_site_fract_z
 _atom_site_occupancy
  Er  Er0  1  0.440340  0.241748  0.198594  1
  Er  Er1  1  0.559660  0.758252  0.801406  1
  Er  Er2  1  0.043154  0.241748  0.801406  1
  Er  Er3  1  0.956846  0.758252  0.198594  1
  Er  Er4  1  0.183533  0.287624  0.471156  1
  Er  Er5  1  0.816467  0.712376  0.528844  1
  Er  Er6  1  0.183533  0.712376  0.895909  1
  Er  Er7  1  0.816467  0.287624  0.104091  1
  Er  Er8  1  0.332509  0.649462  0.316952  1
  Er  Er9  1  0.667491  0.350538  0.683048  1
  Er  Er10  1  0.332509  0.015556  0.683048  1
  Er  Er11  1  0.667491  0.984444  0.316952  1
  In  In12  1  0.500000  0.500000  0.000000  1
  In  In13  1  0.000000  0.000000  0.000000  1
  Tc  Tc14  1  0.322623  0.000000  0.322623  1
  Tc  Tc15  1  0.677377  0.000000  0.677377  1
  Ni  Ni16  1  0.117450  0.617450  0.500000  1
  Ni  Ni17  1  0.882550  0.382550  0.500000  1
