# generated using pymatgen
data_YTm5Rh18
_symmetry_space_group_name_H-M   'P 1'
_cell_length_a   5.23581600
_cell_length_b   5.23581666
_cell_length_c   17.53708000
_cell_angle_alpha   90.00000000
_cell_angle_beta   90.00000000
_cell_angle_gamma   119.99998322
_symmetry_Int_Tables_number   1
_chemical_formula_structural   YTm5Rh18
_chemical_formula_sum   'Y1 Tm5 Rh18'
_cell_volume   416.34829882
_cell_formula_units_Z   1
loop_
 _symmetry_equiv_pos_site_id
 _symmetry_equiv_pos_as_xyz
  1  'x, y, z'
loop_
 _atom_site_type_symbol
 _atom_site_label
 _atom_site_symmetry_multiplicity
 _atom_site_fract_x
 _atom_site_fract_y
 _atom_site_fract_z
 _atom_site_occupancy
  Y  Y0  1  0.666667  0.333333  0.250000  1
  Tm  Tm1  1  0.333333  0.666667  0.957966  1
  Tm  Tm2  1  0.666667  0.333333  0.041782  1
  Tm  Tm3  1  0.666667  0.333333  0.458218  1
  Tm  Tm4  1  0.333333  0.666667  0.542034  1
  Tm  Tm5  1  0.333333  0.666667  0.750000  1
  Rh  Rh6  1  0.167374  0.832626  0.375304  1
  Rh  Rh7  1  0.167374  0.334748  0.375304  1
  Rh  Rh8  1  0.665252  0.832626  0.375304  1
  Rh  Rh9  1  0.832649  0.167351  0.625012  1
  Rh  Rh10  1  0.832649  0.665297  0.625012  1
  Rh  Rh11  1  0.334703  0.167351  0.625012  1
  Rh  Rh12  1  0.832649  0.167351  0.874988  1
  Rh  Rh13  1  0.832649  0.665297  0.874988  1
  Rh  Rh14  1  0.334703  0.167351  0.874988  1
  Rh  Rh15  1  0.167374  0.832626  0.124696  1
  Rh  Rh16  1  0.167374  0.334748  0.124696  1
  Rh  Rh17  1  0.665252  0.832626  0.124696  1
  Rh  Rh18  1  0.333333  0.666667  0.250000  1
  Rh  Rh19  1  0.666667  0.333333  0.750000  1
  Rh  Rh20  1  0.000000  0.000000  0.250000  1
  Rh  Rh21  1  0.000000  0.000000  0.750000  1
  Rh  Rh22  1  0.000000  0.000000  0.500093  1
  Rh  Rh23  1  0.000000  0.000000  0.999907  1
