# generated using pymatgen
data_Y16Cd4TcPd2Pt
_symmetry_space_group_name_H-M   'P 1'
_cell_length_a   9.76723165
_cell_length_b   9.76723266
_cell_length_c   9.78183895
_cell_angle_alpha   59.28784387
_cell_angle_beta   59.28784001
_cell_angle_gamma   59.27038346
_symmetry_Int_Tables_number   1
_chemical_formula_structural   Y16Cd4TcPd2Pt
_chemical_formula_sum   'Y16 Cd4 Tc1 Pd2 Pt1'
_cell_volume   649.06624945
_cell_formula_units_Z   1
loop_
 _symmetry_equiv_pos_site_id
 _symmetry_equiv_pos_as_xyz
  1  'x, y, z'
loop_
 _atom_site_type_symbol
 _atom_site_label
 _atom_site_symmetry_multiplicity
 _atom_site_fract_x
 _atom_site_fract_y
 _atom_site_fract_z
 _atom_site_occupancy
  Y  Y0  1  0.352467  0.352467  0.354431  1
  Y  Y1  1  0.351697  0.351697  0.943421  1
  Y  Y2  1  0.350367  0.945565  0.352738  1
  Y  Y3  1  0.945565  0.350367  0.352738  1
  Y  Y4  1  0.816818  0.187542  0.188103  1
  Y  Y5  1  0.188684  0.810993  0.808870  1
  Y  Y6  1  0.187542  0.816818  0.188103  1
  Y  Y7  1  0.810993  0.188684  0.808870  1
  Y  Y8  1  0.187995  0.187995  0.815395  1
  Y  Y9  1  0.809833  0.809833  0.189058  1
  Y  Y10  1  0.935300  0.564655  0.565430  1
  Y  Y11  1  0.557212  0.937331  0.937332  1
  Y  Y12  1  0.564655  0.935300  0.565430  1
  Y  Y13  1  0.937331  0.557212  0.937332  1
  Y  Y14  1  0.565649  0.565649  0.934885  1
  Y  Y15  1  0.937755  0.937755  0.556811  1
  Cd  Cd16  1  0.579684  0.579684  0.579881  1
  Cd  Cd17  1  0.580964  0.580964  0.254155  1
  Cd  Cd18  1  0.580941  0.254121  0.581041  1
  Cd  Cd19  1  0.254121  0.580941  0.581041  1
  Tc  Tc20  1  0.144652  0.144652  0.144743  1
  Pd  Pd21  1  0.145169  0.569797  0.144463  1
  Pd  Pd22  1  0.569797  0.145169  0.144463  1
  Pt  Pt23  1  0.144813  0.144813  0.571264  1
