# generated using pymatgen
data_YHo3Sc6(SiGe)4
_symmetry_space_group_name_H-M   'P 1'
_cell_length_a   7.15948192
_cell_length_b   7.40489403
_cell_length_c   14.06054135
_cell_angle_alpha   89.97900626
_cell_angle_beta   89.98562204
_cell_angle_gamma   90.05650394
_symmetry_Int_Tables_number   1
_chemical_formula_structural   YHo3Sc6(SiGe)4
_chemical_formula_sum   'Y2 Ho6 Sc12 Si8 Ge8'
_cell_volume   745.42204499
_cell_formula_units_Z   2
loop_
 _symmetry_equiv_pos_site_id
 _symmetry_equiv_pos_as_xyz
  1  'x, y, z'
loop_
 _atom_site_type_symbol
 _atom_site_label
 _atom_site_symmetry_multiplicity
 _atom_site_fract_x
 _atom_site_fract_y
 _atom_site_fract_z
 _atom_site_occupancy
  Y  Y0  1  0.004423  0.177144  0.098514  1
  Y  Y1  1  0.995577  0.822856  0.901486  1
  Ho  Ho2  1  0.495780  0.676704  0.901112  1
  Ho  Ho3  1  0.995532  0.822920  0.598585  1
  Ho  Ho4  1  0.504220  0.323296  0.098888  1
  Ho  Ho5  1  0.004468  0.177080  0.401415  1
  Ho  Ho6  1  0.504467  0.322988  0.401617  1
  Ho  Ho7  1  0.495533  0.677012  0.598383  1
  Sc  Sc8  1  0.170210  0.500910  0.749658  1
  Sc  Sc9  1  0.829790  0.499090  0.250342  1
  Sc  Sc10  1  0.330143  0.000693  0.250303  1
  Sc  Sc11  1  0.669857  0.999307  0.749697  1
  Sc  Sc12  1  0.340183  0.172772  0.626304  1
  Sc  Sc13  1  0.659817  0.827228  0.373696  1
  Sc  Sc14  1  0.159956  0.672692  0.373818  1
  Sc  Sc15  1  0.659658  0.826970  0.126856  1
  Sc  Sc16  1  0.840044  0.327308  0.626182  1
  Sc  Sc17  1  0.340342  0.173030  0.873144  1
  Sc  Sc18  1  0.839895  0.327688  0.873573  1
  Sc  Sc19  1  0.160105  0.672312  0.126427  1
  Si  Si20  1  0.042059  0.117590  0.749804  1
  Si  Si21  1  0.957941  0.882410  0.250196  1
  Si  Si22  1  0.457567  0.616975  0.250276  1
  Si  Si23  1  0.542433  0.383025  0.749724  1
  Si  Si24  1  0.294260  0.871494  0.749616  1
  Si  Si25  1  0.705740  0.128506  0.250384  1
  Si  Si26  1  0.206567  0.371870  0.250487  1
  Si  Si27  1  0.793433  0.628130  0.749513  1
  Ge  Ge28  1  0.174482  0.460656  0.541045  1
  Ge  Ge29  1  0.825518  0.539344  0.458955  1
  Ge  Ge30  1  0.325200  0.960662  0.459319  1
  Ge  Ge31  1  0.824306  0.540311  0.040952  1
  Ge  Ge32  1  0.674800  0.039338  0.540681  1
  Ge  Ge33  1  0.175694  0.459689  0.959048  1
  Ge  Ge34  1  0.671792  0.039971  0.959437  1
  Ge  Ge35  1  0.328208  0.960029  0.040563  1
