# generated using pymatgen
data_Hf2MnFe11P7
_symmetry_space_group_name_H-M   'P 1'
_cell_length_a   8.87740876
_cell_length_b   8.86923647
_cell_length_c   3.58006300
_cell_angle_alpha   90.00000000
_cell_angle_beta   90.00000000
_cell_angle_gamma   119.99563104
_symmetry_Int_Tables_number   1
_chemical_formula_structural   Hf2MnFe11P7
_chemical_formula_sum   'Hf2 Mn1 Fe11 P7'
_cell_volume   244.12534518
_cell_formula_units_Z   1
loop_
 _symmetry_equiv_pos_site_id
 _symmetry_equiv_pos_as_xyz
  1  'x, y, z'
loop_
 _atom_site_type_symbol
 _atom_site_label
 _atom_site_symmetry_multiplicity
 _atom_site_fract_x
 _atom_site_fract_y
 _atom_site_fract_z
 _atom_site_occupancy
  Hf  Hf0  1  0.665632  0.332955  0.000000  1
  Hf  Hf1  1  0.331723  0.666395  0.500000  1
  Mn  Mn2  1  0.882115  0.780910  0.000000  1
  Fe  Fe3  1  0.431139  0.062519  0.500000  1
  Fe  Fe4  1  0.937677  0.367573  0.500000  1
  Fe  Fe5  1  0.631601  0.568988  0.500000  1
  Fe  Fe6  1  0.157218  0.277614  0.500000  1
  Fe  Fe7  1  0.724446  0.881215  0.500000  1
  Fe  Fe8  1  0.119138  0.844209  0.500000  1
  Fe  Fe9  1  0.385015  0.438086  0.000000  1
  Fe  Fe10  1  0.561089  0.947201  0.000000  1
  Fe  Fe11  1  0.052507  0.613411  0.000000  1
  Fe  Fe12  1  0.222967  0.099207  0.000000  1
  Fe  Fe13  1  0.901503  0.119975  0.000000  1
  P  P14  1  0.116881  0.404770  0.000000  1
  P  P15  1  0.588630  0.709943  0.000000  1
  P  P16  1  0.288801  0.883156  0.000000  1
  P  P17  1  0.002085  0.004040  0.500000  1
  P  P18  1  0.414686  0.299576  0.500000  1
  P  P19  1  0.700473  0.115131  0.500000  1
  P  P20  1  0.884671  0.583126  0.500000  1
