# generated using pymatgen
data_PuIn(TcO4)6
_symmetry_space_group_name_H-M   'P 1'
_cell_length_a   10.71317455
_cell_length_b   10.71317345
_cell_length_c   10.71317400
_cell_angle_alpha   49.15973336
_cell_angle_beta   49.15974550
_cell_angle_gamma   49.15974256
_symmetry_Int_Tables_number   1
_chemical_formula_structural   PuIn(TcO4)6
_chemical_formula_sum   'Pu1 In1 Tc6 O24'
_cell_volume   646.39696980
_cell_formula_units_Z   1
loop_
 _symmetry_equiv_pos_site_id
 _symmetry_equiv_pos_as_xyz
  1  'x, y, z'
loop_
 _atom_site_type_symbol
 _atom_site_label
 _atom_site_symmetry_multiplicity
 _atom_site_fract_x
 _atom_site_fract_y
 _atom_site_fract_z
 _atom_site_occupancy
  Pu  Pu0  1  0.000000  0.000000  0.000000  1
  In  In1  1  0.500000  0.500000  0.500000  1
  Tc  Tc2  1  0.543850  0.933361  0.264720  1
  Tc  Tc3  1  0.267414  0.539040  0.933930  1
  Tc  Tc4  1  0.932795  0.264950  0.544496  1
  Tc  Tc5  1  0.732586  0.460960  0.066070  1
  Tc  Tc6  1  0.067205  0.735050  0.455504  1
  Tc  Tc7  1  0.456150  0.066639  0.735280  1
  O  O8  1  0.745905  0.960795  0.151535  1
  O  O9  1  0.154902  0.738906  0.964248  1
  O  O10  1  0.958273  0.153015  0.747385  1
  O  O11  1  0.669968  0.402770  0.292418  1
  O  O12  1  0.292680  0.670326  0.401692  1
  O  O13  1  0.401291  0.292567  0.670163  1
  O  O14  1  0.254095  0.039205  0.848465  1
  O  O15  1  0.845098  0.261094  0.035752  1
  O  O16  1  0.041727  0.846985  0.252615  1
  O  O17  1  0.330032  0.597230  0.707582  1
  O  O18  1  0.707320  0.329674  0.598308  1
  O  O19  1  0.598709  0.707433  0.329837  1
  O  O20  1  0.407072  0.984663  0.449124  1
  O  O21  1  0.453095  0.401705  0.983337  1
  O  O22  1  0.984780  0.449009  0.407078  1
  O  O23  1  0.873415  0.568561  0.926498  1
  O  O24  1  0.926597  0.876872  0.562284  1
  O  O25  1  0.564262  0.927434  0.875548  1
  O  O26  1  0.592928  0.015337  0.550876  1
  O  O27  1  0.546905  0.598295  0.016663  1
  O  O28  1  0.015220  0.550991  0.592922  1
  O  O29  1  0.126585  0.431439  0.073502  1
  O  O30  1  0.073403  0.123128  0.437716  1
  O  O31  1  0.435738  0.072566  0.124452  1
