# generated using pymatgen
data_KNbSe2O7
_symmetry_space_group_name_H-M   'P 1'
_cell_length_a   7.16983053
_cell_length_b   7.16983065
_cell_length_c   7.60307800
_cell_angle_alpha   90.00000000
_cell_angle_beta   90.00000000
_cell_angle_gamma   111.06200443
_symmetry_Int_Tables_number   1
_chemical_formula_structural   KNbSe2O7
_chemical_formula_sum   'K2 Nb2 Se4 O14'
_cell_volume   364.73569654
_cell_formula_units_Z   2
loop_
 _symmetry_equiv_pos_site_id
 _symmetry_equiv_pos_as_xyz
  1  'x, y, z'
loop_
 _atom_site_type_symbol
 _atom_site_label
 _atom_site_symmetry_multiplicity
 _atom_site_fract_x
 _atom_site_fract_y
 _atom_site_fract_z
 _atom_site_occupancy
  K  K0  1  0.977100  0.977100  0.361272  1
  K  K1  1  0.022900  0.022900  0.861272  1
  Nb  Nb2  1  0.512949  0.512949  0.903082  1
  Nb  Nb3  1  0.487051  0.487051  0.403082  1
  Se  Se4  1  0.544850  0.942114  0.626929  1
  Se  Se5  1  0.942114  0.544850  0.626929  1
  Se  Se6  1  0.455150  0.057886  0.126929  1
  Se  Se7  1  0.057886  0.455150  0.126929  1
  O  O8  1  0.550487  0.790151  0.810710  1
  O  O9  1  0.790151  0.550487  0.810710  1
  O  O10  1  0.449513  0.209849  0.310710  1
  O  O11  1  0.209849  0.449513  0.310710  1
  O  O12  1  0.542792  0.782458  0.445174  1
  O  O13  1  0.782458  0.542792  0.445174  1
  O  O14  1  0.457208  0.217542  0.945174  1
  O  O15  1  0.217542  0.457208  0.945174  1
  O  O16  1  0.781735  0.098778  0.620816  1
  O  O17  1  0.098778  0.781735  0.620816  1
  O  O18  1  0.218265  0.901222  0.120816  1
  O  O19  1  0.901222  0.218265  0.120816  1
  O  O20  1  0.415756  0.415756  0.631326  1
  O  O21  1  0.584244  0.584244  0.131326  1
