# generated using pymatgen
data_Nb6Fe4Si2C
_symmetry_space_group_name_H-M   'P 1'
_cell_length_a   7.95891065
_cell_length_b   7.95891033
_cell_length_c   7.95891000
_cell_angle_alpha   60.00000137
_cell_angle_beta   60.00000271
_cell_angle_gamma   59.99999807
_symmetry_Int_Tables_number   1
_chemical_formula_structural   Nb6Fe4Si2C
_chemical_formula_sum   'Nb12 Fe8 Si4 C2'
_cell_volume   356.48876221
_cell_formula_units_Z   2
loop_
 _symmetry_equiv_pos_site_id
 _symmetry_equiv_pos_as_xyz
  1  'x, y, z'
loop_
 _atom_site_type_symbol
 _atom_site_label
 _atom_site_symmetry_multiplicity
 _atom_site_fract_x
 _atom_site_fract_y
 _atom_site_fract_z
 _atom_site_occupancy
  Nb  Nb0  1  0.302285  0.697715  0.697715  1
  Nb  Nb1  1  0.302285  0.302285  0.697715  1
  Nb  Nb2  1  0.552285  0.947715  0.552285  1
  Nb  Nb3  1  0.947715  0.552285  0.552285  1
  Nb  Nb4  1  0.552285  0.947715  0.947715  1
  Nb  Nb5  1  0.697715  0.302285  0.302285  1
  Nb  Nb6  1  0.947715  0.552285  0.947715  1
  Nb  Nb7  1  0.302285  0.697715  0.302285  1
  Nb  Nb8  1  0.552285  0.552285  0.947715  1
  Nb  Nb9  1  0.697715  0.302285  0.697715  1
  Nb  Nb10  1  0.697715  0.697715  0.302285  1
  Nb  Nb11  1  0.947715  0.947715  0.552285  1
  Fe  Fe12  1  0.920137  0.239590  0.920137  1
  Fe  Fe13  1  0.329863  0.010410  0.329863  1
  Fe  Fe14  1  0.329863  0.329863  0.329863  1
  Fe  Fe15  1  0.010410  0.329863  0.329863  1
  Fe  Fe16  1  0.920137  0.920137  0.239590  1
  Fe  Fe17  1  0.239590  0.920137  0.920137  1
  Fe  Fe18  1  0.329863  0.329863  0.010410  1
  Fe  Fe19  1  0.920137  0.920137  0.920137  1
  Si  Si20  1  0.125000  0.125000  0.625000  1
  Si  Si21  1  0.125000  0.625000  0.125000  1
  Si  Si22  1  0.125000  0.125000  0.125000  1
  Si  Si23  1  0.625000  0.125000  0.125000  1
  C  C24  1  0.750000  0.750000  0.750000  1
  C  C25  1  0.500000  0.500000  0.500000  1
