# generated using pymatgen
data_K4V(TeSe)2
_symmetry_space_group_name_H-M   'P 1'
_cell_length_a   8.65567500
_cell_length_b   10.31388400
_cell_length_c   15.04571700
_cell_angle_alpha   90.00000000
_cell_angle_beta   90.00000000
_cell_angle_gamma   90.00000000
_symmetry_Int_Tables_number   1
_chemical_formula_structural   K4V(TeSe)2
_chemical_formula_sum   'K16 V4 Te8 Se8'
_cell_volume   1343.18574082
_cell_formula_units_Z   4
loop_
 _symmetry_equiv_pos_site_id
 _symmetry_equiv_pos_as_xyz
  1  'x, y, z'
loop_
 _atom_site_type_symbol
 _atom_site_label
 _atom_site_symmetry_multiplicity
 _atom_site_fract_x
 _atom_site_fract_y
 _atom_site_fract_z
 _atom_site_occupancy
  K  K0  1  0.500000  0.500000  0.500000  1
  K  K1  1  0.145744  0.456451  0.274644  1
  K  K2  1  0.145744  0.043549  0.274644  1
  K  K3  1  0.989773  0.750000  0.435148  1
  K  K4  1  0.010227  0.250000  0.564852  1
  K  K5  1  0.645744  0.956451  0.225356  1
  K  K6  1  0.354256  0.043549  0.774644  1
  K  K7  1  0.854256  0.956451  0.725356  1
  K  K8  1  0.354256  0.456451  0.774644  1
  K  K9  1  0.000000  0.500000  0.000000  1
  K  K10  1  0.489773  0.250000  0.064852  1
  K  K11  1  0.645744  0.543549  0.225356  1
  K  K12  1  0.510227  0.750000  0.935148  1
  K  K13  1  0.000000  0.000000  0.000000  1
  K  K14  1  0.854256  0.543549  0.725356  1
  K  K15  1  0.500000  0.000000  0.500000  1
  V  V16  1  0.738724  0.250000  0.838863  1
  V  V17  1  0.761276  0.250000  0.338863  1
  V  V18  1  0.238724  0.750000  0.661137  1
  V  V19  1  0.261276  0.750000  0.161137  1
  Te  Te20  1  0.539271  0.750000  0.671876  1
  Te  Te21  1  0.460729  0.250000  0.328124  1
  Te  Te22  1  0.364609  0.750000  0.324943  1
  Te  Te23  1  0.135391  0.750000  0.824943  1
  Te  Te24  1  0.039271  0.250000  0.828124  1
  Te  Te25  1  0.960729  0.750000  0.171876  1
  Te  Te26  1  0.635391  0.250000  0.675057  1
  Te  Te27  1  0.864609  0.250000  0.175057  1
  Se  Se28  1  0.843897  0.438958  0.410018  1
  Se  Se29  1  0.656103  0.061042  0.910018  1
  Se  Se30  1  0.343897  0.938958  0.089982  1
  Se  Se31  1  0.343897  0.561042  0.089982  1
  Se  Se32  1  0.156103  0.561042  0.589982  1
  Se  Se33  1  0.843897  0.061042  0.410018  1
  Se  Se34  1  0.156103  0.938958  0.589982  1
  Se  Se35  1  0.656103  0.438958  0.910018  1
