# generated using pymatgen
data_Er6MgCo17P12
_symmetry_space_group_name_H-M   'P 1'
_cell_length_a   3.69823200
_cell_length_b   10.53659400
_cell_length_c   12.19230600
_cell_angle_alpha   90.00000000
_cell_angle_beta   90.00000000
_cell_angle_gamma   90.00000000
_symmetry_Int_Tables_number   1
_chemical_formula_structural   Er6MgCo17P12
_chemical_formula_sum   'Er6 Mg1 Co17 P12'
_cell_volume   475.09477272
_cell_formula_units_Z   1
loop_
 _symmetry_equiv_pos_site_id
 _symmetry_equiv_pos_as_xyz
  1  'x, y, z'
loop_
 _atom_site_type_symbol
 _atom_site_label
 _atom_site_symmetry_multiplicity
 _atom_site_fract_x
 _atom_site_fract_y
 _atom_site_fract_z
 _atom_site_occupancy
  Er  Er0  1  0.750000  0.250000  0.474641  1
  Er  Er1  1  0.250000  0.750000  0.521478  1
  Er  Er2  1  0.250000  0.927878  0.792437  1
  Er  Er3  1  0.250000  0.572122  0.792437  1
  Er  Er4  1  0.750000  0.067463  0.205658  1
  Er  Er5  1  0.750000  0.432537  0.205658  1
  Mg  Mg6  1  0.250000  0.250000  0.846189  1
  Co  Co7  1  0.750000  0.750000  0.161258  1
  Co  Co8  1  0.250000  0.250000  0.296285  1
  Co  Co9  1  0.750000  0.750000  0.703359  1
  Co  Co10  1  0.750000  0.250000  0.014374  1
  Co  Co11  1  0.250000  0.750000  0.987340  1
  Co  Co12  1  0.250000  0.420876  0.007432  1
  Co  Co13  1  0.250000  0.079124  0.007432  1
  Co  Co14  1  0.750000  0.586895  0.998039  1
  Co  Co15  1  0.750000  0.913105  0.998039  1
  Co  Co16  1  0.250000  0.454125  0.567003  1
  Co  Co17  1  0.250000  0.045875  0.567003  1
  Co  Co18  1  0.750000  0.548083  0.429674  1
  Co  Co19  1  0.750000  0.951917  0.429674  1
  Co  Co20  1  0.250000  0.870269  0.291420  1
  Co  Co21  1  0.250000  0.629731  0.291420  1
  Co  Co22  1  0.750000  0.126608  0.706899  1
  Co  Co23  1  0.750000  0.373392  0.706899  1
  P  P24  1  0.250000  0.250000  0.117512  1
  P  P25  1  0.750000  0.750000  0.882962  1
  P  P26  1  0.250000  0.250000  0.645182  1
  P  P27  1  0.750000  0.750000  0.345367  1
  P  P28  1  0.250000  0.439857  0.382564  1
  P  P29  1  0.250000  0.060143  0.382564  1
  P  P30  1  0.750000  0.561583  0.614385  1
  P  P31  1  0.750000  0.938417  0.614385  1
  P  P32  1  0.250000  0.900651  0.110258  1
  P  P33  1  0.250000  0.599349  0.110258  1
  P  P34  1  0.750000  0.086535  0.896258  1
  P  P35  1  0.750000  0.413465  0.896258  1
