# generated using pymatgen
data_BeNbB3MoW2
_symmetry_space_group_name_H-M   'P 1'
_cell_length_a   4.61419135
_cell_length_b   4.61418993
_cell_length_c   6.29644603
_cell_angle_alpha   89.86452724
_cell_angle_beta   90.13547070
_cell_angle_gamma   139.13724384
_symmetry_Int_Tables_number   1
_chemical_formula_structural   BeNbB3MoW2
_chemical_formula_sum   'Be1 Nb1 B3 Mo1 W2'
_cell_volume   87.70583144
_cell_formula_units_Z   1
loop_
 _symmetry_equiv_pos_site_id
 _symmetry_equiv_pos_as_xyz
  1  'x, y, z'
loop_
 _atom_site_type_symbol
 _atom_site_label
 _atom_site_symmetry_multiplicity
 _atom_site_fract_x
 _atom_site_fract_y
 _atom_site_fract_z
 _atom_site_occupancy
  Be  Be0  1  0.566867  0.433133  0.500785  1
  Nb  Nb1  1  0.851097  0.148903  0.999297  1
  B  B2  1  0.558793  0.441207  0.000160  1
  B  B3  1  0.438077  0.561923  0.249575  1
  B  B4  1  0.438133  0.561867  0.750559  1
  Mo  Mo5  1  0.145799  0.854201  0.754588  1
  W  W6  1  0.855332  0.144668  0.499600  1
  W  W7  1  0.145899  0.854101  0.245436  1
