# generated using pymatgen
data_Yb6Tc3WC12
_symmetry_space_group_name_H-M   'P 1'
_cell_length_a   8.32718100
_cell_length_b   8.32718050
_cell_length_c   5.21386800
_cell_angle_alpha   90.00000000
_cell_angle_beta   90.00000000
_cell_angle_gamma   119.99999801
_symmetry_Int_Tables_number   1
_chemical_formula_structural   Yb6Tc3WC12
_chemical_formula_sum   'Yb6 Tc3 W1 C12'
_cell_volume   313.10258663
_cell_formula_units_Z   1
loop_
 _symmetry_equiv_pos_site_id
 _symmetry_equiv_pos_as_xyz
  1  'x, y, z'
loop_
 _atom_site_type_symbol
 _atom_site_label
 _atom_site_symmetry_multiplicity
 _atom_site_fract_x
 _atom_site_fract_y
 _atom_site_fract_z
 _atom_site_occupancy
  Yb  Yb0  1  0.613638  0.689123  0.746929  1
  Yb  Yb1  1  0.924514  0.613638  0.253071  1
  Yb  Yb2  1  0.689123  0.075486  0.253071  1
  Yb  Yb3  1  0.310877  0.924514  0.746929  1
  Yb  Yb4  1  0.075486  0.386362  0.746929  1
  Yb  Yb5  1  0.386362  0.310877  0.253071  1
  Tc  Tc6  1  0.000000  0.000000  0.000000  1
  Tc  Tc7  1  0.666667  0.333333  0.759099  1
  Tc  Tc8  1  0.333333  0.666667  0.240901  1
  W  W9  1  0.000000  0.000000  0.500000  1
  C  C10  1  0.957578  0.771402  0.743630  1
  C  C11  1  0.186177  0.957578  0.256370  1
  C  C12  1  0.771402  0.813823  0.256370  1
  C  C13  1  0.228598  0.186177  0.743630  1
  C  C14  1  0.813823  0.042422  0.743630  1
  C  C15  1  0.042422  0.228598  0.256370  1
  C  C16  1  0.864226  0.585377  0.756151  1
  C  C17  1  0.278849  0.864226  0.243849  1
  C  C18  1  0.585377  0.721151  0.243849  1
  C  C19  1  0.414623  0.278849  0.756151  1
  C  C20  1  0.135774  0.414623  0.243849  1
  C  C21  1  0.721151  0.135774  0.756151  1
