# generated using pymatgen
data_Ba6Pr2Fe4O15
_symmetry_space_group_name_H-M   'P 1'
_cell_length_a   11.99020297
_cell_length_b   11.99020197
_cell_length_c   7.22409109
_cell_angle_alpha   89.80915596
_cell_angle_beta   89.80915403
_cell_angle_gamma   119.47433341
_symmetry_Int_Tables_number   1
_chemical_formula_structural   Ba6Pr2Fe4O15
_chemical_formula_sum   'Ba12 Pr4 Fe8 O30'
_cell_volume   904.13555963
_cell_formula_units_Z   2
loop_
 _symmetry_equiv_pos_site_id
 _symmetry_equiv_pos_as_xyz
  1  'x, y, z'
loop_
 _atom_site_type_symbol
 _atom_site_label
 _atom_site_symmetry_multiplicity
 _atom_site_fract_x
 _atom_site_fract_y
 _atom_site_fract_z
 _atom_site_occupancy
  Ba  Ba0  1  0.999588  0.002070  0.503029  1
  Ba  Ba1  1  0.002070  0.999588  0.003029  1
  Ba  Ba2  1  0.334140  0.664900  0.023431  1
  Ba  Ba3  1  0.664900  0.334140  0.523431  1
  Ba  Ba4  1  0.827563  0.656554  0.833774  1
  Ba  Ba5  1  0.351990  0.176208  0.838984  1
  Ba  Ba6  1  0.820337  0.172077  0.840164  1
  Ba  Ba7  1  0.176208  0.351990  0.338984  1
  Ba  Ba8  1  0.656554  0.827563  0.333774  1
  Ba  Ba9  1  0.172077  0.820337  0.340164  1
  Ba  Ba10  1  0.521286  0.045852  0.170472  1
  Ba  Ba11  1  0.045852  0.521286  0.670472  1
  Pr  Pr12  1  0.957571  0.478529  0.168980  1
  Pr  Pr13  1  0.520714  0.478829  0.164044  1
  Pr  Pr14  1  0.478529  0.957571  0.668980  1
  Pr  Pr15  1  0.478829  0.520714  0.664044  1
  Fe  Fe16  1  0.665258  0.336077  0.975714  1
  Fe  Fe17  1  0.336077  0.665258  0.475714  1
  Fe  Fe18  1  0.176431  0.818740  0.835394  1
  Fe  Fe19  1  0.181606  0.357027  0.845068  1
  Fe  Fe20  1  0.643023  0.816782  0.828683  1
  Fe  Fe21  1  0.818740  0.176431  0.335394  1
  Fe  Fe22  1  0.816782  0.643023  0.328683  1
  Fe  Fe23  1  0.357027  0.181606  0.345068  1
  O  O24  1  0.944450  0.327645  0.446236  1
  O  O25  1  0.664636  0.597535  0.469324  1
  O  O26  1  0.394336  0.073203  0.495271  1
  O  O27  1  0.934038  0.601056  0.437205  1
  O  O28  1  0.678591  0.071279  0.497462  1
  O  O29  1  0.395583  0.334418  0.474584  1
  O  O30  1  0.071279  0.678591  0.997462  1
  O  O31  1  0.334418  0.395583  0.974584  1
  O  O32  1  0.601056  0.934038  0.937205  1
  O  O33  1  0.073203  0.394336  0.995271  1
  O  O34  1  0.327645  0.944450  0.946236  1
  O  O35  1  0.597535  0.664636  0.969324  1
  O  O36  1  0.417697  0.580940  0.330369  1
  O  O37  1  0.416306  0.826881  0.341371  1
  O  O38  1  0.176583  0.586875  0.326110  1
  O  O39  1  0.580940  0.417697  0.830369  1
  O  O40  1  0.586875  0.176583  0.826110  1
  O  O41  1  0.826881  0.416306  0.841371  1
  O  O42  1  0.757805  0.261376  0.163749  1
  O  O43  1  0.745192  0.506392  0.148327  1
  O  O44  1  0.495763  0.261165  0.163243  1
  O  O45  1  0.261376  0.757805  0.663749  1
  O  O46  1  0.261165  0.495763  0.663243  1
  O  O47  1  0.506392  0.745192  0.648327  1
  O  O48  1  0.096338  0.192842  0.742989  1
  O  O49  1  0.809761  0.890281  0.737571  1
  O  O50  1  0.077088  0.880634  0.722935  1
  O  O51  1  0.890281  0.809761  0.237571  1
  O  O52  1  0.192842  0.096338  0.242989  1
  O  O53  1  0.880634  0.077088  0.222935  1
