# generated using pymatgen
data_Y12NbCr7(ReN4)12
_symmetry_space_group_name_H-M   'P 1'
_cell_length_a   10.99575720
_cell_length_b   10.99575571
_cell_length_c   10.99570994
_cell_angle_alpha   109.51964342
_cell_angle_beta   109.51963027
_cell_angle_gamma   109.51984380
_symmetry_Int_Tables_number   1
_chemical_formula_structural   Y12NbCr7(ReN4)12
_chemical_formula_sum   'Y12 Nb1 Cr7 Re12 N48'
_cell_volume   1021.57332060
_cell_formula_units_Z   1
loop_
 _symmetry_equiv_pos_site_id
 _symmetry_equiv_pos_as_xyz
  1  'x, y, z'
loop_
 _atom_site_type_symbol
 _atom_site_label
 _atom_site_symmetry_multiplicity
 _atom_site_fract_x
 _atom_site_fract_y
 _atom_site_fract_z
 _atom_site_occupancy
  Y  Y0  1  0.245861  0.373065  0.120525  1
  Y  Y1  1  0.374698  0.750122  0.124302  1
  Y  Y2  1  0.373056  0.120525  0.245856  1
  Y  Y3  1  0.875693  0.625294  0.249872  1
  Y  Y4  1  0.750124  0.124304  0.374706  1
  Y  Y5  1  0.120526  0.245862  0.373064  1
  Y  Y6  1  0.879473  0.754135  0.626933  1
  Y  Y7  1  0.249874  0.875695  0.625294  1
  Y  Y8  1  0.124306  0.374710  0.750132  1
  Y  Y9  1  0.626943  0.879477  0.754145  1
  Y  Y10  1  0.625299  0.249876  0.875697  1
  Y  Y11  1  0.754140  0.626934  0.879477  1
  Nb  Nb12  1  0.500002  0.500001  0.500002  1
  Cr  Cr13  1  0.999998  0.999997  0.999997  1
  Cr  Cr14  1  0.499999  0.999999  0.000000  1
  Cr  Cr15  1  0.000000  0.500001  0.000000  1
  Cr  Cr16  1  0.500001  0.500003  0.999987  1
  Cr  Cr17  1  0.000000  0.000000  0.500001  1
  Cr  Cr18  1  0.500002  0.999998  0.500003  1
  Cr  Cr19  1  0.000009  0.499993  0.499994  1
  Re  Re20  1  0.875180  0.249892  0.124690  1
  Re  Re21  1  0.750111  0.875312  0.124821  1
  Re  Re22  1  0.626241  0.373543  0.247007  1
  Re  Re23  1  0.124685  0.875177  0.249887  1
  Re  Re24  1  0.247004  0.626237  0.373540  1
  Re  Re25  1  0.626459  0.753004  0.373763  1
  Re  Re26  1  0.373538  0.246994  0.626234  1
  Re  Re27  1  0.752997  0.373763  0.626461  1
  Re  Re28  1  0.875315  0.124824  0.750114  1
  Re  Re29  1  0.373760  0.626461  0.752994  1
  Re  Re30  1  0.249889  0.124689  0.875180  1
  Re  Re31  1  0.124820  0.750111  0.875311  1
  N  N32  1  0.316961  0.901039  0.018556  1
  N  N33  1  0.200812  0.117354  0.017704  1
  N  N34  1  0.883505  0.400426  0.084200  1
  N  N35  1  0.701212  0.683754  0.083797  1
  N  N36  1  0.618939  0.414977  0.097543  1
  N  N37  1  0.981441  0.683036  0.098958  1
  N  N38  1  0.599576  0.915800  0.116497  1
  N  N39  1  0.017701  0.200814  0.117352  1
  N  N40  1  0.200463  0.586565  0.183377  1
  N  N41  1  0.481840  0.599776  0.184047  1
  N  N42  1  0.117346  0.017698  0.200809  1
  N  N43  1  0.586570  0.183383  0.200470  1
  N  N44  1  0.480045  0.380022  0.293471  1
  N  N45  1  0.316242  0.916199  0.298784  1
  N  N46  1  0.901042  0.018558  0.316961  1
  N  N47  1  0.916202  0.298789  0.316248  1
  N  N48  1  0.293473  0.480045  0.380019  1
  N  N49  1  0.585024  0.902465  0.381059  1
  N  N50  1  0.815958  0.518163  0.400233  1
  N  N51  1  0.084195  0.883499  0.400422  1
  N  N52  1  0.097541  0.618937  0.414974  1
  N  N53  1  0.816617  0.799535  0.413431  1
  N  N54  1  0.599769  0.184048  0.481840  1
  N  N55  1  0.380014  0.293466  0.480040  1
  N  N56  1  0.619983  0.706530  0.519957  1
  N  N57  1  0.400231  0.815952  0.518162  1
  N  N58  1  0.183382  0.200465  0.586571  1
  N  N59  1  0.902460  0.381065  0.585027  1
  N  N60  1  0.915805  0.116503  0.599579  1
  N  N61  1  0.184045  0.481837  0.599767  1
  N  N62  1  0.414974  0.097534  0.618942  1
  N  N63  1  0.706527  0.519955  0.619983  1
  N  N64  1  0.083799  0.701211  0.683753  1
  N  N65  1  0.098959  0.981443  0.683039  1
  N  N66  1  0.683758  0.083800  0.701218  1
  N  N67  1  0.519954  0.619980  0.706529  1
  N  N68  1  0.413431  0.816621  0.799532  1
  N  N69  1  0.882653  0.982301  0.799189  1
  N  N70  1  0.518159  0.400224  0.815949  1
  N  N71  1  0.799537  0.413433  0.816623  1
  N  N72  1  0.400424  0.084201  0.883505  1
  N  N73  1  0.982297  0.799186  0.882646  1
  N  N74  1  0.018558  0.316965  0.901042  1
  N  N75  1  0.381062  0.585025  0.902458  1
  N  N76  1  0.298790  0.316247  0.916205  1
  N  N77  1  0.116495  0.599575  0.915800  1
  N  N78  1  0.683040  0.098963  0.981446  1
  N  N79  1  0.799186  0.882645  0.982295  1
