# generated using pymatgen
data_La2B3Ru4C
_symmetry_space_group_name_H-M   'P 1'
_cell_length_a   6.83038998
_cell_length_b   6.00352146
_cell_length_c   5.59765927
_cell_angle_alpha   72.04267106
_cell_angle_beta   57.27809558
_cell_angle_gamma   51.22403259
_symmetry_Int_Tables_number   1
_chemical_formula_structural   La2B3Ru4C
_chemical_formula_sum   'La2 B3 Ru4 C1'
_cell_volume   150.39085736
_cell_formula_units_Z   1
loop_
 _symmetry_equiv_pos_site_id
 _symmetry_equiv_pos_as_xyz
  1  'x, y, z'
loop_
 _atom_site_type_symbol
 _atom_site_label
 _atom_site_symmetry_multiplicity
 _atom_site_fract_x
 _atom_site_fract_y
 _atom_site_fract_z
 _atom_site_occupancy
  La  La0  1  0.999067  0.000933  0.999067  1
  La  La1  1  0.249926  0.250074  0.249926  1
  B  B2  1  0.320405  0.679595  0.320405  1
  B  B3  1  0.928495  0.571505  0.928495  1
  B  B4  1  0.570255  0.929745  0.570255  1
  Ru  Ru5  1  0.616587  0.605962  0.881247  1
  Ru  Ru6  1  0.640387  0.627185  0.365173  1
  Ru  Ru7  1  0.365173  0.367254  0.640387  1
  Ru  Ru8  1  0.881248  0.896204  0.616586  1
  C  C9  1  0.678457  0.321543  0.678457  1
