# generated using pymatgen
data_LiTm6Si6Rh
_symmetry_space_group_name_H-M   'P 1'
_cell_length_a   5.62848708
_cell_length_b   5.62848685
_cell_length_c   13.42933312
_cell_angle_alpha   108.62741211
_cell_angle_beta   108.62741119
_cell_angle_gamma   43.57659714
_symmetry_Int_Tables_number   1
_chemical_formula_structural   LiTm6Si6Rh
_chemical_formula_sum   'Li1 Tm6 Si6 Rh1'
_cell_volume   275.36885430
_cell_formula_units_Z   1
loop_
 _symmetry_equiv_pos_site_id
 _symmetry_equiv_pos_as_xyz
  1  'x, y, z'
loop_
 _atom_site_type_symbol
 _atom_site_label
 _atom_site_symmetry_multiplicity
 _atom_site_fract_x
 _atom_site_fract_y
 _atom_site_fract_z
 _atom_site_occupancy
  Li  Li0  1  0.754988  0.754988  0.087637  1
  Tm  Tm1  1  0.472705  0.472705  0.120718  1
  Tm  Tm2  1  0.255896  0.255896  0.277580  1
  Tm  Tm3  1  0.603082  0.603082  0.420529  1
  Tm  Tm4  1  0.397726  0.397726  0.577886  1
  Tm  Tm5  1  0.743886  0.743886  0.728515  1
  Tm  Tm6  1  0.523919  0.523919  0.876040  1
  Si  Si7  1  0.120849  0.120849  0.044279  1
  Si  Si8  1  0.962851  0.962851  0.270295  1
  Si  Si9  1  0.887899  0.887899  0.425415  1
  Si  Si10  1  0.114689  0.114689  0.575845  1
  Si  Si11  1  0.043501  0.043501  0.734016  1
  Si  Si12  1  0.873893  0.873893  0.949922  1
  Rh  Rh13  1  0.244117  0.244117  0.911322  1
