# generated using pymatgen
data_HoEr(SiRh2)4
_symmetry_space_group_name_H-M   'P 1'
_cell_length_a   4.12363500
_cell_length_b   9.06241900
_cell_length_c   11.29533300
_cell_angle_alpha   90.00000000
_cell_angle_beta   90.00000000
_cell_angle_gamma   90.00000000
_symmetry_Int_Tables_number   1
_chemical_formula_structural   HoEr(SiRh2)4
_chemical_formula_sum   'Ho2 Er2 Si8 Rh16'
_cell_volume   422.10781606
_cell_formula_units_Z   2
loop_
 _symmetry_equiv_pos_site_id
 _symmetry_equiv_pos_as_xyz
  1  'x, y, z'
loop_
 _atom_site_type_symbol
 _atom_site_label
 _atom_site_symmetry_multiplicity
 _atom_site_fract_x
 _atom_site_fract_y
 _atom_site_fract_z
 _atom_site_occupancy
  Ho  Ho0  1  0.250000  0.148062  0.825260  1
  Ho  Ho1  1  0.250000  0.351938  0.325260  1
  Er  Er2  1  0.750000  0.851995  0.174723  1
  Er  Er3  1  0.750000  0.648005  0.674723  1
  Si  Si4  1  0.250000  0.412462  0.637245  1
  Si  Si5  1  0.250000  0.087538  0.137245  1
  Si  Si6  1  0.750000  0.587984  0.362728  1
  Si  Si7  1  0.750000  0.912016  0.862728  1
  Si  Si8  1  0.250000  0.616553  0.058725  1
  Si  Si9  1  0.250000  0.883447  0.558725  1
  Si  Si10  1  0.750000  0.383600  0.941387  1
  Si  Si11  1  0.750000  0.116400  0.441387  1
  Rh  Rh12  1  0.250000  0.614763  0.500826  1
  Rh  Rh13  1  0.250000  0.885237  0.000826  1
  Rh  Rh14  1  0.750000  0.385644  0.499735  1
  Rh  Rh15  1  0.750000  0.114356  0.999735  1
  Rh  Rh16  1  0.250000  0.684622  0.268375  1
  Rh  Rh17  1  0.250000  0.815378  0.768375  1
  Rh  Rh18  1  0.750000  0.316105  0.731279  1
  Rh  Rh19  1  0.750000  0.183895  0.231279  1
  Rh  Rh20  1  0.250000  0.172721  0.559199  1
  Rh  Rh21  1  0.250000  0.327279  0.059199  1
  Rh  Rh22  1  0.750000  0.827255  0.440716  1
  Rh  Rh23  1  0.750000  0.672745  0.940716  1
  Rh  Rh24  1  0.250000  0.006491  0.344435  1
  Rh  Rh25  1  0.250000  0.493509  0.844435  1
  Rh  Rh26  1  0.750000  0.993108  0.655368  1
  Rh  Rh27  1  0.750000  0.506892  0.155368  1
