# generated using pymatgen
data_Hf2B2SbRu5
_symmetry_space_group_name_H-M   'P 1'
_cell_length_a   9.49615600
_cell_length_b   9.49615600
_cell_length_c   3.11171800
_cell_angle_alpha   90.00000000
_cell_angle_beta   90.00000000
_cell_angle_gamma   90.00000000
_symmetry_Int_Tables_number   1
_chemical_formula_structural   Hf2B2SbRu5
_chemical_formula_sum   'Hf4 B4 Sb2 Ru10'
_cell_volume   280.60532804
_cell_formula_units_Z   2
loop_
 _symmetry_equiv_pos_site_id
 _symmetry_equiv_pos_as_xyz
  1  'x, y, z'
loop_
 _atom_site_type_symbol
 _atom_site_label
 _atom_site_symmetry_multiplicity
 _atom_site_fract_x
 _atom_site_fract_y
 _atom_site_fract_z
 _atom_site_occupancy
  Hf  Hf0  1  0.824663  0.675337  0.000000  1
  Hf  Hf1  1  0.175337  0.324663  0.000000  1
  Hf  Hf2  1  0.324663  0.824663  0.000000  1
  Hf  Hf3  1  0.675337  0.175337  0.000000  1
  B  B4  1  0.621044  0.878956  0.000000  1
  B  B5  1  0.378956  0.121044  0.000000  1
  B  B6  1  0.121044  0.621044  0.000000  1
  B  B7  1  0.878956  0.378956  0.000000  1
  Sb  Sb8  1  0.500000  0.500000  0.000000  1
  Sb  Sb9  1  0.000000  0.000000  0.000000  1
  Ru  Ru10  1  0.570947  0.719737  0.500000  1
  Ru  Ru11  1  0.429053  0.280263  0.500000  1
  Ru  Ru12  1  0.070947  0.780263  0.500000  1
  Ru  Ru13  1  0.929053  0.219737  0.500000  1
  Ru  Ru14  1  0.280263  0.570947  0.500000  1
  Ru  Ru15  1  0.719737  0.429053  0.500000  1
  Ru  Ru16  1  0.219737  0.070947  0.500000  1
  Ru  Ru17  1  0.780263  0.929053  0.500000  1
  Ru  Ru18  1  0.500000  0.000000  0.500000  1
  Ru  Ru19  1  0.000000  0.500000  0.500000  1
