# generated using pymatgen
data_Pr2Si7Rh12
_symmetry_space_group_name_H-M   'P 1'
_cell_length_a   9.81219700
_cell_length_b   9.81219686
_cell_length_c   3.90137500
_cell_angle_alpha   90.00000000
_cell_angle_beta   90.00000000
_cell_angle_gamma   119.99999709
_symmetry_Int_Tables_number   1
_chemical_formula_structural   Pr2Si7Rh12
_chemical_formula_sum   'Pr2 Si7 Rh12'
_cell_volume   325.29759543
_cell_formula_units_Z   1
loop_
 _symmetry_equiv_pos_site_id
 _symmetry_equiv_pos_as_xyz
  1  'x, y, z'
loop_
 _atom_site_type_symbol
 _atom_site_label
 _atom_site_symmetry_multiplicity
 _atom_site_fract_x
 _atom_site_fract_y
 _atom_site_fract_z
 _atom_site_occupancy
  Pr  Pr0  1  0.333333  0.666667  0.250390  1
  Pr  Pr1  1  0.666667  0.333333  0.749610  1
  Si  Si2  1  0.000000  0.000000  0.500000  1
  Si  Si3  1  0.396679  0.106477  0.248930  1
  Si  Si4  1  0.709800  0.603321  0.248930  1
  Si  Si5  1  0.893523  0.290200  0.248930  1
  Si  Si6  1  0.603321  0.893523  0.751070  1
  Si  Si7  1  0.290200  0.396679  0.751070  1
  Si  Si8  1  0.106477  0.709800  0.751070  1
  Rh  Rh9  1  0.441540  0.380609  0.248043  1
  Rh  Rh10  1  0.939068  0.558460  0.248043  1
  Rh  Rh11  1  0.619391  0.060932  0.248043  1
  Rh  Rh12  1  0.558460  0.619391  0.751957  1
  Rh  Rh13  1  0.060932  0.441540  0.751957  1
  Rh  Rh14  1  0.380609  0.939068  0.751957  1
  Rh  Rh15  1  0.141424  0.880966  0.255611  1
  Rh  Rh16  1  0.739541  0.858576  0.255611  1
  Rh  Rh17  1  0.119034  0.260459  0.255611  1
  Rh  Rh18  1  0.858576  0.119034  0.744389  1
  Rh  Rh19  1  0.260459  0.141424  0.744389  1
  Rh  Rh20  1  0.880966  0.739541  0.744389  1
