# generated using pymatgen
data_LiY2ThIn3Rh2
_symmetry_space_group_name_H-M   'P 1'
_cell_length_a   7.65060024
_cell_length_b   7.83624340
_cell_length_c   3.86769200
_cell_angle_alpha   90.00000000
_cell_angle_beta   90.00000000
_cell_angle_gamma   120.80598700
_symmetry_Int_Tables_number   1
_chemical_formula_structural   LiY2ThIn3Rh2
_chemical_formula_sum   'Li1 Y2 Th1 In3 Rh2'
_cell_volume   199.15955230
_cell_formula_units_Z   1
loop_
 _symmetry_equiv_pos_site_id
 _symmetry_equiv_pos_as_xyz
  1  'x, y, z'
loop_
 _atom_site_type_symbol
 _atom_site_label
 _atom_site_symmetry_multiplicity
 _atom_site_fract_x
 _atom_site_fract_y
 _atom_site_fract_z
 _atom_site_occupancy
  Li  Li0  1  0.000000  0.991235  0.500000  1
  Y  Y1  1  0.415175  0.416986  0.500000  1
  Y  Y2  1  0.584825  0.001812  0.500000  1
  Th  Th3  1  0.000000  0.571255  0.500000  1
  In  In4  1  0.000000  0.236123  0.000000  1
  In  In5  1  0.268156  0.014322  0.000000  1
  In  In6  1  0.731844  0.746166  0.000000  1
  Rh  Rh7  1  0.309285  0.665694  0.000000  1
  Rh  Rh8  1  0.690715  0.356407  0.000000  1
