# generated using pymatgen
data_Li3Al8Ir4Ru
_symmetry_space_group_name_H-M   'P 1'
_cell_length_a   5.98290400
_cell_length_b   4.26910400
_cell_length_c   8.60434300
_cell_angle_alpha   90.00000000
_cell_angle_beta   90.00007826
_cell_angle_gamma   90.00000000
_symmetry_Int_Tables_number   1
_chemical_formula_structural   Li3Al8Ir4Ru
_chemical_formula_sum   'Li3 Al8 Ir4 Ru1'
_cell_volume   219.76902616
_cell_formula_units_Z   1
loop_
 _symmetry_equiv_pos_site_id
 _symmetry_equiv_pos_as_xyz
  1  'x, y, z'
loop_
 _atom_site_type_symbol
 _atom_site_label
 _atom_site_symmetry_multiplicity
 _atom_site_fract_x
 _atom_site_fract_y
 _atom_site_fract_z
 _atom_site_occupancy
  Li  Li0  1  0.250001  0.250001  0.127197  1
  Li  Li1  1  0.750001  0.749999  0.375008  1
  Li  Li2  1  0.249999  0.250001  0.622791  1
  Al  Al3  1  0.996446  0.749999  0.123484  1
  Al  Al4  1  0.503552  0.749999  0.123487  1
  Al  Al5  1  0.991885  0.250001  0.374997  1
  Al  Al6  1  0.508108  0.250001  0.374999  1
  Al  Al7  1  0.503552  0.749999  0.626519  1
  Al  Al8  1  0.996454  0.749999  0.626522  1
  Al  Al9  1  0.505646  0.250001  0.874997  1
  Al  Al10  1  0.994356  0.250001  0.875001  1
  Ir  Ir11  1  0.749995  0.250001  0.126896  1
  Ir  Ir12  1  0.249996  0.749999  0.375005  1
  Ir  Ir13  1  0.750004  0.250001  0.623100  1
  Ir  Ir14  1  0.250003  0.749999  0.875006  1
  Ru  Ru15  1  0.750000  0.749999  0.874989  1
