# generated using pymatgen
data_Li4Nd3ErSi8
_symmetry_space_group_name_H-M   'P 1'
_cell_length_a   3.84854100
_cell_length_b   7.68283160
_cell_length_c   10.37637626
_cell_angle_alpha   89.85365436
_cell_angle_beta   90.00000000
_cell_angle_gamma   90.00000000
_symmetry_Int_Tables_number   1
_chemical_formula_structural   Li4Nd3ErSi8
_chemical_formula_sum   'Li4 Nd3 Er1 Si8'
_cell_volume   306.80450079
_cell_formula_units_Z   1
loop_
 _symmetry_equiv_pos_site_id
 _symmetry_equiv_pos_as_xyz
  1  'x, y, z'
loop_
 _atom_site_type_symbol
 _atom_site_label
 _atom_site_symmetry_multiplicity
 _atom_site_fract_x
 _atom_site_fract_y
 _atom_site_fract_z
 _atom_site_occupancy
  Li  Li0  1  0.250000  0.993778  0.389555  1
  Li  Li1  1  0.750000  0.004457  0.610261  1
  Li  Li2  1  0.250000  0.494637  0.107094  1
  Li  Li3  1  0.750000  0.510808  0.890694  1
  Nd  Nd4  1  0.750000  0.863033  0.135795  1
  Nd  Nd5  1  0.250000  0.637130  0.637438  1
  Nd  Nd6  1  0.750000  0.359217  0.364399  1
  Er  Er7  1  0.250000  0.134356  0.863920  1
  Si  Si8  1  0.750000  0.270873  0.062819  1
  Si  Si9  1  0.250000  0.734323  0.930067  1
  Si  Si10  1  0.750000  0.771713  0.430605  1
  Si  Si11  1  0.250000  0.222173  0.575573  1
  Si  Si12  1  0.750000  0.844556  0.822567  1
  Si  Si13  1  0.250000  0.164160  0.173156  1
  Si  Si14  1  0.750000  0.332118  0.683800  1
  Si  Si15  1  0.250000  0.662667  0.322260  1
