# generated using pymatgen
data_Sr4La2CrCo4O15
_symmetry_space_group_name_H-M   'P 1'
_cell_length_a   6.89882529
_cell_length_b   6.89882526
_cell_length_c   6.94963930
_cell_angle_alpha   86.57106109
_cell_angle_beta   86.57106372
_cell_angle_gamma   86.91492824
_symmetry_Int_Tables_number   1
_chemical_formula_structural   Sr4La2CrCo4O15
_chemical_formula_sum   'Sr4 La2 Cr1 Co4 O15'
_cell_volume   329.15723163
_cell_formula_units_Z   1
loop_
 _symmetry_equiv_pos_site_id
 _symmetry_equiv_pos_as_xyz
  1  'x, y, z'
loop_
 _atom_site_type_symbol
 _atom_site_label
 _atom_site_symmetry_multiplicity
 _atom_site_fract_x
 _atom_site_fract_y
 _atom_site_fract_z
 _atom_site_occupancy
  Sr  Sr0  1  0.863839  0.136161  0.500000  1
  Sr  Sr1  1  0.999620  0.676115  0.327653  1
  Sr  Sr2  1  0.323885  0.000380  0.672347  1
  Sr  Sr3  1  0.678109  0.321891  0.000000  1
  La  La4  1  0.499023  0.861167  0.141350  1
  La  La5  1  0.138833  0.500977  0.858650  1
  Cr  Cr6  1  0.506133  0.493867  0.500000  1
  Co  Co7  1  0.703328  0.705658  0.707755  1
  Co  Co8  1  0.294342  0.296672  0.292245  1
  Co  Co9  1  0.902821  0.903147  0.903208  1
  Co  Co10  1  0.096853  0.097179  0.096792  1
  O  O11  1  0.378812  0.557176  0.245610  1
  O  O12  1  0.247582  0.385008  0.551207  1
  O  O13  1  0.551016  0.249264  0.378023  1
  O  O14  1  0.614992  0.752418  0.448793  1
  O  O15  1  0.442824  0.621188  0.754390  1
  O  O16  1  0.750736  0.448984  0.621977  1
  O  O17  1  0.208922  0.029014  0.342027  1
  O  O18  1  0.346355  0.204719  0.030020  1
  O  O19  1  0.032516  0.348349  0.197210  1
  O  O20  1  0.795281  0.653645  0.969980  1
  O  O21  1  0.970986  0.791078  0.657973  1
  O  O22  1  0.160122  0.839878  0.000000  1
  O  O23  1  0.838968  0.997551  0.155740  1
  O  O24  1  0.002449  0.161032  0.844260  1
  O  O25  1  0.651651  0.967484  0.802790  1
