# generated using pymatgen
data_Ho16Sc4Ir5Pt7
_symmetry_space_group_name_H-M   'P 1'
_cell_length_a   10.88394051
_cell_length_b   10.88394051
_cell_length_c   6.23756001
_cell_angle_alpha   90.06515742
_cell_angle_beta   90.06515742
_cell_angle_gamma   90.20093891
_symmetry_Int_Tables_number   1
_chemical_formula_structural   Ho16Sc4Ir5Pt7
_chemical_formula_sum   'Ho16 Sc4 Ir5 Pt7'
_cell_volume   738.89685993
_cell_formula_units_Z   1
loop_
 _symmetry_equiv_pos_site_id
 _symmetry_equiv_pos_as_xyz
  1  'x, y, z'
loop_
 _atom_site_type_symbol
 _atom_site_label
 _atom_site_symmetry_multiplicity
 _atom_site_fract_x
 _atom_site_fract_y
 _atom_site_fract_z
 _atom_site_occupancy
  Ho  Ho0  1  0.291473  0.085035  0.374383  1
  Ho  Ho1  1  0.291690  0.911022  0.874824  1
  Ho  Ho2  1  0.708158  0.085259  0.874584  1
  Ho  Ho3  1  0.707952  0.913485  0.374308  1
  Ho  Ho4  1  0.582497  0.789194  0.873090  1
  Ho  Ho5  1  0.585896  0.208984  0.375841  1
  Ho  Ho6  1  0.412550  0.789190  0.378288  1
  Ho  Ho7  1  0.413777  0.207659  0.875522  1
  Ho  Ho8  1  0.210806  0.417503  0.626910  1
  Ho  Ho9  1  0.210810  0.587450  0.121712  1
  Ho  Ho10  1  0.791016  0.414104  0.124159  1
  Ho  Ho11  1  0.792341  0.586223  0.624478  1
  Ho  Ho12  1  0.914965  0.708527  0.125617  1
  Ho  Ho13  1  0.914741  0.291842  0.625416  1
  Ho  Ho14  1  0.088978  0.708310  0.625176  1
  Ho  Ho15  1  0.086515  0.292048  0.125692  1
  Sc  Sc16  1  0.999572  0.999882  0.500380  1
  Sc  Sc17  1  0.000118  0.000428  0.999620  1
  Sc  Sc18  1  0.497344  0.501228  0.998528  1
  Sc  Sc19  1  0.498772  0.502656  0.501472  1
  Ir  Ir20  1  0.353040  0.646960  0.750000  1
  Ir  Ir21  1  0.499949  0.999991  0.120229  1
  Ir  Ir22  1  0.499858  0.000306  0.618869  1
  Ir  Ir23  1  0.999694  0.500142  0.881131  1
  Ir  Ir24  1  0.000009  0.500051  0.379771  1
  Pt  Pt25  1  0.852323  0.147677  0.250000  1
  Pt  Pt26  1  0.851906  0.852023  0.750016  1
  Pt  Pt27  1  0.147977  0.148094  0.749984  1
  Pt  Pt28  1  0.147196  0.852804  0.250000  1
  Pt  Pt29  1  0.647443  0.352557  0.750000  1
  Pt  Pt30  1  0.648864  0.648230  0.249608  1
  Pt  Pt31  1  0.351770  0.351136  0.250392  1
