# generated using pymatgen
data_YPa3(AlCo2)2
_symmetry_space_group_name_H-M   'P 1'
_cell_length_a   7.21147185
_cell_length_b   7.21147256
_cell_length_c   3.50620600
_cell_angle_alpha   90.00000000
_cell_angle_beta   90.00000000
_cell_angle_gamma   87.62085447
_symmetry_Int_Tables_number   1
_chemical_formula_structural   YPa3(AlCo2)2
_chemical_formula_sum   'Y1 Pa3 Al2 Co4'
_cell_volume   182.18422777
_cell_formula_units_Z   1
loop_
 _symmetry_equiv_pos_site_id
 _symmetry_equiv_pos_as_xyz
  1  'x, y, z'
loop_
 _atom_site_type_symbol
 _atom_site_label
 _atom_site_symmetry_multiplicity
 _atom_site_fract_x
 _atom_site_fract_y
 _atom_site_fract_z
 _atom_site_occupancy
  Y  Y0  1  0.325046  0.825046  0.500000  1
  Pa  Pa1  1  0.674851  0.174851  0.500000  1
  Pa  Pa2  1  0.178877  0.328612  0.500000  1
  Pa  Pa3  1  0.828612  0.678877  0.500000  1
  Al  Al4  1  0.003691  0.003045  0.000000  1
  Al  Al5  1  0.503045  0.503691  0.000000  1
  Co  Co6  1  0.852113  0.352113  0.000000  1
  Co  Co7  1  0.373533  0.156819  0.000000  1
  Co  Co8  1  0.656819  0.873533  0.000000  1
  Co  Co9  1  0.103413  0.603413  0.000000  1
