# generated using pymatgen
data_Ba2TaClO4
_symmetry_space_group_name_H-M   'P 1'
_cell_length_a   7.19931600
_cell_length_b   8.06444100
_cell_length_c   12.52303700
_cell_angle_alpha   90.00000000
_cell_angle_beta   90.00000000
_cell_angle_gamma   90.00000000
_symmetry_Int_Tables_number   1
_chemical_formula_structural   Ba2TaClO4
_chemical_formula_sum   'Ba8 Ta4 Cl4 O16'
_cell_volume   727.06823175
_cell_formula_units_Z   4
loop_
 _symmetry_equiv_pos_site_id
 _symmetry_equiv_pos_as_xyz
  1  'x, y, z'
loop_
 _atom_site_type_symbol
 _atom_site_label
 _atom_site_symmetry_multiplicity
 _atom_site_fract_x
 _atom_site_fract_y
 _atom_site_fract_z
 _atom_site_occupancy
  Ba  Ba0  1  0.859491  0.527565  0.750000  1
  Ba  Ba1  1  0.377376  0.750000  0.500000  1
  Ba  Ba2  1  0.140509  0.472435  0.250000  1
  Ba  Ba3  1  0.377376  0.750000  0.000000  1
  Ba  Ba4  1  0.140509  0.027565  0.750000  1
  Ba  Ba5  1  0.859491  0.972435  0.250000  1
  Ba  Ba6  1  0.622624  0.250000  0.500000  1
  Ba  Ba7  1  0.622624  0.250000  0.000000  1
  Ta  Ta8  1  0.127033  0.250000  0.000000  1
  Ta  Ta9  1  0.127033  0.250000  0.500000  1
  Ta  Ta10  1  0.872967  0.750000  0.500000  1
  Ta  Ta11  1  0.872967  0.750000  0.000000  1
  Cl  Cl12  1  0.491435  0.193730  0.250000  1
  Cl  Cl13  1  0.508565  0.693730  0.250000  1
  Cl  Cl14  1  0.508565  0.806270  0.750000  1
  Cl  Cl15  1  0.491435  0.306270  0.750000  1
  O  O16  1  0.283734  0.071734  0.969572  1
  O  O17  1  0.283734  0.428266  0.030428  1
  O  O18  1  0.027201  0.774969  0.619319  1
  O  O19  1  0.972799  0.225031  0.119319  1
  O  O20  1  0.716266  0.928266  0.030428  1
  O  O21  1  0.027201  0.725031  0.119319  1
  O  O22  1  0.716266  0.571734  0.530428  1
  O  O23  1  0.972799  0.274969  0.880681  1
  O  O24  1  0.972799  0.274969  0.619319  1
  O  O25  1  0.716266  0.571734  0.969572  1
  O  O26  1  0.027201  0.774969  0.880681  1
  O  O27  1  0.027201  0.725031  0.380681  1
  O  O28  1  0.972799  0.225031  0.380681  1
  O  O29  1  0.283734  0.071734  0.530428  1
  O  O30  1  0.716266  0.928266  0.469572  1
  O  O31  1  0.283734  0.428266  0.469572  1
