# generated using pymatgen
data_Ba2Sb2PdAu
_symmetry_space_group_name_H-M   'P 1'
_cell_length_a   4.72069400
_cell_length_b   4.72069356
_cell_length_c   9.82803200
_cell_angle_alpha   90.00000000
_cell_angle_beta   90.00000000
_cell_angle_gamma   119.99998905
_symmetry_Int_Tables_number   1
_chemical_formula_structural   Ba2Sb2PdAu
_chemical_formula_sum   'Ba2 Sb2 Pd1 Au1'
_cell_volume   189.67447959
_cell_formula_units_Z   1
loop_
 _symmetry_equiv_pos_site_id
 _symmetry_equiv_pos_as_xyz
  1  'x, y, z'
loop_
 _atom_site_type_symbol
 _atom_site_label
 _atom_site_symmetry_multiplicity
 _atom_site_fract_x
 _atom_site_fract_y
 _atom_site_fract_z
 _atom_site_occupancy
  Ba  Ba0  1  0.000000  0.000000  0.009220  1
  Ba  Ba1  1  0.000000  0.000000  0.490780  1
  Sb  Sb2  1  0.666667  0.333333  0.250000  1
  Sb  Sb3  1  0.333333  0.666667  0.750000  1
  Pd  Pd4  1  0.333333  0.666667  0.250000  1
  Au  Au5  1  0.666667  0.333333  0.750000  1
