# generated using pymatgen
data_Tm4MgNi2Pt
_symmetry_space_group_name_H-M   'P 1'
_cell_length_a   8.37146587
_cell_length_b   8.37146642
_cell_length_c   8.37146597
_cell_angle_alpha   129.80143999
_cell_angle_beta   129.80143007
_cell_angle_gamma   73.72440521
_symmetry_Int_Tables_number   1
_chemical_formula_structural   Tm4MgNi2Pt
_chemical_formula_sum   'Tm8 Mg2 Ni4 Pt2'
_cell_volume   337.84322175
_cell_formula_units_Z   2
loop_
 _symmetry_equiv_pos_site_id
 _symmetry_equiv_pos_as_xyz
  1  'x, y, z'
loop_
 _atom_site_type_symbol
 _atom_site_label
 _atom_site_symmetry_multiplicity
 _atom_site_fract_x
 _atom_site_fract_y
 _atom_site_fract_z
 _atom_site_occupancy
  Tm  Tm0  1  0.810108  0.310108  0.846933  1
  Tm  Tm1  1  0.189892  0.689892  0.153067  1
  Tm  Tm2  1  0.463175  0.963175  0.153067  1
  Tm  Tm3  1  0.310108  0.463175  0.500000  1
  Tm  Tm4  1  0.036825  0.189892  0.500000  1
  Tm  Tm5  1  0.536825  0.036825  0.846933  1
  Tm  Tm6  1  0.689892  0.536825  0.500000  1
  Tm  Tm7  1  0.963175  0.810108  0.500000  1
  Mg  Mg8  1  0.000000  0.000000  0.000000  1
  Mg  Mg9  1  0.500000  0.500000  0.000000  1
  Ni  Ni10  1  0.123261  0.623261  0.746521  1
  Ni  Ni11  1  0.876739  0.376739  0.253479  1
  Ni  Ni12  1  0.623261  0.876739  0.500000  1
  Ni  Ni13  1  0.376739  0.123261  0.500000  1
  Pt  Pt14  1  0.250000  0.250000  0.000000  1
  Pt  Pt15  1  0.750000  0.750000  0.000000  1
