# generated using pymatgen
data_Rb3As(SeS)2
_symmetry_space_group_name_H-M   'P 1'
_cell_length_a   9.79716300
_cell_length_b   9.90998600
_cell_length_c   11.81293500
_cell_angle_alpha   90.00000000
_cell_angle_beta   90.00000000
_cell_angle_gamma   90.00000000
_symmetry_Int_Tables_number   1
_chemical_formula_structural   Rb3As(SeS)2
_chemical_formula_sum   'Rb12 As4 Se8 S8'
_cell_volume   1146.91488430
_cell_formula_units_Z   4
loop_
 _symmetry_equiv_pos_site_id
 _symmetry_equiv_pos_as_xyz
  1  'x, y, z'
loop_
 _atom_site_type_symbol
 _atom_site_label
 _atom_site_symmetry_multiplicity
 _atom_site_fract_x
 _atom_site_fract_y
 _atom_site_fract_z
 _atom_site_occupancy
  Rb  Rb0  1  0.551500  0.694858  0.051229  1
  Rb  Rb1  1  0.051500  0.805142  0.448771  1
  Rb  Rb2  1  0.448500  0.305142  0.551229  1
  Rb  Rb3  1  0.948500  0.194858  0.948771  1
  Rb  Rb4  1  0.448500  0.305142  0.948771  1
  Rb  Rb5  1  0.948500  0.194858  0.551229  1
  Rb  Rb6  1  0.551500  0.694858  0.448771  1
  Rb  Rb7  1  0.051500  0.805142  0.051229  1
  Rb  Rb8  1  0.353826  0.093066  0.250000  1
  Rb  Rb9  1  0.853826  0.406934  0.250000  1
  Rb  Rb10  1  0.646174  0.906934  0.750000  1
  Rb  Rb11  1  0.146174  0.593066  0.750000  1
  As  As12  1  0.275579  0.523676  0.250000  1
  As  As13  1  0.775579  0.976324  0.250000  1
  As  As14  1  0.724421  0.476324  0.750000  1
  As  As15  1  0.224421  0.023676  0.750000  1
  Se  Se16  1  0.154898  0.463003  0.083679  1
  Se  Se17  1  0.654898  0.036997  0.416321  1
  Se  Se18  1  0.845102  0.536997  0.583679  1
  Se  Se19  1  0.345102  0.963003  0.916321  1
  Se  Se20  1  0.845102  0.536997  0.916321  1
  Se  Se21  1  0.345102  0.963003  0.583679  1
  Se  Se22  1  0.154898  0.463003  0.416321  1
  Se  Se23  1  0.654898  0.036997  0.083679  1
  S  S24  1  0.303345  0.743589  0.250000  1
  S  S25  1  0.803345  0.756411  0.250000  1
  S  S26  1  0.696655  0.256411  0.750000  1
  S  S27  1  0.196655  0.243589  0.750000  1
  S  S28  1  0.477037  0.423884  0.250000  1
  S  S29  1  0.977037  0.076116  0.250000  1
  S  S30  1  0.522963  0.576116  0.750000  1
  S  S31  1  0.022963  0.923884  0.750000  1
