# generated using pymatgen
data_LaMnSb12Os2Pd
_symmetry_space_group_name_H-M   'P 1'
_cell_length_a   8.16347735
_cell_length_b   8.12427339
_cell_length_c   8.14461644
_cell_angle_alpha   109.42043315
_cell_angle_beta   109.52963725
_cell_angle_gamma   109.56105145
_symmetry_Int_Tables_number   1
_chemical_formula_structural   LaMnSb12Os2Pd
_chemical_formula_sum   'La1 Mn1 Sb12 Os2 Pd1'
_cell_volume   415.32154664
_cell_formula_units_Z   1
loop_
 _symmetry_equiv_pos_site_id
 _symmetry_equiv_pos_as_xyz
  1  'x, y, z'
loop_
 _atom_site_type_symbol
 _atom_site_label
 _atom_site_symmetry_multiplicity
 _atom_site_fract_x
 _atom_site_fract_y
 _atom_site_fract_z
 _atom_site_occupancy
  La  La0  1  0.000000  0.000000  0.000000  1
  Mn  Mn1  1  0.000000  0.000000  0.500000  1
  Sb  Sb2  1  0.328702  0.181468  0.832144  1
  Sb  Sb3  1  0.671298  0.818532  0.167856  1
  Sb  Sb4  1  0.661500  0.502764  0.842583  1
  Sb  Sb5  1  0.338500  0.497236  0.157417  1
  Sb  Sb6  1  0.171570  0.844176  0.340008  1
  Sb  Sb7  1  0.828430  0.155824  0.659992  1
  Sb  Sb8  1  0.502461  0.843085  0.653138  1
  Sb  Sb9  1  0.497539  0.156915  0.346862  1
  Sb  Sb10  1  0.849704  0.346787  0.189698  1
  Sb  Sb11  1  0.150296  0.653213  0.810302  1
  Sb  Sb12  1  0.842805  0.671290  0.504685  1
  Sb  Sb13  1  0.157195  0.328710  0.495315  1
  Os  Os14  1  0.000000  0.500000  0.000000  1
  Os  Os15  1  0.500000  0.500000  0.500000  1
  Pd  Pd16  1  0.500000  0.000000  0.000000  1
