# generated using pymatgen
data_Ti6Al6MoRh11
_symmetry_space_group_name_H-M   'P 1'
_cell_length_a   4.26645100
_cell_length_b   6.38334400
_cell_length_c   12.74419900
_cell_angle_alpha   90.00148681
_cell_angle_beta   89.99989677
_cell_angle_gamma   90.00000000
_symmetry_Int_Tables_number   1
_chemical_formula_structural   Ti6Al6MoRh11
_chemical_formula_sum   'Ti6 Al6 Mo1 Rh11'
_cell_volume   347.07837521
_cell_formula_units_Z   1
loop_
 _symmetry_equiv_pos_site_id
 _symmetry_equiv_pos_as_xyz
  1  'x, y, z'
loop_
 _atom_site_type_symbol
 _atom_site_label
 _atom_site_symmetry_multiplicity
 _atom_site_fract_x
 _atom_site_fract_y
 _atom_site_fract_z
 _atom_site_occupancy
  Ti  Ti0  1  0.000000  0.005481  0.000021  1
  Ti  Ti1  1  0.499980  0.496642  0.165454  1
  Ti  Ti2  1  0.999978  0.999498  0.333113  1
  Ti  Ti3  1  0.499999  0.500611  0.499986  1
  Ti  Ti4  1  0.000022  0.999480  0.666843  1
  Ti  Ti5  1  0.500019  0.496668  0.834538  1
  Al  Al6  1  0.999999  0.502994  0.000036  1
  Al  Al7  1  0.499992  0.998979  0.167604  1
  Al  Al8  1  0.999991  0.500520  0.333924  1
  Al  Al9  1  0.500000  0.998575  0.499961  1
  Al  Al10  1  0.000014  0.500518  0.666027  1
  Al  Al11  1  0.500007  0.998947  0.832421  1
  Mo  Mo12  1  0.500000  0.252119  0.000032  1
  Rh  Rh13  1  0.500001  0.749076  0.999976  1
  Rh  Rh14  1  0.999985  0.250411  0.171680  1
  Rh  Rh15  1  0.999972  0.750752  0.169012  1
  Rh  Rh16  1  0.499982  0.248916  0.336623  1
  Rh  Rh17  1  0.499978  0.750111  0.335393  1
  Rh  Rh18  1  0.000000  0.249804  0.500015  1
  Rh  Rh19  1  0.000001  0.749721  0.500026  1
  Rh  Rh20  1  0.500019  0.248940  0.663382  1
  Rh  Rh21  1  0.500020  0.750066  0.664650  1
  Rh  Rh22  1  0.000015  0.250361  0.828303  1
  Rh  Rh23  1  0.000017  0.750811  0.830979  1
