# generated using pymatgen
data_Ac8Mn3Si12Ag
_symmetry_space_group_name_H-M   'P 1'
_cell_length_a   11.81440262
_cell_length_b   10.15777662
_cell_length_c   8.51000103
_cell_angle_alpha   77.97538128
_cell_angle_beta   57.22293681
_cell_angle_gamma   44.78897989
_symmetry_Int_Tables_number   1
_chemical_formula_structural   Ac8Mn3Si12Ag
_chemical_formula_sum   'Ac8 Mn3 Si12 Ag1'
_cell_volume   577.64463525
_cell_formula_units_Z   1
loop_
 _symmetry_equiv_pos_site_id
 _symmetry_equiv_pos_as_xyz
  1  'x, y, z'
loop_
 _atom_site_type_symbol
 _atom_site_label
 _atom_site_symmetry_multiplicity
 _atom_site_fract_x
 _atom_site_fract_y
 _atom_site_fract_z
 _atom_site_occupancy
  Ac  Ac0  1  0.379754  0.376124  0.618250  1
  Ac  Ac1  1  0.618254  0.625873  0.379749  1
  Ac  Ac2  1  0.871933  0.873695  0.628152  1
  Ac  Ac3  1  0.628151  0.626220  0.871928  1
  Ac  Ac4  1  0.871068  0.882198  0.125929  1
  Ac  Ac5  1  0.125932  0.120799  0.871067  1
  Ac  Ac6  1  0.376722  0.373032  0.128516  1
  Ac  Ac7  1  0.128521  0.121724  0.376723  1
  Mn  Mn8  1  0.831122  0.168872  0.831131  1
  Mn  Mn9  1  0.168153  0.831853  0.168135  1
  Mn  Mn10  1  0.416615  0.083395  0.416595  1
  Si  Si11  1  0.666182  0.333812  0.666191  1
  Si  Si12  1  0.333742  0.666264  0.333728  1
  Si  Si13  1  0.580296  0.919692  0.580321  1
  Si  Si14  1  0.911510  0.588490  0.911519  1
  Si  Si15  1  0.330376  0.665253  0.837858  1
  Si  Si16  1  0.164350  0.834555  0.668377  1
  Si  Si17  1  0.837850  0.166524  0.330387  1
  Si  Si18  1  0.668383  0.332699  0.164344  1
  Si  Si19  1  0.911816  0.591029  0.426495  1
  Si  Si20  1  0.087242  0.411368  0.582549  1
  Si  Si21  1  0.426479  0.070694  0.911795  1
  Si  Si22  1  0.582526  0.918828  0.087253  1
  Ag  Ag23  1  0.083022  0.417005  0.083008  1
