# generated using pymatgen
data_UMn2P2Rh
_symmetry_space_group_name_H-M   'P 1'
_cell_length_a   3.69587500
_cell_length_b   10.89932500
_cell_length_c   12.66311900
_cell_angle_alpha   90.00000000
_cell_angle_beta   90.00000000
_cell_angle_gamma   90.00000000
_symmetry_Int_Tables_number   1
_chemical_formula_structural   UMn2P2Rh
_chemical_formula_sum   'U6 Mn12 P12 Rh6'
_cell_volume   510.10263290
_cell_formula_units_Z   6
loop_
 _symmetry_equiv_pos_site_id
 _symmetry_equiv_pos_as_xyz
  1  'x, y, z'
loop_
 _atom_site_type_symbol
 _atom_site_label
 _atom_site_symmetry_multiplicity
 _atom_site_fract_x
 _atom_site_fract_y
 _atom_site_fract_z
 _atom_site_occupancy
  U  U0  1  0.000000  0.500000  0.520617  1
  U  U1  1  0.500000  0.000000  0.479383  1
  U  U2  1  0.500000  0.821349  0.203997  1
  U  U3  1  0.500000  0.178651  0.203997  1
  U  U4  1  0.000000  0.678651  0.796003  1
  U  U5  1  0.000000  0.321349  0.796003  1
  Mn  Mn6  1  0.500000  0.500000  0.150848  1
  Mn  Mn7  1  0.000000  0.000000  0.849152  1
  Mn  Mn8  1  0.000000  0.500000  0.989332  1
  Mn  Mn9  1  0.500000  0.000000  0.010668  1
  Mn  Mn10  1  0.500000  0.332809  0.995315  1
  Mn  Mn11  1  0.500000  0.667191  0.995315  1
  Mn  Mn12  1  0.000000  0.167191  0.004685  1
  Mn  Mn13  1  0.000000  0.832809  0.004685  1
  Mn  Mn14  1  0.500000  0.304991  0.431564  1
  Mn  Mn15  1  0.500000  0.695009  0.431564  1
  Mn  Mn16  1  0.000000  0.195009  0.568436  1
  Mn  Mn17  1  0.000000  0.804991  0.568436  1
  P  P18  1  0.500000  0.500000  0.888694  1
  P  P19  1  0.000000  0.000000  0.111306  1
  P  P20  1  0.500000  0.500000  0.351579  1
  P  P21  1  0.000000  0.000000  0.648421  1
  P  P22  1  0.500000  0.307008  0.606325  1
  P  P23  1  0.500000  0.692992  0.606325  1
  P  P24  1  0.000000  0.192992  0.393675  1
  P  P25  1  0.000000  0.807008  0.393675  1
  P  P26  1  0.500000  0.842768  0.898059  1
  P  P27  1  0.500000  0.157232  0.898059  1
  P  P28  1  0.000000  0.657232  0.101941  1
  P  P29  1  0.000000  0.342768  0.101941  1
  Rh  Rh30  1  0.500000  0.500000  0.701302  1
  Rh  Rh31  1  0.000000  0.000000  0.298698  1
  Rh  Rh32  1  0.500000  0.872547  0.714464  1
  Rh  Rh33  1  0.500000  0.127453  0.714464  1
  Rh  Rh34  1  0.000000  0.627453  0.285536  1
  Rh  Rh35  1  0.000000  0.372547  0.285536  1
