# generated using pymatgen
data_Y16Tm3LuIr12
_symmetry_space_group_name_H-M   'P 1'
_cell_length_a   10.91810500
_cell_length_b   10.91810500
_cell_length_c   6.36570100
_cell_angle_alpha   90.00000000
_cell_angle_beta   90.00000000
_cell_angle_gamma   90.00000000
_symmetry_Int_Tables_number   1
_chemical_formula_structural   Y16Tm3LuIr12
_chemical_formula_sum   'Y16 Tm3 Lu1 Ir12'
_cell_volume   758.82349459
_cell_formula_units_Z   1
loop_
 _symmetry_equiv_pos_site_id
 _symmetry_equiv_pos_as_xyz
  1  'x, y, z'
loop_
 _atom_site_type_symbol
 _atom_site_label
 _atom_site_symmetry_multiplicity
 _atom_site_fract_x
 _atom_site_fract_y
 _atom_site_fract_z
 _atom_site_occupancy
  Y  Y0  1  0.290644  0.087830  0.378371  1
  Y  Y1  1  0.290643  0.912176  0.878378  1
  Y  Y2  1  0.709357  0.087824  0.878378  1
  Y  Y3  1  0.709356  0.912170  0.378371  1
  Y  Y4  1  0.587824  0.790635  0.878370  1
  Y  Y5  1  0.587818  0.209389  0.378383  1
  Y  Y6  1  0.412182  0.790611  0.378383  1
  Y  Y7  1  0.412176  0.209365  0.878370  1
  Y  Y8  1  0.209389  0.412182  0.621617  1
  Y  Y9  1  0.209365  0.587824  0.121630  1
  Y  Y10  1  0.790635  0.412176  0.121630  1
  Y  Y11  1  0.790611  0.587818  0.621617  1
  Y  Y12  1  0.912176  0.709357  0.121622  1
  Y  Y13  1  0.912170  0.290644  0.621629  1
  Y  Y14  1  0.087830  0.709356  0.621629  1
  Y  Y15  1  0.087824  0.290643  0.121622  1
  Tm  Tm16  1  0.000000  0.000000  0.500000  1
  Tm  Tm17  1  0.000000  0.000000  0.000000  1
  Tm  Tm18  1  0.500000  0.500000  0.000000  1
  Lu  Lu19  1  0.500000  0.500000  0.500000  1
  Ir  Ir20  1  0.849122  0.150877  0.250001  1
  Ir  Ir21  1  0.849123  0.849122  0.749999  1
  Ir  Ir22  1  0.150877  0.150878  0.749999  1
  Ir  Ir23  1  0.150878  0.849123  0.250001  1
  Ir  Ir24  1  0.650829  0.349168  0.749928  1
  Ir  Ir25  1  0.650832  0.650829  0.250072  1
  Ir  Ir26  1  0.349168  0.349171  0.250072  1
  Ir  Ir27  1  0.349171  0.650832  0.749928  1
  Ir  Ir28  1  0.500000  0.000000  0.123988  1
  Ir  Ir29  1  0.500000  0.000000  0.623986  1
  Ir  Ir30  1  0.000000  0.500000  0.876012  1
  Ir  Ir31  1  0.000000  0.500000  0.376014  1
