# generated using pymatgen
data_Nd15DyCdCo4Hg3
_symmetry_space_group_name_H-M   'P 1'
_cell_length_a   9.78007142
_cell_length_b   9.76869930
_cell_length_c   9.80990100
_cell_angle_alpha   59.86037699
_cell_angle_beta   59.89905080
_cell_angle_gamma   60.15225368
_symmetry_Int_Tables_number   1
_chemical_formula_structural   Nd15DyCdCo4Hg3
_chemical_formula_sum   'Nd15 Dy1 Cd1 Co4 Hg3'
_cell_volume   662.26484070
_cell_formula_units_Z   1
loop_
 _symmetry_equiv_pos_site_id
 _symmetry_equiv_pos_as_xyz
  1  'x, y, z'
loop_
 _atom_site_type_symbol
 _atom_site_label
 _atom_site_symmetry_multiplicity
 _atom_site_fract_x
 _atom_site_fract_y
 _atom_site_fract_z
 _atom_site_occupancy
  Nd  Nd0  1  0.151085  0.542893  0.153011  1
  Nd  Nd1  1  0.687799  0.310493  0.689853  1
  Nd  Nd2  1  0.687799  0.310493  0.311855  1
  Nd  Nd3  1  0.941025  0.559450  0.562002  1
  Nd  Nd4  1  0.544888  0.150632  0.152240  1
  Nd  Nd5  1  0.154040  0.154185  0.542241  1
  Nd  Nd6  1  0.941578  0.940874  0.558774  1
  Nd  Nd7  1  0.312056  0.686850  0.312253  1
  Nd  Nd8  1  0.560025  0.940524  0.937191  1
  Nd  Nd9  1  0.560025  0.940524  0.562261  1
  Nd  Nd10  1  0.691341  0.691238  0.308711  1
  Nd  Nd11  1  0.560334  0.559558  0.940054  1
  Nd  Nd12  1  0.941025  0.559450  0.937523  1
  Nd  Nd13  1  0.312056  0.686850  0.688841  1
  Nd  Nd14  1  0.154040  0.154185  0.149534  1
  Dy  Dy15  1  0.310082  0.309739  0.690090  1
  Cd  Cd16  1  0.236787  0.922742  0.920236  1
  Co  Co17  1  0.358400  0.358228  0.920881  1
  Co  Co18  1  0.358193  0.922505  0.359651  1
  Co  Co19  1  0.922978  0.357829  0.359597  1
  Co  Co20  1  0.358400  0.358228  0.362492  1
  Hg  Hg21  1  0.919588  0.249738  0.915337  1
  Hg  Hg22  1  0.918229  0.916397  0.916335  1
  Hg  Hg23  1  0.918229  0.916397  0.249039  1
