# generated using pymatgen
data_TbHo2Tm5(CdPt)2
_symmetry_space_group_name_H-M   'P 1'
_cell_length_a   9.60210732
_cell_length_b   9.60210753
_cell_length_c   9.59986600
_cell_angle_alpha   60.00771499
_cell_angle_beta   60.00771426
_cell_angle_gamma   59.98454782
_symmetry_Int_Tables_number   1
_chemical_formula_structural   TbHo2Tm5(CdPt)2
_chemical_formula_sum   'Tb2 Ho4 Tm10 Cd4 Pt4'
_cell_volume   625.86861108
_cell_formula_units_Z   2
loop_
 _symmetry_equiv_pos_site_id
 _symmetry_equiv_pos_as_xyz
  1  'x, y, z'
loop_
 _atom_site_type_symbol
 _atom_site_label
 _atom_site_symmetry_multiplicity
 _atom_site_fract_x
 _atom_site_fract_y
 _atom_site_fract_z
 _atom_site_occupancy
  Tb  Tb0  1  0.564337  0.564337  0.935663  1
  Tb  Tb1  1  0.935663  0.935663  0.564337  1
  Ho  Ho2  1  0.936014  0.563986  0.563986  1
  Ho  Ho3  1  0.563986  0.936014  0.936014  1
  Ho  Ho4  1  0.563986  0.936014  0.563986  1
  Ho  Ho5  1  0.936014  0.563986  0.936014  1
  Tm  Tm6  1  0.351566  0.351566  0.351804  1
  Tm  Tm7  1  0.351566  0.351566  0.945065  1
  Tm  Tm8  1  0.351804  0.945065  0.351566  1
  Tm  Tm9  1  0.945065  0.351804  0.351566  1
  Tm  Tm10  1  0.810697  0.189303  0.189303  1
  Tm  Tm11  1  0.189303  0.810697  0.810697  1
  Tm  Tm12  1  0.189303  0.810697  0.189303  1
  Tm  Tm13  1  0.810697  0.189303  0.810697  1
  Tm  Tm14  1  0.189303  0.189303  0.810697  1
  Tm  Tm15  1  0.810697  0.810697  0.189303  1
  Cd  Cd16  1  0.581540  0.581540  0.581297  1
  Cd  Cd17  1  0.581540  0.581540  0.255624  1
  Cd  Cd18  1  0.581297  0.255624  0.581540  1
  Cd  Cd19  1  0.255624  0.581297  0.581540  1
  Pt  Pt20  1  0.143017  0.143017  0.142771  1
  Pt  Pt21  1  0.143017  0.143017  0.571198  1
  Pt  Pt22  1  0.142771  0.571198  0.143017  1
  Pt  Pt23  1  0.571198  0.142771  0.143017  1
