# generated using pymatgen
data_Tb3Dy5(ErPt4)2
_symmetry_space_group_name_H-M   'P 1'
_cell_length_a   7.48072400
_cell_length_b   7.58410202
_cell_length_c   14.78105504
_cell_angle_alpha   90.00797373
_cell_angle_beta   90.00000000
_cell_angle_gamma   90.00000000
_symmetry_Int_Tables_number   1
_chemical_formula_structural   Tb3Dy5(ErPt4)2
_chemical_formula_sum   'Tb6 Dy10 Er4 Pt16'
_cell_volume   838.59685242
_cell_formula_units_Z   2
loop_
 _symmetry_equiv_pos_site_id
 _symmetry_equiv_pos_as_xyz
  1  'x, y, z'
loop_
 _atom_site_type_symbol
 _atom_site_label
 _atom_site_symmetry_multiplicity
 _atom_site_fract_x
 _atom_site_fract_y
 _atom_site_fract_z
 _atom_site_occupancy
  Tb  Tb0  1  0.498342  0.320217  0.093197  1
  Tb  Tb1  1  0.998342  0.179783  0.406803  1
  Tb  Tb2  1  0.498366  0.320332  0.406858  1
  Tb  Tb3  1  0.998366  0.179668  0.093142  1
  Tb  Tb4  1  0.501639  0.679872  0.906816  1
  Tb  Tb5  1  0.001639  0.820128  0.593184  1
  Dy  Dy6  1  0.656836  0.168010  0.622645  1
  Dy  Dy7  1  0.156836  0.331990  0.877355  1
  Dy  Dy8  1  0.343047  0.832018  0.122619  1
  Dy  Dy9  1  0.843047  0.667982  0.377381  1
  Dy  Dy10  1  0.343252  0.831886  0.377426  1
  Dy  Dy11  1  0.843252  0.668114  0.122574  1
  Dy  Dy12  1  0.656984  0.167912  0.877369  1
  Dy  Dy13  1  0.156984  0.332088  0.622631  1
  Dy  Dy14  1  0.501862  0.679866  0.593261  1
  Dy  Dy15  1  0.001862  0.820134  0.906739  1
  Er  Er16  1  0.818996  0.512664  0.749970  1
  Er  Er17  1  0.318996  0.987336  0.750030  1
  Er  Er18  1  0.180920  0.487494  0.249986  1
  Er  Er19  1  0.680920  0.012506  0.250014  1
  Pt  Pt20  1  0.683145  0.967626  0.457972  1
  Pt  Pt21  1  0.183145  0.532374  0.042028  1
  Pt  Pt22  1  0.316409  0.031958  0.957870  1
  Pt  Pt23  1  0.816409  0.468042  0.542130  1
  Pt  Pt24  1  0.316919  0.031909  0.542142  1
  Pt  Pt25  1  0.816919  0.468091  0.957858  1
  Pt  Pt26  1  0.683327  0.967654  0.041986  1
  Pt  Pt27  1  0.183327  0.532346  0.458014  1
  Pt  Pt28  1  0.454255  0.387850  0.749909  1
  Pt  Pt29  1  0.954255  0.112150  0.750091  1
  Pt  Pt30  1  0.545749  0.612324  0.250004  1
  Pt  Pt31  1  0.045749  0.887676  0.249996  1
  Pt  Pt32  1  0.682266  0.856018  0.749903  1
  Pt  Pt33  1  0.182266  0.643982  0.750097  1
  Pt  Pt34  1  0.317687  0.143804  0.249996  1
  Pt  Pt35  1  0.817687  0.356196  0.250004  1
