# generated using pymatgen
data_Sm2Ga(Co2Si)3
_symmetry_space_group_name_H-M   'P 1'
_cell_length_a   6.33811767
_cell_length_b   6.33602227
_cell_length_c   6.33811800
_cell_angle_alpha   130.64144831
_cell_angle_beta   112.99960846
_cell_angle_gamma   87.60166499
_symmetry_Int_Tables_number   1
_chemical_formula_structural   Sm2Ga(Co2Si)3
_chemical_formula_sum   'Sm2 Ga1 Co6 Si3'
_cell_volume   169.34499979
_cell_formula_units_Z   1
loop_
 _symmetry_equiv_pos_site_id
 _symmetry_equiv_pos_as_xyz
  1  'x, y, z'
loop_
 _atom_site_type_symbol
 _atom_site_label
 _atom_site_symmetry_multiplicity
 _atom_site_fract_x
 _atom_site_fract_y
 _atom_site_fract_z
 _atom_site_occupancy
  Sm  Sm0  1  0.251007  0.533301  0.282294  1
  Sm  Sm1  1  0.749718  0.475387  0.725668  1
  Ga  Ga2  1  0.089051  0.874823  0.785772  1
  Co  Co3  1  0.719298  0.003524  0.724253  1
  Co  Co4  1  0.233875  0.493736  0.732727  1
  Co  Co5  1  0.279270  0.003524  0.284224  1
  Co  Co6  1  0.761010  0.493736  0.259861  1
  Co  Co7  1  0.981767  0.001301  0.478029  1
  Co  Co8  1  0.523272  0.001301  0.019535  1
  Si  Si9  1  0.929980  0.141714  0.211734  1
  Si  Si10  1  0.574599  0.784830  0.210232  1
  Si  Si11  1  0.407151  0.192824  0.785673  1
