# generated using pymatgen
data_Dy7Ho3(In2Rh)4
_symmetry_space_group_name_H-M   'P 1'
_cell_length_a   3.63016800
_cell_length_b   8.02011041
_cell_length_c   18.31881769
_cell_angle_alpha   89.99375897
_cell_angle_beta   90.00000000
_cell_angle_gamma   90.00000000
_symmetry_Int_Tables_number   1
_chemical_formula_structural   Dy7Ho3(In2Rh)4
_chemical_formula_sum   'Dy7 Ho3 In8 Rh4'
_cell_volume   533.34043305
_cell_formula_units_Z   1
loop_
 _symmetry_equiv_pos_site_id
 _symmetry_equiv_pos_as_xyz
  1  'x, y, z'
loop_
 _atom_site_type_symbol
 _atom_site_label
 _atom_site_symmetry_multiplicity
 _atom_site_fract_x
 _atom_site_fract_y
 _atom_site_fract_z
 _atom_site_occupancy
  Dy  Dy0  1  0.500000  0.754076  0.721208  1
  Dy  Dy1  1  0.500000  0.253918  0.778877  1
  Dy  Dy2  1  0.500000  0.500116  0.999943  1
  Dy  Dy3  1  0.500000  0.746502  0.221152  1
  Dy  Dy4  1  0.500000  0.246268  0.278587  1
  Dy  Dy5  1  0.500000  0.999570  0.500256  1
  Dy  Dy6  1  0.500000  0.617002  0.411364  1
  Ho  Ho7  1  0.500000  0.382771  0.588949  1
  Ho  Ho8  1  0.500000  0.882414  0.911072  1
  Ho  Ho9  1  0.500000  0.117759  0.088776  1
  In  In10  1  0.000000  0.794692  0.068088  1
  In  In11  1  0.000000  0.928537  0.349070  1
  In  In12  1  0.000000  0.072785  0.651061  1
  In  In13  1  0.000000  0.571682  0.849041  1
  In  In14  1  0.000000  0.705847  0.568451  1
  In  In15  1  0.000000  0.205628  0.931808  1
  In  In16  1  0.000000  0.292741  0.431844  1
  In  In17  1  0.000000  0.428127  0.150720  1
  Rh  Rh18  1  0.000000  0.976574  0.805027  1
  Rh  Rh19  1  0.000000  0.522962  0.304784  1
  Rh  Rh20  1  0.000000  0.476346  0.695025  1
  Rh  Rh21  1  0.000000  0.023680  0.194900  1
