# generated using pymatgen
data_La3Gd7(Al2Ru3)2
_symmetry_space_group_name_H-M   'P 1'
_cell_length_a   8.59392914
_cell_length_b   8.59392681
_cell_length_c   8.59392900
_cell_angle_alpha   110.08127812
_cell_angle_beta   110.08127954
_cell_angle_gamma   110.08127459
_symmetry_Int_Tables_number   1
_chemical_formula_structural   La3Gd7(Al2Ru3)2
_chemical_formula_sum   'La3 Gd7 Al4 Ru6'
_cell_volume   477.24520480
_cell_formula_units_Z   1
loop_
 _symmetry_equiv_pos_site_id
 _symmetry_equiv_pos_as_xyz
  1  'x, y, z'
loop_
 _atom_site_type_symbol
 _atom_site_label
 _atom_site_symmetry_multiplicity
 _atom_site_fract_x
 _atom_site_fract_y
 _atom_site_fract_z
 _atom_site_occupancy
  La  La0  1  0.254888  0.194430  0.938946  1
  La  La1  1  0.938946  0.254888  0.194430  1
  La  La2  1  0.194430  0.938946  0.254888  1
  Gd  Gd3  1  0.789713  0.789713  0.789713  1
  Gd  Gd4  1  0.317948  0.569405  0.753453  1
  Gd  Gd5  1  0.753453  0.317948  0.569405  1
  Gd  Gd6  1  0.569405  0.753453  0.317948  1
  Gd  Gd7  1  0.711372  0.505595  0.996416  1
  Gd  Gd8  1  0.996416  0.711372  0.505595  1
  Gd  Gd9  1  0.505595  0.996416  0.711372  1
  Al  Al10  1  0.423083  0.423083  0.423083  1
  Al  Al11  1  0.084008  0.495941  0.998561  1
  Al  Al12  1  0.998561  0.084008  0.495941  1
  Al  Al13  1  0.495941  0.998561  0.084008  1
  Ru  Ru14  1  0.880929  0.118625  0.740381  1
  Ru  Ru15  1  0.740381  0.880929  0.118625  1
  Ru  Ru16  1  0.118625  0.740381  0.880929  1
  Ru  Ru17  1  0.244829  0.611391  0.370089  1
  Ru  Ru18  1  0.370089  0.244829  0.611391  1
  Ru  Ru19  1  0.611391  0.370089  0.244829  1
