# generated using pymatgen
data_YTmHf2(Co5P3)4
_symmetry_space_group_name_H-M   'P 1'
_cell_length_a   3.61403900
_cell_length_b   10.19055206
_cell_length_c   11.64901507
_cell_angle_alpha   90.01258931
_cell_angle_beta   90.00000000
_cell_angle_gamma   90.00000000
_symmetry_Int_Tables_number   1
_chemical_formula_structural   YTmHf2(Co5P3)4
_chemical_formula_sum   'Y1 Tm1 Hf2 Co20 P12'
_cell_volume   429.02217819
_cell_formula_units_Z   1
loop_
 _symmetry_equiv_pos_site_id
 _symmetry_equiv_pos_as_xyz
  1  'x, y, z'
loop_
 _atom_site_type_symbol
 _atom_site_label
 _atom_site_symmetry_multiplicity
 _atom_site_fract_x
 _atom_site_fract_y
 _atom_site_fract_z
 _atom_site_occupancy
  Y  Y0  1  0.750000  0.417498  0.296675  1
  Tm  Tm1  1  0.750000  0.082282  0.796807  1
  Hf  Hf2  1  0.250000  0.581496  0.701310  1
  Hf  Hf3  1  0.250000  0.918561  0.201267  1
  Co  Co4  1  0.250000  0.719732  0.993674  1
  Co  Co5  1  0.250000  0.780767  0.494248  1
  Co  Co6  1  0.750000  0.281745  0.007931  1
  Co  Co7  1  0.750000  0.217913  0.508300  1
  Co  Co8  1  0.250000  0.410049  0.491266  1
  Co  Co9  1  0.250000  0.090114  0.989547  1
  Co  Co10  1  0.750000  0.593420  0.517079  1
  Co  Co11  1  0.750000  0.907011  0.016770  1
  Co  Co12  1  0.250000  0.220983  0.177448  1
  Co  Co13  1  0.250000  0.277860  0.678119  1
  Co  Co14  1  0.750000  0.776315  0.822591  1
  Co  Co15  1  0.750000  0.724136  0.322729  1
  Co  Co16  1  0.250000  0.880791  0.699289  1
  Co  Co17  1  0.250000  0.620460  0.198627  1
  Co  Co18  1  0.750000  0.112665  0.298873  1
  Co  Co19  1  0.750000  0.386600  0.798678  1
  Co  Co20  1  0.250000  0.470053  0.927764  1
  Co  Co21  1  0.250000  0.029329  0.428630  1
  Co  Co22  1  0.750000  0.535553  0.066276  1
  Co  Co23  1  0.750000  0.964903  0.567283  1
  P  P24  1  0.250000  0.419225  0.110006  1
  P  P25  1  0.250000  0.080553  0.611537  1
  P  P26  1  0.750000  0.581692  0.883688  1
  P  P27  1  0.750000  0.918324  0.384181  1
  P  P28  1  0.250000  0.268757  0.871402  1
  P  P29  1  0.250000  0.229711  0.372125  1
  P  P30  1  0.750000  0.733546  0.131709  1
  P  P31  1  0.750000  0.766706  0.631841  1
  P  P32  1  0.250000  0.602022  0.390984  1
  P  P33  1  0.250000  0.899244  0.890404  1
  P  P34  1  0.750000  0.400665  0.610535  1
  P  P35  1  0.750000  0.099318  0.110410  1
