# generated using pymatgen
data_Sr9CaSi4SnPb
_symmetry_space_group_name_H-M   'P 1'
_cell_length_a   9.96573416
_cell_length_b   9.96573427
_cell_length_c   9.96573400
_cell_angle_alpha   131.52803421
_cell_angle_beta   131.52802589
_cell_angle_gamma   70.97547453
_symmetry_Int_Tables_number   1
_chemical_formula_structural   Sr9CaSi4SnPb
_chemical_formula_sum   'Sr9 Ca1 Si4 Sn1 Pb1'
_cell_volume   543.19738592
_cell_formula_units_Z   1
loop_
 _symmetry_equiv_pos_site_id
 _symmetry_equiv_pos_as_xyz
  1  'x, y, z'
loop_
 _atom_site_type_symbol
 _atom_site_label
 _atom_site_symmetry_multiplicity
 _atom_site_fract_x
 _atom_site_fract_y
 _atom_site_fract_z
 _atom_site_occupancy
  Sr  Sr0  1  0.541735  0.045211  0.856873  1
  Sr  Sr1  1  0.188338  0.684861  0.143127  1
  Sr  Sr2  1  0.045211  0.188338  0.503477  1
  Sr  Sr3  1  0.684861  0.541735  0.496523  1
  Sr  Sr4  1  0.459269  0.953824  0.143120  1
  Sr  Sr5  1  0.810702  0.316148  0.856880  1
  Sr  Sr6  1  0.953824  0.810702  0.494554  1
  Sr  Sr7  1  0.316148  0.459269  0.505446  1
  Sr  Sr8  1  0.999756  0.999756  0.000000  1
  Ca  Ca9  1  0.500193  0.500193  0.000000  1
  Si  Si10  1  0.887989  0.393721  0.281701  1
  Si  Si11  1  0.112020  0.606288  0.718299  1
  Si  Si12  1  0.393721  0.112020  0.505732  1
  Si  Si13  1  0.606288  0.887989  0.494268  1
  Sn  Sn14  1  0.750734  0.750734  0.000000  1
  Pb  Pb15  1  0.249211  0.249211  0.000000  1
