# generated using pymatgen
data_ScNb3Sn2(B2Ru5)2
_symmetry_space_group_name_H-M   'P 1'
_cell_length_a   9.51250288
_cell_length_b   9.51250288
_cell_length_c   3.04850300
_cell_angle_alpha   90.00000000
_cell_angle_beta   90.00000000
_cell_angle_gamma   90.51181774
_symmetry_Int_Tables_number   1
_chemical_formula_structural   ScNb3Sn2(B2Ru5)2
_chemical_formula_sum   'Sc1 Nb3 Sn2 B4 Ru10'
_cell_volume   275.84105278
_cell_formula_units_Z   1
loop_
 _symmetry_equiv_pos_site_id
 _symmetry_equiv_pos_as_xyz
  1  'x, y, z'
loop_
 _atom_site_type_symbol
 _atom_site_label
 _atom_site_symmetry_multiplicity
 _atom_site_fract_x
 _atom_site_fract_y
 _atom_site_fract_z
 _atom_site_occupancy
  Sc  Sc0  1  0.824245  0.675755  0.000000  1
  Nb  Nb1  1  0.175512  0.324488  0.000000  1
  Nb  Nb2  1  0.324679  0.824569  0.000000  1
  Nb  Nb3  1  0.675431  0.175321  0.000000  1
  Sn  Sn4  1  0.504545  0.501962  0.000000  1
  Sn  Sn5  1  0.998038  0.995455  0.000000  1
  B  B6  1  0.620635  0.879365  0.000000  1
  B  B7  1  0.376823  0.123177  0.000000  1
  B  B8  1  0.123091  0.620078  0.000000  1
  B  B9  1  0.879922  0.376909  0.000000  1
  Ru  Ru10  1  0.560620  0.727122  0.500000  1
  Ru  Ru11  1  0.428140  0.280468  0.500000  1
  Ru  Ru12  1  0.081775  0.779356  0.500000  1
  Ru  Ru13  1  0.932125  0.219219  0.500000  1
  Ru  Ru14  1  0.280781  0.567875  0.500000  1
  Ru  Ru15  1  0.720644  0.418225  0.500000  1
  Ru  Ru16  1  0.219532  0.071860  0.500000  1
  Ru  Ru17  1  0.772878  0.939380  0.500000  1
  Ru  Ru18  1  0.497089  0.002911  0.500000  1
  Ru  Ru19  1  0.003493  0.496507  0.500000  1
