# generated using pymatgen
data_NaSm(CO3)2
_symmetry_space_group_name_H-M   'P 1'
_cell_length_a   6.48287349
_cell_length_b   6.48287273
_cell_length_c   6.48287343
_cell_angle_alpha   46.51457578
_cell_angle_beta   46.51457926
_cell_angle_gamma   46.51458266
_symmetry_Int_Tables_number   1
_chemical_formula_structural   NaSm(CO3)2
_chemical_formula_sum   'Na1 Sm1 C2 O6'
_cell_volume   130.97089515
_cell_formula_units_Z   1
loop_
 _symmetry_equiv_pos_site_id
 _symmetry_equiv_pos_as_xyz
  1  'x, y, z'
loop_
 _atom_site_type_symbol
 _atom_site_label
 _atom_site_symmetry_multiplicity
 _atom_site_fract_x
 _atom_site_fract_y
 _atom_site_fract_z
 _atom_site_occupancy
  Na  Na0  1  0.500000  0.500000  0.500000  1
  Sm  Sm1  1  0.000000  0.000000  0.000000  1
  C  C2  1  0.253484  0.253484  0.253484  1
  C  C3  1  0.746516  0.746516  0.746516  1
  O  O4  1  0.752852  0.489031  0.996363  1
  O  O5  1  0.510969  0.003638  0.247147  1
  O  O6  1  0.003637  0.247147  0.510970  1
  O  O7  1  0.996363  0.752853  0.489030  1
  O  O8  1  0.489031  0.996362  0.752853  1
  O  O9  1  0.247148  0.510969  0.003638  1
