# generated using pymatgen
data_Nd2Ga9TcPd2
_symmetry_space_group_name_H-M   'P 1'
_cell_length_a   7.71407389
_cell_length_b   7.71407446
_cell_length_c   9.74256322
_cell_angle_alpha   90.16430683
_cell_angle_beta   90.16430281
_cell_angle_gamma   120.22083635
_symmetry_Int_Tables_number   1
_chemical_formula_structural   Nd2Ga9TcPd2
_chemical_formula_sum   'Nd4 Ga18 Tc2 Pd4'
_cell_volume   500.94904626
_cell_formula_units_Z   2
loop_
 _symmetry_equiv_pos_site_id
 _symmetry_equiv_pos_as_xyz
  1  'x, y, z'
loop_
 _atom_site_type_symbol
 _atom_site_label
 _atom_site_symmetry_multiplicity
 _atom_site_fract_x
 _atom_site_fract_y
 _atom_site_fract_z
 _atom_site_occupancy
  Nd  Nd0  1  0.995347  0.665384  0.248137  1
  Nd  Nd1  1  0.004653  0.334616  0.751863  1
  Nd  Nd2  1  0.665384  0.995347  0.248137  1
  Nd  Nd3  1  0.334616  0.004653  0.751863  1
  Ga  Ga4  1  0.131036  0.131036  0.251334  1
  Ga  Ga5  1  0.868964  0.868964  0.748666  1
  Ga  Ga6  1  0.005127  0.336370  0.077468  1
  Ga  Ga7  1  0.994873  0.663630  0.922532  1
  Ga  Ga8  1  0.998509  0.667785  0.579892  1
  Ga  Ga9  1  0.332215  0.001491  0.420108  1
  Ga  Ga10  1  0.001491  0.332215  0.420108  1
  Ga  Ga11  1  0.667785  0.998509  0.579892  1
  Ga  Ga12  1  0.663630  0.994873  0.922532  1
  Ga  Ga13  1  0.336370  0.005127  0.077468  1
  Ga  Ga14  1  0.336199  0.336199  0.569337  1
  Ga  Ga15  1  0.663801  0.663801  0.430663  1
  Ga  Ga16  1  0.657878  0.657878  0.058981  1
  Ga  Ga17  1  0.342122  0.342122  0.941019  1
  Ga  Ga18  1  0.335372  0.542329  0.245953  1
  Ga  Ga19  1  0.664628  0.457671  0.754047  1
  Ga  Ga20  1  0.542329  0.335372  0.245953  1
  Ga  Ga21  1  0.457671  0.664628  0.754047  1
  Tc  Tc22  1  0.674660  0.325340  0.000000  1
  Tc  Tc23  1  0.325340  0.674660  0.000000  1
  Pd  Pd24  1  0.330701  0.669299  0.500000  1
  Pd  Pd25  1  0.669299  0.330701  0.500000  1
  Pd  Pd26  1  0.000000  0.000000  0.000000  1
  Pd  Pd27  1  0.000000  0.000000  0.500000  1
