# generated using pymatgen
data_Tb4Ga2B4RuRh9
_symmetry_space_group_name_H-M   'P 1'
_cell_length_a   9.56152602
_cell_length_b   9.56152602
_cell_length_c   3.17732900
_cell_angle_alpha   90.00000000
_cell_angle_beta   90.00000000
_cell_angle_gamma   89.77141659
_symmetry_Int_Tables_number   1
_chemical_formula_structural   Tb4Ga2B4RuRh9
_chemical_formula_sum   'Tb4 Ga2 B4 Ru1 Rh9'
_cell_volume   290.47793811
_cell_formula_units_Z   1
loop_
 _symmetry_equiv_pos_site_id
 _symmetry_equiv_pos_as_xyz
  1  'x, y, z'
loop_
 _atom_site_type_symbol
 _atom_site_label
 _atom_site_symmetry_multiplicity
 _atom_site_fract_x
 _atom_site_fract_y
 _atom_site_fract_z
 _atom_site_occupancy
  Tb  Tb0  1  0.824374  0.324374  0.000000  1
  Tb  Tb1  1  0.325697  0.174303  0.000000  1
  Tb  Tb2  1  0.674303  0.825697  0.000000  1
  Tb  Tb3  1  0.175626  0.675626  0.000000  1
  Ga  Ga4  1  0.000000  0.000000  0.000000  1
  Ga  Ga5  1  0.500000  0.500000  0.000000  1
  B  B6  1  0.621119  0.121119  0.000000  1
  B  B7  1  0.122258  0.377742  0.000000  1
  B  B8  1  0.877742  0.622258  0.000000  1
  B  B9  1  0.378881  0.878881  0.000000  1
  Ru  Ru10  1  0.500000  0.000000  0.500000  1
  Rh  Rh11  1  0.070248  0.220084  0.500000  1
  Rh  Rh12  1  0.218543  0.928994  0.500000  1
  Rh  Rh13  1  0.781457  0.071006  0.500000  1
  Rh  Rh14  1  0.929752  0.779916  0.500000  1
  Rh  Rh15  1  0.428994  0.718543  0.500000  1
  Rh  Rh16  1  0.571006  0.281457  0.500000  1
  Rh  Rh17  1  0.720084  0.570248  0.500000  1
  Rh  Rh18  1  0.279916  0.429752  0.500000  1
  Rh  Rh19  1  0.000000  0.500000  0.500000  1
