# generated using pymatgen
data_Ba6Nb2NiO12
_symmetry_space_group_name_H-M   'P 1'
_cell_length_a   9.24328881
_cell_length_b   9.24328866
_cell_length_c   7.38195799
_cell_angle_alpha   68.00359691
_cell_angle_beta   68.00360174
_cell_angle_gamma   36.94191067
_symmetry_Int_Tables_number   1
_chemical_formula_structural   Ba6Nb2NiO12
_chemical_formula_sum   'Ba6 Nb2 Ni1 O12'
_cell_volume   348.24874645
_cell_formula_units_Z   1
loop_
 _symmetry_equiv_pos_site_id
 _symmetry_equiv_pos_as_xyz
  1  'x, y, z'
loop_
 _atom_site_type_symbol
 _atom_site_label
 _atom_site_symmetry_multiplicity
 _atom_site_fract_x
 _atom_site_fract_y
 _atom_site_fract_z
 _atom_site_occupancy
  Ba  Ba0  1  0.207558  0.207558  0.709913  1
  Ba  Ba1  1  0.888296  0.888296  0.705585  1
  Ba  Ba2  1  0.548550  0.548550  0.712120  1
  Ba  Ba3  1  0.792442  0.792442  0.290087  1
  Ba  Ba4  1  0.451450  0.451450  0.287880  1
  Ba  Ba5  1  0.111704  0.111704  0.294415  1
  Nb  Nb6  1  0.664426  0.664426  0.001271  1
  Nb  Nb7  1  0.335574  0.335574  0.998729  1
  Ni  Ni8  1  0.000000  0.000000  0.000000  1
  O  O9  1  0.281081  0.281081  0.301556  1
  O  O10  1  0.945993  0.945993  0.320184  1
  O  O11  1  0.618818  0.618818  0.302005  1
  O  O12  1  0.718919  0.718919  0.698444  1
  O  O13  1  0.381182  0.381182  0.697995  1
  O  O14  1  0.054007  0.054007  0.679816  1
  O  O15  1  0.000000  0.500000  0.000000  1
  O  O16  1  0.653855  0.172826  0.000287  1
  O  O17  1  0.346145  0.827174  0.999713  1
  O  O18  1  0.500000  0.000000  0.000000  1
  O  O19  1  0.172826  0.653855  0.000287  1
  O  O20  1  0.827174  0.346145  0.999713  1
