# generated using pymatgen
data_Ca2LaRuRh3PbO14
_symmetry_space_group_name_H-M   'P 1'
_cell_length_a   7.28957475
_cell_length_b   7.28957231
_cell_length_c   7.35073400
_cell_angle_alpha   60.27484869
_cell_angle_beta   60.27485962
_cell_angle_gamma   59.99999830
_symmetry_Int_Tables_number   1
_chemical_formula_structural   Ca2LaRuRh3PbO14
_chemical_formula_sum   'Ca2 La1 Ru1 Rh3 Pb1 O14'
_cell_volume   277.33951360
_cell_formula_units_Z   1
loop_
 _symmetry_equiv_pos_site_id
 _symmetry_equiv_pos_as_xyz
  1  'x, y, z'
loop_
 _atom_site_type_symbol
 _atom_site_label
 _atom_site_symmetry_multiplicity
 _atom_site_fract_x
 _atom_site_fract_y
 _atom_site_fract_z
 _atom_site_occupancy
  Ca  Ca0  1  0.125000  0.625000  0.625000  1
  Ca  Ca1  1  0.625000  0.625000  0.625000  1
  La  La2  1  0.625000  0.625000  0.125000  1
  Ru  Ru3  1  0.125000  0.125000  0.625000  1
  Rh  Rh4  1  0.625000  0.125000  0.125000  1
  Rh  Rh5  1  0.125000  0.625000  0.125000  1
  Rh  Rh6  1  0.125000  0.125000  0.125000  1
  Pb  Pb7  1  0.625000  0.125000  0.625000  1
  O  O8  1  0.210538  0.186322  0.799425  1
  O  O9  1  0.198688  0.793855  0.214734  1
  O  O10  1  0.454283  0.056468  0.034967  1
  O  O11  1  0.193784  0.813066  0.799368  1
  O  O12  1  0.056216  0.436934  0.450632  1
  O  O13  1  0.792722  0.793855  0.214734  1
  O  O14  1  0.457278  0.456145  0.035266  1
  O  O15  1  0.499608  0.491099  0.509684  1
  O  O16  1  0.039462  0.063678  0.450575  1
  O  O17  1  0.446285  0.063678  0.450575  1
  O  O18  1  0.051312  0.456145  0.035266  1
  O  O19  1  0.750392  0.758901  0.740316  1
  O  O20  1  0.803715  0.186322  0.799425  1
  O  O21  1  0.795717  0.193532  0.215033  1
