# generated using pymatgen
data_Ir7RhSe16
_symmetry_space_group_name_H-M   'P 1'
_cell_length_a   3.79591500
_cell_length_b   6.02043347
_cell_length_c   21.27727462
_cell_angle_alpha   90.04493088
_cell_angle_beta   90.00000000
_cell_angle_gamma   90.00000000
_symmetry_Int_Tables_number   1
_chemical_formula_structural   Ir7RhSe16
_chemical_formula_sum   'Ir7 Rh1 Se16'
_cell_volume   486.25055007
_cell_formula_units_Z   1
loop_
 _symmetry_equiv_pos_site_id
 _symmetry_equiv_pos_as_xyz
  1  'x, y, z'
loop_
 _atom_site_type_symbol
 _atom_site_label
 _atom_site_symmetry_multiplicity
 _atom_site_fract_x
 _atom_site_fract_y
 _atom_site_fract_z
 _atom_site_occupancy
  Ir  Ir0  1  0.250000  0.071967  0.576355  1
  Ir  Ir1  1  0.250000  0.429516  0.076363  1
  Ir  Ir2  1  0.750000  0.929629  0.423665  1
  Ir  Ir3  1  0.750000  0.570869  0.923835  1
  Ir  Ir4  1  0.250000  0.056999  0.805072  1
  Ir  Ir5  1  0.250000  0.442441  0.305057  1
  Ir  Ir6  1  0.750000  0.942377  0.194850  1
  Rh  Rh7  1  0.750000  0.556551  0.694795  1
  Se  Se8  1  0.250000  0.428542  0.861352  1
  Se  Se9  1  0.250000  0.072414  0.361583  1
  Se  Se10  1  0.750000  0.572418  0.138431  1
  Se  Se11  1  0.750000  0.928043  0.638412  1
  Se  Se12  1  0.750000  0.180530  0.738346  1
  Se  Se13  1  0.750000  0.318750  0.238519  1
  Se  Se14  1  0.250000  0.818656  0.261455  1
  Se  Se15  1  0.250000  0.680765  0.761891  1
  Se  Se16  1  0.750000  0.952805  0.878200  1
  Se  Se17  1  0.750000  0.547308  0.378134  1
  Se  Se18  1  0.250000  0.047434  0.121845  1
  Se  Se19  1  0.250000  0.450799  0.621920  1
  Se  Se20  1  0.750000  0.223412  0.508688  1
  Se  Se21  1  0.750000  0.277233  0.008781  1
  Se  Se22  1  0.250000  0.777965  0.491214  1
  Se  Se23  1  0.250000  0.722579  0.991238  1
