# generated using pymatgen
data_Ho3Lu7(ZnIn3)2
_symmetry_space_group_name_H-M   'P 1'
_cell_length_a   9.00319196
_cell_length_b   9.01320926
_cell_length_c   6.61729500
_cell_angle_alpha   90.00000000
_cell_angle_beta   90.00000000
_cell_angle_gamma   119.87035671
_symmetry_Int_Tables_number   1
_chemical_formula_structural   Ho3Lu7(ZnIn3)2
_chemical_formula_sum   'Ho3 Lu7 Zn2 In6'
_cell_volume   465.64287360
_cell_formula_units_Z   1
loop_
 _symmetry_equiv_pos_site_id
 _symmetry_equiv_pos_as_xyz
  1  'x, y, z'
loop_
 _atom_site_type_symbol
 _atom_site_label
 _atom_site_symmetry_multiplicity
 _atom_site_fract_x
 _atom_site_fract_y
 _atom_site_fract_z
 _atom_site_occupancy
  Ho  Ho0  1  0.276482  0.002241  0.750000  1
  Ho  Ho1  1  0.724968  0.001165  0.250000  1
  Ho  Ho2  1  0.000683  0.270143  0.750000  1
  Lu  Lu3  1  0.333307  0.667004  0.499993  1
  Lu  Lu4  1  0.666355  0.337256  0.500034  1
  Lu  Lu5  1  0.666355  0.337256  0.999966  1
  Lu  Lu6  1  0.333307  0.667004  0.000007  1
  Lu  Lu7  1  0.999150  0.721597  0.250000  1
  Lu  Lu8  1  0.727578  0.728998  0.750000  1
  Lu  Lu9  1  0.271988  0.274043  0.250000  1
  Zn  Zn10  1  0.000634  0.994390  0.495092  1
  Zn  Zn11  1  0.000634  0.994390  0.004908  1
  In  In12  1  0.620100  0.999514  0.750000  1
  In  In13  1  0.375980  0.999504  0.250000  1
  In  In14  1  0.998478  0.620355  0.750000  1
  In  In15  1  0.000394  0.381142  0.250000  1
  In  In16  1  0.382320  0.383803  0.750000  1
  In  In17  1  0.621286  0.620194  0.250000  1
