# generated using pymatgen
data_HoEr(ThH5)6
_symmetry_space_group_name_H-M   'P 1'
_cell_length_a   7.81056249
_cell_length_b   7.80732231
_cell_length_c   7.77262024
_cell_angle_alpha   109.45233025
_cell_angle_beta   109.47021112
_cell_angle_gamma   109.68735418
_symmetry_Int_Tables_number   1
_chemical_formula_structural   HoEr(ThH5)6
_chemical_formula_sum   'Ho1 Er1 Th6 H30'
_cell_volume   363.97540430
_cell_formula_units_Z   1
loop_
 _symmetry_equiv_pos_site_id
 _symmetry_equiv_pos_as_xyz
  1  'x, y, z'
loop_
 _atom_site_type_symbol
 _atom_site_label
 _atom_site_symmetry_multiplicity
 _atom_site_fract_x
 _atom_site_fract_y
 _atom_site_fract_z
 _atom_site_occupancy
  Ho  Ho0  1  0.498529  0.999383  0.083804  1
  Er  Er1  1  0.914435  0.915374  0.915930  1
  Th  Th2  1  0.993566  0.078965  0.494564  1
  Th  Th3  1  0.084800  0.504933  0.000925  1
  Th  Th4  1  0.998962  0.584463  0.505532  1
  Th  Th5  1  0.583960  0.504132  0.999040  1
  Th  Th6  1  0.504645  0.998622  0.587808  1
  Th  Th7  1  0.416738  0.410865  0.412203  1
  H  H8  1  0.649594  0.963969  0.368556  1
  H  H9  1  0.218177  0.316258  0.846603  1
  H  H10  1  0.186700  0.404031  0.534876  1
  H  H11  1  0.094734  0.278209  0.124674  1
  H  H12  1  0.280868  0.121430  0.092013  1
  H  H13  1  0.123908  0.092120  0.274889  1
  H  H14  1  0.470017  0.153673  0.875105  1
  H  H15  1  0.719296  0.350781  0.813335  1
  H  H16  1  0.627345  0.379346  0.250743  1
  H  H17  1  0.250292  0.624238  0.376221  1
  H  H18  1  0.750014  0.873131  0.126002  1
  H  H19  1  0.123720  0.747057  0.873950  1
  H  H20  1  0.374072  0.248019  0.623770  1
  H  H21  1  0.876655  0.128508  0.749328  1
  H  H22  1  0.781158  0.595682  0.631690  1
  H  H23  1  0.318216  0.849854  0.221063  1
  H  H24  1  0.374070  0.659138  0.967269  1
  H  H25  1  0.963406  0.368366  0.650501  1
  H  H26  1  0.536956  0.185139  0.405176  1
  H  H27  1  0.405958  0.537437  0.186660  1
  H  H28  1  0.839805  0.216815  0.311192  1
  H  H29  1  0.906840  0.692212  0.032567  1
  H  H30  1  0.812904  0.717869  0.349505  1
  H  H31  1  0.151836  0.869156  0.465125  1
  H  H32  1  0.689407  0.029302  0.907870  1
  H  H33  1  0.348884  0.817031  0.724724  1
  H  H34  1  0.871572  0.469658  0.153412  1
  H  H35  1  0.632051  0.780099  0.595111  1
  H  H36  1  0.597449  0.629068  0.779079  1
  H  H37  1  0.028459  0.905669  0.689183  1
