# generated using pymatgen
data_Tb3HoAl2(ZnRh2)2
_symmetry_space_group_name_H-M   'P 1'
_cell_length_a   4.07762500
_cell_length_b   6.98114029
_cell_length_c   8.11493104
_cell_angle_alpha   90.19182838
_cell_angle_beta   90.00000000
_cell_angle_gamma   90.00000000
_symmetry_Int_Tables_number   1
_chemical_formula_structural   Tb3HoAl2(ZnRh2)2
_chemical_formula_sum   'Tb3 Ho1 Al2 Zn2 Rh4'
_cell_volume   231.00216420
_cell_formula_units_Z   1
loop_
 _symmetry_equiv_pos_site_id
 _symmetry_equiv_pos_as_xyz
  1  'x, y, z'
loop_
 _atom_site_type_symbol
 _atom_site_label
 _atom_site_symmetry_multiplicity
 _atom_site_fract_x
 _atom_site_fract_y
 _atom_site_fract_z
 _atom_site_occupancy
  Tb  Tb0  1  0.250000  0.539526  0.186336  1
  Tb  Tb1  1  0.750000  0.460803  0.813000  1
  Tb  Tb2  1  0.250000  0.040665  0.320969  1
  Ho  Ho3  1  0.750000  0.959354  0.679896  1
  Al  Al4  1  0.250000  0.135752  0.938073  1
  Al  Al5  1  0.750000  0.863919  0.060701  1
  Zn  Zn6  1  0.250000  0.636734  0.564093  1
  Zn  Zn7  1  0.750000  0.363519  0.436993  1
  Rh  Rh8  1  0.750000  0.746914  0.370436  1
  Rh  Rh9  1  0.250000  0.251477  0.630868  1
  Rh  Rh10  1  0.750000  0.233633  0.111697  1
  Rh  Rh11  1  0.250000  0.767703  0.886939  1
