# generated using pymatgen
data_Pr4Dy4Sc12Si15Ru
_symmetry_space_group_name_H-M   'P 1'
_cell_length_a   7.16576660
_cell_length_b   7.51980384
_cell_length_c   14.07981027
_cell_angle_alpha   89.98722505
_cell_angle_beta   90.07681271
_cell_angle_gamma   90.21418744
_symmetry_Int_Tables_number   1
_chemical_formula_structural   Pr4Dy4Sc12Si15Ru
_chemical_formula_sum   'Pr4 Dy4 Sc12 Si15 Ru1'
_cell_volume   758.68681661
_cell_formula_units_Z   1
loop_
 _symmetry_equiv_pos_site_id
 _symmetry_equiv_pos_as_xyz
  1  'x, y, z'
loop_
 _atom_site_type_symbol
 _atom_site_label
 _atom_site_symmetry_multiplicity
 _atom_site_fract_x
 _atom_site_fract_y
 _atom_site_fract_z
 _atom_site_occupancy
  Pr  Pr0  1  0.010106  0.176698  0.097331  1
  Pr  Pr1  1  0.991071  0.829000  0.903810  1
  Pr  Pr2  1  0.490461  0.671699  0.906223  1
  Pr  Pr3  1  0.991097  0.827934  0.593629  1
  Dy  Dy4  1  0.510104  0.323863  0.098593  1
  Dy  Dy5  1  0.012473  0.180624  0.401514  1
  Dy  Dy6  1  0.510595  0.323320  0.403753  1
  Dy  Dy7  1  0.488649  0.676296  0.595653  1
  Sc  Sc8  1  0.156723  0.497146  0.749151  1
  Sc  Sc9  1  0.838853  0.496115  0.250804  1
  Sc  Sc10  1  0.339009  0.004602  0.251012  1
  Sc  Sc11  1  0.668119  0.001685  0.749271  1
  Sc  Sc12  1  0.316876  0.172589  0.627224  1
  Sc  Sc13  1  0.670153  0.825657  0.373416  1
  Sc  Sc14  1  0.173124  0.675845  0.374097  1
  Sc  Sc15  1  0.671661  0.826804  0.128380  1
  Sc  Sc16  1  0.838137  0.318349  0.626871  1
  Sc  Sc17  1  0.318041  0.172012  0.870938  1
  Sc  Sc18  1  0.836310  0.320753  0.871306  1
  Sc  Sc19  1  0.172221  0.675928  0.127490  1
  Si  Si20  1  0.969151  0.880267  0.251957  1
  Si  Si21  1  0.470256  0.613946  0.250884  1
  Si  Si22  1  0.529517  0.384268  0.747643  1
  Si  Si23  1  0.291371  0.873536  0.747588  1
  Si  Si24  1  0.709494  0.128561  0.252657  1
  Si  Si25  1  0.216219  0.374063  0.252274  1
  Si  Si26  1  0.778985  0.620469  0.747082  1
  Si  Si27  1  0.160872  0.464224  0.536001  1
  Si  Si28  1  0.844128  0.531743  0.459396  1
  Si  Si29  1  0.346599  0.966875  0.458793  1
  Si  Si30  1  0.844003  0.536230  0.040278  1
  Si  Si31  1  0.649874  0.037030  0.537582  1
  Si  Si32  1  0.155592  0.465658  0.963401  1
  Si  Si33  1  0.650303  0.041241  0.962707  1
  Si  Si34  1  0.350855  0.968037  0.041630  1
  Ru  Ru35  1  0.028995  0.116936  0.749660  1
