# generated using pymatgen
data_Hf5B4MoRu10
_symmetry_space_group_name_H-M   'P 1'
_cell_length_a   3.10837800
_cell_length_b   9.47439100
_cell_length_c   9.47439100
_cell_angle_alpha   90.00000000
_cell_angle_beta   90.00000000
_cell_angle_gamma   90.00000000
_symmetry_Int_Tables_number   1
_chemical_formula_structural   Hf5B4MoRu10
_chemical_formula_sum   'Hf5 B4 Mo1 Ru10'
_cell_volume   279.02070645
_cell_formula_units_Z   1
loop_
 _symmetry_equiv_pos_site_id
 _symmetry_equiv_pos_as_xyz
  1  'x, y, z'
loop_
 _atom_site_type_symbol
 _atom_site_label
 _atom_site_symmetry_multiplicity
 _atom_site_fract_x
 _atom_site_fract_y
 _atom_site_fract_z
 _atom_site_occupancy
  Hf  Hf0  1  0.000000  0.676570  0.825026  1
  Hf  Hf1  1  0.000000  0.323430  0.174974  1
  Hf  Hf2  1  0.000000  0.825026  0.323430  1
  Hf  Hf3  1  0.000000  0.174974  0.676570  1
  Hf  Hf4  1  0.000000  0.000000  0.000000  1
  B  B5  1  0.000000  0.879431  0.621959  1
  B  B6  1  0.000000  0.120569  0.378041  1
  B  B7  1  0.000000  0.621959  0.120569  1
  B  B8  1  0.000000  0.378041  0.879431  1
  Mo  Mo9  1  0.000000  0.500000  0.500000  1
  Ru  Ru10  1  0.500000  0.715059  0.565991  1
  Ru  Ru11  1  0.500000  0.284941  0.434009  1
  Ru  Ru12  1  0.500000  0.778273  0.075980  1
  Ru  Ru13  1  0.500000  0.221727  0.924020  1
  Ru  Ru14  1  0.500000  0.565991  0.284941  1
  Ru  Ru15  1  0.500000  0.434009  0.715059  1
  Ru  Ru16  1  0.500000  0.075980  0.221727  1
  Ru  Ru17  1  0.500000  0.924020  0.778273  1
  Ru  Ru18  1  0.500000  0.000000  0.500000  1
  Ru  Ru19  1  0.500000  0.500000  0.000000  1
