# generated using pymatgen
data_Li4Nd3HoPt4
_symmetry_space_group_name_H-M   'P 1'
_cell_length_a   4.08557600
_cell_length_b   7.20947337
_cell_length_c   8.55546104
_cell_angle_alpha   90.58030348
_cell_angle_beta   90.00000000
_cell_angle_gamma   90.00000000
_symmetry_Int_Tables_number   1
_chemical_formula_structural   Li4Nd3HoPt4
_chemical_formula_sum   'Li4 Nd3 Ho1 Pt4'
_cell_volume   251.98690833
_cell_formula_units_Z   1
loop_
 _symmetry_equiv_pos_site_id
 _symmetry_equiv_pos_as_xyz
  1  'x, y, z'
loop_
 _atom_site_type_symbol
 _atom_site_label
 _atom_site_symmetry_multiplicity
 _atom_site_fract_x
 _atom_site_fract_y
 _atom_site_fract_z
 _atom_site_occupancy
  Li  Li0  1  0.250000  0.132757  0.440070  1
  Li  Li1  1  0.250000  0.626230  0.060275  1
  Li  Li2  1  0.750000  0.866363  0.555440  1
  Li  Li3  1  0.750000  0.375861  0.946431  1
  Nd  Nd4  1  0.250000  0.048018  0.815082  1
  Nd  Nd5  1  0.250000  0.543670  0.682963  1
  Nd  Nd6  1  0.750000  0.956495  0.188287  1
  Ho  Ho7  1  0.750000  0.452634  0.317304  1
  Pt  Pt8  1  0.250000  0.736677  0.376137  1
  Pt  Pt9  1  0.250000  0.255427  0.125765  1
  Pt  Pt10  1  0.750000  0.251702  0.611636  1
  Pt  Pt11  1  0.750000  0.754165  0.880611  1
