# generated using pymatgen
data_Tb4GaSb5Rh7
_symmetry_space_group_name_H-M   'P 1'
_cell_length_a   7.58750703
_cell_length_b   7.58750817
_cell_length_c   7.58750773
_cell_angle_alpha   109.14505913
_cell_angle_beta   109.63454341
_cell_angle_gamma   109.63454496
_symmetry_Int_Tables_number   1
_chemical_formula_structural   Tb4GaSb5Rh7
_chemical_formula_sum   'Tb4 Ga1 Sb5 Rh7'
_cell_volume   336.25210985
_cell_formula_units_Z   1
loop_
 _symmetry_equiv_pos_site_id
 _symmetry_equiv_pos_as_xyz
  1  'x, y, z'
loop_
 _atom_site_type_symbol
 _atom_site_label
 _atom_site_symmetry_multiplicity
 _atom_site_fract_x
 _atom_site_fract_y
 _atom_site_fract_z
 _atom_site_occupancy
  Tb  Tb0  1  0.517014  0.007668  0.007668  1
  Tb  Tb1  1  0.000000  0.490655  0.007668  1
  Tb  Tb2  1  0.000000  0.007668  0.490655  1
  Tb  Tb3  1  0.482986  0.490655  0.490655  1
  Ga  Ga4  1  0.000000  0.327804  0.327804  1
  Sb  Sb5  1  0.683890  0.998185  0.682075  1
  Sb  Sb6  1  0.683890  0.682075  0.998185  1
  Sb  Sb7  1  0.000000  0.679414  0.679414  1
  Sb  Sb8  1  0.316110  0.998185  0.314295  1
  Sb  Sb9  1  0.316110  0.314295  0.998185  1
  Rh  Rh10  1  0.000000  0.018349  0.018349  1
  Rh  Rh11  1  0.500000  0.749195  0.249195  1
  Rh  Rh12  1  0.751621  0.496664  0.248286  1
  Rh  Rh13  1  0.248379  0.745043  0.496664  1
  Rh  Rh14  1  0.248379  0.496664  0.745043  1
  Rh  Rh15  1  0.500000  0.249195  0.749195  1
  Rh  Rh16  1  0.751621  0.248286  0.496664  1
