# generated using pymatgen
data_Yb5P12Ir14Ru5
_symmetry_space_group_name_H-M   'P 1'
_cell_length_a   12.63016800
_cell_length_b   12.55545164
_cell_length_c   3.96193800
_cell_angle_alpha   90.00000000
_cell_angle_beta   90.00000000
_cell_angle_gamma   120.32128577
_symmetry_Int_Tables_number   1
_chemical_formula_structural   Yb5P12Ir14Ru5
_chemical_formula_sum   'Yb5 P12 Ir14 Ru5'
_cell_volume   542.33124599
_cell_formula_units_Z   1
loop_
 _symmetry_equiv_pos_site_id
 _symmetry_equiv_pos_as_xyz
  1  'x, y, z'
loop_
 _atom_site_type_symbol
 _atom_site_label
 _atom_site_symmetry_multiplicity
 _atom_site_fract_x
 _atom_site_fract_y
 _atom_site_fract_z
 _atom_site_occupancy
  Yb  Yb0  1  0.334433  0.665734  0.000000  1
  Yb  Yb1  1  0.667189  0.333351  0.000000  1
  Yb  Yb2  1  0.815126  0.999444  0.500000  1
  Yb  Yb3  1  0.999065  0.817737  0.500000  1
  Yb  Yb4  1  0.182196  0.184700  0.500000  1
  P  P5  1  0.178430  0.000411  0.000000  1
  P  P6  1  0.001089  0.182306  0.000000  1
  P  P7  1  0.816229  0.820997  0.000000  1
  P  P8  1  0.175222  0.481996  0.500000  1
  P  P9  1  0.518210  0.690264  0.500000  1
  P  P10  1  0.313321  0.828299  0.500000  1
  P  P11  1  0.688382  0.515192  0.500000  1
  P  P12  1  0.828841  0.313605  0.500000  1
  P  P13  1  0.484333  0.170905  0.500000  1
  P  P14  1  0.634380  0.995426  0.000000  1
  P  P15  1  0.000953  0.636980  0.000000  1
  P  P16  1  0.360467  0.364991  0.000000  1
  Ir  Ir17  1  0.363733  0.488604  0.500000  1
  Ir  Ir18  1  0.510825  0.872611  0.500000  1
  Ir  Ir19  1  0.131573  0.638418  0.500000  1
  Ir  Ir20  1  0.872107  0.512188  0.500000  1
  Ir  Ir21  1  0.640213  0.131591  0.500000  1
  Ir  Ir22  1  0.492085  0.358713  0.500000  1
  Ir  Ir23  1  0.195338  0.818777  0.000000  1
  Ir  Ir24  1  0.806552  0.624004  0.000000  1
  Ir  Ir25  1  0.816184  0.193559  0.000000  1
  Ir  Ir26  1  0.374851  0.182306  0.000000  1
  Ir  Ir27  1  0.287095  0.000011  0.500000  1
  Ir  Ir28  1  0.997422  0.286825  0.500000  1
  Ir  Ir29  1  0.713239  0.711159  0.500000  1
  Ir  Ir30  1  0.999353  0.000351  0.000000  1
  Ru  Ru31  1  0.454801  0.002395  0.000000  1
  Ru  Ru32  1  0.997964  0.453674  0.000000  1
  Ru  Ru33  1  0.548549  0.542967  0.000000  1
  Ru  Ru34  1  0.180152  0.379178  0.000000  1
  Ru  Ru35  1  0.620097  0.800334  0.000000  1
