# generated using pymatgen
data_NdTh2(RhPb)3
_symmetry_space_group_name_H-M   'P 1'
_cell_length_a   7.80210975
_cell_length_b   7.80210971
_cell_length_c   4.08647200
_cell_angle_alpha   90.00000000
_cell_angle_beta   90.00000000
_cell_angle_gamma   120.73397969
_symmetry_Int_Tables_number   1
_chemical_formula_structural   NdTh2(RhPb)3
_chemical_formula_sum   'Nd1 Th2 Rh3 Pb3'
_cell_volume   213.81759811
_cell_formula_units_Z   1
loop_
 _symmetry_equiv_pos_site_id
 _symmetry_equiv_pos_as_xyz
  1  'x, y, z'
loop_
 _atom_site_type_symbol
 _atom_site_label
 _atom_site_symmetry_multiplicity
 _atom_site_fract_x
 _atom_site_fract_y
 _atom_site_fract_z
 _atom_site_occupancy
  Nd  Nd0  1  0.407087  0.407087  0.500000  1
  Th  Th1  1  0.589548  0.999674  0.500000  1
  Th  Th2  1  0.999674  0.589548  0.500000  1
  Rh  Rh3  1  0.990229  0.990229  0.500000  1
  Rh  Rh4  1  0.682101  0.330992  0.000000  1
  Rh  Rh5  1  0.330992  0.682101  0.000000  1
  Pb  Pb6  1  0.735938  0.735938  0.000000  1
  Pb  Pb7  1  0.256736  0.007696  0.000000  1
  Pb  Pb8  1  0.007696  0.256736  0.000000  1
