# generated using pymatgen
data_ScNi4
_symmetry_space_group_name_H-M   'P 1'
_cell_length_a   4.71695993
_cell_length_b   4.71633234
_cell_length_c   10.06404213
_cell_angle_alpha   85.30213972
_cell_angle_beta   80.57358497
_cell_angle_gamma   59.99561189
_symmetry_Int_Tables_number   1
_chemical_formula_structural   ScNi4
_chemical_formula_sum   'Sc3 Ni12'
_cell_volume   191.26967610
_cell_formula_units_Z   3
loop_
 _symmetry_equiv_pos_site_id
 _symmetry_equiv_pos_as_xyz
  1  'x, y, z'
loop_
 _atom_site_type_symbol
 _atom_site_label
 _atom_site_symmetry_multiplicity
 _atom_site_fract_x
 _atom_site_fract_y
 _atom_site_fract_z
 _atom_site_occupancy
  Sc  Sc0  1  0.125568  0.000000  0.644552  1
  Sc  Sc1  1  0.000000  0.000000  0.000000  1
  Sc  Sc2  1  0.874432  0.000000  0.355448  1
  Ni  Ni3  1  0.567623  0.500190  0.800390  1
  Ni  Ni4  1  0.067813  0.499810  0.800390  1
  Ni  Ni5  1  0.432377  0.499810  0.199610  1
  Ni  Ni6  1  0.430111  0.000000  0.201633  1
  Ni  Ni7  1  0.932187  0.500190  0.199610  1
  Ni  Ni8  1  0.665396  0.669208  0.000000  1
  Ni  Ni9  1  0.569889  0.000000  0.798367  1
  Ni  Ni10  1  0.193537  0.337340  0.406346  1
  Ni  Ni11  1  0.806463  0.662660  0.593654  1
  Ni  Ni12  1  0.469124  0.337340  0.593654  1
  Ni  Ni13  1  0.530876  0.662660  0.406346  1
  Ni  Ni14  1  0.334604  0.330792  0.000000  1
