# generated using pymatgen
data_Ca5Er3(OsC2)4
_symmetry_space_group_name_H-M   'P 1'
_cell_length_a   5.12820300
_cell_length_b   6.46319212
_cell_length_c   10.09743500
_cell_angle_alpha   90.28351065
_cell_angle_beta   90.00000000
_cell_angle_gamma   90.00000000
_symmetry_Int_Tables_number   1
_chemical_formula_structural   Ca5Er3(OsC2)4
_chemical_formula_sum   'Ca5 Er3 Os4 C8'
_cell_volume   334.67095555
_cell_formula_units_Z   1
loop_
 _symmetry_equiv_pos_site_id
 _symmetry_equiv_pos_as_xyz
  1  'x, y, z'
loop_
 _atom_site_type_symbol
 _atom_site_label
 _atom_site_symmetry_multiplicity
 _atom_site_fract_x
 _atom_site_fract_y
 _atom_site_fract_z
 _atom_site_occupancy
  Ca  Ca0  1  0.250000  0.191375  0.946781  1
  Ca  Ca1  1  0.250000  0.533616  0.221391  1
  Ca  Ca2  1  0.750000  0.464468  0.780562  1
  Ca  Ca3  1  0.750000  0.965232  0.721046  1
  Ca  Ca4  1  0.250000  0.034525  0.281328  1
  Er  Er5  1  0.250000  0.681239  0.553513  1
  Er  Er6  1  0.750000  0.319963  0.441452  1
  Er  Er7  1  0.750000  0.818488  0.060448  1
  Os  Os8  1  0.250000  0.727136  0.854301  1
  Os  Os9  1  0.750000  0.274252  0.143270  1
  Os  Os10  1  0.750000  0.775920  0.361686  1
  Os  Os11  1  0.250000  0.226160  0.640452  1
  C  C12  1  0.250000  0.465321  0.753440  1
  C  C13  1  0.750000  0.540754  0.242243  1
  C  C14  1  0.750000  0.039372  0.261107  1
  C  C15  1  0.250000  0.958770  0.733782  1
  C  C16  1  0.250000  0.800544  0.034096  1
  C  C17  1  0.750000  0.182325  0.968482  1
  C  C18  1  0.750000  0.680124  0.537915  1
  C  C19  1  0.250000  0.320419  0.462706  1
