# generated using pymatgen
data_Ca3ErIr8
_symmetry_space_group_name_H-M   'P 1'
_cell_length_a   5.35037300
_cell_length_b   5.35037417
_cell_length_c   8.73786100
_cell_angle_alpha   90.00000000
_cell_angle_beta   90.00000000
_cell_angle_gamma   119.99999895
_symmetry_Int_Tables_number   1
_chemical_formula_structural   Ca3ErIr8
_chemical_formula_sum   'Ca3 Er1 Ir8'
_cell_volume   216.62270900
_cell_formula_units_Z   1
loop_
 _symmetry_equiv_pos_site_id
 _symmetry_equiv_pos_as_xyz
  1  'x, y, z'
loop_
 _atom_site_type_symbol
 _atom_site_label
 _atom_site_symmetry_multiplicity
 _atom_site_fract_x
 _atom_site_fract_y
 _atom_site_fract_z
 _atom_site_occupancy
  Ca  Ca0  1  0.333334  0.666667  0.071178  1
  Ca  Ca1  1  0.333334  0.666667  0.431801  1
  Ca  Ca2  1  0.666667  0.333333  0.563789  1
  Er  Er3  1  0.666667  0.333333  0.931006  1
  Ir  Ir4  1  0.000000  0.000000  0.000789  1
  Ir  Ir5  1  0.341005  0.170502  0.248228  1
  Ir  Ir6  1  0.829497  0.170502  0.248228  1
  Ir  Ir7  1  0.829498  0.658993  0.248228  1
  Ir  Ir8  1  0.000000  0.000000  0.500014  1
  Ir  Ir9  1  0.170527  0.341054  0.752247  1
  Ir  Ir10  1  0.170528  0.829474  0.752247  1
  Ir  Ir11  1  0.658946  0.829474  0.752247  1
