# generated using pymatgen
data_HoZr5Fe7Co16
_symmetry_space_group_name_H-M   'P 1'
_cell_length_a   8.20241417
_cell_length_b   8.18946740
_cell_length_c   8.19678081
_cell_angle_alpha   60.08318679
_cell_angle_beta   59.93107023
_cell_angle_gamma   60.05852056
_symmetry_Int_Tables_number   1
_chemical_formula_structural   HoZr5Fe7Co16
_chemical_formula_sum   'Ho1 Zr5 Fe7 Co16'
_cell_volume   389.54952839
_cell_formula_units_Z   1
loop_
 _symmetry_equiv_pos_site_id
 _symmetry_equiv_pos_as_xyz
  1  'x, y, z'
loop_
 _atom_site_type_symbol
 _atom_site_label
 _atom_site_symmetry_multiplicity
 _atom_site_fract_x
 _atom_site_fract_y
 _atom_site_fract_z
 _atom_site_occupancy
  Ho  Ho0  1  0.705682  0.294823  0.294265  1
  Zr  Zr1  1  0.286133  0.287933  0.714110  1
  Zr  Zr2  1  0.290057  0.709498  0.710021  1
  Zr  Zr3  1  0.711689  0.714317  0.288069  1
  Zr  Zr4  1  0.285563  0.713962  0.288222  1
  Zr  Zr5  1  0.712163  0.288281  0.714038  1
  Fe  Fe6  1  0.001077  0.501561  0.998826  1
  Fe  Fe7  1  0.001176  0.998808  0.501512  1
  Fe  Fe8  1  0.999425  0.000537  0.000576  1
  Fe  Fe9  1  0.498518  0.501525  0.998812  1
  Fe  Fe10  1  0.498565  0.998827  0.501515  1
  Fe  Fe11  1  0.499866  0.000129  0.000124  1
  Fe  Fe12  1  0.999823  0.500176  0.500167  1
  Co  Co13  1  0.122245  0.120712  0.635302  1
  Co  Co14  1  0.674656  0.973570  0.676692  1
  Co  Co15  1  0.364619  0.877863  0.878304  1
  Co  Co16  1  0.026754  0.324839  0.325010  1
  Co  Co17  1  0.976847  0.674548  0.674245  1
  Co  Co18  1  0.325744  0.325616  0.022878  1
  Co  Co19  1  0.675010  0.676673  0.973342  1
  Co  Co20  1  0.634006  0.120259  0.119818  1
  Co  Co21  1  0.674359  0.674279  0.674322  1
  Co  Co22  1  0.879603  0.874058  0.366116  1
  Co  Co23  1  0.126340  0.119809  0.119932  1
  Co  Co24  1  0.880660  0.365981  0.873734  1
  Co  Co25  1  0.878693  0.878348  0.878233  1
  Co  Co26  1  0.323434  0.324961  0.325058  1
  Co  Co27  1  0.121218  0.635472  0.121182  1
  Co  Co28  1  0.326074  0.022638  0.325576  1
