# generated using pymatgen
data_Tb5Ho7B3CCl12
_symmetry_space_group_name_H-M   'P 1'
_cell_length_a   9.37036583
_cell_length_b   9.37217574
_cell_length_c   9.37511318
_cell_angle_alpha   109.27832849
_cell_angle_beta   109.31830393
_cell_angle_gamma   109.41053343
_symmetry_Int_Tables_number   1
_chemical_formula_structural   Tb5Ho7B3CCl12
_chemical_formula_sum   'Tb5 Ho7 B3 C1 Cl12'
_cell_volume   636.95814370
_cell_formula_units_Z   1
loop_
 _symmetry_equiv_pos_site_id
 _symmetry_equiv_pos_as_xyz
  1  'x, y, z'
loop_
 _atom_site_type_symbol
 _atom_site_label
 _atom_site_symmetry_multiplicity
 _atom_site_fract_x
 _atom_site_fract_y
 _atom_site_fract_z
 _atom_site_occupancy
  Tb  Tb0  1  0.485772  0.749853  0.014904  1
  Tb  Tb1  1  0.480549  0.235293  0.467127  1
  Tb  Tb2  1  0.014477  0.485232  0.749954  1
  Tb  Tb3  1  0.264796  0.019413  0.033131  1
  Tb  Tb4  1  0.235774  0.263664  0.749959  1
  Ho  Ho5  1  0.464365  0.479419  0.234433  1
  Ho  Ho6  1  0.749894  0.234636  0.265207  1
  Ho  Ho7  1  0.750245  0.015687  0.483963  1
  Ho  Ho8  1  0.233778  0.464546  0.479374  1
  Ho  Ho9  1  0.265548  0.750137  0.235162  1
  Ho  Ho10  1  0.035126  0.265894  0.020706  1
  Ho  Ho11  1  0.020528  0.035669  0.265779  1
  B  B12  1  0.499748  0.001062  0.250838  1
  B  B13  1  0.000308  0.249255  0.497459  1
  B  B14  1  0.249924  0.498901  0.002568  1
  C  C15  1  0.248486  0.251424  0.250169  1
  Cl  Cl16  1  0.250412  0.755762  0.741425  1
  Cl  Cl17  1  0.512007  0.507253  0.752477  1
  Cl  Cl18  1  0.987876  0.747336  0.997999  1
  Cl  Cl19  1  0.744029  0.247097  0.756660  1
  Cl  Cl20  1  0.990639  0.987949  0.745865  1
  Cl  Cl21  1  0.246984  0.990704  0.501946  1
  Cl  Cl22  1  0.752664  0.512047  0.502146  1
  Cl  Cl23  1  0.509351  0.253088  0.998201  1
  Cl  Cl24  1  0.757427  0.744660  0.252508  1
  Cl  Cl25  1  0.749425  0.997394  0.989827  1
  Cl  Cl26  1  0.995336  0.504499  0.249959  1
  Cl  Cl27  1  0.504530  0.752124  0.510253  1
