# generated using pymatgen
data_CePr3CdIr
_symmetry_space_group_name_H-M   'P 1'
_cell_length_a   9.99694806
_cell_length_b   9.99694802
_cell_length_c   9.99694800
_cell_angle_alpha   60.00000008
_cell_angle_beta   60.00000021
_cell_angle_gamma   60.00000192
_symmetry_Int_Tables_number   1
_chemical_formula_structural   CePr3CdIr
_chemical_formula_sum   'Ce4 Pr12 Cd4 Ir4'
_cell_volume   706.45956961
_cell_formula_units_Z   4
loop_
 _symmetry_equiv_pos_site_id
 _symmetry_equiv_pos_as_xyz
  1  'x, y, z'
loop_
 _atom_site_type_symbol
 _atom_site_label
 _atom_site_symmetry_multiplicity
 _atom_site_fract_x
 _atom_site_fract_y
 _atom_site_fract_z
 _atom_site_occupancy
  Ce  Ce0  1  0.345240  0.345240  0.345240  1
  Ce  Ce1  1  0.345240  0.345240  0.964278  1
  Ce  Ce2  1  0.345240  0.964278  0.345240  1
  Ce  Ce3  1  0.964278  0.345240  0.345240  1
  Pr  Pr4  1  0.808490  0.191510  0.191510  1
  Pr  Pr5  1  0.191510  0.808490  0.808490  1
  Pr  Pr6  1  0.191510  0.808490  0.191510  1
  Pr  Pr7  1  0.808490  0.191510  0.808490  1
  Pr  Pr8  1  0.191510  0.191510  0.808490  1
  Pr  Pr9  1  0.808490  0.808490  0.191510  1
  Pr  Pr10  1  0.940152  0.559848  0.559848  1
  Pr  Pr11  1  0.559848  0.940152  0.940152  1
  Pr  Pr12  1  0.559848  0.940152  0.559848  1
  Pr  Pr13  1  0.940152  0.559848  0.940152  1
  Pr  Pr14  1  0.559848  0.559848  0.940152  1
  Pr  Pr15  1  0.940152  0.940152  0.559848  1
  Cd  Cd16  1  0.579323  0.579323  0.579323  1
  Cd  Cd17  1  0.579323  0.579323  0.262030  1
  Cd  Cd18  1  0.579323  0.262030  0.579323  1
  Cd  Cd19  1  0.262030  0.579323  0.579323  1
  Ir  Ir20  1  0.145663  0.145663  0.145663  1
  Ir  Ir21  1  0.145663  0.145663  0.563012  1
  Ir  Ir22  1  0.145663  0.563012  0.145663  1
  Ir  Ir23  1  0.563012  0.145663  0.145663  1
