# generated using pymatgen
data_LaHgRh2O7
_symmetry_space_group_name_H-M   'P 1'
_cell_length_a   7.35064195
_cell_length_b   7.35064111
_cell_length_c   7.23324400
_cell_angle_alpha   60.52692505
_cell_angle_beta   60.52692878
_cell_angle_gamma   62.22480119
_symmetry_Int_Tables_number   1
_chemical_formula_structural   LaHgRh2O7
_chemical_formula_sum   'La2 Hg2 Rh4 O14'
_cell_volume   282.99234375
_cell_formula_units_Z   2
loop_
 _symmetry_equiv_pos_site_id
 _symmetry_equiv_pos_as_xyz
  1  'x, y, z'
loop_
 _atom_site_type_symbol
 _atom_site_label
 _atom_site_symmetry_multiplicity
 _atom_site_fract_x
 _atom_site_fract_y
 _atom_site_fract_z
 _atom_site_occupancy
  La  La0  1  0.625000  0.125000  0.125000  1
  La  La1  1  0.125000  0.625000  0.125000  1
  Hg  Hg2  1  0.125000  0.125000  0.125000  1
  Hg  Hg3  1  0.125000  0.125000  0.625000  1
  Rh  Rh4  1  0.625000  0.625000  0.125000  1
  Rh  Rh5  1  0.625000  0.625000  0.625000  1
  Rh  Rh6  1  0.625000  0.125000  0.625000  1
  Rh  Rh7  1  0.125000  0.625000  0.625000  1
  O  O8  1  0.695237  0.302808  0.299643  1
  O  O9  1  0.695237  0.302808  0.702312  1
  O  O10  1  0.013090  0.013090  0.986910  1
  O  O11  1  0.302808  0.695237  0.299643  1
  O  O12  1  0.709992  0.709992  0.290008  1
  O  O13  1  0.947192  0.554763  0.547688  1
  O  O14  1  0.302808  0.695237  0.702312  1
  O  O15  1  0.236910  0.236910  0.263090  1
  O  O16  1  0.947192  0.554763  0.950357  1
  O  O17  1  0.554763  0.947192  0.547688  1
  O  O18  1  0.540008  0.540008  0.959992  1
  O  O19  1  0.948084  0.948084  0.551916  1
  O  O20  1  0.554763  0.947192  0.950357  1
  O  O21  1  0.301916  0.301916  0.698084  1
