# generated using pymatgen
data_Tm7Lu(Si4Mo3)4
_symmetry_space_group_name_H-M   'P 1'
_cell_length_a   6.70360102
_cell_length_b   6.90507106
_cell_length_c   12.83981707
_cell_angle_alpha   89.98787447
_cell_angle_beta   89.99771191
_cell_angle_gamma   89.99189960
_symmetry_Int_Tables_number   1
_chemical_formula_structural   Tm7Lu(Si4Mo3)4
_chemical_formula_sum   'Tm7 Lu1 Si16 Mo12'
_cell_volume   594.34023593
_cell_formula_units_Z   1
loop_
 _symmetry_equiv_pos_site_id
 _symmetry_equiv_pos_as_xyz
  1  'x, y, z'
loop_
 _atom_site_type_symbol
 _atom_site_label
 _atom_site_symmetry_multiplicity
 _atom_site_fract_x
 _atom_site_fract_y
 _atom_site_fract_z
 _atom_site_occupancy
  Tm  Tm0  1  0.497036  0.331785  0.093703  1
  Tm  Tm1  1  0.997018  0.168111  0.406331  1
  Tm  Tm2  1  0.502998  0.668147  0.593651  1
  Tm  Tm3  1  0.002962  0.831933  0.906445  1
  Tm  Tm4  1  0.502978  0.668170  0.906379  1
  Tm  Tm5  1  0.002997  0.831874  0.593656  1
  Tm  Tm6  1  0.497009  0.331858  0.406260  1
  Lu  Lu7  1  0.996799  0.168426  0.093798  1
  Si  Si8  1  0.660472  0.040358  0.546806  1
  Si  Si9  1  0.160357  0.459424  0.953325  1
  Si  Si10  1  0.338988  0.959953  0.046909  1
  Si  Si11  1  0.839540  0.540395  0.453187  1
  Si  Si12  1  0.339563  0.959639  0.453137  1
  Si  Si13  1  0.839774  0.539885  0.046869  1
  Si  Si14  1  0.660636  0.040401  0.953297  1
  Si  Si15  1  0.160448  0.459633  0.546778  1
  Si  Si16  1  0.534147  0.368653  0.750041  1
  Si  Si17  1  0.034117  0.131291  0.750003  1
  Si  Si18  1  0.465904  0.631349  0.249993  1
  Si  Si19  1  0.965949  0.868980  0.249859  1
  Si  Si20  1  0.801627  0.631813  0.750025  1
  Si  Si21  1  0.301571  0.868150  0.750007  1
  Si  Si22  1  0.198104  0.367835  0.249754  1
  Si  Si23  1  0.698802  0.131892  0.249810  1
  Mo  Mo24  1  0.829922  0.334280  0.624860  1
  Mo  Mo25  1  0.329889  0.165586  0.875243  1
  Mo  Mo26  1  0.170012  0.665746  0.124841  1
  Mo  Mo27  1  0.670058  0.834386  0.375081  1
  Mo  Mo28  1  0.170035  0.665607  0.375112  1
  Mo  Mo29  1  0.670313  0.834500  0.124734  1
  Mo  Mo30  1  0.830102  0.334202  0.875326  1
  Mo  Mo31  1  0.329994  0.165716  0.624855  1
  Mo  Mo32  1  0.666071  0.997194  0.750043  1
  Mo  Mo33  1  0.166054  0.502790  0.750036  1
  Mo  Mo34  1  0.333722  0.003005  0.249911  1
  Mo  Mo35  1  0.834034  0.497035  0.249933  1
