# generated using pymatgen
data_Zr4Be4VGaIr10
_symmetry_space_group_name_H-M   'P 1'
_cell_length_a   9.31877600
_cell_length_b   9.31877600
_cell_length_c   3.31816200
_cell_angle_alpha   90.00000000
_cell_angle_beta   90.00000000
_cell_angle_gamma   90.00000000
_symmetry_Int_Tables_number   1
_chemical_formula_structural   Zr4Be4VGaIr10
_chemical_formula_sum   'Zr4 Be4 V1 Ga1 Ir10'
_cell_volume   288.14781482
_cell_formula_units_Z   1
loop_
 _symmetry_equiv_pos_site_id
 _symmetry_equiv_pos_as_xyz
  1  'x, y, z'
loop_
 _atom_site_type_symbol
 _atom_site_label
 _atom_site_symmetry_multiplicity
 _atom_site_fract_x
 _atom_site_fract_y
 _atom_site_fract_z
 _atom_site_occupancy
  Zr  Zr0  1  0.674458  0.176833  0.000000  1
  Zr  Zr1  1  0.325542  0.823167  0.000000  1
  Zr  Zr2  1  0.176833  0.325542  0.000000  1
  Zr  Zr3  1  0.823167  0.674458  0.000000  1
  Be  Be4  1  0.123263  0.620981  0.000000  1
  Be  Be5  1  0.876737  0.379019  0.000000  1
  Be  Be6  1  0.620981  0.876737  0.000000  1
  Be  Be7  1  0.379019  0.123263  0.000000  1
  V  V8  1  0.000000  0.000000  0.000000  1
  Ga  Ga9  1  0.500000  0.500000  0.000000  1
  Ir  Ir10  1  0.208020  0.067532  0.500000  1
  Ir  Ir11  1  0.791980  0.932468  0.500000  1
  Ir  Ir12  1  0.067532  0.791980  0.500000  1
  Ir  Ir13  1  0.711788  0.428344  0.500000  1
  Ir  Ir14  1  0.932468  0.208020  0.500000  1
  Ir  Ir15  1  0.288212  0.571656  0.500000  1
  Ir  Ir16  1  0.571656  0.711788  0.500000  1
  Ir  Ir17  1  0.428344  0.288212  0.500000  1
  Ir  Ir18  1  0.500000  0.000000  0.500000  1
  Ir  Ir19  1  0.000000  0.500000  0.500000  1
