# generated using pymatgen
data_Tm12CoTc2Ni2Bi
_symmetry_space_group_name_H-M   'P 1'
_cell_length_a   8.28224270
_cell_length_b   8.28588721
_cell_length_c   8.28224176
_cell_angle_alpha   110.83888924
_cell_angle_beta   112.16639457
_cell_angle_gamma   105.46722494
_symmetry_Int_Tables_number   1
_chemical_formula_structural   Tm12CoTc2Ni2Bi
_chemical_formula_sum   'Tm12 Co1 Tc2 Ni2 Bi1'
_cell_volume   435.97829045
_cell_formula_units_Z   1
loop_
 _symmetry_equiv_pos_site_id
 _symmetry_equiv_pos_as_xyz
  1  'x, y, z'
loop_
 _atom_site_type_symbol
 _atom_site_label
 _atom_site_symmetry_multiplicity
 _atom_site_fract_x
 _atom_site_fract_y
 _atom_site_fract_z
 _atom_site_occupancy
  Tm  Tm0  1  0.272629  0.183589  0.453219  1
  Tm  Tm1  1  0.725967  0.820536  0.542943  1
  Tm  Tm2  1  0.277592  0.820536  0.094568  1
  Tm  Tm3  1  0.730370  0.183589  0.910960  1
  Tm  Tm4  1  0.617663  0.302543  0.304195  1
  Tm  Tm5  1  0.380807  0.682648  0.687096  1
  Tm  Tm6  1  0.998348  0.302543  0.684880  1
  Tm  Tm7  1  0.995552  0.682648  0.301840  1
  Tm  Tm8  1  0.223454  0.416743  0.193290  1
  Tm  Tm9  1  0.779239  0.581634  0.802394  1
  Tm  Tm10  1  0.221663  0.024406  0.802743  1
  Tm  Tm11  1  0.777128  0.970692  0.193564  1
  Co  Co12  1  0.609936  0.108746  0.498810  1
  Tc  Tc13  1  0.000797  0.382832  0.382035  1
  Tc  Tc14  1  0.001265  0.000773  0.999508  1
  Ni  Ni15  1  0.000747  0.651031  0.650284  1
  Ni  Ni16  1  0.386701  0.886091  0.499390  1
  Bi  Bi17  1  0.500141  0.498424  0.998283  1
