# generated using pymatgen
data_Hf16Co5Ru2Pt
_symmetry_space_group_name_H-M   'P 1'
_cell_length_a   8.54054811
_cell_length_b   8.57882429
_cell_length_c   8.57882485
_cell_angle_alpha   60.18902813
_cell_angle_beta   60.22116776
_cell_angle_gamma   60.22116922
_symmetry_Int_Tables_number   1
_chemical_formula_structural   Hf16Co5Ru2Pt
_chemical_formula_sum   'Hf16 Co5 Ru2 Pt1'
_cell_volume   446.57129279
_cell_formula_units_Z   1
loop_
 _symmetry_equiv_pos_site_id
 _symmetry_equiv_pos_as_xyz
  1  'x, y, z'
loop_
 _atom_site_type_symbol
 _atom_site_label
 _atom_site_symmetry_multiplicity
 _atom_site_fract_x
 _atom_site_fract_y
 _atom_site_fract_z
 _atom_site_occupancy
  Hf  Hf0  1  0.065017  0.644602  0.644602  1
  Hf  Hf1  1  0.642647  0.068970  0.643533  1
  Hf  Hf2  1  0.642647  0.643533  0.068970  1
  Hf  Hf3  1  0.645445  0.645873  0.645873  1
  Hf  Hf4  1  0.802866  0.805879  0.195615  1
  Hf  Hf5  1  0.196814  0.196775  0.803538  1
  Hf  Hf6  1  0.802866  0.195615  0.805879  1
  Hf  Hf7  1  0.196814  0.803538  0.196775  1
  Hf  Hf8  1  0.196579  0.803595  0.803595  1
  Hf  Hf9  1  0.803294  0.195755  0.195755  1
  Hf  Hf10  1  0.436979  0.436096  0.063841  1
  Hf  Hf11  1  0.069276  0.057831  0.436422  1
  Hf  Hf12  1  0.436979  0.063841  0.436096  1
  Hf  Hf13  1  0.069276  0.436422  0.057831  1
  Hf  Hf14  1  0.071836  0.436002  0.436002  1
  Hf  Hf15  1  0.436929  0.063034  0.063034  1
  Co  Co16  1  0.410350  0.415453  0.415453  1
  Co  Co17  1  0.429362  0.857699  0.857699  1
  Co  Co18  1  0.856688  0.427447  0.859617  1
  Co  Co19  1  0.856688  0.859617  0.427447  1
  Co  Co20  1  0.855345  0.857298  0.857298  1
  Ru  Ru21  1  0.413038  0.752542  0.416344  1
  Ru  Ru22  1  0.413038  0.416344  0.752542  1
  Pt  Pt23  1  0.749227  0.416240  0.416240  1
