# generated using pymatgen
data_Ac3Mg2Zn9
_symmetry_space_group_name_H-M   'P 1'
_cell_length_a   4.70895872
_cell_length_b   8.79996916
_cell_length_c   8.79996920
_cell_angle_alpha   63.54151309
_cell_angle_beta   74.48114625
_cell_angle_gamma   74.48115156
_symmetry_Int_Tables_number   1
_chemical_formula_structural   Ac3Mg2Zn9
_chemical_formula_sum   'Ac3 Mg2 Zn9'
_cell_volume   309.87540099
_cell_formula_units_Z   1
loop_
 _symmetry_equiv_pos_site_id
 _symmetry_equiv_pos_as_xyz
  1  'x, y, z'
loop_
 _atom_site_type_symbol
 _atom_site_label
 _atom_site_symmetry_multiplicity
 _atom_site_fract_x
 _atom_site_fract_y
 _atom_site_fract_z
 _atom_site_occupancy
  Ac  Ac0  1  0.000000  0.000000  0.000000  1
  Ac  Ac1  1  0.707964  0.292036  0.292036  1
  Ac  Ac2  1  0.292036  0.707964  0.707964  1
  Mg  Mg3  1  0.500000  0.683552  0.316448  1
  Mg  Mg4  1  0.500000  0.316448  0.683552  1
  Zn  Zn5  1  0.000000  0.500000  0.500000  1
  Zn  Zn6  1  0.661461  0.696157  0.980920  1
  Zn  Zn7  1  0.338539  0.303843  0.019080  1
  Zn  Zn8  1  0.661461  0.980920  0.696157  1
  Zn  Zn9  1  0.338539  0.019080  0.303843  1
  Zn  Zn10  1  0.862569  0.419134  0.855727  1
  Zn  Zn11  1  0.137431  0.580866  0.144273  1
  Zn  Zn12  1  0.862569  0.855727  0.419134  1
  Zn  Zn13  1  0.137431  0.144273  0.580866  1
