# generated using pymatgen
data_ZnFe20(B3W)2
_symmetry_space_group_name_H-M   'P 1'
_cell_length_a   7.51922919
_cell_length_b   7.51879605
_cell_length_c   7.51933001
_cell_angle_alpha   59.99646495
_cell_angle_beta   59.99179417
_cell_angle_gamma   59.99869606
_symmetry_Int_Tables_number   1
_chemical_formula_structural   ZnFe20(B3W)2
_chemical_formula_sum   'Zn1 Fe20 B6 W2'
_cell_volume   300.56814632
_cell_formula_units_Z   1
loop_
 _symmetry_equiv_pos_site_id
 _symmetry_equiv_pos_as_xyz
  1  'x, y, z'
loop_
 _atom_site_type_symbol
 _atom_site_label
 _atom_site_symmetry_multiplicity
 _atom_site_fract_x
 _atom_site_fract_y
 _atom_site_fract_z
 _atom_site_occupancy
  Zn  Zn0  1  0.000000  0.000000  0.000000  1
  Fe  Fe1  1  0.618184  0.618200  0.145420  1
  Fe  Fe2  1  0.618185  0.145421  0.618205  1
  Fe  Fe3  1  0.145396  0.618196  0.618199  1
  Fe  Fe4  1  0.618208  0.618200  0.618210  1
  Fe  Fe5  1  0.381816  0.381800  0.854580  1
  Fe  Fe6  1  0.381815  0.854579  0.381795  1
  Fe  Fe7  1  0.854604  0.381804  0.381801  1
  Fe  Fe8  1  0.381792  0.381800  0.381790  1
  Fe  Fe9  1  0.000022  0.000025  0.343584  1
  Fe  Fe10  1  0.656341  0.000003  0.343628  1
  Fe  Fe11  1  0.000002  0.656372  0.343631  1
  Fe  Fe12  1  0.656376  0.343593  0.000013  1
  Fe  Fe13  1  0.000041  0.343618  0.000009  1
  Fe  Fe14  1  0.999998  0.343628  0.656369  1
  Fe  Fe15  1  0.343624  0.656407  0.999987  1
  Fe  Fe16  1  0.343659  0.999997  0.656372  1
  Fe  Fe17  1  0.343642  0.000027  0.999992  1
  Fe  Fe18  1  0.999978  0.999975  0.656416  1
  Fe  Fe19  1  0.999959  0.656382  0.999991  1
  Fe  Fe20  1  0.656358  0.999973  0.000008  1
  B  B21  1  0.722823  0.722838  0.277180  1
  B  B22  1  0.277230  0.722759  0.277234  1
  B  B23  1  0.722792  0.277189  0.277201  1
  B  B24  1  0.277177  0.277162  0.722820  1
  B  B25  1  0.722770  0.277241  0.722766  1
  B  B26  1  0.277208  0.722811  0.722799  1
  W  W27  1  0.749993  0.750001  0.749993  1
  W  W28  1  0.250007  0.249999  0.250007  1
