# generated using pymatgen
data_DyEr11(ThSn2)8
_symmetry_space_group_name_H-M   'P 1'
_cell_length_a   8.12273405
_cell_length_b   8.21839019
_cell_length_c   15.52541000
_cell_angle_alpha   89.99669544
_cell_angle_beta   89.99373627
_cell_angle_gamma   89.98822451
_symmetry_Int_Tables_number   1
_chemical_formula_structural   DyEr11(ThSn2)8
_chemical_formula_sum   'Dy1 Er11 Th8 Sn16'
_cell_volume   1036.41110089
_cell_formula_units_Z   1
loop_
 _symmetry_equiv_pos_site_id
 _symmetry_equiv_pos_as_xyz
  1  'x, y, z'
loop_
 _atom_site_type_symbol
 _atom_site_label
 _atom_site_symmetry_multiplicity
 _atom_site_fract_x
 _atom_site_fract_y
 _atom_site_fract_z
 _atom_site_occupancy
  Dy  Dy0  1  0.358335  0.836888  0.875957  1
  Er  Er1  1  0.858388  0.662458  0.624195  1
  Er  Er2  1  0.641776  0.162840  0.375617  1
  Er  Er3  1  0.141651  0.337479  0.125006  1
  Er  Er4  1  0.641933  0.162619  0.124403  1
  Er  Er5  1  0.141814  0.337270  0.375370  1
  Er  Er6  1  0.357937  0.837453  0.624260  1
  Er  Er7  1  0.857879  0.662740  0.875454  1
  Er  Er8  1  0.187279  0.498462  0.749673  1
  Er  Er9  1  0.687631  0.001949  0.749807  1
  Er  Er10  1  0.812334  0.501707  0.249993  1
  Er  Er11  1  0.312487  0.998478  0.250196  1
  Th  Th12  1  0.517150  0.321520  0.904276  1
  Th  Th13  1  0.016383  0.178663  0.595439  1
  Th  Th14  1  0.483033  0.678425  0.404339  1
  Th  Th15  1  0.983445  0.821528  0.095807  1
  Th  Th16  1  0.482787  0.678307  0.096048  1
  Th  Th17  1  0.983137  0.821794  0.404376  1
  Th  Th18  1  0.517451  0.321443  0.595420  1
  Th  Th19  1  0.017090  0.178491  0.904258  1
  Sn  Sn20  1  0.301140  0.041143  0.042928  1
  Sn  Sn21  1  0.801702  0.459535  0.457632  1
  Sn  Sn22  1  0.698491  0.959247  0.542007  1
  Sn  Sn23  1  0.198010  0.539173  0.958155  1
  Sn  Sn24  1  0.699953  0.959755  0.957996  1
  Sn  Sn25  1  0.198667  0.540481  0.542158  1
  Sn  Sn26  1  0.301267  0.040617  0.457799  1
  Sn  Sn27  1  0.801399  0.459440  0.042220  1
  Sn  Sn28  1  0.553702  0.621908  0.749475  1
  Sn  Sn29  1  0.053074  0.877637  0.749646  1
  Sn  Sn30  1  0.446637  0.377494  0.250087  1
  Sn  Sn31  1  0.946416  0.122279  0.250179  1
  Sn  Sn32  1  0.322993  0.144610  0.749755  1
  Sn  Sn33  1  0.823168  0.356202  0.749897  1
  Sn  Sn34  1  0.676746  0.856086  0.249988  1
  Sn  Sn35  1  0.176717  0.643882  0.250182  1
