# generated using pymatgen
data_Tm11Th5(CoAg)4
_symmetry_space_group_name_H-M   'P 1'
_cell_length_a   9.32665856
_cell_length_b   9.42062621
_cell_length_c   9.42072899
_cell_angle_alpha   59.76718367
_cell_angle_beta   60.31870389
_cell_angle_gamma   60.31792898
_symmetry_Int_Tables_number   1
_chemical_formula_structural   Tm11Th5(CoAg)4
_chemical_formula_sum   'Tm11 Th5 Co4 Ag4'
_cell_volume   587.04451454
_cell_formula_units_Z   1
loop_
 _symmetry_equiv_pos_site_id
 _symmetry_equiv_pos_as_xyz
  1  'x, y, z'
loop_
 _atom_site_type_symbol
 _atom_site_label
 _atom_site_symmetry_multiplicity
 _atom_site_fract_x
 _atom_site_fract_y
 _atom_site_fract_z
 _atom_site_occupancy
  Tm  Tm0  1  0.187188  0.813262  0.813242  1
  Tm  Tm1  1  0.192728  0.809124  0.184686  1
  Tm  Tm2  1  0.813221  0.185218  0.808922  1
  Tm  Tm3  1  0.192730  0.184673  0.809113  1
  Tm  Tm4  1  0.813203  0.808934  0.185226  1
  Tm  Tm5  1  0.932297  0.567218  0.567227  1
  Tm  Tm6  1  0.567752  0.932218  0.932208  1
  Tm  Tm7  1  0.564806  0.933192  0.565935  1
  Tm  Tm8  1  0.936102  0.566065  0.933251  1
  Tm  Tm9  1  0.564820  0.565934  0.933172  1
  Tm  Tm10  1  0.936099  0.933271  0.566067  1
  Th  Th11  1  0.343935  0.351329  0.351321  1
  Th  Th12  1  0.348324  0.347831  0.955110  1
  Th  Th13  1  0.348338  0.955072  0.347846  1
  Th  Th14  1  0.954664  0.351143  0.351136  1
  Th  Th15  1  0.816529  0.183499  0.183513  1
  Co  Co16  1  0.128342  0.148318  0.148325  1
  Co  Co17  1  0.144476  0.142939  0.567634  1
  Co  Co18  1  0.144465  0.567654  0.142940  1
  Co  Co19  1  0.574861  0.148089  0.148097  1
  Ag  Ag20  1  0.582558  0.585027  0.585041  1
  Ag  Ag21  1  0.582457  0.588966  0.246018  1
  Ag  Ag22  1  0.582453  0.246031  0.588963  1
  Ag  Ag23  1  0.247653  0.584993  0.585007  1
