# generated using pymatgen
data_SmDyEr2(NiP)4
_symmetry_space_group_name_H-M   'P 1'
_cell_length_a   3.89693800
_cell_length_b   3.89693997
_cell_length_c   15.45606300
_cell_angle_alpha   90.00000000
_cell_angle_beta   90.00000000
_cell_angle_gamma   120.00000027
_symmetry_Int_Tables_number   1
_chemical_formula_structural   SmDyEr2(NiP)4
_chemical_formula_sum   'Sm1 Dy1 Er2 Ni4 P4'
_cell_volume   203.27160749
_cell_formula_units_Z   1
loop_
 _symmetry_equiv_pos_site_id
 _symmetry_equiv_pos_as_xyz
  1  'x, y, z'
loop_
 _atom_site_type_symbol
 _atom_site_label
 _atom_site_symmetry_multiplicity
 _atom_site_fract_x
 _atom_site_fract_y
 _atom_site_fract_z
 _atom_site_occupancy
  Sm  Sm0  1  0.000000  0.000000  0.500000  1
  Dy  Dy1  1  0.000000  0.000000  0.000000  1
  Er  Er2  1  0.000000  0.000000  0.248365  1
  Er  Er3  1  0.000000  0.000000  0.751635  1
  Ni  Ni4  1  0.333333  0.666667  0.366533  1
  Ni  Ni5  1  0.666667  0.333333  0.633467  1
  Ni  Ni6  1  0.666667  0.333333  0.870505  1
  Ni  Ni7  1  0.333333  0.666667  0.129495  1
  P  P8  1  0.333333  0.666667  0.877743  1
  P  P9  1  0.666667  0.333333  0.122257  1
  P  P10  1  0.666667  0.333333  0.372793  1
  P  P11  1  0.333333  0.666667  0.627207  1
