# generated using pymatgen
data_Tb10GaSnSb4
_symmetry_space_group_name_H-M   'P 1'
_cell_length_a   8.96876216
_cell_length_b   8.95653085
_cell_length_c   6.44933300
_cell_angle_alpha   90.00000000
_cell_angle_beta   90.00000000
_cell_angle_gamma   120.02341998
_symmetry_Int_Tables_number   1
_chemical_formula_structural   Tb10GaSnSb4
_chemical_formula_sum   'Tb10 Ga1 Sn1 Sb4'
_cell_volume   448.55450916
_cell_formula_units_Z   1
loop_
 _symmetry_equiv_pos_site_id
 _symmetry_equiv_pos_as_xyz
  1  'x, y, z'
loop_
 _atom_site_type_symbol
 _atom_site_label
 _atom_site_symmetry_multiplicity
 _atom_site_fract_x
 _atom_site_fract_y
 _atom_site_fract_z
 _atom_site_occupancy
  Tb  Tb0  1  0.011298  0.764533  0.750000  1
  Tb  Tb1  1  0.999528  0.243240  0.250000  1
  Tb  Tb2  1  0.755496  0.755107  0.250000  1
  Tb  Tb3  1  0.752859  0.001702  0.750000  1
  Tb  Tb4  1  0.246469  0.237062  0.750000  1
  Tb  Tb5  1  0.242814  0.998802  0.250000  1
  Tb  Tb6  1  0.333730  0.675006  0.500074  1
  Tb  Tb7  1  0.660889  0.324954  0.999992  1
  Tb  Tb8  1  0.660889  0.324954  0.500008  1
  Tb  Tb9  1  0.333730  0.675006  0.999926  1
  Ga  Ga10  1  0.392651  0.999295  0.750000  1
  Sn  Sn11  1  0.001573  0.391846  0.750000  1
  Sb  Sb12  1  0.388518  0.391003  0.250000  1
  Sb  Sb13  1  0.996969  0.607045  0.250000  1
  Sb  Sb14  1  0.613093  0.611012  0.750000  1
  Sb  Sb15  1  0.609492  0.999433  0.250000  1
