# generated using pymatgen
data_Hf4NbReSb2
_symmetry_space_group_name_H-M   'P 1'
_cell_length_a   5.48085715
_cell_length_b   8.26599688
_cell_length_c   8.26599700
_cell_angle_alpha   83.68973803
_cell_angle_beta   70.63831756
_cell_angle_gamma   70.63831756
_symmetry_Int_Tables_number   1
_chemical_formula_structural   Hf4NbReSb2
_chemical_formula_sum   'Hf8 Nb2 Re2 Sb4'
_cell_volume   333.32796884
_cell_formula_units_Z   2
loop_
 _symmetry_equiv_pos_site_id
 _symmetry_equiv_pos_as_xyz
  1  'x, y, z'
loop_
 _atom_site_type_symbol
 _atom_site_label
 _atom_site_symmetry_multiplicity
 _atom_site_fract_x
 _atom_site_fract_y
 _atom_site_fract_z
 _atom_site_occupancy
  Hf  Hf0  1  0.075362  0.135015  0.714262  1
  Hf  Hf1  1  0.924638  0.864985  0.285738  1
  Hf  Hf2  1  0.789624  0.285738  0.135015  1
  Hf  Hf3  1  0.424638  0.285738  0.864985  1
  Hf  Hf4  1  0.210376  0.714262  0.864985  1
  Hf  Hf5  1  0.575362  0.714262  0.135015  1
  Hf  Hf6  1  0.710376  0.864985  0.714262  1
  Hf  Hf7  1  0.289624  0.135015  0.285738  1
  Nb  Nb8  1  0.250000  0.500000  0.500000  1
  Nb  Nb9  1  0.750000  0.500000  0.500000  1
  Re  Re10  1  0.250000  0.000000  0.000000  1
  Re  Re11  1  0.750000  0.000000  0.000000  1
  Sb  Sb12  1  0.160067  0.500000  0.179867  1
  Sb  Sb13  1  0.839933  0.500000  0.820133  1
  Sb  Sb14  1  0.339933  0.820133  0.500000  1
  Sb  Sb15  1  0.660067  0.179867  0.500000  1
