# generated using pymatgen
data_Nd4Ga18Ru5Pt
_symmetry_space_group_name_H-M   'P 1'
_cell_length_a   7.59757571
_cell_length_b   7.59757486
_cell_length_c   9.81092325
_cell_angle_alpha   90.09432952
_cell_angle_beta   90.09433403
_cell_angle_gamma   119.44437868
_symmetry_Int_Tables_number   1
_chemical_formula_structural   Nd4Ga18Ru5Pt
_chemical_formula_sum   'Nd4 Ga18 Ru5 Pt1'
_cell_volume   493.16542899
_cell_formula_units_Z   1
loop_
 _symmetry_equiv_pos_site_id
 _symmetry_equiv_pos_as_xyz
  1  'x, y, z'
loop_
 _atom_site_type_symbol
 _atom_site_label
 _atom_site_symmetry_multiplicity
 _atom_site_fract_x
 _atom_site_fract_y
 _atom_site_fract_z
 _atom_site_occupancy
  Nd  Nd0  1  0.997284  0.671665  0.250423  1
  Nd  Nd1  1  0.002716  0.328335  0.749577  1
  Nd  Nd2  1  0.671665  0.997284  0.250423  1
  Nd  Nd3  1  0.328335  0.002716  0.749577  1
  Ga  Ga4  1  0.136656  0.136656  0.254478  1
  Ga  Ga5  1  0.863344  0.863344  0.745522  1
  Ga  Ga6  1  0.006243  0.340853  0.075718  1
  Ga  Ga7  1  0.993757  0.659147  0.924282  1
  Ga  Ga8  1  0.993338  0.663259  0.572904  1
  Ga  Ga9  1  0.336741  0.006662  0.427096  1
  Ga  Ga10  1  0.006662  0.336741  0.427096  1
  Ga  Ga11  1  0.663259  0.993338  0.572904  1
  Ga  Ga12  1  0.659147  0.993757  0.924282  1
  Ga  Ga13  1  0.340853  0.006243  0.075718  1
  Ga  Ga14  1  0.337641  0.337641  0.556384  1
  Ga  Ga15  1  0.662359  0.662359  0.443616  1
  Ga  Ga16  1  0.656382  0.656382  0.060237  1
  Ga  Ga17  1  0.343618  0.343618  0.939763  1
  Ga  Ga18  1  0.336423  0.548392  0.250174  1
  Ga  Ga19  1  0.663577  0.451608  0.749826  1
  Ga  Ga20  1  0.548392  0.336423  0.250174  1
  Ga  Ga21  1  0.451608  0.663577  0.749826  1
  Ru  Ru22  1  0.672894  0.327106  0.000000  1
  Ru  Ru23  1  0.327106  0.672894  0.000000  1
  Ru  Ru24  1  0.327011  0.672989  0.500000  1
  Ru  Ru25  1  0.672989  0.327011  0.500000  1
  Ru  Ru26  1  0.000000  0.000000  0.500000  1
  Pt  Pt27  1  0.000000  0.000000  0.000000  1
