# generated using pymatgen
data_Mg2In10Ir3Ru
_symmetry_space_group_name_H-M   'P 1'
_cell_length_a   7.09494622
_cell_length_b   7.09494561
_cell_length_c   7.24785300
_cell_angle_alpha   90.00000000
_cell_angle_beta   90.00000000
_cell_angle_gamma   90.03873855
_symmetry_Int_Tables_number   1
_chemical_formula_structural   Mg2In10Ir3Ru
_chemical_formula_sum   'Mg2 In10 Ir3 Ru1'
_cell_volume   364.84420716
_cell_formula_units_Z   1
loop_
 _symmetry_equiv_pos_site_id
 _symmetry_equiv_pos_as_xyz
  1  'x, y, z'
loop_
 _atom_site_type_symbol
 _atom_site_label
 _atom_site_symmetry_multiplicity
 _atom_site_fract_x
 _atom_site_fract_y
 _atom_site_fract_z
 _atom_site_occupancy
  Mg  Mg0  1  0.000712  0.500145  0.500000  1
  Mg  Mg1  1  0.500145  0.000712  0.500000  1
  In  In2  1  0.502011  0.998503  0.000000  1
  In  In3  1  0.998503  0.502011  0.000000  1
  In  In4  1  0.345309  0.657691  0.243046  1
  In  In5  1  0.657691  0.345309  0.243046  1
  In  In6  1  0.160043  0.160043  0.728411  1
  In  In7  1  0.838891  0.838891  0.731385  1
  In  In8  1  0.657691  0.345309  0.756954  1
  In  In9  1  0.345309  0.657691  0.756954  1
  In  In10  1  0.838891  0.838891  0.268615  1
  In  In11  1  0.160043  0.160043  0.271589  1
  Ir  Ir12  1  0.151841  0.846964  0.500000  1
  Ir  Ir13  1  0.846964  0.151841  0.500000  1
  Ir  Ir14  1  0.343097  0.343097  0.000000  1
  Ru  Ru15  1  0.652860  0.652860  0.000000  1
