# generated using pymatgen
data_Ca3Ho2Er(Si3Ru)8
_symmetry_space_group_name_H-M   'P 1'
_cell_length_a   10.14714827
_cell_length_b   10.14714712
_cell_length_c   8.13441502
_cell_angle_alpha   89.99027349
_cell_angle_beta   89.99026665
_cell_angle_gamma   132.72379020
_symmetry_Int_Tables_number   1
_chemical_formula_structural   Ca3Ho2Er(Si3Ru)8
_chemical_formula_sum   'Ca3 Ho2 Er1 Si24 Ru8'
_cell_volume   615.29679541
_cell_formula_units_Z   1
loop_
 _symmetry_equiv_pos_site_id
 _symmetry_equiv_pos_as_xyz
  1  'x, y, z'
loop_
 _atom_site_type_symbol
 _atom_site_label
 _atom_site_symmetry_multiplicity
 _atom_site_fract_x
 _atom_site_fract_y
 _atom_site_fract_z
 _atom_site_occupancy
  Ca  Ca0  1  0.500057  0.499943  0.500000  1
  Ca  Ca1  1  0.501011  0.000893  0.749823  1
  Ca  Ca2  1  0.999107  0.498989  0.250177  1
  Ho  Ho3  1  0.498387  0.998386  0.250181  1
  Ho  Ho4  1  0.001614  0.501613  0.749819  1
  Er  Er5  1  0.999992  0.000008  0.000000  1
  Si  Si6  1  0.795109  0.204891  0.500000  1
  Si  Si7  1  0.294171  0.705829  0.000000  1
  Si  Si8  1  0.205444  0.794556  0.500000  1
  Si  Si9  1  0.705312  0.294688  0.000000  1
  Si  Si10  1  0.331826  0.336533  0.831863  1
  Si  Si11  1  0.663467  0.668174  0.168137  1
  Si  Si12  1  0.169877  0.165385  0.333829  1
  Si  Si13  1  0.834615  0.830123  0.666171  1
  Si  Si14  1  0.122478  0.889247  0.728290  1
  Si  Si15  1  0.110753  0.877522  0.271710  1
  Si  Si16  1  0.608569  0.375435  0.229409  1
  Si  Si17  1  0.624565  0.391431  0.770591  1
  Si  Si18  1  0.874893  0.108130  0.271387  1
  Si  Si19  1  0.891870  0.125107  0.728613  1
  Si  Si20  1  0.389003  0.622275  0.770731  1
  Si  Si21  1  0.377725  0.610997  0.229269  1
  Si  Si22  1  0.346114  0.112697  0.504818  1
  Si  Si23  1  0.887303  0.653886  0.495182  1
  Si  Si24  1  0.388304  0.155153  0.007167  1
  Si  Si25  1  0.844847  0.611696  0.992833  1
  Si  Si26  1  0.653653  0.886486  0.492120  1
  Si  Si27  1  0.113514  0.346347  0.507880  1
  Si  Si28  1  0.610971  0.844600  0.996455  1
  Si  Si29  1  0.155400  0.389029  0.003545  1
  Ru  Ru30  1  0.670791  0.329209  0.500000  1
  Ru  Ru31  1  0.168695  0.831305  0.000000  1
  Ru  Ru32  1  0.329967  0.670033  0.500000  1
  Ru  Ru33  1  0.830502  0.169498  0.000000  1
  Ru  Ru34  1  0.124550  0.125176  0.627792  1
  Ru  Ru35  1  0.874824  0.875450  0.372208  1
  Ru  Ru36  1  0.372116  0.371400  0.124607  1
  Ru  Ru37  1  0.628600  0.627884  0.875393  1
