# generated using pymatgen
data_KRb3SnI6
_symmetry_space_group_name_H-M   'P 1'
_cell_length_a   10.20393914
_cell_length_b   10.20393908
_cell_length_c   10.20393830
_cell_angle_alpha   90.81301886
_cell_angle_beta   90.81302618
_cell_angle_gamma   90.81301667
_symmetry_Int_Tables_number   1
_chemical_formula_structural   KRb3SnI6
_chemical_formula_sum   'K2 Rb6 Sn2 I12'
_cell_volume   1062.11391526
_cell_formula_units_Z   2
loop_
 _symmetry_equiv_pos_site_id
 _symmetry_equiv_pos_as_xyz
  1  'x, y, z'
loop_
 _atom_site_type_symbol
 _atom_site_label
 _atom_site_symmetry_multiplicity
 _atom_site_fract_x
 _atom_site_fract_y
 _atom_site_fract_z
 _atom_site_occupancy
  K  K0  1  0.250000  0.250000  0.250000  1
  K  K1  1  0.750000  0.750000  0.750000  1
  Rb  Rb2  1  0.372972  0.127028  0.750000  1
  Rb  Rb3  1  0.127028  0.750000  0.372972  1
  Rb  Rb4  1  0.750000  0.372972  0.127028  1
  Rb  Rb5  1  0.627028  0.872972  0.250000  1
  Rb  Rb6  1  0.250000  0.627028  0.872972  1
  Rb  Rb7  1  0.872972  0.250000  0.627028  1
  Sn  Sn8  1  0.000000  0.000000  0.000000  1
  Sn  Sn9  1  0.500000  0.500000  0.500000  1
  I  I10  1  0.947257  0.079072  0.300305  1
  I  I11  1  0.079072  0.300305  0.947257  1
  I  I12  1  0.300305  0.947257  0.079072  1
  I  I13  1  0.579072  0.447257  0.800305  1
  I  I14  1  0.800305  0.579072  0.447257  1
  I  I15  1  0.447257  0.800305  0.579072  1
  I  I16  1  0.199695  0.420928  0.552743  1
  I  I17  1  0.420928  0.552743  0.199695  1
  I  I18  1  0.552743  0.199695  0.420928  1
  I  I19  1  0.920928  0.699695  0.052743  1
  I  I20  1  0.052743  0.920928  0.699695  1
  I  I21  1  0.699695  0.052743  0.920928  1
