# generated using pymatgen
data_TbSmCd2(Ga3Ni)2
_symmetry_space_group_name_H-M   'P 1'
_cell_length_a   4.20047717
_cell_length_b   6.54350500
_cell_length_c   8.22307145
_cell_angle_alpha   90.00000000
_cell_angle_beta   104.79777089
_cell_angle_gamma   90.00000000
_symmetry_Int_Tables_number   1
_chemical_formula_structural   TbSmCd2(Ga3Ni)2
_chemical_formula_sum   'Tb1 Sm1 Cd2 Ga6 Ni2'
_cell_volume   218.52178673
_cell_formula_units_Z   1
loop_
 _symmetry_equiv_pos_site_id
 _symmetry_equiv_pos_as_xyz
  1  'x, y, z'
loop_
 _atom_site_type_symbol
 _atom_site_label
 _atom_site_symmetry_multiplicity
 _atom_site_fract_x
 _atom_site_fract_y
 _atom_site_fract_z
 _atom_site_occupancy
  Tb  Tb0  1  0.873973  0.750000  0.747945  1
  Sm  Sm1  1  0.125348  0.250000  0.250696  1
  Cd  Cd2  1  0.499094  0.501946  0.998187  1
  Cd  Cd3  1  0.499094  0.998054  0.998187  1
  Ga  Ga4  1  0.071645  0.750000  0.143293  1
  Ga  Ga5  1  0.928119  0.250000  0.856236  1
  Ga  Ga6  1  0.688433  0.550350  0.376866  1
  Ga  Ga7  1  0.312697  0.450897  0.625395  1
  Ga  Ga8  1  0.688433  0.949650  0.376866  1
  Ga  Ga9  1  0.312697  0.049103  0.625395  1
  Ni  Ni10  1  0.221266  0.750000  0.442531  1
  Ni  Ni11  1  0.779201  0.250000  0.558403  1
