# generated using pymatgen
data_DyHo3(ZrSn)6
_symmetry_space_group_name_H-M   'P 1'
_cell_length_a   8.70032486
_cell_length_b   8.78188478
_cell_length_c   6.00846900
_cell_angle_alpha   90.00000000
_cell_angle_beta   90.00000000
_cell_angle_gamma   120.32962557
_symmetry_Int_Tables_number   1
_chemical_formula_structural   DyHo3(ZrSn)6
_chemical_formula_sum   'Dy1 Ho3 Zr6 Sn6'
_cell_volume   396.24658798
_cell_formula_units_Z   1
loop_
 _symmetry_equiv_pos_site_id
 _symmetry_equiv_pos_as_xyz
  1  'x, y, z'
loop_
 _atom_site_type_symbol
 _atom_site_label
 _atom_site_symmetry_multiplicity
 _atom_site_fract_x
 _atom_site_fract_y
 _atom_site_fract_z
 _atom_site_occupancy
  Dy  Dy0  1  0.761484  0.761020  0.250000  1
  Ho  Ho1  1  0.761436  0.000501  0.750000  1
  Ho  Ho2  1  0.238544  0.239012  0.750000  1
  Ho  Ho3  1  0.238598  0.999544  0.250000  1
  Zr  Zr4  1  0.000035  0.746594  0.750000  1
  Zr  Zr5  1  0.000020  0.253438  0.250000  1
  Zr  Zr6  1  0.332960  0.666477  0.499989  1
  Zr  Zr7  1  0.667019  0.333503  0.000016  1
  Zr  Zr8  1  0.667019  0.333503  0.499984  1
  Zr  Zr9  1  0.332960  0.666477  0.000011  1
  Sn  Sn10  1  0.392851  0.996020  0.750000  1
  Sn  Sn11  1  0.392764  0.396758  0.250000  1
  Sn  Sn12  1  0.000070  0.600415  0.250000  1
  Sn  Sn13  1  0.000003  0.399545  0.750000  1
  Sn  Sn14  1  0.607131  0.603131  0.750000  1
  Sn  Sn15  1  0.607105  0.004060  0.250000  1
