# generated using pymatgen
data_Tm3In3IrPt2
_symmetry_space_group_name_H-M   'P 1'
_cell_length_a   7.69034303
_cell_length_b   7.69092611
_cell_length_c   3.75563500
_cell_angle_alpha   90.00000000
_cell_angle_beta   90.00000000
_cell_angle_gamma   120.00827538
_symmetry_Int_Tables_number   1
_chemical_formula_structural   Tm3In3IrPt2
_chemical_formula_sum   'Tm3 In3 Ir1 Pt2'
_cell_volume   192.35440649
_cell_formula_units_Z   1
loop_
 _symmetry_equiv_pos_site_id
 _symmetry_equiv_pos_as_xyz
  1  'x, y, z'
loop_
 _atom_site_type_symbol
 _atom_site_label
 _atom_site_symmetry_multiplicity
 _atom_site_fract_x
 _atom_site_fract_y
 _atom_site_fract_z
 _atom_site_occupancy
  Tm  Tm0  1  0.408526  0.398918  0.500000  1
  Tm  Tm1  1  0.601090  0.009623  0.500000  1
  Tm  Tm2  1  0.990404  0.591500  0.500000  1
  In  In3  1  0.998923  0.264187  0.000000  1
  In  In4  1  0.735827  0.734739  0.000000  1
  In  In5  1  0.265261  0.001080  0.000000  1
  Ir  Ir6  1  0.666680  0.333338  0.000000  1
  Pt  Pt7  1  0.999959  0.999938  0.500000  1
  Pt  Pt8  1  0.333331  0.666677  0.000000  1
