# generated using pymatgen
data_Na5Np3AgBr18
_symmetry_space_group_name_H-M   'P 1'
_cell_length_a   12.56221706
_cell_length_b   12.53034021
_cell_length_c   6.65233701
_cell_angle_alpha   89.99999753
_cell_angle_beta   90.25423979
_cell_angle_gamma   119.91609298
_symmetry_Int_Tables_number   1
_chemical_formula_structural   Na5Np3AgBr18
_chemical_formula_sum   'Na5 Np3 Ag1 Br18'
_cell_volume   907.60089516
_cell_formula_units_Z   1
loop_
 _symmetry_equiv_pos_site_id
 _symmetry_equiv_pos_as_xyz
  1  'x, y, z'
loop_
 _atom_site_type_symbol
 _atom_site_label
 _atom_site_symmetry_multiplicity
 _atom_site_fract_x
 _atom_site_fract_y
 _atom_site_fract_z
 _atom_site_occupancy
  Na  Na0  1  0.662454  0.662386  0.000464  1
  Na  Na1  1  0.337546  0.999932  0.999536  1
  Na  Na2  1  0.000000  0.660337  0.000000  1
  Na  Na3  1  0.337156  0.338929  0.999004  1
  Na  Na4  1  0.662844  0.001773  0.000996  1
  Np  Np5  1  0.330287  0.663767  0.494330  1
  Np  Np6  1  0.669713  0.333479  0.505670  1
  Np  Np7  1  0.000000  0.004531  0.000000  1
  Ag  Ag8  1  0.000000  0.332090  0.000000  1
  Br  Br9  1  0.438368  0.560570  0.257600  1
  Br  Br10  1  0.777958  0.232160  0.266031  1
  Br  Br11  1  0.225563  0.771240  0.726402  1
  Br  Br12  1  0.774437  0.545677  0.273598  1
  Br  Br13  1  0.209580  0.106697  0.763777  1
  Br  Br14  1  0.458059  0.228668  0.269805  1
  Br  Br15  1  0.541941  0.770610  0.730195  1
  Br  Br16  1  0.895169  0.792705  0.764745  1
  Br  Br17  1  0.563346  0.437836  0.745373  1
  Br  Br18  1  0.561632  0.122202  0.742400  1
  Br  Br19  1  0.879355  0.431739  0.751621  1
  Br  Br20  1  0.120645  0.552384  0.248379  1
  Br  Br21  1  0.436654  0.874488  0.254627  1
  Br  Br22  1  0.222042  0.454203  0.733969  1
  Br  Br23  1  0.105128  0.216036  0.239484  1
  Br  Br24  1  0.104831  0.897535  0.235255  1
  Br  Br25  1  0.790420  0.897116  0.236223  1
  Br  Br26  1  0.894872  0.110909  0.760516  1
