# generated using pymatgen
data_HfTh(GaAu)2
_symmetry_space_group_name_H-M   'P 1'
_cell_length_a   4.45255100
_cell_length_b   4.45255188
_cell_length_c   7.22694100
_cell_angle_alpha   90.00000000
_cell_angle_beta   90.00000000
_cell_angle_gamma   120.00000092
_symmetry_Int_Tables_number   1
_chemical_formula_structural   HfTh(GaAu)2
_chemical_formula_sum   'Hf1 Th1 Ga2 Au2'
_cell_volume   124.08035504
_cell_formula_units_Z   1
loop_
 _symmetry_equiv_pos_site_id
 _symmetry_equiv_pos_as_xyz
  1  'x, y, z'
loop_
 _atom_site_type_symbol
 _atom_site_label
 _atom_site_symmetry_multiplicity
 _atom_site_fract_x
 _atom_site_fract_y
 _atom_site_fract_z
 _atom_site_occupancy
  Hf  Hf0  1  0.000000  0.000000  0.000000  1
  Th  Th1  1  0.000000  0.000000  0.500000  1
  Ga  Ga2  1  0.666667  0.333333  0.242951  1
  Ga  Ga3  1  0.666667  0.333333  0.757049  1
  Au  Au4  1  0.333333  0.666667  0.799522  1
  Au  Au5  1  0.333333  0.666667  0.200478  1
