# generated using pymatgen
data_Nd8Be3ZnSi11Rh
_symmetry_space_group_name_H-M   'P 1'
_cell_length_a   8.07646818
_cell_length_b   8.07646827
_cell_length_c   8.54042200
_cell_angle_alpha   89.99690607
_cell_angle_beta   90.00309607
_cell_angle_gamma   119.97629198
_symmetry_Int_Tables_number   1
_chemical_formula_structural   Nd8Be3ZnSi11Rh
_chemical_formula_sum   'Nd8 Be3 Zn1 Si11 Rh1'
_cell_volume   482.56591323
_cell_formula_units_Z   1
loop_
 _symmetry_equiv_pos_site_id
 _symmetry_equiv_pos_as_xyz
  1  'x, y, z'
loop_
 _atom_site_type_symbol
 _atom_site_label
 _atom_site_symmetry_multiplicity
 _atom_site_fract_x
 _atom_site_fract_y
 _atom_site_fract_z
 _atom_site_occupancy
  Nd  Nd0  1  0.001346  0.998654  0.751692  1
  Nd  Nd1  1  0.001318  0.998682  0.248277  1
  Nd  Nd2  1  0.500536  0.499464  0.747919  1
  Nd  Nd3  1  0.497305  0.999420  0.750775  1
  Nd  Nd4  1  0.000580  0.502695  0.750775  1
  Nd  Nd5  1  0.500839  0.499161  0.252077  1
  Nd  Nd6  1  0.999906  0.502311  0.249194  1
  Nd  Nd7  1  0.497689  0.000094  0.249194  1
  Be  Be8  1  0.666731  0.333269  0.999287  1
  Be  Be9  1  0.665735  0.334265  0.501254  1
  Be  Be10  1  0.335224  0.664776  0.498642  1
  Zn  Zn11  1  0.828193  0.171807  0.500188  1
  Si  Si12  1  0.830181  0.169819  0.999748  1
  Si  Si13  1  0.829745  0.660851  0.999785  1
  Si  Si14  1  0.339149  0.170255  0.999785  1
  Si  Si15  1  0.824832  0.654683  0.500051  1
  Si  Si16  1  0.345317  0.175168  0.500051  1
  Si  Si17  1  0.172874  0.827126  0.499998  1
  Si  Si18  1  0.656497  0.828337  0.499935  1
  Si  Si19  1  0.171663  0.343503  0.499935  1
  Si  Si20  1  0.168286  0.831714  0.000145  1
  Si  Si21  1  0.663958  0.831703  0.000157  1
  Si  Si22  1  0.168297  0.336042  0.000157  1
  Rh  Rh23  1  0.333799  0.666201  0.000978  1
