# generated using pymatgen
data_Ti6PC2S
_symmetry_space_group_name_H-M   'P 1'
_cell_length_a   5.34480620
_cell_length_b   5.34480879
_cell_length_c   7.98553000
_cell_angle_alpha   90.00000000
_cell_angle_beta   90.00000000
_cell_angle_gamma   145.01212601
_symmetry_Int_Tables_number   1
_chemical_formula_structural   Ti6PC2S
_chemical_formula_sum   'Ti6 P1 C2 S1'
_cell_volume   130.80606666
_cell_formula_units_Z   1
loop_
 _symmetry_equiv_pos_site_id
 _symmetry_equiv_pos_as_xyz
  1  'x, y, z'
loop_
 _atom_site_type_symbol
 _atom_site_label
 _atom_site_symmetry_multiplicity
 _atom_site_fract_x
 _atom_site_fract_y
 _atom_site_fract_z
 _atom_site_occupancy
  Ti  Ti0  1  0.632863  0.367138  0.055824  1
  Ti  Ti1  1  0.935687  0.064314  0.250000  1
  Ti  Ti2  1  0.632863  0.367138  0.444176  1
  Ti  Ti3  1  0.367360  0.632641  0.556122  1
  Ti  Ti4  1  0.060848  0.939153  0.750000  1
  Ti  Ti5  1  0.367360  0.632641  0.943877  1
  P  P6  1  0.745982  0.254019  0.750000  1
  C  C7  1  0.000788  0.999212  0.001647  1
  C  C8  1  0.000788  0.999212  0.498352  1
  S  S9  1  0.255465  0.744536  0.250000  1
