# generated using pymatgen
data_Zr5Fe12Co2Ni5P12
_symmetry_space_group_name_H-M   'P 1'
_cell_length_a   11.82326305
_cell_length_b   11.79384107
_cell_length_c   3.64838500
_cell_angle_alpha   90.00000000
_cell_angle_beta   90.00000000
_cell_angle_gamma   120.09311651
_symmetry_Int_Tables_number   1
_chemical_formula_structural   Zr5Fe12Co2Ni5P12
_chemical_formula_sum   'Zr5 Fe12 Co2 Ni5 P12'
_cell_volume   440.16514636
_cell_formula_units_Z   1
loop_
 _symmetry_equiv_pos_site_id
 _symmetry_equiv_pos_as_xyz
  1  'x, y, z'
loop_
 _atom_site_type_symbol
 _atom_site_label
 _atom_site_symmetry_multiplicity
 _atom_site_fract_x
 _atom_site_fract_y
 _atom_site_fract_z
 _atom_site_occupancy
  Zr  Zr0  1  0.333573  0.666998  0.500000  1
  Zr  Zr1  1  0.668405  0.333766  0.500000  1
  Zr  Zr2  1  0.815591  0.000948  0.000000  1
  Zr  Zr3  1  0.999242  0.815263  0.000000  1
  Zr  Zr4  1  0.183551  0.183303  0.000000  1
  Fe  Fe5  1  0.621079  0.803185  0.500000  1
  Fe  Fe6  1  0.196536  0.817493  0.500000  1
  Fe  Fe7  1  0.181227  0.379482  0.500000  1
  Fe  Fe8  1  0.378770  0.180042  0.500000  1
  Fe  Fe9  1  0.802161  0.622221  0.500000  1
  Fe  Fe10  1  0.820790  0.198926  0.500000  1
  Fe  Fe11  1  0.282933  0.999918  0.000000  1
  Fe  Fe12  1  0.000033  0.283621  0.000000  1
  Fe  Fe13  1  0.714194  0.714646  0.000000  1
  Fe  Fe14  1  0.448039  0.002415  0.500000  1
  Fe  Fe15  1  0.998132  0.446030  0.500000  1
  Fe  Fe16  1  0.553838  0.552528  0.500000  1
  Co  Co17  1  0.874595  0.513981  0.000000  1
  Co  Co18  1  0.640611  0.126455  0.000000  1
  Ni  Ni19  1  0.514073  0.875239  0.000000  1
  Ni  Ni20  1  0.124640  0.638760  0.000000  1
  Ni  Ni21  1  0.360554  0.485122  0.000000  1
  Ni  Ni22  1  0.487135  0.359657  0.000000  1
  Ni  Ni23  1  0.000130  0.000282  0.500000  1
  P  P24  1  0.180696  0.999110  0.500000  1
  P  P25  1  0.000296  0.181527  0.500000  1
  P  P26  1  0.818217  0.819185  0.500000  1
  P  P27  1  0.521419  0.689853  0.000000  1
  P  P28  1  0.310733  0.832748  0.000000  1
  P  P29  1  0.167477  0.478322  0.000000  1
  P  P30  1  0.479994  0.165460  0.000000  1
  P  P31  1  0.691724  0.521346  0.000000  1
  P  P32  1  0.832339  0.311993  0.000000  1
  P  P33  1  0.638696  0.003895  0.500000  1
  P  P34  1  0.996875  0.635293  0.500000  1
  P  P35  1  0.361703  0.360987  0.500000  1
