# generated using pymatgen
data_DyYZr2(Al8Pt3)3
_symmetry_space_group_name_H-M   'P 1'
_cell_length_a   7.50603950
_cell_length_b   7.51189451
_cell_length_c   13.04871300
_cell_angle_alpha   84.52506438
_cell_angle_beta   78.96688416
_cell_angle_gamma   59.93507121
_symmetry_Int_Tables_number   1
_chemical_formula_structural   DyYZr2(Al8Pt3)3
_chemical_formula_sum   'Dy1 Y1 Zr2 Al24 Pt9'
_cell_volume   624.98812387
_cell_formula_units_Z   1
loop_
 _symmetry_equiv_pos_site_id
 _symmetry_equiv_pos_as_xyz
  1  'x, y, z'
loop_
 _atom_site_type_symbol
 _atom_site_label
 _atom_site_symmetry_multiplicity
 _atom_site_fract_x
 _atom_site_fract_y
 _atom_site_fract_z
 _atom_site_occupancy
  Dy  Dy0  1  0.266313  0.501243  0.192163  1
  Y  Y1  1  0.733666  0.498768  0.807876  1
  Zr  Zr2  1  0.393992  0.167473  0.809623  1
  Zr  Zr3  1  0.606007  0.832530  0.190366  1
  Al  Al4  1  0.681180  0.836336  0.943893  1
  Al  Al5  1  0.318814  0.163683  0.056136  1
  Al  Al6  1  0.146056  0.833017  0.562912  1
  Al  Al7  1  0.853949  0.166983  0.437083  1
  Al  Al8  1  0.479797  0.166893  0.561069  1
  Al  Al9  1  0.520204  0.833107  0.438922  1
  Al  Al10  1  0.220205  0.163313  0.327801  1
  Al  Al11  1  0.779802  0.836694  0.672186  1
  Al  Al12  1  0.436799  0.504326  0.672141  1
  Al  Al13  1  0.563192  0.495675  0.327846  1
  Al  Al14  1  0.111253  0.160216  0.670983  1
  Al  Al15  1  0.888766  0.839771  0.329003  1
  Al  Al16  1  0.353180  0.496573  0.942423  1
  Al  Al17  1  0.646785  0.503432  0.057611  1
  Al  Al18  1  0.018548  0.167649  0.951355  1
  Al  Al19  1  0.981464  0.832330  0.048665  1
  Al  Al20  1  0.186563  0.499596  0.440404  1
  Al  Al21  1  0.813444  0.500403  0.559580  1
  Al  Al22  1  0.733972  0.158639  0.183765  1
  Al  Al23  1  0.265998  0.841385  0.816232  1
  Al  Al24  1  0.066242  0.626632  0.815016  1
  Al  Al25  1  0.933783  0.373372  0.184982  1
  Al  Al26  1  0.850675  0.040747  0.815654  1
  Al  Al27  1  0.149332  0.959221  0.184348  1
  Pt  Pt28  1  0.120342  0.491128  0.638881  1
  Pt  Pt29  1  0.879707  0.508868  0.361104  1
  Pt  Pt30  1  0.657013  0.172652  0.999704  1
  Pt  Pt31  1  0.342969  0.827351  0.000301  1
  Pt  Pt32  1  0.537161  0.166637  0.361608  1
  Pt  Pt33  1  0.462812  0.833397  0.638377  1
  Pt  Pt34  1  0.778585  0.175868  0.637471  1
  Pt  Pt35  1  0.221419  0.824094  0.362516  1
  Pt  Pt36  1  0.000014  0.499999  0.000002  1
