# generated using pymatgen
data_Ca12Np7Mo(WN4)12
_symmetry_space_group_name_H-M   'P 1'
_cell_length_a   11.40272295
_cell_length_b   11.39309747
_cell_length_c   11.40272251
_cell_angle_alpha   109.45412122
_cell_angle_beta   109.48831672
_cell_angle_gamma   109.45412239
_symmetry_Int_Tables_number   1
_chemical_formula_structural   Ca12Np7Mo(WN4)12
_chemical_formula_sum   'Ca12 Np7 Mo1 W12 N48'
_cell_volume   1140.58758093
_cell_formula_units_Z   1
loop_
 _symmetry_equiv_pos_site_id
 _symmetry_equiv_pos_as_xyz
  1  'x, y, z'
loop_
 _atom_site_type_symbol
 _atom_site_label
 _atom_site_symmetry_multiplicity
 _atom_site_fract_x
 _atom_site_fract_y
 _atom_site_fract_z
 _atom_site_occupancy
  Ca  Ca0  1  0.249447  0.374263  0.124703  1
  Ca  Ca1  1  0.375297  0.749560  0.124745  1
  Ca  Ca2  1  0.375256  0.124816  0.250553  1
  Ca  Ca3  1  0.874925  0.631159  0.253609  1
  Ca  Ca4  1  0.753609  0.122451  0.378685  1
  Ca  Ca5  1  0.121315  0.243765  0.374924  1
  Ca  Ca6  1  0.878685  0.756235  0.625076  1
  Ca  Ca7  1  0.246391  0.877551  0.621315  1
  Ca  Ca8  1  0.125077  0.368841  0.746391  1
  Ca  Ca9  1  0.624744  0.875184  0.749447  1
  Ca  Ca10  1  0.624703  0.250440  0.875257  1
  Ca  Ca11  1  0.750553  0.625737  0.875297  1
  Np  Np12  1  0.000000  0.000000  0.000000  1
  Np  Np13  1  0.500001  0.000000  0.000000  1
  Np  Np14  1  0.000000  0.500001  0.000000  1
  Np  Np15  1  0.500000  0.500000  0.000000  1
  Np  Np16  1  0.500000  0.000000  0.500000  1
  Np  Np17  1  0.000000  0.500000  0.500000  1
  Np  Np18  1  0.500001  0.500001  0.500001  1
  Mo  Mo19  1  0.000000  0.000000  0.500001  1
  W  W20  1  0.874899  0.249449  0.125172  1
  W  W21  1  0.753243  0.877552  0.128050  1
  W  W22  1  0.625172  0.375721  0.250273  1
  W  W23  1  0.125192  0.875691  0.253242  1
  W  W24  1  0.249727  0.625449  0.374899  1
  W  W25  1  0.628049  0.750498  0.374808  1
  W  W26  1  0.371950  0.249502  0.625192  1
  W  W27  1  0.750273  0.374551  0.625100  1
  W  W28  1  0.874808  0.124309  0.746757  1
  W  W29  1  0.374828  0.624278  0.749727  1
  W  W30  1  0.246756  0.122448  0.871950  1
  W  W31  1  0.125101  0.750550  0.874828  1
  N  N32  1  0.199623  0.115485  0.014862  1
  N  N33  1  0.314325  0.898778  0.017181  1
  N  N34  1  0.882645  0.397896  0.084680  1
  N  N35  1  0.704099  0.688826  0.086875  1
  N  N36  1  0.618521  0.415654  0.101558  1
  N  N37  1  0.983924  0.686637  0.104212  1
  N  N38  1  0.604212  0.917575  0.120288  1
  N  N39  1  0.016963  0.202867  0.118521  1
  N  N40  1  0.202857  0.584453  0.185676  1
  N  N41  1  0.485138  0.600623  0.184763  1
  N  N42  1  0.117223  0.015273  0.204098  1
  N  N43  1  0.584680  0.186785  0.202036  1
  N  N44  1  0.482820  0.381597  0.297143  1
  N  N45  1  0.315238  0.915861  0.300376  1
  N  N46  1  0.915514  0.296339  0.314431  1
  N  N47  1  0.899515  0.008954  0.319822  1
  N  N48  1  0.297964  0.484749  0.382644  1
  N  N49  1  0.586875  0.898049  0.382777  1
  N  N50  1  0.814431  0.518092  0.398917  1
  N  N51  1  0.079693  0.890562  0.399515  1
  N  N52  1  0.101083  0.619174  0.415514  1
  N  N53  1  0.819822  0.810869  0.420307  1
  N  N54  1  0.601558  0.185905  0.483037  1
  N  N55  1  0.379712  0.297287  0.483924  1
  N  N56  1  0.620287  0.702713  0.516076  1
  N  N57  1  0.398442  0.814096  0.516963  1
  N  N58  1  0.180179  0.189132  0.579693  1
  N  N59  1  0.898916  0.380826  0.584486  1
  N  N60  1  0.920307  0.109439  0.600486  1
  N  N61  1  0.185570  0.481908  0.601083  1
  N  N62  1  0.413125  0.101950  0.617223  1
  N  N63  1  0.702036  0.515251  0.617355  1
  N  N64  1  0.084486  0.703661  0.685570  1
  N  N65  1  0.100486  0.991047  0.680179  1
  N  N66  1  0.684763  0.084139  0.699624  1
  N  N67  1  0.517180  0.618402  0.702857  1
  N  N68  1  0.415320  0.813216  0.797965  1
  N  N69  1  0.882777  0.984727  0.795901  1
  N  N70  1  0.514862  0.399377  0.815238  1
  N  N71  1  0.797144  0.415547  0.814325  1
  N  N72  1  0.395789  0.082425  0.879713  1
  N  N73  1  0.983037  0.797132  0.881479  1
  N  N74  1  0.016077  0.313364  0.895789  1
  N  N75  1  0.381479  0.584346  0.898441  1
  N  N76  1  0.295901  0.311175  0.913125  1
  N  N77  1  0.117356  0.602105  0.915320  1
  N  N78  1  0.685676  0.101223  0.982820  1
  N  N79  1  0.800376  0.884515  0.985138  1
