# generated using pymatgen
data_YEr3Ag4
_symmetry_space_group_name_H-M   'P 1'
_cell_length_a   6.26590915
_cell_length_b   6.26590919
_cell_length_c   10.28967900
_cell_angle_alpha   90.00000000
_cell_angle_beta   90.00000000
_cell_angle_gamma   110.14308144
_symmetry_Int_Tables_number   1
_chemical_formula_structural   YEr3Ag4
_chemical_formula_sum   'Y2 Er6 Ag8'
_cell_volume   379.27966525
_cell_formula_units_Z   2
loop_
 _symmetry_equiv_pos_site_id
 _symmetry_equiv_pos_as_xyz
  1  'x, y, z'
loop_
 _atom_site_type_symbol
 _atom_site_label
 _atom_site_symmetry_multiplicity
 _atom_site_fract_x
 _atom_site_fract_y
 _atom_site_fract_z
 _atom_site_occupancy
  Y  Y0  1  0.997376  0.997376  0.250000  1
  Y  Y1  1  0.002624  0.002624  0.750000  1
  Er  Er2  1  0.500156  0.500156  0.250000  1
  Er  Er3  1  0.499844  0.499844  0.750000  1
  Er  Er4  1  0.251616  0.748384  0.500000  1
  Er  Er5  1  0.251616  0.748384  0.000000  1
  Er  Er6  1  0.748384  0.251616  0.500000  1
  Er  Er7  1  0.748384  0.251616  0.000000  1
  Ag  Ag8  1  0.251684  0.251684  0.001255  1
  Ag  Ag9  1  0.748316  0.748316  0.998745  1
  Ag  Ag10  1  0.251684  0.251684  0.498745  1
  Ag  Ag11  1  0.748316  0.748316  0.501255  1
  Ag  Ag12  1  0.498035  0.000823  0.250000  1
  Ag  Ag13  1  0.999177  0.501965  0.750000  1
  Ag  Ag14  1  0.501965  0.999177  0.750000  1
  Ag  Ag15  1  0.000823  0.498035  0.250000  1
