# generated using pymatgen
data_Nd2Co2Tc
_symmetry_space_group_name_H-M   'P 1'
_cell_length_a   5.68157205
_cell_length_b   5.68157214
_cell_length_c   7.16424700
_cell_angle_alpha   90.00000000
_cell_angle_beta   90.00000000
_cell_angle_gamma   122.19271499
_symmetry_Int_Tables_number   1
_chemical_formula_structural   Nd2Co2Tc
_chemical_formula_sum   'Nd4 Co4 Tc2'
_cell_volume   195.70948594
_cell_formula_units_Z   2
loop_
 _symmetry_equiv_pos_site_id
 _symmetry_equiv_pos_as_xyz
  1  'x, y, z'
loop_
 _atom_site_type_symbol
 _atom_site_label
 _atom_site_symmetry_multiplicity
 _atom_site_fract_x
 _atom_site_fract_y
 _atom_site_fract_z
 _atom_site_occupancy
  Nd  Nd0  1  0.665746  0.334254  0.904296  1
  Nd  Nd1  1  0.334254  0.665746  0.095704  1
  Nd  Nd2  1  0.834254  0.165746  0.404296  1
  Nd  Nd3  1  0.165746  0.834254  0.595704  1
  Co  Co4  1  0.672002  0.827998  0.750000  1
  Co  Co5  1  0.827998  0.672002  0.250000  1
  Co  Co6  1  0.327998  0.172002  0.250000  1
  Co  Co7  1  0.172002  0.327998  0.750000  1
  Tc  Tc8  1  0.500000  0.500000  0.500000  1
  Tc  Tc9  1  0.000000  0.000000  0.000000  1
