# generated using pymatgen
data_Tb3Co8Si6Os
_symmetry_space_group_name_H-M   'P 1'
_cell_length_a   3.82527800
_cell_length_b   10.67586400
_cell_length_c   12.46579500
_cell_angle_alpha   90.00000000
_cell_angle_beta   90.00000000
_cell_angle_gamma   90.00000000
_symmetry_Int_Tables_number   1
_chemical_formula_structural   Tb3Co8Si6Os
_chemical_formula_sum   'Tb6 Co16 Si12 Os2'
_cell_volume   509.07997729
_cell_formula_units_Z   2
loop_
 _symmetry_equiv_pos_site_id
 _symmetry_equiv_pos_as_xyz
  1  'x, y, z'
loop_
 _atom_site_type_symbol
 _atom_site_label
 _atom_site_symmetry_multiplicity
 _atom_site_fract_x
 _atom_site_fract_y
 _atom_site_fract_z
 _atom_site_occupancy
  Tb  Tb0  1  0.000000  0.500000  0.525950  1
  Tb  Tb1  1  0.500000  0.000000  0.474050  1
  Tb  Tb2  1  0.500000  0.817019  0.204921  1
  Tb  Tb3  1  0.500000  0.182981  0.204921  1
  Tb  Tb4  1  0.000000  0.682981  0.795079  1
  Tb  Tb5  1  0.000000  0.317019  0.795079  1
  Co  Co6  1  0.500000  0.500000  0.696125  1
  Co  Co7  1  0.000000  0.000000  0.303875  1
  Co  Co8  1  0.000000  0.500000  0.981484  1
  Co  Co9  1  0.500000  0.000000  0.018516  1
  Co  Co10  1  0.500000  0.330353  0.993040  1
  Co  Co11  1  0.500000  0.669647  0.993040  1
  Co  Co12  1  0.000000  0.169647  0.006960  1
  Co  Co13  1  0.000000  0.830353  0.006960  1
  Co  Co14  1  0.500000  0.301222  0.430040  1
  Co  Co15  1  0.500000  0.698778  0.430040  1
  Co  Co16  1  0.000000  0.198778  0.569960  1
  Co  Co17  1  0.000000  0.801222  0.569960  1
  Co  Co18  1  0.500000  0.882113  0.707689  1
  Co  Co19  1  0.500000  0.117887  0.707689  1
  Co  Co20  1  0.000000  0.617887  0.292311  1
  Co  Co21  1  0.000000  0.382113  0.292311  1
  Si  Si22  1  0.500000  0.500000  0.882518  1
  Si  Si23  1  0.000000  0.000000  0.117482  1
  Si  Si24  1  0.500000  0.500000  0.341661  1
  Si  Si25  1  0.000000  0.000000  0.658339  1
  Si  Si26  1  0.500000  0.302558  0.613266  1
  Si  Si27  1  0.500000  0.697442  0.613266  1
  Si  Si28  1  0.000000  0.197442  0.386734  1
  Si  Si29  1  0.000000  0.802558  0.386734  1
  Si  Si30  1  0.500000  0.851031  0.894082  1
  Si  Si31  1  0.500000  0.148969  0.894082  1
  Si  Si32  1  0.000000  0.648969  0.105918  1
  Si  Si33  1  0.000000  0.351031  0.105918  1
  Os  Os34  1  0.500000  0.500000  0.150282  1
  Os  Os35  1  0.000000  0.000000  0.849718  1
