# generated using pymatgen
data_Ca5Tb4TmSn8
_symmetry_space_group_name_H-M   'P 1'
_cell_length_a   7.89985900
_cell_length_b   8.46846700
_cell_length_c   16.15179700
_cell_angle_alpha   90.00000000
_cell_angle_beta   90.00000000
_cell_angle_gamma   90.00000000
_symmetry_Int_Tables_number   1
_chemical_formula_structural   Ca5Tb4TmSn8
_chemical_formula_sum   'Ca10 Tb8 Tm2 Sn16'
_cell_volume   1080.55029698
_cell_formula_units_Z   2
loop_
 _symmetry_equiv_pos_site_id
 _symmetry_equiv_pos_as_xyz
  1  'x, y, z'
loop_
 _atom_site_type_symbol
 _atom_site_label
 _atom_site_symmetry_multiplicity
 _atom_site_fract_x
 _atom_site_fract_y
 _atom_site_fract_z
 _atom_site_occupancy
  Ca  Ca0  1  0.503703  0.686720  0.591791  1
  Ca  Ca1  1  0.003703  0.813280  0.908209  1
  Ca  Ca2  1  0.498058  0.315676  0.093369  1
  Ca  Ca3  1  0.998058  0.184324  0.406631  1
  Ca  Ca4  1  0.498058  0.315676  0.406631  1
  Ca  Ca5  1  0.998058  0.184324  0.093369  1
  Ca  Ca6  1  0.503703  0.686720  0.908209  1
  Ca  Ca7  1  0.003703  0.813280  0.591791  1
  Ca  Ca8  1  0.834611  0.510223  0.750000  1
  Ca  Ca9  1  0.334611  0.989777  0.750000  1
  Tb  Tb10  1  0.672380  0.165813  0.621727  1
  Tb  Tb11  1  0.172380  0.334187  0.878273  1
  Tb  Tb12  1  0.326259  0.837147  0.124023  1
  Tb  Tb13  1  0.826259  0.662853  0.375977  1
  Tb  Tb14  1  0.326259  0.837147  0.375977  1
  Tb  Tb15  1  0.826259  0.662853  0.124023  1
  Tb  Tb16  1  0.672380  0.165813  0.878273  1
  Tb  Tb17  1  0.172380  0.334187  0.621727  1
  Tm  Tm18  1  0.163288  0.490570  0.250000  1
  Tm  Tm19  1  0.663288  0.009430  0.250000  1
  Sn  Sn20  1  0.670872  0.964496  0.455903  1
  Sn  Sn21  1  0.170872  0.535504  0.044097  1
  Sn  Sn22  1  0.329122  0.037307  0.960506  1
  Sn  Sn23  1  0.829122  0.462693  0.539494  1
  Sn  Sn24  1  0.329122  0.037307  0.539494  1
  Sn  Sn25  1  0.829122  0.462693  0.960506  1
  Sn  Sn26  1  0.670872  0.964496  0.044097  1
  Sn  Sn27  1  0.170872  0.535504  0.455903  1
  Sn  Sn28  1  0.470062  0.374127  0.750000  1
  Sn  Sn29  1  0.970062  0.125873  0.750000  1
  Sn  Sn30  1  0.524269  0.629640  0.250000  1
  Sn  Sn31  1  0.024269  0.870360  0.250000  1
  Sn  Sn32  1  0.714931  0.873201  0.750000  1
  Sn  Sn33  1  0.214931  0.626799  0.750000  1
  Sn  Sn34  1  0.292048  0.137438  0.250000  1
  Sn  Sn35  1  0.792048  0.362562  0.250000  1
