# generated using pymatgen
data_LuHfGaRh5
_symmetry_space_group_name_H-M   'P 1'
_cell_length_a   4.12923600
_cell_length_b   5.56463312
_cell_length_c   11.03038389
_cell_angle_alpha   90.15447946
_cell_angle_beta   90.00000000
_cell_angle_gamma   90.00000000
_symmetry_Int_Tables_number   1
_chemical_formula_structural   LuHfGaRh5
_chemical_formula_sum   'Lu2 Hf2 Ga2 Rh10'
_cell_volume   253.45174783
_cell_formula_units_Z   2
loop_
 _symmetry_equiv_pos_site_id
 _symmetry_equiv_pos_as_xyz
  1  'x, y, z'
loop_
 _atom_site_type_symbol
 _atom_site_label
 _atom_site_symmetry_multiplicity
 _atom_site_fract_x
 _atom_site_fract_y
 _atom_site_fract_z
 _atom_site_occupancy
  Lu  Lu0  1  0.500000  0.184693  0.638209  1
  Lu  Lu1  1  0.500000  0.815307  0.361791  1
  Hf  Hf2  1  0.500000  0.683044  0.860387  1
  Hf  Hf3  1  0.500000  0.316956  0.139613  1
  Ga  Ga4  1  0.000000  0.500000  0.500000  1
  Ga  Ga5  1  0.000000  0.000000  0.000000  1
  Rh  Rh6  1  0.500000  0.189985  0.895612  1
  Rh  Rh7  1  0.500000  0.810015  0.104388  1
  Rh  Rh8  1  0.500000  0.686280  0.613304  1
  Rh  Rh9  1  0.500000  0.313720  0.386696  1
  Rh  Rh10  1  0.000000  0.437009  0.752944  1
  Rh  Rh11  1  0.000000  0.562991  0.247056  1
  Rh  Rh12  1  0.000000  0.000000  0.500000  1
  Rh  Rh13  1  0.000000  0.500000  0.000000  1
  Rh  Rh14  1  0.000000  0.068088  0.242661  1
  Rh  Rh15  1  0.000000  0.931912  0.757339  1
