# generated using pymatgen
data_Ho10Sn6Cl
_symmetry_space_group_name_H-M   'P 1'
_cell_length_a   6.49017500
_cell_length_b   8.99973560
_cell_length_c   9.00008300
_cell_angle_alpha   119.99872235
_cell_angle_beta   89.99955860
_cell_angle_gamma   90.00088280
_symmetry_Int_Tables_number   1
_chemical_formula_structural   Ho10Sn6Cl
_chemical_formula_sum   'Ho10 Sn6 Cl1'
_cell_volume   455.26985527
_cell_formula_units_Z   1
loop_
 _symmetry_equiv_pos_site_id
 _symmetry_equiv_pos_as_xyz
  1  'x, y, z'
loop_
 _atom_site_type_symbol
 _atom_site_label
 _atom_site_symmetry_multiplicity
 _atom_site_fract_x
 _atom_site_fract_y
 _atom_site_fract_z
 _atom_site_occupancy
  Ho  Ho0  1  0.499986  0.333270  0.666563  1
  Ho  Ho1  1  0.499986  0.666706  0.333437  1
  Ho  Ho2  1  0.000011  0.666585  0.333228  1
  Ho  Ho3  1  0.000011  0.333355  0.666772  1
  Ho  Ho4  1  0.761013  0.250253  0.000000  1
  Ho  Ho5  1  0.761031  0.749668  0.749721  1
  Ho  Ho6  1  0.761031  0.999946  0.250279  1
  Ho  Ho7  1  0.238962  0.749680  0.000000  1
  Ho  Ho8  1  0.238921  0.250236  0.250271  1
  Ho  Ho9  1  0.238921  0.999964  0.749729  1
  Sn  Sn10  1  0.751377  0.608036  0.000000  1
  Sn  Sn11  1  0.751379  0.391921  0.391845  1
  Sn  Sn12  1  0.751379  0.000075  0.608155  1
  Sn  Sn13  1  0.248667  0.392021  0.000000  1
  Sn  Sn14  1  0.248628  0.608157  0.608075  1
  Sn  Sn15  1  0.248628  0.000082  0.391925  1
  Cl  Cl16  1  0.500071  0.000044  0.000000  1
