# generated using pymatgen
data_YTaCo4As3
_symmetry_space_group_name_H-M   'P 1'
_cell_length_a   3.82646900
_cell_length_b   10.90500700
_cell_length_c   12.46130700
_cell_angle_alpha   90.00000000
_cell_angle_beta   90.00000000
_cell_angle_gamma   90.00000000
_symmetry_Int_Tables_number   1
_chemical_formula_structural   YTaCo4As3
_chemical_formula_sum   'Y4 Ta4 Co16 As12'
_cell_volume   519.98132160
_cell_formula_units_Z   4
loop_
 _symmetry_equiv_pos_site_id
 _symmetry_equiv_pos_as_xyz
  1  'x, y, z'
loop_
 _atom_site_type_symbol
 _atom_site_label
 _atom_site_symmetry_multiplicity
 _atom_site_fract_x
 _atom_site_fract_y
 _atom_site_fract_z
 _atom_site_occupancy
  Y  Y0  1  0.250000  0.579254  0.704999  1
  Y  Y1  1  0.250000  0.920746  0.204999  1
  Y  Y2  1  0.750000  0.420746  0.295001  1
  Y  Y3  1  0.750000  0.079254  0.795001  1
  Ta  Ta4  1  0.250000  0.702016  0.990843  1
  Ta  Ta5  1  0.250000  0.797984  0.490843  1
  Ta  Ta6  1  0.750000  0.297984  0.009157  1
  Ta  Ta7  1  0.750000  0.202016  0.509157  1
  Co  Co8  1  0.250000  0.402546  0.487633  1
  Co  Co9  1  0.250000  0.097454  0.987633  1
  Co  Co10  1  0.750000  0.597454  0.512367  1
  Co  Co11  1  0.750000  0.902546  0.012367  1
  Co  Co12  1  0.250000  0.218262  0.173643  1
  Co  Co13  1  0.250000  0.281738  0.673643  1
  Co  Co14  1  0.750000  0.781738  0.826357  1
  Co  Co15  1  0.750000  0.718262  0.326357  1
  Co  Co16  1  0.250000  0.885174  0.698578  1
  Co  Co17  1  0.250000  0.614826  0.198578  1
  Co  Co18  1  0.750000  0.114826  0.301422  1
  Co  Co19  1  0.750000  0.385174  0.801422  1
  Co  Co20  1  0.250000  0.465062  0.934469  1
  Co  Co21  1  0.250000  0.034938  0.434469  1
  Co  Co22  1  0.750000  0.534938  0.065531  1
  Co  Co23  1  0.750000  0.965062  0.565531  1
  As  As24  1  0.250000  0.420736  0.118796  1
  As  As25  1  0.250000  0.079264  0.618796  1
  As  As26  1  0.750000  0.579264  0.881204  1
  As  As27  1  0.750000  0.920736  0.381204  1
  As  As28  1  0.250000  0.266641  0.860436  1
  As  As29  1  0.250000  0.233359  0.360436  1
  As  As30  1  0.750000  0.733359  0.139564  1
  As  As31  1  0.750000  0.766641  0.639564  1
  As  As32  1  0.250000  0.591773  0.390354  1
  As  As33  1  0.250000  0.908227  0.890354  1
  As  As34  1  0.750000  0.408227  0.609646  1
  As  As35  1  0.750000  0.091773  0.109646  1
