# generated using pymatgen
data_SrMn7PtO16
_symmetry_space_group_name_H-M   'P 1'
_cell_length_a   6.00292186
_cell_length_b   7.07943780
_cell_length_c   7.29704537
_cell_angle_alpha   89.18997667
_cell_angle_beta   77.91157136
_cell_angle_gamma   79.00361128
_symmetry_Int_Tables_number   1
_chemical_formula_structural   SrMn7PtO16
_chemical_formula_sum   'Sr1 Mn7 Pt1 O16'
_cell_volume   297.55327482
_cell_formula_units_Z   1
loop_
 _symmetry_equiv_pos_site_id
 _symmetry_equiv_pos_as_xyz
  1  'x, y, z'
loop_
 _atom_site_type_symbol
 _atom_site_label
 _atom_site_symmetry_multiplicity
 _atom_site_fract_x
 _atom_site_fract_y
 _atom_site_fract_z
 _atom_site_occupancy
  Sr  Sr0  1  0.016901  0.016414  0.974246  1
  Mn  Mn1  1  0.089644  0.511779  0.182200  1
  Mn  Mn2  1  0.161503  0.818040  0.517143  1
  Mn  Mn3  1  0.664946  0.814707  0.532609  1
  Mn  Mn4  1  0.333741  0.180021  0.480386  1
  Mn  Mn5  1  0.834538  0.181533  0.483242  1
  Mn  Mn6  1  0.428745  0.480793  0.814769  1
  Mn  Mn7  1  0.930527  0.491375  0.816224  1
  Pt  Pt8  1  0.587680  0.512306  0.181736  1
  O  O9  1  0.848772  0.650530  0.052307  1
  O  O10  1  0.328337  0.646138  0.054258  1
  O  O11  1  0.990096  0.694904  0.381293  1
  O  O12  1  0.471745  0.698907  0.401464  1
  O  O13  1  0.856025  0.961803  0.647060  1
  O  O14  1  0.318357  0.971100  0.651521  1
  O  O15  1  0.338459  0.360195  0.277343  1
  O  O16  1  0.856268  0.360085  0.280246  1
  O  O17  1  0.149821  0.647789  0.721049  1
  O  O18  1  0.668750  0.626886  0.725858  1
  O  O19  1  0.145675  0.043479  0.353403  1
  O  O20  1  0.651084  0.039476  0.363902  1
  O  O21  1  0.023810  0.302037  0.613880  1
  O  O22  1  0.525033  0.299052  0.605047  1
  O  O23  1  0.174132  0.352833  0.939038  1
  O  O24  1  0.712509  0.337819  0.949770  1
