# generated using pymatgen
data_Pr2NdBiO7
_symmetry_space_group_name_H-M   'P 1'
_cell_length_a   6.78615115
_cell_length_b   6.80275232
_cell_length_c   8.00479207
_cell_angle_alpha   106.88578057
_cell_angle_beta   89.84708840
_cell_angle_gamma   98.32291021
_symmetry_Int_Tables_number   1
_chemical_formula_structural   Pr2NdBiO7
_chemical_formula_sum   'Pr4 Nd2 Bi2 O14'
_cell_volume   349.57804386
_cell_formula_units_Z   2
loop_
 _symmetry_equiv_pos_site_id
 _symmetry_equiv_pos_as_xyz
  1  'x, y, z'
loop_
 _atom_site_type_symbol
 _atom_site_label
 _atom_site_symmetry_multiplicity
 _atom_site_fract_x
 _atom_site_fract_y
 _atom_site_fract_z
 _atom_site_occupancy
  Pr  Pr0  1  0.267749  0.535922  0.882106  1
  Pr  Pr1  1  0.732251  0.464078  0.117894  1
  Pr  Pr2  1  0.739548  0.479967  0.615499  1
  Pr  Pr3  1  0.260452  0.520033  0.384501  1
  Nd  Nd4  1  0.460675  0.003958  0.252644  1
  Nd  Nd5  1  0.539325  0.996042  0.747356  1
  Bi  Bi6  1  0.000000  0.000000  0.500000  1
  Bi  Bi7  1  0.000000  0.000000  0.000000  1
  O  O8  1  0.441153  0.645050  0.166968  1
  O  O9  1  0.558847  0.354950  0.833032  1
  O  O10  1  0.296651  0.928476  0.954471  1
  O  O11  1  0.703349  0.071524  0.045529  1
  O  O12  1  0.292634  0.926436  0.511176  1
  O  O13  1  0.707366  0.073564  0.488824  1
  O  O14  1  0.548628  0.361975  0.345388  1
  O  O15  1  0.451372  0.638025  0.654612  1
  O  O16  1  0.925609  0.674938  0.955688  1
  O  O17  1  0.074391  0.325062  0.044312  1
  O  O18  1  0.073012  0.335825  0.614646  1
  O  O19  1  0.926988  0.664175  0.385354  1
  O  O20  1  0.888093  0.914623  0.727997  1
  O  O21  1  0.111907  0.085377  0.272003  1
