# generated using pymatgen
data_Ce3GeRh3Pb2
_symmetry_space_group_name_H-M   'P 1'
_cell_length_a   7.56525553
_cell_length_b   7.56542563
_cell_length_c   4.02857700
_cell_angle_alpha   90.00000000
_cell_angle_beta   90.00000000
_cell_angle_gamma   120.58408871
_symmetry_Int_Tables_number   1
_chemical_formula_structural   Ce3GeRh3Pb2
_chemical_formula_sum   'Ce3 Ge1 Rh3 Pb2'
_cell_volume   198.49654372
_cell_formula_units_Z   1
loop_
 _symmetry_equiv_pos_site_id
 _symmetry_equiv_pos_as_xyz
  1  'x, y, z'
loop_
 _atom_site_type_symbol
 _atom_site_label
 _atom_site_symmetry_multiplicity
 _atom_site_fract_x
 _atom_site_fract_y
 _atom_site_fract_z
 _atom_site_occupancy
  Ce  Ce0  1  0.431319  0.431318  0.500000  1
  Ce  Ce1  1  0.588132  0.983167  0.500000  1
  Ce  Ce2  1  0.983080  0.588161  0.500000  1
  Ge  Ge3  1  0.741863  0.741843  0.000000  1
  Rh  Rh4  1  0.958596  0.958531  0.500000  1
  Rh  Rh5  1  0.676622  0.359994  0.000000  1
  Rh  Rh6  1  0.359934  0.676546  0.000000  1
  Pb  Pb7  1  0.256782  0.003697  0.000000  1
  Pb  Pb8  1  0.003672  0.256742  0.000000  1
