# generated using pymatgen
data_AlSi2Ni3(Mo3C)2
_symmetry_space_group_name_H-M   'P 1'
_cell_length_a   7.89579204
_cell_length_b   7.89579132
_cell_length_c   7.87239900
_cell_angle_alpha   60.09795895
_cell_angle_beta   60.09796195
_cell_angle_gamma   60.21232160
_symmetry_Int_Tables_number   1
_chemical_formula_structural   AlSi2Ni3(Mo3C)2
_chemical_formula_sum   'Al2 Si4 Ni6 Mo12 C4'
_cell_volume   348.11202485
_cell_formula_units_Z   2
loop_
 _symmetry_equiv_pos_site_id
 _symmetry_equiv_pos_as_xyz
  1  'x, y, z'
loop_
 _atom_site_type_symbol
 _atom_site_label
 _atom_site_symmetry_multiplicity
 _atom_site_fract_x
 _atom_site_fract_y
 _atom_site_fract_z
 _atom_site_occupancy
  Al  Al0  1  0.920231  0.920231  0.242608  1
  Al  Al1  1  0.329769  0.329769  0.333069  1
  Si  Si2  1  0.136271  0.136271  0.118422  1
  Si  Si3  1  0.625000  0.125000  0.102818  1
  Si  Si4  1  0.113729  0.113729  0.640964  1
  Si  Si5  1  0.125000  0.625000  0.102818  1
  Ni  Ni6  1  0.242237  0.916072  0.926793  1
  Ni  Ni7  1  0.333928  0.007763  0.335102  1
  Ni  Ni8  1  0.007763  0.333928  0.335102  1
  Ni  Ni9  1  0.334378  0.334378  0.005900  1
  Ni  Ni10  1  0.915622  0.915622  0.924657  1
  Ni  Ni11  1  0.916072  0.242237  0.926793  1
  Mo  Mo12  1  0.697210  0.305057  0.307548  1
  Mo  Mo13  1  0.942645  0.942645  0.559571  1
  Mo  Mo14  1  0.692282  0.692282  0.309569  1
  Mo  Mo15  1  0.689670  0.311607  0.688891  1
  Mo  Mo16  1  0.305057  0.697210  0.307548  1
  Mo  Mo17  1  0.552790  0.944943  0.559814  1
  Mo  Mo18  1  0.560330  0.938393  0.940167  1
  Mo  Mo19  1  0.944943  0.552790  0.559814  1
  Mo  Mo20  1  0.938393  0.560330  0.940167  1
  Mo  Mo21  1  0.307355  0.307355  0.694862  1
  Mo  Mo22  1  0.557718  0.557718  0.944132  1
  Mo  Mo23  1  0.311607  0.689670  0.688891  1
  C  C24  1  0.625626  0.625626  0.625684  1
  C  C25  1  0.624374  0.624374  0.126936  1
  C  C26  1  0.125000  0.625000  0.625680  1
  C  C27  1  0.625000  0.125000  0.625680  1
