# generated using pymatgen
data_Ba4GaSb3Pt4
_symmetry_space_group_name_H-M   'P 1'
_cell_length_a   7.09737478
_cell_length_b   7.09737498
_cell_length_c   7.09737525
_cell_angle_alpha   89.73187071
_cell_angle_beta   89.73187433
_cell_angle_gamma   89.73186939
_symmetry_Int_Tables_number   1
_chemical_formula_structural   Ba4GaSb3Pt4
_chemical_formula_sum   'Ba4 Ga1 Sb3 Pt4'
_cell_volume   357.50246048
_cell_formula_units_Z   1
loop_
 _symmetry_equiv_pos_site_id
 _symmetry_equiv_pos_as_xyz
  1  'x, y, z'
loop_
 _atom_site_type_symbol
 _atom_site_label
 _atom_site_symmetry_multiplicity
 _atom_site_fract_x
 _atom_site_fract_y
 _atom_site_fract_z
 _atom_site_occupancy
  Ba  Ba0  1  0.135450  0.135450  0.135450  1
  Ba  Ba1  1  0.634944  0.368884  0.869495  1
  Ba  Ba2  1  0.368884  0.869495  0.634944  1
  Ba  Ba3  1  0.869495  0.634944  0.368884  1
  Ga  Ga4  1  0.839970  0.839970  0.839970  1
  Sb  Sb5  1  0.329971  0.671596  0.163177  1
  Sb  Sb6  1  0.163177  0.329971  0.671596  1
  Sb  Sb7  1  0.671596  0.163177  0.329971  1
  Pt  Pt8  1  0.408964  0.408964  0.408964  1
  Pt  Pt9  1  0.072882  0.592801  0.911866  1
  Pt  Pt10  1  0.911866  0.072882  0.592801  1
  Pt  Pt11  1  0.592801  0.911866  0.072882  1
