# generated using pymatgen
data_Lu12ZnFe3Bi
_symmetry_space_group_name_H-M   'P 1'
_cell_length_a   8.14603182
_cell_length_b   8.14791847
_cell_length_c   8.14603011
_cell_angle_alpha   107.96326176
_cell_angle_beta   109.48249189
_cell_angle_gamma   110.97249353
_symmetry_Int_Tables_number   1
_chemical_formula_structural   Lu12ZnFe3Bi
_chemical_formula_sum   'Lu12 Zn1 Fe3 Bi1'
_cell_volume   415.97540871
_cell_formula_units_Z   1
loop_
 _symmetry_equiv_pos_site_id
 _symmetry_equiv_pos_as_xyz
  1  'x, y, z'
loop_
 _atom_site_type_symbol
 _atom_site_label
 _atom_site_symmetry_multiplicity
 _atom_site_fract_x
 _atom_site_fract_y
 _atom_site_fract_z
 _atom_site_occupancy
  Lu  Lu0  1  0.314797  0.301797  0.616770  1
  Lu  Lu1  1  0.685203  0.698203  0.383230  1
  Lu  Lu2  1  0.685027  0.301797  0.987001  1
  Lu  Lu3  1  0.314973  0.698203  0.012999  1
  Lu  Lu4  1  0.191116  0.414175  0.223059  1
  Lu  Lu5  1  0.808884  0.585825  0.776941  1
  Lu  Lu6  1  0.191250  0.968105  0.776856  1
  Lu  Lu7  1  0.939027  0.190223  0.748743  1
  Lu  Lu8  1  0.808750  0.031895  0.223144  1
  Lu  Lu9  1  0.060973  0.809777  0.251257  1
  Lu  Lu10  1  0.441479  0.190223  0.251195  1
  Lu  Lu11  1  0.558521  0.809777  0.748805  1
  Zn  Zn12  1  0.500000  0.000000  0.500000  1
  Fe  Fe13  1  0.383777  0.384186  0.000409  1
  Fe  Fe14  1  0.616223  0.615814  0.999591  1
  Fe  Fe15  1  0.000000  0.000000  0.000000  1
  Bi  Bi16  1  0.000000  0.500000  0.500000  1
