# generated using pymatgen
data_Cs2Ti(CuTe2)2
_symmetry_space_group_name_H-M   'P 1'
_cell_length_a   6.23717500
_cell_length_b   6.23717500
_cell_length_c   15.51160700
_cell_angle_alpha   90.00000000
_cell_angle_beta   90.00000000
_cell_angle_gamma   90.00000000
_symmetry_Int_Tables_number   1
_chemical_formula_structural   Cs2Ti(CuTe2)2
_chemical_formula_sum   'Cs4 Ti2 Cu4 Te8'
_cell_volume   603.43799530
_cell_formula_units_Z   2
loop_
 _symmetry_equiv_pos_site_id
 _symmetry_equiv_pos_as_xyz
  1  'x, y, z'
loop_
 _atom_site_type_symbol
 _atom_site_label
 _atom_site_symmetry_multiplicity
 _atom_site_fract_x
 _atom_site_fract_y
 _atom_site_fract_z
 _atom_site_occupancy
  Cs  Cs0  1  0.754718  0.754718  0.000000  1
  Cs  Cs1  1  0.245282  0.754718  0.500000  1
  Cs  Cs2  1  0.754718  0.245282  0.500000  1
  Cs  Cs3  1  0.245282  0.245282  0.000000  1
  Ti  Ti4  1  0.500000  0.500000  0.250000  1
  Ti  Ti5  1  0.500000  0.500000  0.750000  1
  Cu  Cu6  1  0.000000  0.500000  0.750000  1
  Cu  Cu7  1  0.500000  0.000000  0.750000  1
  Cu  Cu8  1  0.500000  0.000000  0.250000  1
  Cu  Cu9  1  0.000000  0.500000  0.250000  1
  Te  Te10  1  0.746795  0.253205  0.154911  1
  Te  Te11  1  0.746795  0.746795  0.345089  1
  Te  Te12  1  0.253205  0.253205  0.654911  1
  Te  Te13  1  0.746795  0.746795  0.654911  1
  Te  Te14  1  0.253205  0.253205  0.345089  1
  Te  Te15  1  0.746795  0.253205  0.845089  1
  Te  Te16  1  0.253205  0.746795  0.845089  1
  Te  Te17  1  0.253205  0.746795  0.154911  1
