# generated using pymatgen
data_Nb2SbRuF20
_symmetry_space_group_name_H-M   'P 1'
_cell_length_a   5.77731907
_cell_length_b   7.53099147
_cell_length_c   9.95142974
_cell_angle_alpha   88.09647057
_cell_angle_beta   106.17482938
_cell_angle_gamma   99.31466327
_symmetry_Int_Tables_number   1
_chemical_formula_structural   Nb2SbRuF20
_chemical_formula_sum   'Nb2 Sb1 Ru1 F20'
_cell_volume   410.32201721
_cell_formula_units_Z   1
loop_
 _symmetry_equiv_pos_site_id
 _symmetry_equiv_pos_as_xyz
  1  'x, y, z'
loop_
 _atom_site_type_symbol
 _atom_site_label
 _atom_site_symmetry_multiplicity
 _atom_site_fract_x
 _atom_site_fract_y
 _atom_site_fract_z
 _atom_site_occupancy
  Nb  Nb0  1  0.338613  0.382187  0.220888  1
  Nb  Nb1  1  0.662082  0.621629  0.780010  1
  Sb  Sb2  1  0.035396  0.234132  0.685489  1
  Ru  Ru3  1  0.963935  0.760070  0.313631  1
  F  F4  1  0.026839  0.248837  0.167815  1
  F  F5  1  0.974311  0.752520  0.833032  1
  F  F6  1  0.494678  0.219508  0.157361  1
  F  F7  1  0.503588  0.781166  0.843657  1
  F  F8  1  0.114186  0.226308  0.883234  1
  F  F9  1  0.886270  0.779601  0.117938  1
  F  F10  1  0.960207  0.286490  0.492680  1
  F  F11  1  0.038748  0.719821  0.506567  1
  F  F12  1  0.761170  0.051411  0.663590  1
  F  F13  1  0.228820  0.941809  0.336377  1
  F  F14  1  0.260049  0.082971  0.675250  1
  F  F15  1  0.753444  0.915405  0.324752  1
  F  F16  1  0.305099  0.447238  0.711582  1
  F  F17  1  0.688543  0.553693  0.288580  1
  F  F18  1  0.828824  0.419516  0.699133  1
  F  F19  1  0.178217  0.580808  0.301085  1
  F  F20  1  0.690257  0.451093  0.923962  1
  F  F21  1  0.308254  0.549068  0.073322  1
  F  F22  1  0.571488  0.665992  0.587409  1
  F  F23  1  0.426982  0.328728  0.412656  1
