# generated using pymatgen
data_YbCeUFe2Si7
_symmetry_space_group_name_H-M   'P 1'
_cell_length_a   12.25563101
_cell_length_b   12.25563080
_cell_length_c   4.07762000
_cell_angle_alpha   90.00000000
_cell_angle_beta   90.00000000
_cell_angle_gamma   160.92566587
_symmetry_Int_Tables_number   1
_chemical_formula_structural   YbCeUFe2Si7
_chemical_formula_sum   'Yb1 Ce1 U1 Fe2 Si7'
_cell_volume   200.14877311
_cell_formula_units_Z   1
loop_
 _symmetry_equiv_pos_site_id
 _symmetry_equiv_pos_as_xyz
  1  'x, y, z'
loop_
 _atom_site_type_symbol
 _atom_site_label
 _atom_site_symmetry_multiplicity
 _atom_site_fract_x
 _atom_site_fract_y
 _atom_site_fract_z
 _atom_site_occupancy
  Yb  Yb0  1  0.317549  0.682451  0.000000  1
  Ce  Ce1  1  0.684225  0.315775  0.000000  1
  U  U2  1  0.999572  0.000428  0.500000  1
  Fe  Fe3  1  0.124248  0.875752  0.500000  1
  Fe  Fe4  1  0.875508  0.124492  0.500000  1
  Si  Si5  1  0.220994  0.779006  0.500000  1
  Si  Si6  1  0.778103  0.221897  0.500000  1
  Si  Si7  1  0.084691  0.915309  0.000000  1
  Si  Si8  1  0.915319  0.084681  0.000000  1
  Si  Si9  1  0.414496  0.585504  0.500000  1
  Si  Si10  1  0.500300  0.499700  0.000000  1
  Si  Si11  1  0.584994  0.415006  0.500000  1
