# generated using pymatgen
data_ErZr3(CoB4)4
_symmetry_space_group_name_H-M   'P 1'
_cell_length_a   3.27763300
_cell_length_b   5.81461002
_cell_length_c   11.29037886
_cell_angle_alpha   90.06704798
_cell_angle_beta   90.00000000
_cell_angle_gamma   90.00000000
_symmetry_Int_Tables_number   1
_chemical_formula_structural   ErZr3(CoB4)4
_chemical_formula_sum   'Er1 Zr3 Co4 B16'
_cell_volume   215.17367338
_cell_formula_units_Z   1
loop_
 _symmetry_equiv_pos_site_id
 _symmetry_equiv_pos_as_xyz
  1  'x, y, z'
loop_
 _atom_site_type_symbol
 _atom_site_label
 _atom_site_symmetry_multiplicity
 _atom_site_fract_x
 _atom_site_fract_y
 _atom_site_fract_z
 _atom_site_occupancy
  Er  Er0  1  0.500000  0.871017  0.349733  1
  Zr  Zr1  1  0.500000  0.374284  0.148946  1
  Zr  Zr2  1  0.500000  0.627415  0.849148  1
  Zr  Zr3  1  0.500000  0.128424  0.652043  1
  Co  Co4  1  0.500000  0.363039  0.411499  1
  Co  Co5  1  0.500000  0.634453  0.591703  1
  Co  Co6  1  0.500000  0.136925  0.909606  1
  Co  Co7  1  0.500000  0.864271  0.087557  1
  B  B8  1  0.000000  0.114735  0.046367  1
  B  B9  1  0.000000  0.886061  0.952567  1
  B  B10  1  0.000000  0.385720  0.548048  1
  B  B11  1  0.000000  0.611107  0.454302  1
  B  B12  1  0.000000  0.135760  0.468859  1
  B  B13  1  0.000000  0.865071  0.533832  1
  B  B14  1  0.000000  0.366477  0.965814  1
  B  B15  1  0.000000  0.633243  0.032964  1
  B  B16  1  0.000000  0.024626  0.190747  1
  B  B17  1  0.000000  0.975484  0.807235  1
  B  B18  1  0.000000  0.476628  0.693658  1
  B  B19  1  0.000000  0.521586  0.307384  1
  B  B20  1  0.000000  0.215776  0.312868  1
  B  B21  1  0.000000  0.787699  0.687147  1
  B  B22  1  0.000000  0.288391  0.813322  1
  B  B23  1  0.000000  0.711808  0.184656  1
