# generated using pymatgen
data_La3Al12(OsRh)2
_symmetry_space_group_name_H-M   'P 1'
_cell_length_a   9.00738523
_cell_length_b   8.93250076
_cell_length_c   9.70442700
_cell_angle_alpha   90.00000000
_cell_angle_beta   90.00000000
_cell_angle_gamma   119.72536824
_symmetry_Int_Tables_number   1
_chemical_formula_structural   La3Al12(OsRh)2
_chemical_formula_sum   'La6 Al24 Os4 Rh4'
_cell_volume   678.05909037
_cell_formula_units_Z   2
loop_
 _symmetry_equiv_pos_site_id
 _symmetry_equiv_pos_as_xyz
  1  'x, y, z'
loop_
 _atom_site_type_symbol
 _atom_site_label
 _atom_site_symmetry_multiplicity
 _atom_site_fract_x
 _atom_site_fract_y
 _atom_site_fract_z
 _atom_site_occupancy
  La  La0  1  0.186918  0.383420  0.250000  1
  La  La1  1  0.813082  0.616580  0.750000  1
  La  La2  1  0.621678  0.810839  0.250000  1
  La  La3  1  0.378322  0.189161  0.750000  1
  La  La4  1  0.186918  0.803499  0.250000  1
  La  La5  1  0.813082  0.196501  0.750000  1
  Al  Al6  1  0.332133  0.666067  0.008268  1
  Al  Al7  1  0.667867  0.333933  0.991732  1
  Al  Al8  1  0.667867  0.333933  0.508268  1
  Al  Al9  1  0.332133  0.666067  0.491732  1
  Al  Al10  1  0.161727  0.326417  0.576113  1
  Al  Al11  1  0.838273  0.673583  0.423887  1
  Al  Al12  1  0.675621  0.837811  0.576529  1
  Al  Al13  1  0.838273  0.673583  0.076113  1
  Al  Al14  1  0.324379  0.162189  0.423471  1
  Al  Al15  1  0.161727  0.326417  0.923887  1
  Al  Al16  1  0.161727  0.835310  0.576113  1
  Al  Al17  1  0.324379  0.162189  0.076529  1
  Al  Al18  1  0.838273  0.164690  0.423887  1
  Al  Al19  1  0.675621  0.837811  0.923471  1
  Al  Al20  1  0.838273  0.164690  0.076113  1
  Al  Al21  1  0.161727  0.835310  0.923887  1
  Al  Al22  1  0.561390  0.123977  0.250000  1
  Al  Al23  1  0.438610  0.876023  0.750000  1
  Al  Al24  1  0.871597  0.435799  0.250000  1
  Al  Al25  1  0.128403  0.564201  0.750000  1
  Al  Al26  1  0.561390  0.437414  0.250000  1
  Al  Al27  1  0.438610  0.562586  0.750000  1
  Al  Al28  1  0.998929  0.999465  0.250000  1
  Al  Al29  1  0.001071  0.000535  0.750000  1
  Os  Os30  1  0.000000  0.500000  0.000000  1
  Os  Os31  1  0.000000  0.500000  0.500000  1
  Os  Os32  1  0.000000  0.000000  0.000000  1
  Os  Os33  1  0.000000  0.000000  0.500000  1
  Rh  Rh34  1  0.500000  0.000000  0.000000  1
  Rh  Rh35  1  0.500000  0.000000  0.500000  1
  Rh  Rh36  1  0.500000  0.500000  0.000000  1
  Rh  Rh37  1  0.500000  0.500000  0.500000  1
