# generated using pymatgen
data_Er(NbB3)2
_symmetry_space_group_name_H-M   'P 1'
_cell_length_a   3.14177700
_cell_length_b   3.14177751
_cell_length_c   10.53528700
_cell_angle_alpha   90.00000000
_cell_angle_beta   90.00000000
_cell_angle_gamma   120.00000512
_symmetry_Int_Tables_number   1
_chemical_formula_structural   Er(NbB3)2
_chemical_formula_sum   'Er1 Nb2 B6'
_cell_volume   90.05913338
_cell_formula_units_Z   1
loop_
 _symmetry_equiv_pos_site_id
 _symmetry_equiv_pos_as_xyz
  1  'x, y, z'
loop_
 _atom_site_type_symbol
 _atom_site_label
 _atom_site_symmetry_multiplicity
 _atom_site_fract_x
 _atom_site_fract_y
 _atom_site_fract_z
 _atom_site_occupancy
  Er  Er0  1  0.000000  0.000000  0.000000  1
  Nb  Nb1  1  0.000000  0.000000  0.655380  1
  Nb  Nb2  1  0.000000  0.000000  0.344620  1
  B  B3  1  0.666667  0.333333  0.816949  1
  B  B4  1  0.666667  0.333333  0.500000  1
  B  B5  1  0.666667  0.333333  0.183051  1
  B  B6  1  0.333333  0.666667  0.816949  1
  B  B7  1  0.333333  0.666667  0.500000  1
  B  B8  1  0.333333  0.666667  0.183051  1
