# generated using pymatgen
data_Sc4Ti5Nb3Sn10
_symmetry_space_group_name_H-M   'P 1'
_cell_length_a   10.63182224
_cell_length_b   10.63182280
_cell_length_c   10.63797693
_cell_angle_alpha   149.12715491
_cell_angle_beta   131.73008512
_cell_angle_gamma   58.34435921
_symmetry_Int_Tables_number   1
_chemical_formula_structural   Sc4Ti5Nb3Sn10
_chemical_formula_sum   'Sc4 Ti5 Nb3 Sn10'
_cell_volume   457.07511546
_cell_formula_units_Z   1
loop_
 _symmetry_equiv_pos_site_id
 _symmetry_equiv_pos_as_xyz
  1  'x, y, z'
loop_
 _atom_site_type_symbol
 _atom_site_label
 _atom_site_symmetry_multiplicity
 _atom_site_fract_x
 _atom_site_fract_y
 _atom_site_fract_z
 _atom_site_occupancy
  Sc  Sc0  1  0.257095  0.145674  0.113279  1
  Sc  Sc1  1  0.744121  0.854238  0.887887  1
  Sc  Sc2  1  0.032394  0.643816  0.386721  1
  Sc  Sc3  1  0.966351  0.356233  0.612113  1
  Ti  Ti4  1  0.310414  0.060414  0.750000  1
  Ti  Ti5  1  0.675636  0.436256  0.240889  1
  Ti  Ti6  1  0.325067  0.564305  0.759835  1
  Ti  Ti7  1  0.195366  0.934746  0.259111  1
  Ti  Ti8  1  0.804470  0.065233  0.740165  1
  Nb  Nb9  1  0.309896  0.559896  0.250000  1
  Nb  Nb10  1  0.689775  0.439775  0.750000  1
  Nb  Nb11  1  0.690457  0.940457  0.250000  1
  Sn  Sn12  1  0.586893  0.289551  0.296701  1
  Sn  Sn13  1  0.411161  0.712218  0.701863  1
  Sn  Sn14  1  0.992850  0.790192  0.203299  1
  Sn  Sn15  1  0.010355  0.209298  0.798137  1
  Sn  Sn16  1  0.000134  0.250134  0.250000  1
  Sn  Sn17  1  0.999929  0.749929  0.750000  1
  Sn  Sn18  1  0.463828  0.065320  0.397208  1
  Sn  Sn19  1  0.534485  0.935845  0.604633  1
  Sn  Sn20  1  0.668112  0.566619  0.102792  1
  Sn  Sn21  1  0.331212  0.429853  0.895367  1
