# generated using pymatgen
data_Pr2MnRu3C4
_symmetry_space_group_name_H-M   'P 1'
_cell_length_a   6.62791134
_cell_length_b   5.77489978
_cell_length_c   5.34745118
_cell_angle_alpha   73.04069696
_cell_angle_beta   56.45055433
_cell_angle_gamma   53.46274486
_symmetry_Int_Tables_number   1
_chemical_formula_structural   Pr2MnRu3C4
_chemical_formula_sum   'Pr2 Mn1 Ru3 C4'
_cell_volume   136.84218630
_cell_formula_units_Z   1
loop_
 _symmetry_equiv_pos_site_id
 _symmetry_equiv_pos_as_xyz
  1  'x, y, z'
loop_
 _atom_site_type_symbol
 _atom_site_label
 _atom_site_symmetry_multiplicity
 _atom_site_fract_x
 _atom_site_fract_y
 _atom_site_fract_z
 _atom_site_occupancy
  Pr  Pr0  1  0.008122  0.008122  0.991878  1
  Pr  Pr1  1  0.245269  0.245269  0.254731  1
  Mn  Mn2  1  0.613432  0.613432  0.886568  1
  Ru  Ru3  1  0.639098  0.639098  0.360901  1
  Ru  Ru4  1  0.368055  0.368056  0.631944  1
  Ru  Ru5  1  0.884098  0.884097  0.615902  1
  C  C6  1  0.696304  0.320161  0.683020  1
  C  C7  1  0.320161  0.696304  0.300515  1
  C  C8  1  0.930429  0.545032  0.910506  1
  C  C9  1  0.545032  0.930429  0.614033  1
