# generated using pymatgen
data_Rb2NaErAs2
_symmetry_space_group_name_H-M   'P 1'
_cell_length_a   9.47528186
_cell_length_b   9.47528120
_cell_length_c   9.47528054
_cell_angle_alpha   135.10489068
_cell_angle_beta   136.04510984
_cell_angle_gamma   64.64112970
_symmetry_Int_Tables_number   1
_chemical_formula_structural   Rb2NaErAs2
_chemical_formula_sum   'Rb4 Na2 Er2 As4'
_cell_volume   410.92230624
_cell_formula_units_Z   2
loop_
 _symmetry_equiv_pos_site_id
 _symmetry_equiv_pos_as_xyz
  1  'x, y, z'
loop_
 _atom_site_type_symbol
 _atom_site_label
 _atom_site_symmetry_multiplicity
 _atom_site_fract_x
 _atom_site_fract_y
 _atom_site_fract_z
 _atom_site_occupancy
  Rb  Rb0  1  0.681405  0.402809  0.721404  1
  Rb  Rb1  1  0.818595  0.039999  0.221404  1
  Rb  Rb2  1  0.181405  0.960001  0.778596  1
  Rb  Rb3  1  0.318595  0.597191  0.278596  1
  Na  Na4  1  0.750000  0.000000  0.750000  1
  Na  Na5  1  0.250000  0.000000  0.250000  1
  Er  Er6  1  0.250000  0.500000  0.750000  1
  Er  Er7  1  0.750000  0.500000  0.250000  1
  As  As8  1  0.405776  0.185223  0.779447  1
  As  As9  1  0.594224  0.814777  0.220553  1
  As  As10  1  0.094224  0.373670  0.279447  1
  As  As11  1  0.905776  0.626330  0.720553  1
