# generated using pymatgen
data_Y3Ho7Ag3Ru
_symmetry_space_group_name_H-M   'P 1'
_cell_length_a   9.47445500
_cell_length_b   9.47445550
_cell_length_c   9.63745500
_cell_angle_alpha   90.00000000
_cell_angle_beta   90.00000000
_cell_angle_gamma   120.00000176
_symmetry_Int_Tables_number   1
_chemical_formula_structural   Y3Ho7Ag3Ru
_chemical_formula_sum   'Y6 Ho14 Ag6 Ru2'
_cell_volume   749.20641045
_cell_formula_units_Z   2
loop_
 _symmetry_equiv_pos_site_id
 _symmetry_equiv_pos_as_xyz
  1  'x, y, z'
loop_
 _atom_site_type_symbol
 _atom_site_label
 _atom_site_symmetry_multiplicity
 _atom_site_fract_x
 _atom_site_fract_y
 _atom_site_fract_z
 _atom_site_occupancy
  Y  Y0  1  0.541340  0.458660  0.250000  1
  Y  Y1  1  0.541340  0.082679  0.250000  1
  Y  Y2  1  0.917321  0.458660  0.250000  1
  Y  Y3  1  0.458660  0.541340  0.750000  1
  Y  Y4  1  0.458660  0.917321  0.750000  1
  Y  Y5  1  0.082679  0.541340  0.750000  1
  Ho  Ho6  1  0.000000  0.000000  0.500000  1
  Ho  Ho7  1  0.000000  0.000000  0.000000  1
  Ho  Ho8  1  0.209046  0.790954  0.440690  1
  Ho  Ho9  1  0.209046  0.418092  0.440690  1
  Ho  Ho10  1  0.581908  0.790954  0.440690  1
  Ho  Ho11  1  0.790954  0.209046  0.559310  1
  Ho  Ho12  1  0.790954  0.581908  0.559310  1
  Ho  Ho13  1  0.418092  0.209046  0.559310  1
  Ho  Ho14  1  0.790954  0.209046  0.940690  1
  Ho  Ho15  1  0.790954  0.581908  0.940690  1
  Ho  Ho16  1  0.418092  0.209046  0.940690  1
  Ho  Ho17  1  0.209046  0.790954  0.059310  1
  Ho  Ho18  1  0.209046  0.418092  0.059310  1
  Ho  Ho19  1  0.581908  0.790954  0.059310  1
  Ag  Ag20  1  0.885264  0.114736  0.250000  1
  Ag  Ag21  1  0.885264  0.770530  0.250000  1
  Ag  Ag22  1  0.229470  0.114736  0.250000  1
  Ag  Ag23  1  0.114736  0.885264  0.750000  1
  Ag  Ag24  1  0.114736  0.229470  0.750000  1
  Ag  Ag25  1  0.770530  0.885264  0.750000  1
  Ru  Ru26  1  0.333333  0.666667  0.250000  1
  Ru  Ru27  1  0.666667  0.333333  0.750000  1
