# generated using pymatgen
data_Nd4Al18ZnIr5
_symmetry_space_group_name_H-M   'P 1'
_cell_length_a   7.63945412
_cell_length_b   7.63945389
_cell_length_c   9.58846498
_cell_angle_alpha   89.94125269
_cell_angle_beta   89.94125044
_cell_angle_gamma   119.40603853
_symmetry_Int_Tables_number   1
_chemical_formula_structural   Nd4Al18ZnIr5
_chemical_formula_sum   'Nd4 Al18 Zn1 Ir5'
_cell_volume   487.49682115
_cell_formula_units_Z   1
loop_
 _symmetry_equiv_pos_site_id
 _symmetry_equiv_pos_as_xyz
  1  'x, y, z'
loop_
 _atom_site_type_symbol
 _atom_site_label
 _atom_site_symmetry_multiplicity
 _atom_site_fract_x
 _atom_site_fract_y
 _atom_site_fract_z
 _atom_site_occupancy
  Nd  Nd0  1  0.994881  0.674957  0.248762  1
  Nd  Nd1  1  0.005119  0.325043  0.751238  1
  Nd  Nd2  1  0.674957  0.994881  0.248762  1
  Nd  Nd3  1  0.325043  0.005119  0.751238  1
  Al  Al4  1  0.137759  0.137759  0.258304  1
  Al  Al5  1  0.862241  0.862241  0.741696  1
  Al  Al6  1  0.003765  0.345640  0.077748  1
  Al  Al7  1  0.996235  0.654360  0.922252  1
  Al  Al8  1  0.999817  0.664216  0.569507  1
  Al  Al9  1  0.335784  0.000183  0.430493  1
  Al  Al10  1  0.000183  0.335784  0.430493  1
  Al  Al11  1  0.664216  0.999817  0.569507  1
  Al  Al12  1  0.654360  0.996235  0.922252  1
  Al  Al13  1  0.345640  0.003765  0.077748  1
  Al  Al14  1  0.333743  0.333743  0.547417  1
  Al  Al15  1  0.666257  0.666257  0.452583  1
  Al  Al16  1  0.655933  0.655933  0.056836  1
  Al  Al17  1  0.344067  0.344067  0.943164  1
  Al  Al18  1  0.338565  0.548426  0.251797  1
  Al  Al19  1  0.661435  0.451574  0.748203  1
  Al  Al20  1  0.548426  0.338565  0.251797  1
  Al  Al21  1  0.451574  0.661435  0.748203  1
  Zn  Zn22  1  0.000000  0.000000  0.000000  1
  Ir  Ir23  1  0.670820  0.329180  0.000000  1
  Ir  Ir24  1  0.329180  0.670820  0.000000  1
  Ir  Ir25  1  0.329426  0.670574  0.500000  1
  Ir  Ir26  1  0.670574  0.329426  0.500000  1
  Ir  Ir27  1  0.000000  0.000000  0.500000  1
