# generated using pymatgen
data_YbPr(Si7Ir3)2
_symmetry_space_group_name_H-M   'P 1'
_cell_length_a   8.06066514
_cell_length_b   8.06066583
_cell_length_c   8.06066584
_cell_angle_alpha   56.76407810
_cell_angle_beta   56.76407269
_cell_angle_gamma   56.76408104
_symmetry_Int_Tables_number   1
_chemical_formula_structural   YbPr(Si7Ir3)2
_chemical_formula_sum   'Yb1 Pr1 Si14 Ir6'
_cell_volume   342.67360623
_cell_formula_units_Z   1
loop_
 _symmetry_equiv_pos_site_id
 _symmetry_equiv_pos_as_xyz
  1  'x, y, z'
loop_
 _atom_site_type_symbol
 _atom_site_label
 _atom_site_symmetry_multiplicity
 _atom_site_fract_x
 _atom_site_fract_y
 _atom_site_fract_z
 _atom_site_occupancy
  Yb  Yb0  1  0.000000  0.000000  0.000000  1
  Pr  Pr1  1  0.500000  0.500000  0.500000  1
  Si  Si2  1  0.063396  0.852661  0.674388  1
  Si  Si3  1  0.674388  0.063396  0.852661  1
  Si  Si4  1  0.852661  0.674388  0.063396  1
  Si  Si5  1  0.171494  0.348234  0.566852  1
  Si  Si6  1  0.566852  0.171494  0.348234  1
  Si  Si7  1  0.348234  0.566852  0.171494  1
  Si  Si8  1  0.936604  0.147339  0.325612  1
  Si  Si9  1  0.325612  0.936604  0.147339  1
  Si  Si10  1  0.147339  0.325612  0.936604  1
  Si  Si11  1  0.828506  0.651766  0.433148  1
  Si  Si12  1  0.433148  0.828506  0.651766  1
  Si  Si13  1  0.651766  0.433148  0.828506  1
  Si  Si14  1  0.749716  0.749716  0.749716  1
  Si  Si15  1  0.250284  0.250284  0.250284  1
  Ir  Ir16  1  0.068961  0.750702  0.430373  1
  Ir  Ir17  1  0.430373  0.068961  0.750702  1
  Ir  Ir18  1  0.750702  0.430373  0.068961  1
  Ir  Ir19  1  0.931039  0.249298  0.569627  1
  Ir  Ir20  1  0.569627  0.931039  0.249298  1
  Ir  Ir21  1  0.249298  0.569627  0.931039  1
