# generated using pymatgen
data_Hf2Si7Ni12
_symmetry_space_group_name_H-M   'P 1'
_cell_length_a   9.10711900
_cell_length_b   9.10711876
_cell_length_c   3.59257000
_cell_angle_alpha   90.00000000
_cell_angle_beta   90.00000000
_cell_angle_gamma   119.99998997
_symmetry_Int_Tables_number   1
_chemical_formula_structural   Hf2Si7Ni12
_chemical_formula_sum   'Hf2 Si7 Ni12'
_cell_volume   258.04647213
_cell_formula_units_Z   1
loop_
 _symmetry_equiv_pos_site_id
 _symmetry_equiv_pos_as_xyz
  1  'x, y, z'
loop_
 _atom_site_type_symbol
 _atom_site_label
 _atom_site_symmetry_multiplicity
 _atom_site_fract_x
 _atom_site_fract_y
 _atom_site_fract_z
 _atom_site_occupancy
  Hf  Hf0  1  0.666667  0.333333  0.000000  1
  Hf  Hf1  1  0.000000  0.000000  0.500000  1
  Si  Si2  1  0.333333  0.666667  0.000000  1
  Si  Si3  1  0.448851  0.076828  0.500000  1
  Si  Si4  1  0.923172  0.372023  0.500000  1
  Si  Si5  1  0.627977  0.551149  0.500000  1
  Si  Si6  1  0.737437  0.948411  0.000000  1
  Si  Si7  1  0.051589  0.789026  0.000000  1
  Si  Si8  1  0.210974  0.262563  0.000000  1
  Ni  Ni9  1  0.489296  0.947920  0.000000  1
  Ni  Ni10  1  0.052080  0.541376  0.000000  1
  Ni  Ni11  1  0.458624  0.510704  0.000000  1
  Ni  Ni12  1  0.714284  0.098087  0.500000  1
  Ni  Ni13  1  0.901913  0.616198  0.500000  1
  Ni  Ni14  1  0.383802  0.285716  0.500000  1
  Ni  Ni15  1  0.776475  0.725607  0.000000  1
  Ni  Ni16  1  0.274393  0.050867  0.000000  1
  Ni  Ni17  1  0.949133  0.223525  0.000000  1
  Ni  Ni18  1  0.547518  0.759349  0.500000  1
  Ni  Ni19  1  0.240651  0.788168  0.500000  1
  Ni  Ni20  1  0.211832  0.452482  0.500000  1
