# generated using pymatgen
data_Gd2(SeO4)3
_symmetry_space_group_name_H-M   'P 1'
_cell_length_a   10.12589999
_cell_length_b   10.12590044
_cell_length_c   10.12589902
_cell_angle_alpha   57.68565534
_cell_angle_beta   57.68565482
_cell_angle_gamma   57.68565738
_symmetry_Int_Tables_number   1
_chemical_formula_structural   Gd2(SeO4)3
_chemical_formula_sum   'Gd4 Se6 O24'
_cell_volume   695.11165146
_cell_formula_units_Z   2
loop_
 _symmetry_equiv_pos_site_id
 _symmetry_equiv_pos_as_xyz
  1  'x, y, z'
loop_
 _atom_site_type_symbol
 _atom_site_label
 _atom_site_symmetry_multiplicity
 _atom_site_fract_x
 _atom_site_fract_y
 _atom_site_fract_z
 _atom_site_occupancy
  Gd  Gd0  1  0.144254  0.144254  0.144254  1
  Gd  Gd1  1  0.855746  0.855746  0.855746  1
  Gd  Gd2  1  0.355746  0.355746  0.355746  1
  Gd  Gd3  1  0.644254  0.644254  0.644254  1
  Se  Se4  1  0.036304  0.463696  0.750000  1
  Se  Se5  1  0.463696  0.750000  0.036304  1
  Se  Se6  1  0.750000  0.036304  0.463696  1
  Se  Se7  1  0.963696  0.536304  0.250000  1
  Se  Se8  1  0.250000  0.963696  0.536304  1
  Se  Se9  1  0.536304  0.250000  0.963696  1
  O  O10  1  0.227125  0.992424  0.370711  1
  O  O11  1  0.370711  0.227125  0.992424  1
  O  O12  1  0.992424  0.370711  0.227125  1
  O  O13  1  0.772875  0.007576  0.629289  1
  O  O14  1  0.629289  0.772875  0.007576  1
  O  O15  1  0.007576  0.629289  0.772875  1
  O  O16  1  0.272875  0.129289  0.507576  1
  O  O17  1  0.507576  0.272875  0.129289  1
  O  O18  1  0.129289  0.507576  0.272875  1
  O  O19  1  0.727125  0.870711  0.492424  1
  O  O20  1  0.064384  0.295365  0.917022  1
  O  O21  1  0.295365  0.917022  0.064384  1
  O  O22  1  0.917022  0.064384  0.295365  1
  O  O23  1  0.935616  0.704635  0.082978  1
  O  O24  1  0.704635  0.082978  0.935616  1
  O  O25  1  0.082978  0.935616  0.704635  1
  O  O26  1  0.204635  0.435616  0.582978  1
  O  O27  1  0.435616  0.582978  0.204635  1
  O  O28  1  0.582978  0.204635  0.435616  1
  O  O29  1  0.795365  0.564384  0.417022  1
  O  O30  1  0.564384  0.417022  0.795365  1
  O  O31  1  0.417022  0.795365  0.564384  1
  O  O32  1  0.870711  0.492424  0.727125  1
  O  O33  1  0.492424  0.727125  0.870711  1
