# generated using pymatgen
data_Ca3LuAs3
_symmetry_space_group_name_H-M   'P 1'
_cell_length_a   7.62318329
_cell_length_b   7.70132395
_cell_length_c   7.62318308
_cell_angle_alpha   109.59244152
_cell_angle_beta   109.04996535
_cell_angle_gamma   109.59244486
_symmetry_Int_Tables_number   1
_chemical_formula_structural   Ca3LuAs3
_chemical_formula_sum   'Ca6 Lu2 As6'
_cell_volume   345.27185796
_cell_formula_units_Z   2
loop_
 _symmetry_equiv_pos_site_id
 _symmetry_equiv_pos_as_xyz
  1  'x, y, z'
loop_
 _atom_site_type_symbol
 _atom_site_label
 _atom_site_symmetry_multiplicity
 _atom_site_fract_x
 _atom_site_fract_y
 _atom_site_fract_z
 _atom_site_occupancy
  Ca  Ca0  1  0.363401  0.359492  0.364350  1
  Ca  Ca1  1  0.998633  0.135075  0.495179  1
  Ca  Ca2  1  0.864350  0.859492  0.863401  1
  Ca  Ca3  1  0.995179  0.635075  0.498633  1
  Ca  Ca4  1  0.637029  0.505477  0.003831  1
  Ca  Ca5  1  0.503831  0.005477  0.137029  1
  Lu  Lu6  1  0.136327  0.500504  0.000676  1
  Lu  Lu7  1  0.500676  0.000504  0.636327  1
  As  As8  1  0.876567  0.250695  0.111537  1
  As  As9  1  0.135172  0.868265  0.253728  1
  As  As10  1  0.371249  0.630493  0.752319  1
  As  As11  1  0.252319  0.130493  0.871249  1
  As  As12  1  0.753728  0.368265  0.635172  1
  As  As13  1  0.611537  0.750695  0.376567  1
