# generated using pymatgen
data_K4TaGeH11
_symmetry_space_group_name_H-M   'P 1'
_cell_length_a   6.30797042
_cell_length_b   8.66268198
_cell_length_c   10.77190938
_cell_angle_alpha   68.80936032
_cell_angle_beta   87.77412950
_cell_angle_gamma   85.10932212
_symmetry_Int_Tables_number   1
_chemical_formula_structural   K4TaGeH11
_chemical_formula_sum   'K8 Ta2 Ge2 H22'
_cell_volume   546.80028185
_cell_formula_units_Z   2
loop_
 _symmetry_equiv_pos_site_id
 _symmetry_equiv_pos_as_xyz
  1  'x, y, z'
loop_
 _atom_site_type_symbol
 _atom_site_label
 _atom_site_symmetry_multiplicity
 _atom_site_fract_x
 _atom_site_fract_y
 _atom_site_fract_z
 _atom_site_occupancy
  K  K0  1  0.759809  0.366839  0.502633  1
  K  K1  1  0.240225  0.633138  0.497335  1
  K  K2  1  0.807804  0.312171  0.066565  1
  K  K3  1  0.192241  0.687811  0.933412  1
  K  K4  1  0.757958  0.980954  0.402722  1
  K  K5  1  0.242121  0.018996  0.597279  1
  K  K6  1  0.358854  0.316908  0.846264  1
  K  K7  1  0.641162  0.683006  0.153691  1
  Ta  Ta8  1  0.748847  0.633173  0.717576  1
  Ta  Ta9  1  0.251107  0.366900  0.282436  1
  Ge  Ge10  1  0.683819  0.901242  0.787861  1
  Ge  Ge11  1  0.316148  0.098805  0.212157  1
  H  H12  1  0.556036  0.789758  0.597248  1
  H  H13  1  0.444024  0.210186  0.402756  1
  H  H14  1  0.561751  0.526294  0.654535  1
  H  H15  1  0.438240  0.473695  0.345472  1
  H  H16  1  0.622720  0.084315  0.678859  1
  H  H17  1  0.377271  0.915761  0.321118  1
  H  H18  1  0.511981  0.591615  0.829054  1
  H  H19  1  0.487955  0.408318  0.170975  1
  H  H20  1  0.929633  0.811356  0.638678  1
  H  H21  1  0.070297  0.188659  0.361344  1
  H  H22  1  0.836422  0.632566  0.547470  1
  H  H23  1  0.163616  0.367392  0.452515  1
  H  H24  1  0.875392  0.962961  0.848922  1
  H  H25  1  0.124631  0.037085  0.151089  1
  H  H26  1  0.843773  0.599631  0.888868  1
  H  H27  1  0.156137  0.400413  0.111123  1
  H  H28  1  0.772772  0.401807  0.808127  1
  H  H29  1  0.227270  0.598117  0.191871  1
  H  H30  1  0.033583  0.548678  0.730663  1
  H  H31  1  0.966482  0.451352  0.269373  1
  H  H32  1  0.506005  0.930828  0.894483  1
  H  H33  1  0.493920  0.069266  0.105527  1
