# generated using pymatgen
data_La8Pr6(IrRh)3
_symmetry_space_group_name_H-M   'P 1'
_cell_length_a   6.51514300
_cell_length_b   10.25023129
_cell_length_c   10.25023218
_cell_angle_alpha   119.99198083
_cell_angle_beta   89.99860103
_cell_angle_gamma   90.00140203
_symmetry_Int_Tables_number   1
_chemical_formula_structural   La8Pr6(IrRh)3
_chemical_formula_sum   'La8 Pr6 Ir3 Rh3'
_cell_volume   592.86667566
_cell_formula_units_Z   1
loop_
 _symmetry_equiv_pos_site_id
 _symmetry_equiv_pos_as_xyz
  1  'x, y, z'
loop_
 _atom_site_type_symbol
 _atom_site_label
 _atom_site_symmetry_multiplicity
 _atom_site_fract_x
 _atom_site_fract_y
 _atom_site_fract_z
 _atom_site_occupancy
  La  La0  1  0.471658  0.333435  0.666565  1
  La  La1  1  0.972299  0.666675  0.333325  1
  La  La2  1  0.251532  0.125410  0.874590  1
  La  La3  1  0.251688  0.749069  0.874483  1
  La  La4  1  0.251688  0.125517  0.250931  1
  La  La5  1  0.753652  0.874012  0.125988  1
  La  La6  1  0.753702  0.252067  0.126217  1
  La  La7  1  0.753702  0.873783  0.747933  1
  Pr  Pr8  1  0.438004  0.540940  0.459060  1
  Pr  Pr9  1  0.438015  0.918007  0.458971  1
  Pr  Pr10  1  0.438015  0.541029  0.081993  1
  Pr  Pr11  1  0.940843  0.459619  0.540381  1
  Pr  Pr12  1  0.940933  0.080799  0.540359  1
  Pr  Pr13  1  0.940933  0.459641  0.919201  1
  Ir  Ir14  1  0.181050  0.812470  0.187530  1
  Ir  Ir15  1  0.180936  0.375186  0.187671  1
  Ir  Ir16  1  0.180936  0.812329  0.624814  1
  Rh  Rh17  1  0.682233  0.188723  0.811277  1
  Rh  Rh18  1  0.682092  0.622541  0.811250  1
  Rh  Rh19  1  0.682092  0.188750  0.377459  1
