# generated using pymatgen
data_CaYb19Ir4
_symmetry_space_group_name_H-M   'P 1'
_cell_length_a   6.72754774
_cell_length_b   7.43024222
_cell_length_c   15.65972654
_cell_angle_alpha   90.02351259
_cell_angle_beta   90.10224469
_cell_angle_gamma   89.98565752
_symmetry_Int_Tables_number   1
_chemical_formula_structural   CaYb19Ir4
_chemical_formula_sum   'Ca1 Yb19 Ir4'
_cell_volume   782.78625618
_cell_formula_units_Z   1
loop_
 _symmetry_equiv_pos_site_id
 _symmetry_equiv_pos_as_xyz
  1  'x, y, z'
loop_
 _atom_site_type_symbol
 _atom_site_label
 _atom_site_symmetry_multiplicity
 _atom_site_fract_x
 _atom_site_fract_y
 _atom_site_fract_z
 _atom_site_occupancy
  Ca  Ca0  1  0.857913  0.192254  0.934283  1
  Yb  Yb1  1  0.152506  0.096834  0.249979  1
  Yb  Yb2  1  0.859772  0.192197  0.567064  1
  Yb  Yb3  1  0.847528  0.903501  0.749871  1
  Yb  Yb4  1  0.823578  0.464485  0.145606  1
  Yb  Yb5  1  0.176258  0.535860  0.645226  1
  Yb  Yb6  1  0.359798  0.307660  0.067388  1
  Yb  Yb7  1  0.347330  0.596856  0.250027  1
  Yb  Yb8  1  0.823735  0.464668  0.354634  1
  Yb  Yb9  1  0.323640  0.035519  0.854446  1
  Yb  Yb10  1  0.140229  0.807401  0.067257  1
  Yb  Yb11  1  0.640135  0.692407  0.567054  1
  Yb  Yb12  1  0.676377  0.964711  0.354552  1
  Yb  Yb13  1  0.640202  0.692244  0.932880  1
  Yb  Yb14  1  0.323889  0.035208  0.645320  1
  Yb  Yb15  1  0.140364  0.807756  0.432766  1
  Yb  Yb16  1  0.653138  0.403155  0.749790  1
  Yb  Yb17  1  0.176407  0.535030  0.854432  1
  Yb  Yb18  1  0.359779  0.307582  0.432808  1
  Yb  Yb19  1  0.676161  0.964488  0.145557  1
  Ir  Ir20  1  0.037815  0.241055  0.748838  1
  Ir  Ir21  1  0.463638  0.740727  0.750027  1
  Ir  Ir22  1  0.536468  0.259189  0.250034  1
  Ir  Ir23  1  0.963339  0.759214  0.250163  1
