# generated using pymatgen
data_Y6CrCo16P12Ru
_symmetry_space_group_name_H-M   'P 1'
_cell_length_a   3.70220900
_cell_length_b   10.53292200
_cell_length_c   12.22977000
_cell_angle_alpha   90.00000000
_cell_angle_beta   90.00000000
_cell_angle_gamma   90.00000000
_symmetry_Int_Tables_number   1
_chemical_formula_structural   Y6CrCo16P12Ru
_chemical_formula_sum   'Y6 Cr1 Co16 P12 Ru1'
_cell_volume   476.90084271
_cell_formula_units_Z   1
loop_
 _symmetry_equiv_pos_site_id
 _symmetry_equiv_pos_as_xyz
  1  'x, y, z'
loop_
 _atom_site_type_symbol
 _atom_site_label
 _atom_site_symmetry_multiplicity
 _atom_site_fract_x
 _atom_site_fract_y
 _atom_site_fract_z
 _atom_site_occupancy
  Y  Y0  1  0.000000  0.500000  0.524792  1
  Y  Y1  1  0.500000  0.000000  0.477764  1
  Y  Y2  1  0.500000  0.817758  0.205207  1
  Y  Y3  1  0.500000  0.182242  0.205207  1
  Y  Y4  1  0.000000  0.682731  0.793753  1
  Y  Y5  1  0.000000  0.317269  0.793753  1
  Cr  Cr6  1  0.000000  0.000000  0.843993  1
  Co  Co7  1  0.500000  0.500000  0.703388  1
  Co  Co8  1  0.000000  0.000000  0.296970  1
  Co  Co9  1  0.000000  0.500000  0.985889  1
  Co  Co10  1  0.500000  0.000000  0.012885  1
  Co  Co11  1  0.500000  0.332111  0.990206  1
  Co  Co12  1  0.500000  0.667889  0.990206  1
  Co  Co13  1  0.000000  0.166987  0.007252  1
  Co  Co14  1  0.000000  0.833013  0.007252  1
  Co  Co15  1  0.500000  0.297189  0.430797  1
  Co  Co16  1  0.500000  0.702811  0.430797  1
  Co  Co17  1  0.000000  0.203497  0.568764  1
  Co  Co18  1  0.000000  0.796503  0.568764  1
  Co  Co19  1  0.500000  0.879495  0.708718  1
  Co  Co20  1  0.500000  0.120505  0.708718  1
  Co  Co21  1  0.000000  0.620904  0.292348  1
  Co  Co22  1  0.000000  0.379096  0.292348  1
  P  P23  1  0.500000  0.500000  0.881928  1
  P  P24  1  0.000000  0.000000  0.117431  1
  P  P25  1  0.500000  0.500000  0.349337  1
  P  P26  1  0.000000  0.000000  0.655456  1
  P  P27  1  0.500000  0.310867  0.616077  1
  P  P28  1  0.500000  0.689133  0.616077  1
  P  P29  1  0.000000  0.188499  0.384059  1
  P  P30  1  0.000000  0.811501  0.384059  1
  P  P31  1  0.500000  0.848196  0.892240  1
  P  P32  1  0.500000  0.151804  0.892240  1
  P  P33  1  0.000000  0.653507  0.105991  1
  P  P34  1  0.000000  0.346493  0.105991  1
  Ru  Ru35  1  0.500000  0.500000  0.159343  1
