# generated using pymatgen
data_K2MgCrF7
_symmetry_space_group_name_H-M   'P 1'
_cell_length_a   7.68343155
_cell_length_b   7.68342980
_cell_length_c   7.68343142
_cell_angle_alpha   121.09072932
_cell_angle_beta   116.49703907
_cell_angle_gamma   92.14643806
_symmetry_Int_Tables_number   1
_chemical_formula_structural   K2MgCrF7
_chemical_formula_sum   'K4 Mg2 Cr2 F14'
_cell_volume   325.71094786
_cell_formula_units_Z   2
loop_
 _symmetry_equiv_pos_site_id
 _symmetry_equiv_pos_as_xyz
  1  'x, y, z'
loop_
 _atom_site_type_symbol
 _atom_site_label
 _atom_site_symmetry_multiplicity
 _atom_site_fract_x
 _atom_site_fract_y
 _atom_site_fract_z
 _atom_site_occupancy
  K  K0  1  0.500000  0.500000  0.500000  1
  K  K1  1  0.500000  0.000000  0.000000  1
  K  K2  1  0.500000  0.500000  0.000000  1
  K  K3  1  0.000000  0.000000  0.000000  1
  Mg  Mg4  1  0.000000  0.500000  0.000000  1
  Mg  Mg5  1  0.000000  0.000000  0.500000  1
  Cr  Cr6  1  0.000000  0.500000  0.500000  1
  Cr  Cr7  1  0.500000  0.000000  0.500000  1
  F  F8  1  0.091986  0.250000  0.841986  1
  F  F9  1  0.908014  0.750000  0.158014  1
  F  F10  1  0.703201  0.412498  0.290703  1
  F  F11  1  0.296799  0.587502  0.709297  1
  F  F12  1  0.378205  0.087502  0.290703  1
  F  F13  1  0.621795  0.912498  0.709297  1
  F  F14  1  0.961967  0.570114  0.763086  1
  F  F15  1  0.038033  0.801119  0.608146  1
  F  F16  1  0.692973  0.301119  0.763086  1
  F  F17  1  0.307027  0.070114  0.608146  1
  F  F18  1  0.307027  0.698881  0.236914  1
  F  F19  1  0.692973  0.929886  0.391854  1
  F  F20  1  0.038033  0.429886  0.236914  1
  F  F21  1  0.961967  0.198881  0.391854  1
