# generated using pymatgen
data_Tm3MgAl2Si2Pt
_symmetry_space_group_name_H-M   'P 1'
_cell_length_a   6.96673500
_cell_length_b   6.89568815
_cell_length_c   4.23713100
_cell_angle_alpha   90.00000000
_cell_angle_beta   90.00000000
_cell_angle_gamma   120.34141738
_symmetry_Int_Tables_number   1
_chemical_formula_structural   Tm3MgAl2Si2Pt
_chemical_formula_sum   'Tm3 Mg1 Al2 Si2 Pt1'
_cell_volume   175.67299215
_cell_formula_units_Z   1
loop_
 _symmetry_equiv_pos_site_id
 _symmetry_equiv_pos_as_xyz
  1  'x, y, z'
loop_
 _atom_site_type_symbol
 _atom_site_label
 _atom_site_symmetry_multiplicity
 _atom_site_fract_x
 _atom_site_fract_y
 _atom_site_fract_z
 _atom_site_occupancy
  Tm  Tm0  1  0.416628  0.000000  0.000000  1
  Tm  Tm1  1  0.998355  0.416425  0.000000  1
  Tm  Tm2  1  0.581931  0.583576  0.000000  1
  Mg  Mg3  1  0.760415  0.000000  0.500000  1
  Al  Al4  1  0.239947  0.237897  0.500000  1
  Al  Al5  1  0.002050  0.762102  0.500000  1
  Si  Si6  1  0.664147  0.340975  0.500000  1
  Si  Si7  1  0.323171  0.659024  0.500000  1
  Pt  Pt8  1  0.013354  0.000000  0.000000  1
