# generated using pymatgen
data_Ta16Co3Cu5N4
_symmetry_space_group_name_H-M   'P 1'
_cell_length_a   8.24322338
_cell_length_b   8.24411922
_cell_length_c   8.24411900
_cell_angle_alpha   59.99999688
_cell_angle_beta   59.99640185
_cell_angle_gamma   59.99640875
_symmetry_Int_Tables_number   1
_chemical_formula_structural   Ta16Co3Cu5N4
_chemical_formula_sum   'Ta16 Co3 Cu5 N4'
_cell_volume   396.13843141
_cell_formula_units_Z   1
loop_
 _symmetry_equiv_pos_site_id
 _symmetry_equiv_pos_as_xyz
  1  'x, y, z'
loop_
 _atom_site_type_symbol
 _atom_site_label
 _atom_site_symmetry_multiplicity
 _atom_site_fract_x
 _atom_site_fract_y
 _atom_site_fract_z
 _atom_site_occupancy
  Ta  Ta0  1  0.113866  0.628711  0.628711  1
  Ta  Ta1  1  0.633685  0.118808  0.623753  1
  Ta  Ta2  1  0.633685  0.623753  0.118808  1
  Ta  Ta3  1  0.633685  0.623753  0.623753  1
  Ta  Ta4  1  0.817625  0.816410  0.182983  1
  Ta  Ta5  1  0.182273  0.185797  0.815965  1
  Ta  Ta6  1  0.817625  0.182983  0.816410  1
  Ta  Ta7  1  0.182273  0.815965  0.185797  1
  Ta  Ta8  1  0.182273  0.815965  0.815965  1
  Ta  Ta9  1  0.817625  0.182983  0.182983  1
  Ta  Ta10  1  0.436272  0.435831  0.063949  1
  Ta  Ta11  1  0.065341  0.063888  0.435386  1
  Ta  Ta12  1  0.436272  0.063949  0.435831  1
  Ta  Ta13  1  0.065341  0.435386  0.063888  1
  Ta  Ta14  1  0.065341  0.435386  0.435386  1
  Ta  Ta15  1  0.436272  0.063949  0.063949  1
  Co  Co16  1  0.826141  0.514434  0.829712  1
  Co  Co17  1  0.826141  0.829712  0.514434  1
  Co  Co18  1  0.826141  0.829712  0.829712  1
  Cu  Cu19  1  0.751987  0.416005  0.416005  1
  Cu  Cu20  1  0.416853  0.750007  0.416570  1
  Cu  Cu21  1  0.416853  0.416570  0.750007  1
  Cu  Cu22  1  0.416853  0.416570  0.416570  1
  Cu  Cu23  1  0.498235  0.833921  0.833921  1
  N  N24  1  0.623051  0.125650  0.125650  1
  N  N25  1  0.126096  0.622285  0.125810  1
  N  N26  1  0.126096  0.125810  0.622285  1
  N  N27  1  0.126096  0.125810  0.125810  1
