# generated using pymatgen
data_Ac4GaOs3I2
_symmetry_space_group_name_H-M   'P 1'
_cell_length_a   4.42590900
_cell_length_b   4.42590957
_cell_length_c   18.73719400
_cell_angle_alpha   90.00000000
_cell_angle_beta   90.00000000
_cell_angle_gamma   120.00000320
_symmetry_Int_Tables_number   1
_chemical_formula_structural   Ac4GaOs3I2
_chemical_formula_sum   'Ac4 Ga1 Os3 I2'
_cell_volume   317.86315348
_cell_formula_units_Z   1
loop_
 _symmetry_equiv_pos_site_id
 _symmetry_equiv_pos_as_xyz
  1  'x, y, z'
loop_
 _atom_site_type_symbol
 _atom_site_label
 _atom_site_symmetry_multiplicity
 _atom_site_fract_x
 _atom_site_fract_y
 _atom_site_fract_z
 _atom_site_occupancy
  Ac  Ac0  1  0.000000  0.000000  0.106949  1
  Ac  Ac1  1  0.000000  0.000000  0.891897  1
  Ac  Ac2  1  0.000000  0.000000  0.605488  1
  Ac  Ac3  1  0.000000  0.000000  0.396548  1
  Ga  Ga4  1  0.333333  0.666667  0.500865  1
  Os  Os5  1  0.666667  0.333333  0.500014  1
  Os  Os6  1  0.666667  0.333333  0.000347  1
  Os  Os7  1  0.333333  0.666667  0.998665  1
  I  I8  1  0.333333  0.666667  0.250213  1
  I  I9  1  0.666667  0.333333  0.749012  1
