# generated using pymatgen
data_AlV6Ga2CuN2
_symmetry_space_group_name_H-M   'P 1'
_cell_length_a   6.58172862
_cell_length_b   6.57609762
_cell_length_c   6.58315700
_cell_angle_alpha   90.00000000
_cell_angle_beta   90.00000000
_cell_angle_gamma   90.09973438
_symmetry_Int_Tables_number   1
_chemical_formula_structural   AlV6Ga2CuN2
_chemical_formula_sum   'Al2 V12 Ga4 Cu2 N4'
_cell_volume   284.93236163
_cell_formula_units_Z   2
loop_
 _symmetry_equiv_pos_site_id
 _symmetry_equiv_pos_as_xyz
  1  'x, y, z'
loop_
 _atom_site_type_symbol
 _atom_site_label
 _atom_site_symmetry_multiplicity
 _atom_site_fract_x
 _atom_site_fract_y
 _atom_site_fract_z
 _atom_site_occupancy
  Al  Al0  1  0.823285  0.320603  0.177308  1
  Al  Al1  1  0.676715  0.679397  0.677308  1
  V  V2  1  0.788988  0.960465  0.375868  1
  V  V3  1  0.711012  0.039535  0.875868  1
  V  V4  1  0.206081  0.458511  0.126063  1
  V  V5  1  0.293919  0.541489  0.626063  1
  V  V6  1  0.959644  0.378090  0.790460  1
  V  V7  1  0.039337  0.871564  0.709784  1
  V  V8  1  0.460663  0.128436  0.209784  1
  V  V9  1  0.540356  0.621910  0.290460  1
  V  V10  1  0.377377  0.789706  0.958701  1
  V  V11  1  0.873383  0.708877  0.040307  1
  V  V12  1  0.122623  0.210294  0.458701  1
  V  V13  1  0.626617  0.291123  0.540307  1
  Ga  Ga14  1  0.562267  0.420827  0.926326  1
  Ga  Ga15  1  0.418608  0.934323  0.570877  1
  Ga  Ga16  1  0.937733  0.579173  0.426326  1
  Ga  Ga17  1  0.081392  0.065677  0.070877  1
  Cu  Cu18  1  0.183087  0.821687  0.318646  1
  Cu  Cu19  1  0.316913  0.178313  0.818646  1
  N  N20  1  0.877611  0.124475  0.627680  1
  N  N21  1  0.622389  0.875525  0.127680  1
  N  N22  1  0.127540  0.624864  0.877979  1
  N  N23  1  0.372460  0.375136  0.377979  1
