# generated using pymatgen
data_CeTm7(Sc3Sn4)4
_symmetry_space_group_name_H-M   'P 1'
_cell_length_a   7.65747947
_cell_length_b   7.90613382
_cell_length_c   14.79673300
_cell_angle_alpha   89.98910775
_cell_angle_beta   89.91997647
_cell_angle_gamma   90.02367522
_symmetry_Int_Tables_number   1
_chemical_formula_structural   CeTm7(Sc3Sn4)4
_chemical_formula_sum   'Ce1 Tm7 Sc12 Sn16'
_cell_volume   895.80889530
_cell_formula_units_Z   1
loop_
 _symmetry_equiv_pos_site_id
 _symmetry_equiv_pos_as_xyz
  1  'x, y, z'
loop_
 _atom_site_type_symbol
 _atom_site_label
 _atom_site_symmetry_multiplicity
 _atom_site_fract_x
 _atom_site_fract_y
 _atom_site_fract_z
 _atom_site_occupancy
  Ce  Ce0  1  0.993241  0.175846  0.091990  1
  Tm  Tm1  1  0.009321  0.822091  0.905421  1
  Tm  Tm2  1  0.512253  0.677871  0.905088  1
  Tm  Tm3  1  0.011287  0.821934  0.594105  1
  Tm  Tm4  1  0.488511  0.322740  0.093122  1
  Tm  Tm5  1  0.988338  0.178674  0.405334  1
  Tm  Tm6  1  0.489947  0.322289  0.408383  1
  Tm  Tm7  1  0.509954  0.678847  0.593752  1
  Sc  Sc8  1  0.173252  0.495909  0.749669  1
  Sc  Sc9  1  0.826569  0.503720  0.250316  1
  Sc  Sc10  1  0.325632  0.994159  0.250885  1
  Sc  Sc11  1  0.672719  0.004631  0.749555  1
  Sc  Sc12  1  0.345192  0.160205  0.627292  1
  Sc  Sc13  1  0.654948  0.840007  0.374087  1
  Sc  Sc14  1  0.155138  0.661479  0.374049  1
  Sc  Sc15  1  0.656248  0.838141  0.127129  1
  Sc  Sc16  1  0.844288  0.339336  0.627165  1
  Sc  Sc17  1  0.343596  0.161097  0.872197  1
  Sc  Sc18  1  0.844025  0.339797  0.873056  1
  Sc  Sc19  1  0.156350  0.660122  0.126759  1
  Sn  Sn20  1  0.036043  0.123007  0.750123  1
  Sn  Sn21  1  0.962817  0.875366  0.249625  1
  Sn  Sn22  1  0.464133  0.622973  0.250826  1
  Sn  Sn23  1  0.536317  0.377540  0.749713  1
  Sn  Sn24  1  0.314510  0.847859  0.749920  1
  Sn  Sn25  1  0.682383  0.152123  0.250996  1
  Sn  Sn26  1  0.188097  0.349921  0.251488  1
  Sn  Sn27  1  0.814859  0.652169  0.749870  1
  Sn  Sn28  1  0.187094  0.456904  0.542557  1
  Sn  Sn29  1  0.812886  0.543138  0.458057  1
  Sn  Sn30  1  0.310506  0.958547  0.458096  1
  Sn  Sn31  1  0.811552  0.543411  0.041965  1
  Sn  Sn32  1  0.688041  0.042655  0.542434  1
  Sn  Sn33  1  0.189051  0.459703  0.957131  1
  Sn  Sn34  1  0.682866  0.041993  0.956714  1
  Sn  Sn35  1  0.318035  0.953796  0.041134  1
