# generated using pymatgen
data_Sr4TaAlO8
_symmetry_space_group_name_H-M   'P 1'
_cell_length_a   6.95422680
_cell_length_b   6.95422595
_cell_length_c   5.51603600
_cell_angle_alpha   90.00000000
_cell_angle_beta   90.00000000
_cell_angle_gamma   133.20062150
_symmetry_Int_Tables_number   1
_chemical_formula_structural   Sr4TaAlO8
_chemical_formula_sum   'Sr4 Ta1 Al1 O8'
_cell_volume   194.45949480
_cell_formula_units_Z   1
loop_
 _symmetry_equiv_pos_site_id
 _symmetry_equiv_pos_as_xyz
  1  'x, y, z'
loop_
 _atom_site_type_symbol
 _atom_site_label
 _atom_site_symmetry_multiplicity
 _atom_site_fract_x
 _atom_site_fract_y
 _atom_site_fract_z
 _atom_site_occupancy
  Sr  Sr0  1  0.649716  0.350284  0.000000  1
  Sr  Sr1  1  0.145214  0.854786  0.500000  1
  Sr  Sr2  1  0.854786  0.145214  0.500000  1
  Sr  Sr3  1  0.350284  0.649716  0.000000  1
  Ta  Ta4  1  0.500000  0.500000  0.500000  1
  Al  Al5  1  0.000000  0.000000  0.000000  1
  O  O6  1  0.844094  0.155906  0.000000  1
  O  O7  1  0.340485  0.659515  0.500000  1
  O  O8  1  0.659515  0.340485  0.500000  1
  O  O9  1  0.155906  0.844094  0.000000  1
  O  O10  1  0.754100  0.754100  0.752874  1
  O  O11  1  0.245900  0.245900  0.247126  1
  O  O12  1  0.245900  0.245900  0.752874  1
  O  O13  1  0.754100  0.754100  0.247126  1
