# generated using pymatgen
data_TaNb2AlAuN
_symmetry_space_group_name_H-M   'P 1'
_cell_length_a   7.10658700
_cell_length_b   7.10818600
_cell_length_c   7.10277400
_cell_angle_alpha   90.00000000
_cell_angle_beta   90.00000000
_cell_angle_gamma   90.00000000
_symmetry_Int_Tables_number   1
_chemical_formula_structural   TaNb2AlAuN
_chemical_formula_sum   'Ta4 Nb8 Al4 Au4 N4'
_cell_volume   358.79621822
_cell_formula_units_Z   4
loop_
 _symmetry_equiv_pos_site_id
 _symmetry_equiv_pos_as_xyz
  1  'x, y, z'
loop_
 _atom_site_type_symbol
 _atom_site_label
 _atom_site_symmetry_multiplicity
 _atom_site_fract_x
 _atom_site_fract_y
 _atom_site_fract_z
 _atom_site_occupancy
  Ta  Ta0  1  0.786090  0.956962  0.375755  1
  Ta  Ta1  1  0.713910  0.043038  0.875755  1
  Ta  Ta2  1  0.213910  0.456962  0.124245  1
  Ta  Ta3  1  0.286090  0.543038  0.624245  1
  Nb  Nb4  1  0.955410  0.374395  0.784925  1
  Nb  Nb5  1  0.044590  0.874395  0.715075  1
  Nb  Nb6  1  0.455410  0.125605  0.215075  1
  Nb  Nb7  1  0.544590  0.625605  0.284925  1
  Nb  Nb8  1  0.377188  0.786755  0.957159  1
  Nb  Nb9  1  0.877188  0.713245  0.042841  1
  Nb  Nb10  1  0.122812  0.213245  0.457159  1
  Nb  Nb11  1  0.622812  0.286755  0.542841  1
  Al  Al12  1  0.572997  0.428354  0.928066  1
  Al  Al13  1  0.427003  0.928354  0.571934  1
  Al  Al14  1  0.927003  0.571646  0.428066  1
  Al  Al15  1  0.072997  0.071646  0.071934  1
  Au  Au16  1  0.177839  0.819503  0.321709  1
  Au  Au17  1  0.322161  0.180497  0.821709  1
  Au  Au18  1  0.822161  0.319503  0.178291  1
  Au  Au19  1  0.677839  0.680497  0.678291  1
  N  N20  1  0.874530  0.118890  0.622418  1
  N  N21  1  0.625470  0.881110  0.122418  1
  N  N22  1  0.125470  0.618890  0.877582  1
  N  N23  1  0.374530  0.381110  0.377582  1
