# generated using pymatgen
data_Lu12CdFe3Sb
_symmetry_space_group_name_H-M   'P 1'
_cell_length_a   8.15935766
_cell_length_b   8.15935861
_cell_length_c   8.15935718
_cell_angle_alpha   108.38135785
_cell_angle_beta   108.82050826
_cell_angle_gamma   111.22646458
_symmetry_Int_Tables_number   1
_chemical_formula_structural   Lu12CdFe3Sb
_chemical_formula_sum   'Lu12 Cd1 Fe3 Sb1'
_cell_volume   417.86214757
_cell_formula_units_Z   1
loop_
 _symmetry_equiv_pos_site_id
 _symmetry_equiv_pos_as_xyz
  1  'x, y, z'
loop_
 _atom_site_type_symbol
 _atom_site_label
 _atom_site_symmetry_multiplicity
 _atom_site_fract_x
 _atom_site_fract_y
 _atom_site_fract_z
 _atom_site_occupancy
  Lu  Lu0  1  0.311587  0.305893  0.617481  1
  Lu  Lu1  1  0.688413  0.694107  0.382519  1
  Lu  Lu2  1  0.688413  0.305893  0.994306  1
  Lu  Lu3  1  0.311587  0.694107  0.005694  1
  Lu  Lu4  1  0.193693  0.427225  0.233532  1
  Lu  Lu5  1  0.806307  0.572775  0.766468  1
  Lu  Lu6  1  0.193693  0.960159  0.766468  1
  Lu  Lu7  1  0.951019  0.189069  0.761951  1
  Lu  Lu8  1  0.806307  0.039841  0.233532  1
  Lu  Lu9  1  0.048981  0.810931  0.238049  1
  Lu  Lu10  1  0.427118  0.189069  0.238049  1
  Lu  Lu11  1  0.572882  0.810931  0.761951  1
  Cd  Cd12  1  0.500000  0.000000  0.500000  1
  Fe  Fe13  1  0.383099  0.383099  0.000000  1
  Fe  Fe14  1  0.616901  0.616901  0.000000  1
  Fe  Fe15  1  0.000000  0.000000  0.000000  1
  Sb  Sb16  1  0.000000  0.500000  0.500000  1
