# generated using pymatgen
data_La10Ga3Si2Sn
_symmetry_space_group_name_H-M   'P 1'
_cell_length_a   7.97423003
_cell_length_b   7.97423066
_cell_length_c   9.25725000
_cell_angle_alpha   115.46716873
_cell_angle_beta   115.46716291
_cell_angle_gamma   90.09421955
_symmetry_Int_Tables_number   1
_chemical_formula_structural   La10Ga3Si2Sn
_chemical_formula_sum   'La10 Ga3 Si2 Sn1'
_cell_volume   467.08063922
_cell_formula_units_Z   1
loop_
 _symmetry_equiv_pos_site_id
 _symmetry_equiv_pos_as_xyz
  1  'x, y, z'
loop_
 _atom_site_type_symbol
 _atom_site_label
 _atom_site_symmetry_multiplicity
 _atom_site_fract_x
 _atom_site_fract_y
 _atom_site_fract_z
 _atom_site_occupancy
  La  La0  1  0.524741  0.524741  0.049481  1
  La  La1  1  0.975259  0.975259  0.950519  1
  La  La2  1  0.985306  0.823294  0.292459  1
  La  La3  1  0.307153  0.469165  0.292459  1
  La  La4  1  0.832119  0.313372  0.284052  1
  La  La5  1  0.451932  0.970679  0.284052  1
  La  La6  1  0.030835  0.192847  0.707541  1
  La  La7  1  0.676706  0.514694  0.707541  1
  La  La8  1  0.186628  0.667881  0.715948  1
  La  La9  1  0.529321  0.048068  0.715948  1
  Ga  Ga10  1  0.250000  0.250000  0.500000  1
  Ga  Ga11  1  0.620513  0.879487  0.000000  1
  Ga  Ga12  1  0.379487  0.120513  0.000000  1
  Si  Si13  1  0.886547  0.386547  0.000000  1
  Si  Si14  1  0.113453  0.613453  0.000000  1
  Sn  Sn15  1  0.750000  0.750000  0.500000  1
