# generated using pymatgen
data_Hf8CoSi16Rh11
_symmetry_space_group_name_H-M   'P 1'
_cell_length_a   5.46754700
_cell_length_b   6.93372822
_cell_length_c   14.16503403
_cell_angle_alpha   90.11947227
_cell_angle_beta   90.00000000
_cell_angle_gamma   90.00000000
_symmetry_Int_Tables_number   1
_chemical_formula_structural   Hf8CoSi16Rh11
_chemical_formula_sum   'Hf8 Co1 Si16 Rh11'
_cell_volume   537.00214154
_cell_formula_units_Z   1
loop_
 _symmetry_equiv_pos_site_id
 _symmetry_equiv_pos_as_xyz
  1  'x, y, z'
loop_
 _atom_site_type_symbol
 _atom_site_label
 _atom_site_symmetry_multiplicity
 _atom_site_fract_x
 _atom_site_fract_y
 _atom_site_fract_z
 _atom_site_occupancy
  Hf  Hf0  1  0.242088  0.400126  0.150797  1
  Hf  Hf1  1  0.742122  0.098423  0.151192  1
  Hf  Hf2  1  0.257513  0.098669  0.651126  1
  Hf  Hf3  1  0.757190  0.401964  0.651994  1
  Hf  Hf4  1  0.242088  0.599874  0.349203  1
  Hf  Hf5  1  0.742122  0.901577  0.348808  1
  Hf  Hf6  1  0.257513  0.901331  0.848874  1
  Hf  Hf7  1  0.757190  0.598036  0.848006  1
  Co  Co8  1  0.264582  0.500000  0.750000  1
  Si  Si9  1  0.215384  0.022300  0.068737  1
  Si  Si10  1  0.714680  0.525309  0.430887  1
  Si  Si11  1  0.785291  0.023747  0.570554  1
  Si  Si12  1  0.492686  0.753132  0.187610  1
  Si  Si13  1  0.017132  0.260938  0.808168  1
  Si  Si14  1  0.498037  0.253206  0.808340  1
  Si  Si15  1  0.215384  0.977700  0.431263  1
  Si  Si16  1  0.281108  0.521509  0.923081  1
  Si  Si17  1  0.993323  0.745973  0.187590  1
  Si  Si18  1  0.714680  0.474691  0.069113  1
  Si  Si19  1  0.281108  0.478491  0.576919  1
  Si  Si20  1  0.492686  0.246868  0.312390  1
  Si  Si21  1  0.017132  0.739062  0.691832  1
  Si  Si22  1  0.785291  0.976253  0.929446  1
  Si  Si23  1  0.498037  0.746794  0.691660  1
  Si  Si24  1  0.993323  0.254027  0.312410  1
  Rh  Rh25  1  0.993880  0.277048  0.979844  1
  Rh  Rh26  1  0.507241  0.224938  0.482688  1
  Rh  Rh27  1  0.763081  0.000000  0.750000  1
  Rh  Rh28  1  0.493154  0.221832  0.979630  1
  Rh  Rh29  1  0.737490  0.500000  0.250000  1
  Rh  Rh30  1  0.493154  0.778168  0.520370  1
  Rh  Rh31  1  0.007945  0.280355  0.482822  1
  Rh  Rh32  1  0.007945  0.719645  0.017178  1
  Rh  Rh33  1  0.237300  0.000000  0.250000  1
  Rh  Rh34  1  0.507241  0.775062  0.017312  1
  Rh  Rh35  1  0.993880  0.722952  0.520156  1
