# generated using pymatgen
data_Ce4CdIr4Pb
_symmetry_space_group_name_H-M   'P 1'
_cell_length_a   7.78605600
_cell_length_b   7.78605600
_cell_length_c   3.69375600
_cell_angle_alpha   90.00000000
_cell_angle_beta   90.00000000
_cell_angle_gamma   90.00000000
_symmetry_Int_Tables_number   1
_chemical_formula_structural   Ce4CdIr4Pb
_chemical_formula_sum   'Ce4 Cd1 Ir4 Pb1'
_cell_volume   223.92534379
_cell_formula_units_Z   1
loop_
 _symmetry_equiv_pos_site_id
 _symmetry_equiv_pos_as_xyz
  1  'x, y, z'
loop_
 _atom_site_type_symbol
 _atom_site_label
 _atom_site_symmetry_multiplicity
 _atom_site_fract_x
 _atom_site_fract_y
 _atom_site_fract_z
 _atom_site_occupancy
  Ce  Ce0  1  0.332776  0.168842  0.500001  1
  Ce  Ce1  1  0.831157  0.332776  0.500001  1
  Ce  Ce2  1  0.168842  0.667223  0.500001  1
  Ce  Ce3  1  0.667223  0.831157  0.500001  1
  Cd  Cd4  1  0.500000  0.500000  0.000000  1
  Ir  Ir5  1  0.630642  0.136565  0.000000  1
  Ir  Ir6  1  0.136565  0.369358  0.000000  1
  Ir  Ir7  1  0.863435  0.630642  0.000000  1
  Ir  Ir8  1  0.369358  0.863435  0.000000  1
  Pb  Pb9  1  0.000000  0.000000  0.000000  1
