# generated using pymatgen
data_Lu3In3Co2Sn
_symmetry_space_group_name_H-M   'P 1'
_cell_length_a   7.77779327
_cell_length_b   7.75388499
_cell_length_c   3.58845000
_cell_angle_alpha   90.00000000
_cell_angle_beta   90.00000000
_cell_angle_gamma   119.89843234
_symmetry_Int_Tables_number   1
_chemical_formula_structural   Lu3In3Co2Sn
_chemical_formula_sum   'Lu3 In3 Co2 Sn1'
_cell_volume   187.61037736
_cell_formula_units_Z   1
loop_
 _symmetry_equiv_pos_site_id
 _symmetry_equiv_pos_as_xyz
  1  'x, y, z'
loop_
 _atom_site_type_symbol
 _atom_site_label
 _atom_site_symmetry_multiplicity
 _atom_site_fract_x
 _atom_site_fract_y
 _atom_site_fract_z
 _atom_site_occupancy
  Lu  Lu0  1  0.292146  0.245802  0.500000  1
  Lu  Lu1  1  0.754409  0.043507  0.500000  1
  Lu  Lu2  1  0.957000  0.713176  0.500000  1
  In  In3  1  0.587034  0.666607  0.000000  1
  In  In4  1  0.336675  0.921462  0.000000  1
  In  In5  1  0.666724  0.333655  0.000000  1
  Co  Co6  1  0.322746  0.655973  0.500000  1
  Co  Co7  1  0.000789  0.004808  0.000000  1
  Sn  Sn8  1  0.082476  0.415008  0.000000  1
