# generated using pymatgen
data_LaGd(AgSn)2
_symmetry_space_group_name_H-M   'P 1'
_cell_length_a   4.79872400
_cell_length_b   4.79872410
_cell_length_c   7.61631300
_cell_angle_alpha   90.00000000
_cell_angle_beta   90.00000000
_cell_angle_gamma   119.99999934
_symmetry_Int_Tables_number   1
_chemical_formula_structural   LaGd(AgSn)2
_chemical_formula_sum   'La1 Gd1 Ag2 Sn2'
_cell_volume   151.88922665
_cell_formula_units_Z   1
loop_
 _symmetry_equiv_pos_site_id
 _symmetry_equiv_pos_as_xyz
  1  'x, y, z'
loop_
 _atom_site_type_symbol
 _atom_site_label
 _atom_site_symmetry_multiplicity
 _atom_site_fract_x
 _atom_site_fract_y
 _atom_site_fract_z
 _atom_site_occupancy
  La  La0  1  0.000000  0.000000  0.730460  1
  Gd  Gd1  1  0.000000  0.000000  0.228723  1
  Ag  Ag2  1  0.666667  0.333333  0.520005  1
  Ag  Ag3  1  0.333333  0.666667  0.044333  1
  Sn  Sn4  1  0.333333  0.666667  0.444034  1
  Sn  Sn5  1  0.666667  0.333333  0.956446  1
