# generated using pymatgen
data_K2(TiS2)5
_symmetry_space_group_name_H-M   'P 1'
_cell_length_a   5.85501102
_cell_length_b   10.29482847
_cell_length_c   8.44796100
_cell_angle_alpha   56.19683162
_cell_angle_beta   69.62220738
_cell_angle_gamma   89.86429752
_symmetry_Int_Tables_number   1
_chemical_formula_structural   K2(TiS2)5
_chemical_formula_sum   'K2 Ti5 S10'
_cell_volume   384.49621363
_cell_formula_units_Z   1
loop_
 _symmetry_equiv_pos_site_id
 _symmetry_equiv_pos_as_xyz
  1  'x, y, z'
loop_
 _atom_site_type_symbol
 _atom_site_label
 _atom_site_symmetry_multiplicity
 _atom_site_fract_x
 _atom_site_fract_y
 _atom_site_fract_z
 _atom_site_occupancy
  K  K0  1  0.784563  0.070976  0.429114  1
  K  K1  1  0.015437  0.529024  0.970886  1
  Ti  Ti2  1  0.400000  0.800000  0.200000  1
  Ti  Ti3  1  0.801550  0.599745  0.400666  1
  Ti  Ti4  1  0.200086  0.399823  0.597148  1
  Ti  Ti5  1  0.599914  0.200177  0.802852  1
  Ti  Ti6  1  0.998450  0.000255  0.999334  1
  S  S7  1  0.992674  0.834480  0.350588  1
  S  S8  1  0.588274  0.037438  0.150655  1
  S  S9  1  0.189694  0.238146  0.950012  1
  S  S10  1  0.789856  0.437325  0.749944  1
  S  S11  1  0.395503  0.638292  0.545402  1
  S  S12  1  0.404497  0.961708  0.854598  1
  S  S13  1  0.010144  0.162675  0.650056  1
  S  S14  1  0.610306  0.361854  0.449988  1
  S  S15  1  0.211726  0.562562  0.249345  1
  S  S16  1  0.807326  0.765520  0.049412  1
