# generated using pymatgen
data_Nd5In4RhAu
_symmetry_space_group_name_H-M   'P 1'
_cell_length_a   3.76569400
_cell_length_b   8.39030254
_cell_length_c   18.86250410
_cell_angle_alpha   89.90934494
_cell_angle_beta   90.00000000
_cell_angle_gamma   90.00000000
_symmetry_Int_Tables_number   1
_chemical_formula_structural   Nd5In4RhAu
_chemical_formula_sum   'Nd10 In8 Rh2 Au2'
_cell_volume   595.96595484
_cell_formula_units_Z   2
loop_
 _symmetry_equiv_pos_site_id
 _symmetry_equiv_pos_as_xyz
  1  'x, y, z'
loop_
 _atom_site_type_symbol
 _atom_site_label
 _atom_site_symmetry_multiplicity
 _atom_site_fract_x
 _atom_site_fract_y
 _atom_site_fract_z
 _atom_site_occupancy
  Nd  Nd0  1  0.000000  0.123804  0.419168  1
  Nd  Nd1  1  0.000000  0.876196  0.580832  1
  Nd  Nd2  1  0.000000  0.383833  0.914121  1
  Nd  Nd3  1  0.000000  0.616167  0.085879  1
  Nd  Nd4  1  0.000000  0.258587  0.217985  1
  Nd  Nd5  1  0.000000  0.741413  0.782015  1
  Nd  Nd6  1  0.000000  0.274391  0.721879  1
  Nd  Nd7  1  0.000000  0.725609  0.278121  1
  Nd  Nd8  1  0.000000  0.000000  0.000000  1
  Nd  Nd9  1  0.000000  0.500000  0.500000  1
  In  In10  1  0.500000  0.430250  0.350174  1
  In  In11  1  0.500000  0.569750  0.649826  1
  In  In12  1  0.500000  0.073090  0.851732  1
  In  In13  1  0.500000  0.926910  0.148268  1
  In  In14  1  0.500000  0.293466  0.069491  1
  In  In15  1  0.500000  0.706534  0.930509  1
  In  In16  1  0.500000  0.209524  0.569593  1
  In  In17  1  0.500000  0.790476  0.430407  1
  Rh  Rh18  1  0.500000  0.481750  0.805226  1
  Rh  Rh19  1  0.500000  0.518250  0.194774  1
  Au  Au20  1  0.500000  0.021401  0.301583  1
  Au  Au21  1  0.500000  0.978599  0.698417  1
