# generated using pymatgen
data_NaTh3(B4Ir)4
_symmetry_space_group_name_H-M   'P 1'
_cell_length_a   7.09599787
_cell_length_b   7.09599826
_cell_length_c   7.09599800
_cell_angle_alpha   111.72388841
_cell_angle_beta   111.72387230
_cell_angle_gamma   105.05415683
_symmetry_Int_Tables_number   1
_chemical_formula_structural   NaTh3(B4Ir)4
_chemical_formula_sum   'Na1 Th3 B16 Ir4'
_cell_volume   273.84079443
_cell_formula_units_Z   1
loop_
 _symmetry_equiv_pos_site_id
 _symmetry_equiv_pos_as_xyz
  1  'x, y, z'
loop_
 _atom_site_type_symbol
 _atom_site_label
 _atom_site_symmetry_multiplicity
 _atom_site_fract_x
 _atom_site_fract_y
 _atom_site_fract_z
 _atom_site_occupancy
  Na  Na0  1  0.213893  0.213893  0.000000  1
  Th  Th1  1  0.246596  0.746596  0.500000  1
  Th  Th2  1  0.746596  0.246596  0.500000  1
  Th  Th3  1  0.792483  0.792483  0.000000  1
  B  B4  1  0.112341  0.112341  0.526420  1
  B  B5  1  0.585920  0.585920  0.473580  1
  B  B6  1  0.887382  0.887382  0.474331  1
  B  B7  1  0.585920  0.112341  0.000000  1
  B  B8  1  0.112341  0.585920  0.000000  1
  B  B9  1  0.887382  0.413051  0.000000  1
  B  B10  1  0.413051  0.887382  0.000000  1
  B  B11  1  0.413051  0.413051  0.525669  1
  B  B12  1  0.108095  0.264802  0.372417  1
  B  B13  1  0.264802  0.892385  0.156707  1
  B  B14  1  0.735678  0.108095  0.843293  1
  B  B15  1  0.108095  0.735678  0.843293  1
  B  B16  1  0.892385  0.264802  0.156707  1
  B  B17  1  0.892385  0.735678  0.627583  1
  B  B18  1  0.735678  0.892385  0.627583  1
  B  B19  1  0.264802  0.108095  0.372417  1
  Ir  Ir20  1  0.500281  0.738418  0.238137  1
  Ir  Ir21  1  0.738418  0.500281  0.238137  1
  Ir  Ir22  1  0.262146  0.500281  0.761863  1
  Ir  Ir23  1  0.500281  0.262146  0.761863  1
