# generated using pymatgen
data_Pr3Pa(CdPt2)2
_symmetry_space_group_name_H-M   'P 1'
_cell_length_a   7.96349782
_cell_length_b   7.96349764
_cell_length_c   3.79800900
_cell_angle_alpha   90.00000000
_cell_angle_beta   90.00000000
_cell_angle_gamma   92.02548251
_symmetry_Int_Tables_number   1
_chemical_formula_structural   Pr3Pa(CdPt2)2
_chemical_formula_sum   'Pr3 Pa1 Cd2 Pt4'
_cell_volume   240.70897390
_cell_formula_units_Z   1
loop_
 _symmetry_equiv_pos_site_id
 _symmetry_equiv_pos_as_xyz
  1  'x, y, z'
loop_
 _atom_site_type_symbol
 _atom_site_label
 _atom_site_symmetry_multiplicity
 _atom_site_fract_x
 _atom_site_fract_y
 _atom_site_fract_z
 _atom_site_occupancy
  Pr  Pr0  1  0.328453  0.828453  0.500000  1
  Pr  Pr1  1  0.169539  0.329515  0.500000  1
  Pr  Pr2  1  0.829515  0.669539  0.500000  1
  Pa  Pa3  1  0.666216  0.166216  0.500000  1
  Cd  Cd4  1  0.003279  0.000316  0.000000  1
  Cd  Cd5  1  0.500316  0.503279  0.000000  1
  Pt  Pt6  1  0.121589  0.621589  0.000000  1
  Pt  Pt7  1  0.850403  0.350403  0.000000  1
  Pt  Pt8  1  0.640223  0.890467  0.000000  1
  Pt  Pt9  1  0.390467  0.140223  0.000000  1
