# generated using pymatgen
data_Dy7ErRe3B24Rh
_symmetry_space_group_name_H-M   'P 1'
_cell_length_a   3.68169300
_cell_length_b   9.16765044
_cell_length_c   11.54883508
_cell_angle_alpha   90.17915286
_cell_angle_beta   90.00000000
_cell_angle_gamma   90.00000000
_symmetry_Int_Tables_number   1
_chemical_formula_structural   Dy7ErRe3B24Rh
_chemical_formula_sum   'Dy7 Er1 Re3 B24 Rh1'
_cell_volume   389.79985572
_cell_formula_units_Z   1
loop_
 _symmetry_equiv_pos_site_id
 _symmetry_equiv_pos_as_xyz
  1  'x, y, z'
loop_
 _atom_site_type_symbol
 _atom_site_label
 _atom_site_symmetry_multiplicity
 _atom_site_fract_x
 _atom_site_fract_y
 _atom_site_fract_z
 _atom_site_occupancy
  Dy  Dy0  1  0.000000  0.318673  0.415556  1
  Dy  Dy1  1  0.000000  0.677971  0.591250  1
  Dy  Dy2  1  0.000000  0.827011  0.081304  1
  Dy  Dy3  1  0.000000  0.177410  0.912681  1
  Dy  Dy4  1  0.000000  0.942989  0.369892  1
  Dy  Dy5  1  0.000000  0.055928  0.629057  1
  Dy  Dy6  1  0.000000  0.441543  0.128863  1
  Er  Er7  1  0.000000  0.556822  0.871364  1
  Re  Re8  1  0.000000  0.363035  0.677963  1
  Re  Re9  1  0.000000  0.138386  0.179738  1
  Re  Re10  1  0.000000  0.861073  0.821035  1
  B  B11  1  0.500000  0.553967  0.433623  1
  B  B12  1  0.500000  0.446692  0.566856  1
  B  B13  1  0.500000  0.053499  0.066575  1
  B  B14  1  0.500000  0.946831  0.932569  1
  B  B15  1  0.500000  0.748704  0.420115  1
  B  B16  1  0.500000  0.251067  0.581144  1
  B  B17  1  0.500000  0.249096  0.081396  1
  B  B18  1  0.500000  0.751315  0.918739  1
  B  B19  1  0.500000  0.790738  0.265127  1
  B  B20  1  0.500000  0.208978  0.734095  1
  B  B21  1  0.500000  0.291511  0.235105  1
  B  B22  1  0.500000  0.707794  0.766110  1
  B  B23  1  0.500000  0.632005  0.184218  1
  B  B24  1  0.500000  0.369917  0.814237  1
  B  B25  1  0.500000  0.130872  0.314704  1
  B  B26  1  0.500000  0.868114  0.685783  1
  B  B27  1  0.500000  0.983352  0.211748  1
  B  B28  1  0.500000  0.016903  0.787235  1
  B  B29  1  0.500000  0.483492  0.288117  1
  B  B30  1  0.500000  0.518211  0.712728  1
  B  B31  1  0.500000  0.603956  0.028794  1
  B  B32  1  0.500000  0.398040  0.971604  1
  B  B33  1  0.500000  0.102191  0.470886  1
  B  B34  1  0.500000  0.894382  0.528436  1
  Rh  Rh35  1  0.000000  0.637534  0.321351  1
