# generated using pymatgen
data_La13Pr3(TmIr3)4
_symmetry_space_group_name_H-M   'P 1'
_cell_length_a   11.32606168
_cell_length_b   11.36384729
_cell_length_c   6.52916178
_cell_angle_alpha   89.84918491
_cell_angle_beta   89.98501066
_cell_angle_gamma   89.88637775
_symmetry_Int_Tables_number   1
_chemical_formula_structural   La13Pr3(TmIr3)4
_chemical_formula_sum   'La13 Pr3 Tm4 Ir12'
_cell_volume   840.34838191
_cell_formula_units_Z   1
loop_
 _symmetry_equiv_pos_site_id
 _symmetry_equiv_pos_as_xyz
  1  'x, y, z'
loop_
 _atom_site_type_symbol
 _atom_site_label
 _atom_site_symmetry_multiplicity
 _atom_site_fract_x
 _atom_site_fract_y
 _atom_site_fract_z
 _atom_site_occupancy
  La  La0  1  0.286521  0.087528  0.384212  1
  La  La1  1  0.286575  0.912622  0.884075  1
  La  La2  1  0.713346  0.087962  0.884814  1
  La  La3  1  0.713065  0.912801  0.385054  1
  La  La4  1  0.588239  0.786955  0.884751  1
  La  La5  1  0.588513  0.213254  0.385390  1
  La  La6  1  0.411357  0.786649  0.385196  1
  La  La7  1  0.411371  0.213324  0.885515  1
  La  La8  1  0.210972  0.413115  0.614369  1
  La  La9  1  0.212165  0.586954  0.114720  1
  La  La10  1  0.788415  0.411685  0.114280  1
  La  La11  1  0.788409  0.586500  0.614229  1
  La  La12  1  0.913673  0.713170  0.115153  1
  Pr  Pr13  1  0.913861  0.286721  0.616174  1
  Pr  Pr14  1  0.087147  0.713521  0.616771  1
  Pr  Pr15  1  0.086154  0.286516  0.116421  1
  Tm  Tm16  1  0.999877  0.000101  0.500312  1
  Tm  Tm17  1  0.000391  0.000832  0.999693  1
  Tm  Tm18  1  0.500093  0.499717  0.000817  1
  Tm  Tm19  1  0.500013  0.499924  0.500836  1
  Ir  Ir20  1  0.852481  0.145720  0.248166  1
  Ir  Ir21  1  0.852953  0.853329  0.749986  1
  Ir  Ir22  1  0.147400  0.145799  0.747533  1
  Ir  Ir23  1  0.147558  0.854413  0.247959  1
  Ir  Ir24  1  0.646752  0.352697  0.750257  1
  Ir  Ir25  1  0.646820  0.647135  0.250010  1
  Ir  Ir26  1  0.352894  0.353044  0.250579  1
  Ir  Ir27  1  0.353229  0.647122  0.750360  1
  Ir  Ir28  1  0.499843  0.000150  0.116821  1
  Ir  Ir29  1  0.500140  0.999892  0.616817  1
  Ir  Ir30  1  0.000114  0.499989  0.884979  1
  Ir  Ir31  1  0.999662  0.500859  0.383754  1
