# generated using pymatgen
data_Yb2FeIr3
_symmetry_space_group_name_H-M   'P 1'
_cell_length_a   5.12582922
_cell_length_b   5.41996331
_cell_length_c   5.41996300
_cell_angle_alpha   59.99999579
_cell_angle_beta   58.08291713
_cell_angle_gamma   58.08293473
_symmetry_Int_Tables_number   1
_chemical_formula_structural   Yb2FeIr3
_chemical_formula_sum   'Yb2 Fe1 Ir3'
_cell_volume   103.28325395
_cell_formula_units_Z   1
loop_
 _symmetry_equiv_pos_site_id
 _symmetry_equiv_pos_as_xyz
  1  'x, y, z'
loop_
 _atom_site_type_symbol
 _atom_site_label
 _atom_site_symmetry_multiplicity
 _atom_site_fract_x
 _atom_site_fract_y
 _atom_site_fract_z
 _atom_site_occupancy
  Yb  Yb0  1  0.753335  0.748888  0.748888  1
  Yb  Yb1  1  0.496665  0.501112  0.501112  1
  Fe  Fe2  1  0.625000  0.125000  0.125000  1
  Ir  Ir3  1  0.125000  0.625000  0.125000  1
  Ir  Ir4  1  0.125000  0.125000  0.625000  1
  Ir  Ir5  1  0.125000  0.125000  0.125000  1
