# generated using pymatgen
data_NaPaBr6
_symmetry_space_group_name_H-M   'P 1'
_cell_length_a   7.45872180
_cell_length_b   7.45365287
_cell_length_c   8.05662468
_cell_angle_alpha   89.59492445
_cell_angle_beta   117.10272624
_cell_angle_gamma   120.05959237
_symmetry_Int_Tables_number   1
_chemical_formula_structural   NaPaBr6
_chemical_formula_sum   'Na1 Pa1 Br6'
_cell_volume   330.57625547
_cell_formula_units_Z   1
loop_
 _symmetry_equiv_pos_site_id
 _symmetry_equiv_pos_as_xyz
  1  'x, y, z'
loop_
 _atom_site_type_symbol
 _atom_site_label
 _atom_site_symmetry_multiplicity
 _atom_site_fract_x
 _atom_site_fract_y
 _atom_site_fract_z
 _atom_site_occupancy
  Na  Na0  1  0.241350  0.623116  0.860372  1
  Pa  Pa1  1  0.579659  0.290073  0.869810  1
  Br  Br2  1  0.447560  0.059956  0.104109  1
  Br  Br3  1  0.128130  0.209928  0.639741  1
  Br  Br4  1  0.720703  0.509857  0.634626  1
  Br  Br5  1  0.431669  0.919749  0.639012  1
  Br  Br6  1  0.711346  0.651453  0.099783  1
  Br  Br7  1  0.038582  0.385368  0.101045  1
