# generated using pymatgen
data_Er3PaGa2Rh3
_symmetry_space_group_name_H-M   'P 1'
_cell_length_a   7.21457400
_cell_length_b   7.27851091
_cell_length_c   4.04275200
_cell_angle_alpha   90.00000000
_cell_angle_beta   90.00000000
_cell_angle_gamma   119.70984841
_symmetry_Int_Tables_number   1
_chemical_formula_structural   Er3PaGa2Rh3
_chemical_formula_sum   'Er3 Pa1 Ga2 Rh3'
_cell_volume   184.38403896
_cell_formula_units_Z   1
loop_
 _symmetry_equiv_pos_site_id
 _symmetry_equiv_pos_as_xyz
  1  'x, y, z'
loop_
 _atom_site_type_symbol
 _atom_site_label
 _atom_site_symmetry_multiplicity
 _atom_site_fract_x
 _atom_site_fract_y
 _atom_site_fract_z
 _atom_site_occupancy
  Er  Er0  1  0.968115  0.557635  0.500000  1
  Er  Er1  1  0.410479  0.442365  0.500000  1
  Er  Er2  1  0.632271  0.000000  0.500000  1
  Pa  Pa3  1  0.262563  0.000000  0.000000  1
  Ga  Ga4  1  0.745672  0.741603  0.000000  1
  Ga  Ga5  1  0.004070  0.258397  0.000000  1
  Rh  Rh6  1  0.642098  0.316590  0.000000  1
  Rh  Rh7  1  0.325507  0.683410  0.000000  1
  Rh  Rh8  1  0.009224  0.000000  0.500000  1
