# generated using pymatgen
data_YbGd2Y(B6Os)2
_symmetry_space_group_name_H-M   'P 1'
_cell_length_a   3.67123800
_cell_length_b   9.16079691
_cell_length_c   11.53337514
_cell_angle_alpha   89.94900590
_cell_angle_beta   90.00000000
_cell_angle_gamma   90.00000000
_symmetry_Int_Tables_number   1
_chemical_formula_structural   YbGd2Y(B6Os)2
_chemical_formula_sum   'Yb2 Gd4 Y2 B24 Os4'
_cell_volume   387.88415704
_cell_formula_units_Z   2
loop_
 _symmetry_equiv_pos_site_id
 _symmetry_equiv_pos_as_xyz
  1  'x, y, z'
loop_
 _atom_site_type_symbol
 _atom_site_label
 _atom_site_symmetry_multiplicity
 _atom_site_fract_x
 _atom_site_fract_y
 _atom_site_fract_z
 _atom_site_occupancy
  Yb  Yb0  1  0.000000  0.942882  0.371420  1
  Yb  Yb1  1  0.000000  0.057118  0.628580  1
  Gd  Gd2  1  0.000000  0.320959  0.414577  1
  Gd  Gd3  1  0.000000  0.679041  0.585423  1
  Gd  Gd4  1  0.000000  0.824114  0.087329  1
  Gd  Gd5  1  0.000000  0.175886  0.912671  1
  Y  Y6  1  0.000000  0.443112  0.128720  1
  Y  Y7  1  0.000000  0.556888  0.871280  1
  B  B8  1  0.500000  0.554704  0.432381  1
  B  B9  1  0.500000  0.445296  0.567619  1
  B  B10  1  0.500000  0.053726  0.068309  1
  B  B11  1  0.500000  0.946274  0.931691  1
  B  B12  1  0.500000  0.749906  0.418463  1
  B  B13  1  0.500000  0.250094  0.581537  1
  B  B14  1  0.500000  0.247513  0.081361  1
  B  B15  1  0.500000  0.752487  0.918639  1
  B  B16  1  0.500000  0.791581  0.267190  1
  B  B17  1  0.500000  0.208419  0.732810  1
  B  B18  1  0.500000  0.289209  0.234181  1
  B  B19  1  0.500000  0.710791  0.765819  1
  B  B20  1  0.500000  0.631792  0.186742  1
  B  B21  1  0.500000  0.368208  0.813258  1
  B  B22  1  0.500000  0.129177  0.314885  1
  B  B23  1  0.500000  0.870823  0.685115  1
  B  B24  1  0.500000  0.983325  0.213852  1
  B  B25  1  0.500000  0.016675  0.786148  1
  B  B26  1  0.500000  0.483605  0.288050  1
  B  B27  1  0.500000  0.516395  0.711950  1
  B  B28  1  0.500000  0.605946  0.029473  1
  B  B29  1  0.500000  0.394054  0.970527  1
  B  B30  1  0.500000  0.099295  0.472188  1
  B  B31  1  0.500000  0.900705  0.527812  1
  Os  Os32  1  0.000000  0.638523  0.320981  1
  Os  Os33  1  0.000000  0.361477  0.679019  1
  Os  Os34  1  0.000000  0.137498  0.178948  1
  Os  Os35  1  0.000000  0.862502  0.821052  1
