# generated using pymatgen
data_Cs6K3InSb4
_symmetry_space_group_name_H-M   'P 1'
_cell_length_a   11.27288900
_cell_length_b   11.27289027
_cell_length_c   11.83485200
_cell_angle_alpha   90.00000000
_cell_angle_beta   90.00000000
_cell_angle_gamma   119.99999335
_symmetry_Int_Tables_number   1
_chemical_formula_structural   Cs6K3InSb4
_chemical_formula_sum   'Cs12 K6 In2 Sb8'
_cell_volume   1302.45882363
_cell_formula_units_Z   2
loop_
 _symmetry_equiv_pos_site_id
 _symmetry_equiv_pos_as_xyz
  1  'x, y, z'
loop_
 _atom_site_type_symbol
 _atom_site_label
 _atom_site_symmetry_multiplicity
 _atom_site_fract_x
 _atom_site_fract_y
 _atom_site_fract_z
 _atom_site_occupancy
  Cs  Cs0  1  0.208377  0.416753  0.542912  1
  Cs  Cs1  1  0.791623  0.208377  0.042912  1
  Cs  Cs2  1  0.416753  0.208377  0.042912  1
  Cs  Cs3  1  0.583247  0.791623  0.542912  1
  Cs  Cs4  1  0.208377  0.791623  0.542912  1
  Cs  Cs5  1  0.791623  0.583247  0.457088  1
  Cs  Cs6  1  0.791623  0.208377  0.457088  1
  Cs  Cs7  1  0.791623  0.583247  0.042912  1
  Cs  Cs8  1  0.416753  0.208377  0.457088  1
  Cs  Cs9  1  0.583247  0.791623  0.957088  1
  Cs  Cs10  1  0.208377  0.416753  0.957088  1
  Cs  Cs11  1  0.208377  0.791623  0.957088  1
  K  K12  1  0.119280  0.238558  0.250000  1
  K  K13  1  0.880720  0.119280  0.750000  1
  K  K14  1  0.238558  0.119280  0.750000  1
  K  K15  1  0.761442  0.880720  0.250000  1
  K  K16  1  0.119280  0.880720  0.250000  1
  K  K17  1  0.880720  0.761442  0.750000  1
  In  In18  1  0.333333  0.666667  0.250000  1
  In  In19  1  0.666667  0.333333  0.750000  1
  Sb  Sb20  1  0.479321  0.520679  0.250000  1
  Sb  Sb21  1  0.958640  0.479321  0.750000  1
  Sb  Sb22  1  0.520679  0.041360  0.750000  1
  Sb  Sb23  1  0.479321  0.958640  0.250000  1
  Sb  Sb24  1  0.041360  0.520679  0.250000  1
  Sb  Sb25  1  0.520679  0.479321  0.750000  1
  Sb  Sb26  1  0.000000  0.000000  0.000000  1
  Sb  Sb27  1  0.000000  0.000000  0.500000  1
