# generated using pymatgen
data_ErLu2In3Ag2Au
_symmetry_space_group_name_H-M   'P 1'
_cell_length_a   7.79792722
_cell_length_b   7.80821741
_cell_length_c   3.89278000
_cell_angle_alpha   90.00000000
_cell_angle_beta   90.00000000
_cell_angle_gamma   120.15649191
_symmetry_Int_Tables_number   1
_chemical_formula_structural   ErLu2In3Ag2Au
_chemical_formula_sum   'Er1 Lu2 In3 Ag2 Au1'
_cell_volume   204.94369332
_cell_formula_units_Z   1
loop_
 _symmetry_equiv_pos_site_id
 _symmetry_equiv_pos_as_xyz
  1  'x, y, z'
loop_
 _atom_site_type_symbol
 _atom_site_label
 _atom_site_symmetry_multiplicity
 _atom_site_fract_x
 _atom_site_fract_y
 _atom_site_fract_z
 _atom_site_occupancy
  Er  Er0  1  0.400831  0.408052  0.500000  1
  Lu  Lu1  1  0.591627  0.992335  0.500000  1
  Lu  Lu2  1  0.008060  0.599638  0.500000  1
  In  In3  1  0.740139  0.733881  0.000000  1
  In  In4  1  0.266192  0.005246  0.000000  1
  In  In5  1  0.993466  0.260174  0.000000  1
  Ag  Ag6  1  0.667980  0.332986  0.000000  1
  Ag  Ag7  1  0.999094  0.999222  0.500000  1
  Au  Au8  1  0.332611  0.668464  0.000000  1
