# generated using pymatgen
data_TbDy(SbO4)2
_symmetry_space_group_name_H-M   'P 1'
_cell_length_a   5.41218196
_cell_length_b   7.67944397
_cell_length_c   7.57608942
_cell_angle_alpha   80.97303484
_cell_angle_beta   90.34773680
_cell_angle_gamma   92.14095283
_symmetry_Int_Tables_number   1
_chemical_formula_structural   TbDy(SbO4)2
_chemical_formula_sum   'Tb2 Dy2 Sb4 O16'
_cell_volume   310.76456089
_cell_formula_units_Z   2
loop_
 _symmetry_equiv_pos_site_id
 _symmetry_equiv_pos_as_xyz
  1  'x, y, z'
loop_
 _atom_site_type_symbol
 _atom_site_label
 _atom_site_symmetry_multiplicity
 _atom_site_fract_x
 _atom_site_fract_y
 _atom_site_fract_z
 _atom_site_occupancy
  Tb  Tb0  1  0.263211  0.132841  0.612786  1
  Tb  Tb1  1  0.736789  0.867159  0.387214  1
  Dy  Dy2  1  0.212675  0.158035  0.107678  1
  Dy  Dy3  1  0.787325  0.841965  0.892322  1
  Sb  Sb4  1  0.239829  0.663526  0.194671  1
  Sb  Sb5  1  0.760171  0.336474  0.805329  1
  Sb  Sb6  1  0.724693  0.335591  0.307570  1
  Sb  Sb7  1  0.275307  0.664409  0.692430  1
  O  O8  1  0.087038  0.435229  0.690821  1
  O  O9  1  0.912962  0.564771  0.309179  1
  O  O10  1  0.611530  0.325785  0.560184  1
  O  O11  1  0.388470  0.674215  0.439816  1
  O  O12  1  0.871284  0.330901  0.061075  1
  O  O13  1  0.128716  0.669099  0.938925  1
  O  O14  1  0.400391  0.431058  0.196383  1
  O  O15  1  0.599609  0.568942  0.803617  1
  O  O16  1  0.041853  0.885352  0.172717  1
  O  O17  1  0.958147  0.114648  0.827283  1
  O  O18  1  0.507061  0.112260  0.322568  1
  O  O19  1  0.492939  0.887740  0.677432  1
  O  O20  1  0.466576  0.187182  0.877890  1
  O  O21  1  0.533424  0.812818  0.122110  1
  O  O22  1  0.989706  0.167454  0.379886  1
  O  O23  1  0.010294  0.832546  0.620114  1
