# generated using pymatgen
data_Y3Hf5(B6Ru)4
_symmetry_space_group_name_H-M   'P 1'
_cell_length_a   3.52207500
_cell_length_b   9.01288141
_cell_length_c   11.34421744
_cell_angle_alpha   90.03324582
_cell_angle_beta   90.00000000
_cell_angle_gamma   90.00000000
_symmetry_Int_Tables_number   1
_chemical_formula_structural   Y3Hf5(B6Ru)4
_chemical_formula_sum   'Y3 Hf5 B24 Ru4'
_cell_volume   360.11128025
_cell_formula_units_Z   1
loop_
 _symmetry_equiv_pos_site_id
 _symmetry_equiv_pos_as_xyz
  1  'x, y, z'
loop_
 _atom_site_type_symbol
 _atom_site_label
 _atom_site_symmetry_multiplicity
 _atom_site_fract_x
 _atom_site_fract_y
 _atom_site_fract_z
 _atom_site_occupancy
  Y  Y0  1  0.000000  0.321475  0.414217  1
  Y  Y1  1  0.000000  0.678478  0.586721  1
  Y  Y2  1  0.000000  0.823858  0.084871  1
  Hf  Hf3  1  0.000000  0.179627  0.913183  1
  Hf  Hf4  1  0.000000  0.945405  0.372762  1
  Hf  Hf5  1  0.000000  0.055721  0.628935  1
  Hf  Hf6  1  0.000000  0.444061  0.125521  1
  Hf  Hf7  1  0.000000  0.554046  0.874020  1
  B  B8  1  0.500000  0.554321  0.433542  1
  B  B9  1  0.500000  0.445077  0.567176  1
  B  B10  1  0.500000  0.055601  0.062692  1
  B  B11  1  0.500000  0.948482  0.934076  1
  B  B12  1  0.500000  0.752810  0.418197  1
  B  B13  1  0.500000  0.246877  0.582641  1
  B  B14  1  0.500000  0.251739  0.077788  1
  B  B15  1  0.500000  0.746995  0.918589  1
  B  B16  1  0.500000  0.795955  0.262919  1
  B  B17  1  0.500000  0.202832  0.739617  1
  B  B18  1  0.500000  0.295469  0.235228  1
  B  B19  1  0.500000  0.704016  0.763975  1
  B  B20  1  0.500000  0.629923  0.181987  1
  B  B21  1  0.500000  0.367372  0.819400  1
  B  B22  1  0.500000  0.130449  0.317049  1
  B  B23  1  0.500000  0.870487  0.683334  1
  B  B24  1  0.500000  0.982413  0.212934  1
  B  B25  1  0.500000  0.020369  0.788555  1
  B  B26  1  0.500000  0.481525  0.285965  1
  B  B27  1  0.500000  0.517764  0.714027  1
  B  B28  1  0.500000  0.600503  0.026895  1
  B  B29  1  0.500000  0.395432  0.971896  1
  B  B30  1  0.500000  0.101002  0.473471  1
  B  B31  1  0.500000  0.899854  0.527523  1
  Ru  Ru32  1  0.000000  0.642084  0.317823  1
  Ru  Ru33  1  0.000000  0.357566  0.683595  1
  Ru  Ru34  1  0.000000  0.143665  0.179522  1
  Ru  Ru35  1  0.000000  0.856751  0.819352  1
