# generated using pymatgen
data_Zr8Fe3Co3(Si7Ni)2
_symmetry_space_group_name_H-M   'P 1'
_cell_length_a   9.49931536
_cell_length_b   9.49931501
_cell_length_c   9.52387190
_cell_angle_alpha   94.21462441
_cell_angle_beta   94.21462475
_cell_angle_gamma   148.73553678
_symmetry_Int_Tables_number   1
_chemical_formula_structural   Zr8Fe3Co3(Si7Ni)2
_chemical_formula_sum   'Zr8 Fe3 Co3 Si14 Ni2'
_cell_volume   429.11246172
_cell_formula_units_Z   1
loop_
 _symmetry_equiv_pos_site_id
 _symmetry_equiv_pos_as_xyz
  1  'x, y, z'
loop_
 _atom_site_type_symbol
 _atom_site_label
 _atom_site_symmetry_multiplicity
 _atom_site_fract_x
 _atom_site_fract_y
 _atom_site_fract_z
 _atom_site_occupancy
  Zr  Zr0  1  0.139380  0.139015  0.275084  1
  Zr  Zr1  1  0.860985  0.860620  0.724916  1
  Zr  Zr2  1  0.862461  0.137539  0.000000  1
  Zr  Zr3  1  0.138226  0.861774  0.000000  1
  Zr  Zr4  1  0.501905  0.304834  0.803207  1
  Zr  Zr5  1  0.500462  0.697285  0.196321  1
  Zr  Zr6  1  0.695166  0.498095  0.196793  1
  Zr  Zr7  1  0.302715  0.499538  0.803679  1
  Fe  Fe8  1  0.397753  0.894007  0.797636  1
  Fe  Fe9  1  0.105993  0.602247  0.202364  1
  Fe  Fe10  1  0.102830  0.897170  0.500000  1
  Co  Co11  1  0.894159  0.105841  0.500000  1
  Co  Co12  1  0.891580  0.395009  0.793572  1
  Co  Co13  1  0.604991  0.108420  0.206428  1
  Si  Si14  1  0.479865  0.067712  0.594333  1
  Si  Si15  1  0.504430  0.917237  0.404648  1
  Si  Si16  1  0.932288  0.520135  0.405667  1
  Si  Si17  1  0.082763  0.495570  0.595352  1
  Si  Si18  1  0.749447  0.749062  0.000497  1
  Si  Si19  1  0.250938  0.250553  0.999503  1
  Si  Si20  1  0.277560  0.278190  0.579218  1
  Si  Si21  1  0.721810  0.722440  0.420782  1
  Si  Si22  1  0.711129  0.288871  0.000000  1
  Si  Si23  1  0.289067  0.710933  0.000000  1
  Si  Si24  1  0.998451  0.301546  0.300180  1
  Si  Si25  1  0.009443  0.706191  0.699512  1
  Si  Si26  1  0.698454  0.001549  0.699820  1
  Si  Si27  1  0.293809  0.990557  0.300488  1
  Ni  Ni28  1  0.399711  0.600289  0.500000  1
  Ni  Ni29  1  0.602229  0.397771  0.500000  1
