# generated using pymatgen
data_La6Bi(P3Rh5)4
_symmetry_space_group_name_H-M   'P 1'
_cell_length_a   13.71226800
_cell_length_b   13.71226799
_cell_length_c   3.95658600
_cell_angle_alpha   90.00000000
_cell_angle_beta   90.00000000
_cell_angle_gamma   119.99999519
_symmetry_Int_Tables_number   1
_chemical_formula_structural   La6Bi(P3Rh5)4
_chemical_formula_sum   'La6 Bi1 P12 Rh20'
_cell_volume   644.27287612
_cell_formula_units_Z   1
loop_
 _symmetry_equiv_pos_site_id
 _symmetry_equiv_pos_as_xyz
  1  'x, y, z'
loop_
 _atom_site_type_symbol
 _atom_site_label
 _atom_site_symmetry_multiplicity
 _atom_site_fract_x
 _atom_site_fract_y
 _atom_site_fract_z
 _atom_site_occupancy
  La  La0  1  0.528623  0.718155  0.252115  1
  La  La1  1  0.281845  0.810468  0.252115  1
  La  La2  1  0.189532  0.471377  0.252115  1
  La  La3  1  0.471377  0.281845  0.747885  1
  La  La4  1  0.718155  0.189532  0.747885  1
  La  La5  1  0.810468  0.528623  0.747885  1
  Bi  Bi6  1  0.000000  0.000000  0.000000  1
  P  P7  1  0.521830  0.133267  0.248386  1
  P  P8  1  0.866733  0.388564  0.248386  1
  P  P9  1  0.611436  0.478170  0.248386  1
  P  P10  1  0.950690  0.718394  0.242819  1
  P  P11  1  0.281606  0.232296  0.242819  1
  P  P12  1  0.767704  0.049310  0.242819  1
  P  P13  1  0.388564  0.521830  0.751614  1
  P  P14  1  0.478170  0.866733  0.751614  1
  P  P15  1  0.133267  0.611436  0.751614  1
  P  P16  1  0.718394  0.767704  0.757181  1
  P  P17  1  0.232296  0.950690  0.757181  1
  P  P18  1  0.049310  0.281606  0.757181  1
  Rh  Rh19  1  0.333333  0.666667  0.752646  1
  Rh  Rh20  1  0.923072  0.253464  0.236153  1
  Rh  Rh21  1  0.746536  0.669608  0.236153  1
  Rh  Rh22  1  0.330392  0.076928  0.236153  1
  Rh  Rh23  1  0.442742  0.026039  0.746696  1
  Rh  Rh24  1  0.973961  0.416702  0.746696  1
  Rh  Rh25  1  0.583298  0.557258  0.746696  1
  Rh  Rh26  1  0.666667  0.333333  0.247354  1
  Rh  Rh27  1  0.099089  0.205634  0.280360  1
  Rh  Rh28  1  0.794366  0.893455  0.280360  1
  Rh  Rh29  1  0.106545  0.900911  0.280360  1
  Rh  Rh30  1  0.026039  0.583298  0.253304  1
  Rh  Rh31  1  0.416702  0.442742  0.253304  1
  Rh  Rh32  1  0.557258  0.973961  0.253304  1
  Rh  Rh33  1  0.669608  0.923072  0.763847  1
  Rh  Rh34  1  0.076928  0.746536  0.763847  1
  Rh  Rh35  1  0.253464  0.330392  0.763847  1
  Rh  Rh36  1  0.900911  0.794366  0.719640  1
  Rh  Rh37  1  0.205634  0.106545  0.719640  1
  Rh  Rh38  1  0.893455  0.099089  0.719640  1
