# generated using pymatgen
data_CaCe3(Al3Rh)6
_symmetry_space_group_name_H-M   'P 1'
_cell_length_a   7.61747369
_cell_length_b   7.61548950
_cell_length_c   9.49606700
_cell_angle_alpha   90.00000000
_cell_angle_beta   90.00000000
_cell_angle_gamma   119.34796722
_symmetry_Int_Tables_number   1
_chemical_formula_structural   CaCe3(Al3Rh)6
_chemical_formula_sum   'Ca1 Ce3 Al18 Rh6'
_cell_volume   480.17473580
_cell_formula_units_Z   1
loop_
 _symmetry_equiv_pos_site_id
 _symmetry_equiv_pos_as_xyz
  1  'x, y, z'
loop_
 _atom_site_type_symbol
 _atom_site_label
 _atom_site_symmetry_multiplicity
 _atom_site_fract_x
 _atom_site_fract_y
 _atom_site_fract_z
 _atom_site_occupancy
  Ca  Ca0  1  0.994973  0.672374  0.250000  1
  Ce  Ce1  1  0.003818  0.328601  0.750000  1
  Ce  Ce2  1  0.672053  0.996069  0.250000  1
  Ce  Ce3  1  0.327644  0.002954  0.750000  1
  Al  Al4  1  0.002973  0.337989  0.076661  1
  Al  Al5  1  0.997612  0.664032  0.926202  1
  Al  Al6  1  0.997612  0.664032  0.573798  1
  Al  Al7  1  0.333946  0.000927  0.423166  1
  Al  Al8  1  0.002973  0.337989  0.423339  1
  Al  Al9  1  0.663968  0.997174  0.576125  1
  Al  Al10  1  0.663968  0.997174  0.923875  1
  Al  Al11  1  0.333946  0.000927  0.076834  1
  Al  Al12  1  0.333969  0.333925  0.547211  1
  Al  Al13  1  0.667320  0.665786  0.451523  1
  Al  Al14  1  0.667320  0.665786  0.048477  1
  Al  Al15  1  0.333969  0.333925  0.952789  1
  Al  Al16  1  0.128091  0.129181  0.250000  1
  Al  Al17  1  0.869558  0.868701  0.750000  1
  Al  Al18  1  0.343175  0.550704  0.250000  1
  Al  Al19  1  0.658975  0.452100  0.750000  1
  Al  Al20  1  0.550204  0.340747  0.250000  1
  Al  Al21  1  0.450964  0.658308  0.750000  1
  Rh  Rh22  1  0.671016  0.327191  0.998719  1
  Rh  Rh23  1  0.329483  0.671963  0.998407  1
  Rh  Rh24  1  0.329483  0.671963  0.501593  1
  Rh  Rh25  1  0.671016  0.327191  0.501281  1
  Rh  Rh26  1  0.999985  0.001143  0.998511  1
  Rh  Rh27  1  0.999985  0.001143  0.501489  1
