# generated using pymatgen
data_Tm2Lu3SiPb3
_symmetry_space_group_name_H-M   'P 1'
_cell_length_a   9.17718884
_cell_length_b   9.17718772
_cell_length_c   6.40452000
_cell_angle_alpha   90.00000000
_cell_angle_beta   90.00000000
_cell_angle_gamma   120.10481689
_symmetry_Int_Tables_number   1
_chemical_formula_structural   Tm2Lu3SiPb3
_chemical_formula_sum   'Tm4 Lu6 Si2 Pb6'
_cell_volume   466.63448198
_cell_formula_units_Z   2
loop_
 _symmetry_equiv_pos_site_id
 _symmetry_equiv_pos_as_xyz
  1  'x, y, z'
loop_
 _atom_site_type_symbol
 _atom_site_label
 _atom_site_symmetry_multiplicity
 _atom_site_fract_x
 _atom_site_fract_y
 _atom_site_fract_z
 _atom_site_occupancy
  Tm  Tm0  1  0.249146  0.000025  0.750000  1
  Tm  Tm1  1  0.750854  0.999975  0.250000  1
  Tm  Tm2  1  0.000025  0.249146  0.750000  1
  Tm  Tm3  1  0.999975  0.750854  0.250000  1
  Lu  Lu4  1  0.751468  0.751468  0.750000  1
  Lu  Lu5  1  0.248532  0.248532  0.250000  1
  Lu  Lu6  1  0.333358  0.666642  0.500000  1
  Lu  Lu7  1  0.666642  0.333358  0.500000  1
  Lu  Lu8  1  0.666642  0.333358  0.000000  1
  Lu  Lu9  1  0.333358  0.666642  0.000000  1
  Si  Si10  1  0.000000  0.000000  0.500000  1
  Si  Si11  1  0.000000  0.000000  0.000000  1
  Pb  Pb12  1  0.606119  0.999662  0.750000  1
  Pb  Pb13  1  0.393881  0.000338  0.250000  1
  Pb  Pb14  1  0.999662  0.606119  0.750000  1
  Pb  Pb15  1  0.000338  0.393881  0.250000  1
  Pb  Pb16  1  0.394545  0.394545  0.750000  1
  Pb  Pb17  1  0.605455  0.605455  0.250000  1
