# generated using pymatgen
data_La6YbMnBr12
_symmetry_space_group_name_H-M   'P 1'
_cell_length_a   9.68284815
_cell_length_b   9.68284896
_cell_length_c   9.68284800
_cell_angle_alpha   107.08991169
_cell_angle_beta   107.08992243
_cell_angle_gamma   107.08992403
_symmetry_Int_Tables_number   1
_chemical_formula_structural   La6YbMnBr12
_chemical_formula_sum   'La6 Yb1 Mn1 Br12'
_cell_volume   754.19576035
_cell_formula_units_Z   1
loop_
 _symmetry_equiv_pos_site_id
 _symmetry_equiv_pos_as_xyz
  1  'x, y, z'
loop_
 _atom_site_type_symbol
 _atom_site_label
 _atom_site_symmetry_multiplicity
 _atom_site_fract_x
 _atom_site_fract_y
 _atom_site_fract_z
 _atom_site_occupancy
  La  La0  1  0.894860  0.688754  0.972802  1
  La  La1  1  0.972802  0.894860  0.688754  1
  La  La2  1  0.688754  0.972802  0.894860  1
  La  La3  1  0.105140  0.311246  0.027198  1
  La  La4  1  0.027198  0.105140  0.311246  1
  La  La5  1  0.311246  0.027198  0.105140  1
  Yb  Yb6  1  0.500000  0.500000  0.500000  1
  Mn  Mn7  1  0.000000  0.000000  0.000000  1
  Br  Br8  1  0.779462  0.315152  0.927686  1
  Br  Br9  1  0.927686  0.779462  0.315152  1
  Br  Br10  1  0.315152  0.927686  0.779462  1
  Br  Br11  1  0.220538  0.684848  0.072314  1
  Br  Br12  1  0.072314  0.220538  0.684848  1
  Br  Br13  1  0.684848  0.072314  0.220538  1
  Br  Br14  1  0.541152  0.617540  0.827939  1
  Br  Br15  1  0.827939  0.541152  0.617540  1
  Br  Br16  1  0.617540  0.827939  0.541152  1
  Br  Br17  1  0.458848  0.382460  0.172061  1
  Br  Br18  1  0.172061  0.458848  0.382460  1
  Br  Br19  1  0.382460  0.172061  0.458848  1
