# generated using pymatgen
data_K(HfSe2)3
_symmetry_space_group_name_H-M   'P 1'
_cell_length_a   6.51763751
_cell_length_b   6.51763850
_cell_length_c   8.54028193
_cell_angle_alpha   97.32613638
_cell_angle_beta   97.32613688
_cell_angle_gamma   120.00868916
_symmetry_Int_Tables_number   1
_chemical_formula_structural   K(HfSe2)3
_chemical_formula_sum   'K1 Hf3 Se6'
_cell_volume   303.76467324
_cell_formula_units_Z   1
loop_
 _symmetry_equiv_pos_site_id
 _symmetry_equiv_pos_as_xyz
  1  'x, y, z'
loop_
 _atom_site_type_symbol
 _atom_site_label
 _atom_site_symmetry_multiplicity
 _atom_site_fract_x
 _atom_site_fract_y
 _atom_site_fract_z
 _atom_site_occupancy
  K  K0  1  0.000000  0.000000  0.500000  1
  Hf  Hf1  1  0.834698  0.165303  0.000000  1
  Hf  Hf2  1  0.500001  0.500001  0.000000  1
  Hf  Hf3  1  0.165303  0.834698  0.000000  1
  Se  Se4  1  0.234296  0.234296  0.194409  1
  Se  Se5  1  0.897832  0.561880  0.193065  1
  Se  Se6  1  0.561880  0.897832  0.193065  1
  Se  Se7  1  0.438119  0.102168  0.806934  1
  Se  Se8  1  0.102168  0.438119  0.806934  1
  Se  Se9  1  0.765705  0.765705  0.805590  1
