# generated using pymatgen
data_PrNd3(CdSn)4
_symmetry_space_group_name_H-M   'P 1'
_cell_length_a   4.82481100
_cell_length_b   4.82481271
_cell_length_c   16.40850600
_cell_angle_alpha   90.00000000
_cell_angle_beta   90.00000000
_cell_angle_gamma   120.00000886
_symmetry_Int_Tables_number   1
_chemical_formula_structural   PrNd3(CdSn)4
_chemical_formula_sum   'Pr1 Nd3 Cd4 Sn4'
_cell_volume   330.79611319
_cell_formula_units_Z   1
loop_
 _symmetry_equiv_pos_site_id
 _symmetry_equiv_pos_as_xyz
  1  'x, y, z'
loop_
 _atom_site_type_symbol
 _atom_site_label
 _atom_site_symmetry_multiplicity
 _atom_site_fract_x
 _atom_site_fract_y
 _atom_site_fract_z
 _atom_site_occupancy
  Pr  Pr0  1  0.000000  0.000000  0.500000  1
  Nd  Nd1  1  0.000000  0.000000  0.000000  1
  Nd  Nd2  1  0.000000  0.000000  0.249435  1
  Nd  Nd3  1  0.000000  0.000000  0.750565  1
  Cd  Cd4  1  0.333333  0.666667  0.346646  1
  Cd  Cd5  1  0.666667  0.333333  0.653354  1
  Cd  Cd6  1  0.666667  0.333333  0.847372  1
  Cd  Cd7  1  0.333333  0.666667  0.152628  1
  Sn  Sn8  1  0.333333  0.666667  0.890817  1
  Sn  Sn9  1  0.666667  0.333333  0.109183  1
  Sn  Sn10  1  0.666667  0.333333  0.389555  1
  Sn  Sn11  1  0.333333  0.666667  0.610445  1
