# generated using pymatgen
data_Sm6MgCo16MoP12
_symmetry_space_group_name_H-M   'P 1'
_cell_length_a   3.76158100
_cell_length_b   10.67751300
_cell_length_c   12.40008700
_cell_angle_alpha   90.00000000
_cell_angle_beta   90.00000000
_cell_angle_gamma   90.00000000
_symmetry_Int_Tables_number   1
_chemical_formula_structural   Sm6MgCo16MoP12
_chemical_formula_sum   'Sm6 Mg1 Co16 Mo1 P12'
_cell_volume   498.04118664
_cell_formula_units_Z   1
loop_
 _symmetry_equiv_pos_site_id
 _symmetry_equiv_pos_as_xyz
  1  'x, y, z'
loop_
 _atom_site_type_symbol
 _atom_site_label
 _atom_site_symmetry_multiplicity
 _atom_site_fract_x
 _atom_site_fract_y
 _atom_site_fract_z
 _atom_site_occupancy
  Sm  Sm0  1  0.000000  0.500000  0.524522  1
  Sm  Sm1  1  0.500000  0.000000  0.476745  1
  Sm  Sm2  1  0.500000  0.820605  0.205990  1
  Sm  Sm3  1  0.500000  0.179395  0.205990  1
  Sm  Sm4  1  0.000000  0.681926  0.794259  1
  Sm  Sm5  1  0.000000  0.318074  0.794259  1
  Mg  Mg6  1  0.500000  0.500000  0.152926  1
  Co  Co7  1  0.500000  0.500000  0.704259  1
  Co  Co8  1  0.000000  0.000000  0.296946  1
  Co  Co9  1  0.000000  0.500000  0.986085  1
  Co  Co10  1  0.500000  0.000000  0.010961  1
  Co  Co11  1  0.500000  0.330178  0.993659  1
  Co  Co12  1  0.500000  0.669822  0.993659  1
  Co  Co13  1  0.000000  0.165083  0.005463  1
  Co  Co14  1  0.000000  0.834917  0.005463  1
  Co  Co15  1  0.500000  0.295105  0.432431  1
  Co  Co16  1  0.500000  0.704895  0.432431  1
  Co  Co17  1  0.000000  0.203207  0.569860  1
  Co  Co18  1  0.000000  0.796793  0.569860  1
  Co  Co19  1  0.500000  0.880278  0.707498  1
  Co  Co20  1  0.500000  0.119722  0.707498  1
  Co  Co21  1  0.000000  0.621664  0.294184  1
  Co  Co22  1  0.000000  0.378336  0.294184  1
  Mo  Mo23  1  0.000000  0.000000  0.842972  1
  P  P24  1  0.500000  0.500000  0.885042  1
  P  P25  1  0.000000  0.000000  0.115674  1
  P  P26  1  0.500000  0.500000  0.351326  1
  P  P27  1  0.000000  0.000000  0.652038  1
  P  P28  1  0.500000  0.307348  0.615390  1
  P  P29  1  0.500000  0.692652  0.615390  1
  P  P30  1  0.000000  0.191974  0.386168  1
  P  P31  1  0.000000  0.808026  0.386168  1
  P  P32  1  0.500000  0.845943  0.892491  1
  P  P33  1  0.500000  0.154057  0.892491  1
  P  P34  1  0.000000  0.659547  0.102858  1
  P  P35  1  0.000000  0.340453  0.102858  1
