# generated using pymatgen
data_TmTh2In5
_symmetry_space_group_name_H-M   'P 1'
_cell_length_a   6.57369372
_cell_length_b   6.57369388
_cell_length_c   10.30597600
_cell_angle_alpha   90.00000000
_cell_angle_beta   90.00000000
_cell_angle_gamma   102.01995414
_symmetry_Int_Tables_number   1
_chemical_formula_structural   TmTh2In5
_chemical_formula_sum   'Tm2 Th4 In10'
_cell_volume   435.59239196
_cell_formula_units_Z   2
loop_
 _symmetry_equiv_pos_site_id
 _symmetry_equiv_pos_as_xyz
  1  'x, y, z'
loop_
 _atom_site_type_symbol
 _atom_site_label
 _atom_site_symmetry_multiplicity
 _atom_site_fract_x
 _atom_site_fract_y
 _atom_site_fract_z
 _atom_site_occupancy
  Tm  Tm0  1  0.131201  0.131201  0.750000  1
  Tm  Tm1  1  0.868799  0.868799  0.250000  1
  Th  Th2  1  0.705705  0.294295  0.000000  1
  Th  Th3  1  0.705705  0.294295  0.500000  1
  Th  Th4  1  0.294295  0.705705  0.000000  1
  Th  Th5  1  0.294295  0.705705  0.500000  1
  In  In6  1  0.510449  0.510449  0.750000  1
  In  In7  1  0.489551  0.489551  0.250000  1
  In  In8  1  0.811932  0.811932  0.545733  1
  In  In9  1  0.188068  0.188068  0.454267  1
  In  In10  1  0.811932  0.811932  0.954267  1
  In  In11  1  0.188068  0.188068  0.045733  1
  In  In12  1  0.993305  0.567322  0.750000  1
  In  In13  1  0.432678  0.006695  0.250000  1
  In  In14  1  0.006695  0.432678  0.250000  1
  In  In15  1  0.567322  0.993305  0.750000  1
