# generated using pymatgen
data_Er5Os2
_symmetry_space_group_name_H-M   'P 1'
_cell_length_a   6.29090637
_cell_length_b   7.31068836
_cell_length_c   8.35424616
_cell_angle_alpha   96.93792100
_cell_angle_beta   112.11763634
_cell_angle_gamma   89.99999977
_symmetry_Int_Tables_number   1
_chemical_formula_structural   Er5Os2
_chemical_formula_sum   'Er10 Os4'
_cell_volume   352.90660141
_cell_formula_units_Z   2
loop_
 _symmetry_equiv_pos_site_id
 _symmetry_equiv_pos_as_xyz
  1  'x, y, z'
loop_
 _atom_site_type_symbol
 _atom_site_label
 _atom_site_symmetry_multiplicity
 _atom_site_fract_x
 _atom_site_fract_y
 _atom_site_fract_z
 _atom_site_occupancy
  Er  Er0  1  0.792162  0.584188  0.815737  1
  Er  Er1  1  0.976425  0.915812  0.184263  1
  Er  Er2  1  0.207838  0.415812  0.184263  1
  Er  Er3  1  0.023575  0.084188  0.815737  1
  Er  Er4  1  0.204252  0.683882  0.564413  1
  Er  Er5  1  0.639839  0.816118  0.435587  1
  Er  Er6  1  0.795748  0.316118  0.435587  1
  Er  Er7  1  0.360161  0.183882  0.564413  1
  Er  Er8  1  0.419962  0.750000  0.000000  1
  Er  Er9  1  0.580038  0.250000  0.000000  1
  Os  Os10  1  0.602047  0.923282  0.780030  1
  Os  Os11  1  0.822017  0.576718  0.219970  1
  Os  Os12  1  0.397953  0.076718  0.219970  1
  Os  Os13  1  0.177983  0.423282  0.780030  1
