# generated using pymatgen
data_YbCeEuSbO7
_symmetry_space_group_name_H-M   'P 1'
_cell_length_a   6.52415685
_cell_length_b   6.52415662
_cell_length_c   7.65115300
_cell_angle_alpha   90.00000000
_cell_angle_beta   90.00000000
_cell_angle_gamma   110.05873053
_symmetry_Int_Tables_number   1
_chemical_formula_structural   YbCeEuSbO7
_chemical_formula_sum   'Yb2 Ce2 Eu2 Sb2 O14'
_cell_volume   305.91388364
_cell_formula_units_Z   2
loop_
 _symmetry_equiv_pos_site_id
 _symmetry_equiv_pos_as_xyz
  1  'x, y, z'
loop_
 _atom_site_type_symbol
 _atom_site_label
 _atom_site_symmetry_multiplicity
 _atom_site_fract_x
 _atom_site_fract_y
 _atom_site_fract_z
 _atom_site_occupancy
  Yb  Yb0  1  0.531376  0.995295  0.750000  1
  Yb  Yb1  1  0.995295  0.531376  0.250000  1
  Ce  Ce2  1  0.474827  0.997014  0.250000  1
  Ce  Ce3  1  0.997014  0.474827  0.750000  1
  Eu  Eu4  1  0.498763  0.498763  0.500000  1
  Eu  Eu5  1  0.498763  0.498763  0.000000  1
  Sb  Sb6  1  0.003482  0.003482  0.500000  1
  Sb  Sb7  1  0.003482  0.003482  0.000000  1
  O  O8  1  0.681256  0.928414  0.469076  1
  O  O9  1  0.928414  0.681256  0.530924  1
  O  O10  1  0.681256  0.928414  0.030924  1
  O  O11  1  0.928414  0.681256  0.969076  1
  O  O12  1  0.323831  0.070855  0.526489  1
  O  O13  1  0.070855  0.323831  0.473511  1
  O  O14  1  0.323831  0.070855  0.973511  1
  O  O15  1  0.070855  0.323831  0.026489  1
  O  O16  1  0.935420  0.064646  0.750000  1
  O  O17  1  0.064646  0.935420  0.250000  1
  O  O18  1  0.355304  0.619675  0.750000  1
  O  O19  1  0.619675  0.355304  0.250000  1
  O  O20  1  0.646554  0.366686  0.750000  1
  O  O21  1  0.366686  0.646554  0.250000  1
