# generated using pymatgen
data_Pu2ThPaH12
_symmetry_space_group_name_H-M   'P 1'
_cell_length_a   6.72983800
_cell_length_b   6.74503700
_cell_length_c   6.72983800
_cell_angle_alpha   90.00000000
_cell_angle_beta   90.00000000
_cell_angle_gamma   90.00000000
_symmetry_Int_Tables_number   1
_chemical_formula_structural   Pu2ThPaH12
_chemical_formula_sum   'Pu4 Th2 Pa2 H24'
_cell_volume   305.48757883
_cell_formula_units_Z   2
loop_
 _symmetry_equiv_pos_site_id
 _symmetry_equiv_pos_as_xyz
  1  'x, y, z'
loop_
 _atom_site_type_symbol
 _atom_site_label
 _atom_site_symmetry_multiplicity
 _atom_site_fract_x
 _atom_site_fract_y
 _atom_site_fract_z
 _atom_site_occupancy
  Pu  Pu0  1  0.247179  0.000000  0.500000  1
  Pu  Pu1  1  0.752821  0.000000  0.500000  1
  Pu  Pu2  1  0.000000  0.500000  0.252821  1
  Pu  Pu3  1  0.000000  0.500000  0.747179  1
  Th  Th4  1  0.500000  0.750000  0.000000  1
  Th  Th5  1  0.500000  0.250000  0.000000  1
  Pa  Pa6  1  0.000000  0.000000  0.000000  1
  Pa  Pa7  1  0.500000  0.500000  0.500000  1
  H  H8  1  0.000000  0.153209  0.299267  1
  H  H9  1  0.500000  0.200103  0.652029  1
  H  H10  1  0.500000  0.799897  0.347971  1
  H  H11  1  0.799267  0.653209  0.500000  1
  H  H12  1  0.200733  0.653209  0.500000  1
  H  H13  1  0.346102  0.500000  0.799642  1
  H  H14  1  0.653898  0.500000  0.799642  1
  H  H15  1  0.299642  0.000000  0.153898  1
  H  H16  1  0.152029  0.299897  0.000000  1
  H  H17  1  0.847971  0.700103  0.000000  1
  H  H18  1  0.299642  0.000000  0.846102  1
  H  H19  1  0.847971  0.299897  0.000000  1
  H  H20  1  0.700358  0.000000  0.153898  1
  H  H21  1  0.700358  0.000000  0.846102  1
  H  H22  1  0.152029  0.700103  0.000000  1
  H  H23  1  0.000000  0.846791  0.700733  1
  H  H24  1  0.000000  0.153209  0.700733  1
  H  H25  1  0.000000  0.846791  0.299267  1
  H  H26  1  0.653898  0.500000  0.200358  1
  H  H27  1  0.346102  0.500000  0.200358  1
  H  H28  1  0.799267  0.346791  0.500000  1
  H  H29  1  0.200733  0.346791  0.500000  1
  H  H30  1  0.500000  0.799897  0.652029  1
  H  H31  1  0.500000  0.200103  0.347971  1
