# generated using pymatgen
data_Lu5GaSiBi2
_symmetry_space_group_name_H-M   'P 1'
_cell_length_a   8.44565780
_cell_length_b   8.44565668
_cell_length_c   7.76374300
_cell_angle_alpha   89.75249664
_cell_angle_beta   89.75249667
_cell_angle_gamma   125.27770746
_symmetry_Int_Tables_number   1
_chemical_formula_structural   Lu5GaSiBi2
_chemical_formula_sum   'Lu10 Ga2 Si2 Bi4'
_cell_volume   452.06599857
_cell_formula_units_Z   2
loop_
 _symmetry_equiv_pos_site_id
 _symmetry_equiv_pos_as_xyz
  1  'x, y, z'
loop_
 _atom_site_type_symbol
 _atom_site_label
 _atom_site_symmetry_multiplicity
 _atom_site_fract_x
 _atom_site_fract_y
 _atom_site_fract_z
 _atom_site_occupancy
  Lu  Lu0  1  0.042300  0.284302  0.335735  1
  Lu  Lu1  1  0.957700  0.715698  0.664265  1
  Lu  Lu2  1  0.456406  0.210797  0.833849  1
  Lu  Lu3  1  0.789203  0.543594  0.166151  1
  Lu  Lu4  1  0.543594  0.789203  0.166151  1
  Lu  Lu5  1  0.210797  0.456406  0.833849  1
  Lu  Lu6  1  0.715698  0.957700  0.664265  1
  Lu  Lu7  1  0.284302  0.042300  0.335735  1
  Lu  Lu8  1  0.000000  0.000000  0.000000  1
  Lu  Lu9  1  0.500000  0.500000  0.500000  1
  Ga  Ga10  1  0.367523  0.367523  0.132481  1
  Ga  Ga11  1  0.632477  0.632477  0.867519  1
  Si  Si12  1  0.136930  0.136930  0.635542  1
  Si  Si13  1  0.863070  0.863070  0.364458  1
  Bi  Bi14  1  0.792063  0.207937  0.000000  1
  Bi  Bi15  1  0.207937  0.792063  0.000000  1
  Bi  Bi16  1  0.708150  0.291850  0.500000  1
  Bi  Bi17  1  0.291850  0.708150  0.500000  1
