# generated using pymatgen
data_Zr4Nb2Fe16Si7
_symmetry_space_group_name_H-M   'P 1'
_cell_length_a   8.03197441
_cell_length_b   8.05900582
_cell_length_c   8.05900518
_cell_angle_alpha   59.77821602
_cell_angle_beta   60.11089182
_cell_angle_gamma   60.11089456
_symmetry_Int_Tables_number   1
_chemical_formula_structural   Zr4Nb2Fe16Si7
_chemical_formula_sum   'Zr4 Nb2 Fe16 Si7'
_cell_volume   368.85909072
_cell_formula_units_Z   1
loop_
 _symmetry_equiv_pos_site_id
 _symmetry_equiv_pos_as_xyz
  1  'x, y, z'
loop_
 _atom_site_type_symbol
 _atom_site_label
 _atom_site_symmetry_multiplicity
 _atom_site_fract_x
 _atom_site_fract_y
 _atom_site_fract_z
 _atom_site_occupancy
  Zr  Zr0  1  0.795144  0.204856  0.795144  1
  Zr  Zr1  1  0.795144  0.795144  0.204856  1
  Zr  Zr2  1  0.204856  0.795144  0.204856  1
  Zr  Zr3  1  0.204856  0.204856  0.795144  1
  Nb  Nb4  1  0.211064  0.788936  0.788936  1
  Nb  Nb5  1  0.788936  0.211064  0.211064  1
  Fe  Fe6  1  0.863181  0.376600  0.376600  1
  Fe  Fe7  1  0.623400  0.616382  0.136819  1
  Fe  Fe8  1  0.376600  0.383618  0.863181  1
  Fe  Fe9  1  0.824399  0.526168  0.825036  1
  Fe  Fe10  1  0.825036  0.824399  0.824399  1
  Fe  Fe11  1  0.824399  0.825036  0.526168  1
  Fe  Fe12  1  0.383618  0.376600  0.376600  1
  Fe  Fe13  1  0.136819  0.623400  0.623400  1
  Fe  Fe14  1  0.616382  0.623400  0.623400  1
  Fe  Fe15  1  0.174964  0.175601  0.175601  1
  Fe  Fe16  1  0.175601  0.473832  0.174964  1
  Fe  Fe17  1  0.526168  0.824399  0.824399  1
  Fe  Fe18  1  0.623400  0.136819  0.616382  1
  Fe  Fe19  1  0.175601  0.174964  0.473832  1
  Fe  Fe20  1  0.376600  0.863181  0.383618  1
  Fe  Fe21  1  0.473832  0.175601  0.175601  1
  Si  Si22  1  0.500000  0.000000  0.000000  1
  Si  Si23  1  0.000000  0.500000  0.000000  1
  Si  Si24  1  0.500000  0.500000  0.000000  1
  Si  Si25  1  0.500000  0.500000  0.500000  1
  Si  Si26  1  0.000000  0.500000  0.500000  1
  Si  Si27  1  0.000000  0.000000  0.500000  1
  Si  Si28  1  0.500000  0.000000  0.500000  1
