# generated using pymatgen
data_Ho4Lu16(Bi3Te)3
_symmetry_space_group_name_H-M   'P 1'
_cell_length_a   8.09361734
_cell_length_b   9.33926100
_cell_length_c   11.78999100
_cell_angle_alpha   90.00000000
_cell_angle_beta   90.01667843
_cell_angle_gamma   90.00000000
_symmetry_Int_Tables_number   1
_chemical_formula_structural   Ho4Lu16(Bi3Te)3
_chemical_formula_sum   'Ho4 Lu16 Bi9 Te3'
_cell_volume   891.18657453
_cell_formula_units_Z   1
loop_
 _symmetry_equiv_pos_site_id
 _symmetry_equiv_pos_as_xyz
  1  'x, y, z'
loop_
 _atom_site_type_symbol
 _atom_site_label
 _atom_site_symmetry_multiplicity
 _atom_site_fract_x
 _atom_site_fract_y
 _atom_site_fract_z
 _atom_site_occupancy
  Ho  Ho0  1  0.323535  0.250000  0.213981  1
  Ho  Ho1  1  0.818173  0.250000  0.281059  1
  Ho  Ho2  1  0.676498  0.750000  0.785795  1
  Ho  Ho3  1  0.176707  0.750000  0.715611  1
  Lu  Lu4  1  0.357339  0.750000  0.215696  1
  Lu  Lu5  1  0.853698  0.750000  0.281283  1
  Lu  Lu6  1  0.642649  0.250000  0.784309  1
  Lu  Lu7  1  0.149797  0.250000  0.720146  1
  Lu  Lu8  1  0.686153  0.567190  0.058614  1
  Lu  Lu9  1  0.188733  0.930731  0.440085  1
  Lu  Lu10  1  0.314399  0.066493  0.941916  1
  Lu  Lu11  1  0.810624  0.435408  0.560245  1
  Lu  Lu12  1  0.314399  0.433507  0.941916  1
  Lu  Lu13  1  0.810624  0.064592  0.560245  1
  Lu  Lu14  1  0.686153  0.932810  0.058614  1
  Lu  Lu15  1  0.188733  0.569269  0.440085  1
  Lu  Lu16  1  0.480443  0.250000  0.491461  1
  Lu  Lu17  1  0.982861  0.250000  0.009151  1
  Lu  Lu18  1  0.520763  0.750000  0.510830  1
  Lu  Lu19  1  0.018141  0.750000  0.989721  1
  Bi  Bi20  1  0.099208  0.250000  0.459263  1
  Bi  Bi21  1  0.569352  0.995334  0.327219  1
  Bi  Bi22  1  0.069700  0.504964  0.172976  1
  Bi  Bi23  1  0.430605  0.496544  0.674602  1
  Bi  Bi24  1  0.930439  0.004855  0.825579  1
  Bi  Bi25  1  0.430605  0.003456  0.674602  1
  Bi  Bi26  1  0.930439  0.495145  0.825579  1
  Bi  Bi27  1  0.569352  0.504666  0.327219  1
  Bi  Bi28  1  0.069700  0.995036  0.172976  1
  Te  Te29  1  0.395004  0.750000  0.958284  1
  Te  Te30  1  0.899714  0.750000  0.539127  1
  Te  Te31  1  0.605463  0.250000  0.041812  1
