# generated using pymatgen
data_Lu6TlCo2
_symmetry_space_group_name_H-M   'P 1'
_cell_length_a   8.20860434
_cell_length_b   8.20860450
_cell_length_c   8.20860509
_cell_angle_alpha   110.14656475
_cell_angle_beta   106.84704252
_cell_angle_gamma   111.45433267
_symmetry_Int_Tables_number   1
_chemical_formula_structural   Lu6TlCo2
_chemical_formula_sum   'Lu12 Tl2 Co4'
_cell_volume   425.05667035
_cell_formula_units_Z   2
loop_
 _symmetry_equiv_pos_site_id
 _symmetry_equiv_pos_as_xyz
  1  'x, y, z'
loop_
 _atom_site_type_symbol
 _atom_site_label
 _atom_site_symmetry_multiplicity
 _atom_site_fract_x
 _atom_site_fract_y
 _atom_site_fract_z
 _atom_site_occupancy
  Lu  Lu0  1  0.732172  0.284644  0.016817  1
  Lu  Lu1  1  0.211419  0.398420  0.187001  1
  Lu  Lu2  1  0.788581  0.975581  0.187001  1
  Lu  Lu3  1  0.514320  0.197415  0.316906  1
  Lu  Lu4  1  0.119492  0.802587  0.316907  1
  Lu  Lu5  1  0.732172  0.715355  0.447528  1
  Lu  Lu6  1  0.267828  0.284645  0.552473  1
  Lu  Lu7  1  0.880509  0.197415  0.683094  1
  Lu  Lu8  1  0.485680  0.802587  0.683094  1
  Lu  Lu9  1  0.211419  0.024418  0.812999  1
  Lu  Lu10  1  0.788581  0.601579  0.812999  1
  Lu  Lu11  1  0.267828  0.715356  0.983184  1
  Tl  Tl12  1  0.500000  0.500000  0.000000  1
  Tl  Tl13  1  0.000000  0.500000  0.500000  1
  Co  Co14  1  0.114038  0.000000  0.114038  1
  Co  Co15  1  0.500000  0.877347  0.377347  1
  Co  Co16  1  0.500000  0.122653  0.622654  1
  Co  Co17  1  0.885963  0.000000  0.885963  1
