# generated using pymatgen
data_Li3Sm4AlPt4
_symmetry_space_group_name_H-M   'P 1'
_cell_length_a   4.10574500
_cell_length_b   7.14252824
_cell_length_c   8.52051881
_cell_angle_alpha   90.88895078
_cell_angle_beta   90.00000000
_cell_angle_gamma   90.00000000
_symmetry_Int_Tables_number   1
_chemical_formula_structural   Li3Sm4AlPt4
_chemical_formula_sum   'Li3 Sm4 Al1 Pt4'
_cell_volume   249.83754554
_cell_formula_units_Z   1
loop_
 _symmetry_equiv_pos_site_id
 _symmetry_equiv_pos_as_xyz
  1  'x, y, z'
loop_
 _atom_site_type_symbol
 _atom_site_label
 _atom_site_symmetry_multiplicity
 _atom_site_fract_x
 _atom_site_fract_y
 _atom_site_fract_z
 _atom_site_occupancy
  Li  Li0  1  0.250000  0.136568  0.061442  1
  Li  Li1  1  0.250000  0.632780  0.437089  1
  Li  Li2  1  0.750000  0.869459  0.941050  1
  Sm  Sm3  1  0.250000  0.034983  0.688384  1
  Sm  Sm4  1  0.250000  0.538678  0.814198  1
  Sm  Sm5  1  0.750000  0.963787  0.315838  1
  Sm  Sm6  1  0.750000  0.461888  0.183317  1
  Al  Al7  1  0.750000  0.365563  0.560011  1
  Pt  Pt8  1  0.250000  0.259617  0.398904  1
  Pt  Pt9  1  0.250000  0.751280  0.118636  1
  Pt  Pt10  1  0.750000  0.733946  0.610766  1
  Pt  Pt11  1  0.750000  0.251449  0.870363  1
