# generated using pymatgen
data_YHfNb4(B2Ru5)2
_symmetry_space_group_name_H-M   'P 1'
_cell_length_a   9.52196442
_cell_length_b   9.52196400
_cell_length_c   3.07677100
_cell_angle_alpha   90.00000000
_cell_angle_beta   90.00000000
_cell_angle_gamma   90.43134566
_symmetry_Int_Tables_number   1
_chemical_formula_structural   YHfNb4(B2Ru5)2
_chemical_formula_sum   'Y1 Hf1 Nb4 B4 Ru10'
_cell_volume   278.95615962
_cell_formula_units_Z   1
loop_
 _symmetry_equiv_pos_site_id
 _symmetry_equiv_pos_as_xyz
  1  'x, y, z'
loop_
 _atom_site_type_symbol
 _atom_site_label
 _atom_site_symmetry_multiplicity
 _atom_site_fract_x
 _atom_site_fract_y
 _atom_site_fract_z
 _atom_site_occupancy
  Y  Y0  1  0.824185  0.675815  0.000000  1
  Hf  Hf1  1  0.177394  0.322606  0.000000  1
  Nb  Nb2  1  0.324492  0.823981  0.000000  1
  Nb  Nb3  1  0.676019  0.175508  0.000000  1
  Nb  Nb4  1  0.500773  0.500002  0.000000  1
  Nb  Nb5  1  0.999998  0.999227  0.000000  1
  B  B6  1  0.618841  0.881159  0.000000  1
  B  B7  1  0.377753  0.122247  0.000000  1
  B  B8  1  0.123673  0.619888  0.000000  1
  B  B9  1  0.880112  0.376327  0.000000  1
  Ru  Ru10  1  0.558518  0.724453  0.500000  1
  Ru  Ru11  1  0.430410  0.281597  0.500000  1
  Ru  Ru12  1  0.081334  0.783106  0.500000  1
  Ru  Ru13  1  0.926963  0.215304  0.500000  1
  Ru  Ru14  1  0.284696  0.573037  0.500000  1
  Ru  Ru15  1  0.716894  0.418666  0.500000  1
  Ru  Ru16  1  0.218403  0.069590  0.500000  1
  Ru  Ru17  1  0.775547  0.941482  0.500000  1
  Ru  Ru18  1  0.496965  0.003035  0.500000  1
  Ru  Ru19  1  0.007031  0.492969  0.500000  1
