# generated using pymatgen
data_Cs3IrRhBr9
_symmetry_space_group_name_H-M   'P 1'
_cell_length_a   7.73314700
_cell_length_b   7.73314646
_cell_length_c   19.65157700
_cell_angle_alpha   90.00000000
_cell_angle_beta   90.00000000
_cell_angle_gamma   119.99998946
_symmetry_Int_Tables_number   1
_chemical_formula_structural   Cs3IrRhBr9
_chemical_formula_sum   'Cs6 Ir2 Rh2 Br18'
_cell_volume   1017.74877113
_cell_formula_units_Z   2
loop_
 _symmetry_equiv_pos_site_id
 _symmetry_equiv_pos_as_xyz
  1  'x, y, z'
loop_
 _atom_site_type_symbol
 _atom_site_label
 _atom_site_symmetry_multiplicity
 _atom_site_fract_x
 _atom_site_fract_y
 _atom_site_fract_z
 _atom_site_occupancy
  Cs  Cs0  1  0.666667  0.333333  0.932391  1
  Cs  Cs1  1  0.333333  0.666667  0.432391  1
  Cs  Cs2  1  0.666667  0.333333  0.568433  1
  Cs  Cs3  1  0.333333  0.666667  0.068433  1
  Cs  Cs4  1  0.000000  0.000000  0.749686  1
  Cs  Cs5  1  0.000000  0.000000  0.249686  1
  Ir  Ir6  1  0.333333  0.666667  0.666463  1
  Ir  Ir7  1  0.666667  0.333333  0.166463  1
  Rh  Rh8  1  0.666667  0.333333  0.334441  1
  Rh  Rh9  1  0.333333  0.666667  0.834441  1
  Br  Br10  1  0.819902  0.639803  0.405770  1
  Br  Br11  1  0.180098  0.360197  0.905770  1
  Br  Br12  1  0.180098  0.819902  0.905770  1
  Br  Br13  1  0.180013  0.360027  0.594348  1
  Br  Br14  1  0.639803  0.819902  0.905770  1
  Br  Br15  1  0.360197  0.180098  0.405770  1
  Br  Br16  1  0.041185  0.520592  0.749411  1
  Br  Br17  1  0.819902  0.180098  0.405770  1
  Br  Br18  1  0.520592  0.041185  0.249411  1
  Br  Br19  1  0.479408  0.520592  0.749411  1
  Br  Br20  1  0.520592  0.479408  0.249411  1
  Br  Br21  1  0.958815  0.479408  0.249411  1
  Br  Br22  1  0.360027  0.180013  0.094348  1
  Br  Br23  1  0.479408  0.958815  0.749411  1
  Br  Br24  1  0.819987  0.639973  0.094348  1
  Br  Br25  1  0.180013  0.819987  0.594348  1
  Br  Br26  1  0.639973  0.819987  0.594348  1
  Br  Br27  1  0.819987  0.180013  0.094348  1
