# generated using pymatgen
data_DyEr9Ru3Rh
_symmetry_space_group_name_H-M   'P 1'
_cell_length_a   6.29184515
_cell_length_b   7.27128530
_cell_length_c   8.40342907
_cell_angle_alpha   96.79184283
_cell_angle_beta   111.89443092
_cell_angle_gamma   90.06733820
_symmetry_Int_Tables_number   1
_chemical_formula_structural   DyEr9Ru3Rh
_chemical_formula_sum   'Dy1 Er9 Ru3 Rh1'
_cell_volume   353.79412013
_cell_formula_units_Z   1
loop_
 _symmetry_equiv_pos_site_id
 _symmetry_equiv_pos_as_xyz
  1  'x, y, z'
loop_
 _atom_site_type_symbol
 _atom_site_label
 _atom_site_symmetry_multiplicity
 _atom_site_fract_x
 _atom_site_fract_y
 _atom_site_fract_z
 _atom_site_occupancy
  Dy  Dy0  1  0.792924  0.582058  0.814671  1
  Er  Er1  1  0.980338  0.915147  0.188980  1
  Er  Er2  1  0.208254  0.415252  0.186352  1
  Er  Er3  1  0.024103  0.086029  0.814743  1
  Er  Er4  1  0.203509  0.683230  0.563546  1
  Er  Er5  1  0.642647  0.815109  0.432775  1
  Er  Er6  1  0.792903  0.314806  0.434734  1
  Er  Er7  1  0.356674  0.186580  0.563690  1
  Er  Er8  1  0.419281  0.749268  0.000843  1
  Er  Er9  1  0.580213  0.251913  0.001320  1
  Ru  Ru10  1  0.824082  0.576917  0.219890  1
  Ru  Ru11  1  0.396083  0.075569  0.220884  1
  Ru  Ru12  1  0.177780  0.423901  0.779378  1
  Rh  Rh13  1  0.601210  0.924221  0.778195  1
