# generated using pymatgen
data_Zr2SnPd(SeO3)8
_symmetry_space_group_name_H-M   'P 1'
_cell_length_a   8.48049194
_cell_length_b   8.54949667
_cell_length_c   8.33943724
_cell_angle_alpha   89.94725049
_cell_angle_beta   89.83390697
_cell_angle_gamma   89.15244347
_symmetry_Int_Tables_number   1
_chemical_formula_structural   Zr2SnPd(SeO3)8
_chemical_formula_sum   'Zr2 Sn1 Pd1 Se8 O24'
_cell_volume   604.57311031
_cell_formula_units_Z   1
loop_
 _symmetry_equiv_pos_site_id
 _symmetry_equiv_pos_as_xyz
  1  'x, y, z'
loop_
 _atom_site_type_symbol
 _atom_site_label
 _atom_site_symmetry_multiplicity
 _atom_site_fract_x
 _atom_site_fract_y
 _atom_site_fract_z
 _atom_site_occupancy
  Zr  Zr0  1  0.500000  0.000000  0.500000  1
  Zr  Zr1  1  0.000000  0.000000  0.000000  1
  Sn  Sn2  1  0.000000  0.500000  0.500000  1
  Pd  Pd3  1  0.500000  0.500000  0.000000  1
  Se  Se4  1  0.830730  0.188581  0.664565  1
  Se  Se5  1  0.169270  0.811419  0.335435  1
  Se  Se6  1  0.678091  0.652742  0.698831  1
  Se  Se7  1  0.195054  0.655394  0.822260  1
  Se  Se8  1  0.336746  0.204838  0.836959  1
  Se  Se9  1  0.804946  0.344606  0.177740  1
  Se  Se10  1  0.663254  0.795162  0.163041  1
  Se  Se11  1  0.321909  0.347258  0.301169  1
  O  O12  1  0.240233  0.469780  0.447702  1
  O  O13  1  0.923971  0.228220  0.059849  1
  O  O14  1  0.021688  0.737857  0.460358  1
  O  O15  1  0.475977  0.265056  0.980660  1
  O  O16  1  0.266729  0.921833  0.474424  1
  O  O17  1  0.529521  0.522694  0.759330  1
  O  O18  1  0.939837  0.045400  0.759749  1
  O  O19  1  0.524023  0.734944  0.019340  1
  O  O20  1  0.547848  0.931656  0.262240  1
  O  O21  1  0.452152  0.068344  0.737760  1
  O  O22  1  0.770621  0.916119  0.041893  1
  O  O23  1  0.263222  0.524094  0.970950  1
  O  O24  1  0.053016  0.532702  0.743648  1
  O  O25  1  0.060163  0.954600  0.240251  1
  O  O26  1  0.229379  0.083881  0.958107  1
  O  O27  1  0.470479  0.477306  0.240670  1
  O  O28  1  0.759767  0.530220  0.552298  1
  O  O29  1  0.946984  0.467298  0.256352  1
  O  O30  1  0.076029  0.771780  0.940151  1
  O  O31  1  0.431692  0.225512  0.421393  1
  O  O32  1  0.568308  0.774488  0.578607  1
  O  O33  1  0.978312  0.262143  0.539642  1
  O  O34  1  0.733271  0.078167  0.525576  1
  O  O35  1  0.736778  0.475906  0.029050  1
