# generated using pymatgen
data_Y8Si12AgIr3
_symmetry_space_group_name_H-M   'P 1'
_cell_length_a   8.21357100
_cell_length_b   8.21356976
_cell_length_c   7.97066500
_cell_angle_alpha   90.00000000
_cell_angle_beta   90.00000000
_cell_angle_gamma   120.00000096
_symmetry_Int_Tables_number   1
_chemical_formula_structural   Y8Si12AgIr3
_chemical_formula_sum   'Y8 Si12 Ag1 Ir3'
_cell_volume   465.68167647
_cell_formula_units_Z   1
loop_
 _symmetry_equiv_pos_site_id
 _symmetry_equiv_pos_as_xyz
  1  'x, y, z'
loop_
 _atom_site_type_symbol
 _atom_site_label
 _atom_site_symmetry_multiplicity
 _atom_site_fract_x
 _atom_site_fract_y
 _atom_site_fract_z
 _atom_site_occupancy
  Y  Y0  1  0.513259  0.026518  0.244598  1
  Y  Y1  1  0.492463  0.984925  0.753304  1
  Y  Y2  1  0.973482  0.486741  0.244598  1
  Y  Y3  1  0.015075  0.507537  0.753304  1
  Y  Y4  1  0.513259  0.486741  0.244598  1
  Y  Y5  1  0.492463  0.507537  0.753304  1
  Y  Y6  1  0.000000  0.000000  0.250928  1
  Y  Y7  1  0.000000  0.000000  0.753398  1
  Si  Si8  1  0.167233  0.334467  0.004424  1
  Si  Si9  1  0.833929  0.667858  0.996652  1
  Si  Si10  1  0.665533  0.832767  0.004424  1
  Si  Si11  1  0.831336  0.662672  0.499683  1
  Si  Si12  1  0.332142  0.166071  0.996652  1
  Si  Si13  1  0.160540  0.321081  0.504183  1
  Si  Si14  1  0.167233  0.832767  0.004424  1
  Si  Si15  1  0.337328  0.168664  0.499683  1
  Si  Si16  1  0.833929  0.166071  0.996652  1
  Si  Si17  1  0.678919  0.839460  0.504183  1
  Si  Si18  1  0.831336  0.168664  0.499683  1
  Si  Si19  1  0.160540  0.839460  0.504183  1
  Ag  Ag20  1  0.333333  0.666667  0.455455  1
  Ir  Ir21  1  0.333333  0.666667  0.024528  1
  Ir  Ir22  1  0.666667  0.333333  0.967251  1
  Ir  Ir23  1  0.666667  0.333333  0.539910  1
