# generated using pymatgen
data_RbNa(ReO4)2
_symmetry_space_group_name_H-M   'P 1'
_cell_length_a   6.11110800
_cell_length_b   6.11110770
_cell_length_c   8.03021500
_cell_angle_alpha   90.00000000
_cell_angle_beta   90.00000000
_cell_angle_gamma   119.99999082
_symmetry_Int_Tables_number   1
_chemical_formula_structural   RbNa(ReO4)2
_chemical_formula_sum   'Rb1 Na1 Re2 O8'
_cell_volume   259.71542346
_cell_formula_units_Z   1
loop_
 _symmetry_equiv_pos_site_id
 _symmetry_equiv_pos_as_xyz
  1  'x, y, z'
loop_
 _atom_site_type_symbol
 _atom_site_label
 _atom_site_symmetry_multiplicity
 _atom_site_fract_x
 _atom_site_fract_y
 _atom_site_fract_z
 _atom_site_occupancy
  Rb  Rb0  1  0.000000  0.000000  0.500000  1
  Na  Na1  1  0.000000  0.000000  0.000000  1
  Re  Re2  1  0.333333  0.666667  0.257154  1
  Re  Re3  1  0.666667  0.333333  0.742846  1
  O  O4  1  0.823616  0.176384  0.813137  1
  O  O5  1  0.823616  0.647231  0.813137  1
  O  O6  1  0.352769  0.176384  0.813137  1
  O  O7  1  0.647231  0.823616  0.186863  1
  O  O8  1  0.333333  0.666667  0.475492  1
  O  O9  1  0.666667  0.333333  0.524508  1
  O  O10  1  0.176384  0.352769  0.186863  1
  O  O11  1  0.176384  0.823616  0.186863  1
