# generated using pymatgen
data_Yb2YPa(B4Os)4
_symmetry_space_group_name_H-M   'P 1'
_cell_length_a   3.57458400
_cell_length_b   5.97213913
_cell_length_c   11.53797402
_cell_angle_alpha   89.99129363
_cell_angle_beta   90.00000000
_cell_angle_gamma   90.00000000
_symmetry_Int_Tables_number   1
_chemical_formula_structural   Yb2YPa(B4Os)4
_chemical_formula_sum   'Yb2 Y1 Pa1 B16 Os4'
_cell_volume   246.31166230
_cell_formula_units_Z   1
loop_
 _symmetry_equiv_pos_site_id
 _symmetry_equiv_pos_as_xyz
  1  'x, y, z'
loop_
 _atom_site_type_symbol
 _atom_site_label
 _atom_site_symmetry_multiplicity
 _atom_site_fract_x
 _atom_site_fract_y
 _atom_site_fract_z
 _atom_site_occupancy
  Yb  Yb0  1  0.000000  0.627738  0.853584  1
  Yb  Yb1  1  0.000000  0.371291  0.148778  1
  Y  Y2  1  0.000000  0.871422  0.347138  1
  Pa  Pa3  1  0.000000  0.128843  0.652208  1
  B  B4  1  0.500000  0.472426  0.691170  1
  B  B5  1  0.500000  0.524840  0.307789  1
  B  B6  1  0.500000  0.975981  0.809665  1
  B  B7  1  0.500000  0.025655  0.190546  1
  B  B8  1  0.500000  0.288138  0.814712  1
  B  B9  1  0.500000  0.711055  0.184120  1
  B  B10  1  0.500000  0.789502  0.685915  1
  B  B11  1  0.500000  0.215030  0.312465  1
  B  B12  1  0.500000  0.362634  0.970059  1
  B  B13  1  0.500000  0.635939  0.029658  1
  B  B14  1  0.500000  0.865199  0.530888  1
  B  B15  1  0.500000  0.136649  0.468998  1
  B  B16  1  0.500000  0.388757  0.546080  1
  B  B17  1  0.500000  0.611604  0.451541  1
  B  B18  1  0.500000  0.885307  0.954401  1
  B  B19  1  0.500000  0.112961  0.046326  1
  Os  Os20  1  0.000000  0.138131  0.906405  1
  Os  Os21  1  0.000000  0.861249  0.091900  1
  Os  Os22  1  0.000000  0.642827  0.595709  1
  Os  Os23  1  0.000000  0.356824  0.409947  1
