# generated using pymatgen
data_Ho2Tm10GaCo4Ru
_symmetry_space_group_name_H-M   'P 1'
_cell_length_a   8.13644975
_cell_length_b   8.13638986
_cell_length_c   8.13635910
_cell_angle_alpha   106.59583546
_cell_angle_beta   110.82299015
_cell_angle_gamma   111.03195457
_symmetry_Int_Tables_number   1
_chemical_formula_structural   Ho2Tm10GaCo4Ru
_chemical_formula_sum   'Ho2 Tm10 Ga1 Co4 Ru1'
_cell_volume   413.86729931
_cell_formula_units_Z   1
loop_
 _symmetry_equiv_pos_site_id
 _symmetry_equiv_pos_as_xyz
  1  'x, y, z'
loop_
 _atom_site_type_symbol
 _atom_site_label
 _atom_site_symmetry_multiplicity
 _atom_site_fract_x
 _atom_site_fract_y
 _atom_site_fract_z
 _atom_site_occupancy
  Ho  Ho0  1  0.035626  0.219625  0.816019  1
  Ho  Ho1  1  0.403620  0.219624  0.184010  1
  Tm  Tm2  1  0.692954  0.273995  0.966765  1
  Tm  Tm3  1  0.307199  0.726154  0.033160  1
  Tm  Tm4  1  0.692979  0.726212  0.418976  1
  Tm  Tm5  1  0.307191  0.274022  0.581051  1
  Tm  Tm6  1  0.804212  0.120261  0.316043  1
  Tm  Tm7  1  0.804263  0.488252  0.683990  1
  Tm  Tm8  1  0.196074  0.879161  0.683116  1
  Tm  Tm9  1  0.196106  0.513010  0.316928  1
  Tm  Tm10  1  0.596618  0.779430  0.817146  1
  Tm  Tm11  1  0.962284  0.779432  0.182810  1
  Ga  Ga12  1  0.499907  0.999899  0.499993  1
  Co  Co13  1  0.873661  0.500376  0.373286  1
  Co  Co14  1  0.127127  0.500377  0.626749  1
  Co  Co15  1  0.999225  0.112414  0.113177  1
  Co  Co16  1  0.999220  0.886032  0.886788  1
  Ru  Ru17  1  0.501737  0.501725  0.999997  1
