# generated using pymatgen
data_Pr19Nd(IrRh)6
_symmetry_space_group_name_H-M   'P 1'
_cell_length_a   11.30592387
_cell_length_b   11.30468206
_cell_length_c   6.67607614
_cell_angle_alpha   89.98877705
_cell_angle_beta   89.93406435
_cell_angle_gamma   90.00163882
_symmetry_Int_Tables_number   1
_chemical_formula_structural   Pr19Nd(IrRh)6
_chemical_formula_sum   'Pr19 Nd1 Ir6 Rh6'
_cell_volume   853.26787301
_cell_formula_units_Z   1
loop_
 _symmetry_equiv_pos_site_id
 _symmetry_equiv_pos_as_xyz
  1  'x, y, z'
loop_
 _atom_site_type_symbol
 _atom_site_label
 _atom_site_symmetry_multiplicity
 _atom_site_fract_x
 _atom_site_fract_y
 _atom_site_fract_z
 _atom_site_occupancy
  Pr  Pr0  1  0.089082  0.290645  0.114908  1
  Pr  Pr1  1  0.791273  0.408867  0.114640  1
  Pr  Pr2  1  0.208150  0.591143  0.114615  1
  Pr  Pr3  1  0.907202  0.708131  0.114382  1
  Pr  Pr4  1  0.410818  0.790921  0.385074  1
  Pr  Pr5  1  0.592984  0.207907  0.385622  1
  Pr  Pr6  1  0.291487  0.090961  0.385513  1
  Pr  Pr7  1  0.709141  0.909011  0.385553  1
  Pr  Pr8  1  0.409826  0.208040  0.883642  1
  Pr  Pr9  1  0.708964  0.090831  0.884922  1
  Pr  Pr10  1  0.292071  0.909692  0.883407  1
  Pr  Pr11  1  0.591136  0.791609  0.884644  1
  Pr  Pr12  1  0.090089  0.708420  0.616062  1
  Pr  Pr13  1  0.909040  0.291212  0.615178  1
  Pr  Pr14  1  0.207729  0.409585  0.616552  1
  Pr  Pr15  1  0.791334  0.590928  0.615042  1
  Pr  Pr16  1  0.999924  0.999737  0.000178  1
  Pr  Pr17  1  0.499986  0.500380  0.000145  1
  Pr  Pr18  1  0.500145  0.499734  0.499832  1
  Nd  Nd19  1  0.999892  0.000471  0.499998  1
  Ir  Ir20  1  0.653910  0.654151  0.249946  1
  Ir  Ir21  1  0.846645  0.153572  0.250634  1
  Ir  Ir22  1  0.346053  0.653786  0.750178  1
  Ir  Ir23  1  0.153400  0.153283  0.749165  1
  Ir  Ir24  1  0.847283  0.846886  0.749407  1
  Ir  Ir25  1  0.653295  0.346393  0.749968  1
  Rh  Rh26  1  0.153747  0.846675  0.251082  1
  Rh  Rh27  1  0.345467  0.345841  0.249862  1
  Rh  Rh28  1  0.001400  0.500476  0.379868  1
  Rh  Rh29  1  0.498560  0.000613  0.120035  1
  Rh  Rh30  1  0.499257  0.000061  0.619161  1
  Rh  Rh31  1  0.000713  0.500039  0.880784  1
