# generated using pymatgen
data_Dy5Tc3(P3Ir4)4
_symmetry_space_group_name_H-M   'P 1'
_cell_length_a   12.66848200
_cell_length_b   12.66848266
_cell_length_c   3.98520000
_cell_angle_alpha   90.00000000
_cell_angle_beta   90.00000000
_cell_angle_gamma   119.99999828
_symmetry_Int_Tables_number   1
_chemical_formula_structural   Dy5Tc3(P3Ir4)4
_chemical_formula_sum   'Dy5 Tc3 P12 Ir16'
_cell_volume   553.89818344
_cell_formula_units_Z   1
loop_
 _symmetry_equiv_pos_site_id
 _symmetry_equiv_pos_as_xyz
  1  'x, y, z'
loop_
 _atom_site_type_symbol
 _atom_site_label
 _atom_site_symmetry_multiplicity
 _atom_site_fract_x
 _atom_site_fract_y
 _atom_site_fract_z
 _atom_site_occupancy
  Dy  Dy0  1  0.333333  0.666667  0.500000  1
  Dy  Dy1  1  0.666667  0.333333  0.500000  1
  Dy  Dy2  1  0.000000  0.816985  0.000000  1
  Dy  Dy3  1  0.183015  0.183015  0.000000  1
  Dy  Dy4  1  0.816985  0.000000  0.000000  1
  Tc  Tc5  1  0.000000  0.454935  0.500000  1
  Tc  Tc6  1  0.545065  0.545065  0.500000  1
  Tc  Tc7  1  0.454935  0.000000  0.500000  1
  P  P8  1  0.000000  0.638487  0.500000  1
  P  P9  1  0.361513  0.361513  0.500000  1
  P  P10  1  0.638487  0.000000  0.500000  1
  P  P11  1  0.515679  0.685327  0.000000  1
  P  P12  1  0.314673  0.830352  0.000000  1
  P  P13  1  0.169648  0.484321  0.000000  1
  P  P14  1  0.484321  0.169648  0.000000  1
  P  P15  1  0.685327  0.515679  0.000000  1
  P  P16  1  0.830352  0.314673  0.000000  1
  P  P17  1  0.000000  0.176291  0.500000  1
  P  P18  1  0.823709  0.823709  0.500000  1
  P  P19  1  0.176291  0.000000  0.500000  1
  Ir  Ir20  1  0.509838  0.868407  0.000000  1
  Ir  Ir21  1  0.131593  0.641432  0.000000  1
  Ir  Ir22  1  0.358568  0.490162  0.000000  1
  Ir  Ir23  1  0.490162  0.358568  0.000000  1
  Ir  Ir24  1  0.868407  0.509838  0.000000  1
  Ir  Ir25  1  0.641432  0.131593  0.000000  1
  Ir  Ir26  1  0.000000  0.290773  0.000000  1
  Ir  Ir27  1  0.709227  0.709227  0.000000  1
  Ir  Ir28  1  0.290773  0.000000  0.000000  1
  Ir  Ir29  1  0.626487  0.805699  0.500000  1
  Ir  Ir30  1  0.194301  0.820788  0.500000  1
  Ir  Ir31  1  0.179212  0.373513  0.500000  1
  Ir  Ir32  1  0.373513  0.179212  0.500000  1
  Ir  Ir33  1  0.805699  0.626487  0.500000  1
  Ir  Ir34  1  0.820788  0.194301  0.500000  1
  Ir  Ir35  1  0.000000  0.000000  0.500000  1
