# generated using pymatgen
data_Lu10Tl4CuSiPb2
_symmetry_space_group_name_H-M   'P 1'
_cell_length_a   8.98997030
_cell_length_b   8.98997000
_cell_length_c   6.57614525
_cell_angle_alpha   89.98395082
_cell_angle_beta   89.98394460
_cell_angle_gamma   119.66588667
_symmetry_Int_Tables_number   1
_chemical_formula_structural   Lu10Tl4CuSiPb2
_chemical_formula_sum   'Lu10 Tl4 Cu1 Si1 Pb2'
_cell_volume   461.81793786
_cell_formula_units_Z   1
loop_
 _symmetry_equiv_pos_site_id
 _symmetry_equiv_pos_as_xyz
  1  'x, y, z'
loop_
 _atom_site_type_symbol
 _atom_site_label
 _atom_site_symmetry_multiplicity
 _atom_site_fract_x
 _atom_site_fract_y
 _atom_site_fract_z
 _atom_site_occupancy
  Lu  Lu0  1  0.250397  0.999495  0.743863  1
  Lu  Lu1  1  0.749603  0.000505  0.256137  1
  Lu  Lu2  1  0.999495  0.250397  0.743863  1
  Lu  Lu3  1  0.000505  0.749603  0.256137  1
  Lu  Lu4  1  0.750350  0.750350  0.743388  1
  Lu  Lu5  1  0.249650  0.249650  0.256612  1
  Lu  Lu6  1  0.332831  0.667169  0.500000  1
  Lu  Lu7  1  0.667169  0.332831  0.500000  1
  Lu  Lu8  1  0.667369  0.332631  0.000000  1
  Lu  Lu9  1  0.332631  0.667369  0.000000  1
  Tl  Tl10  1  0.602660  0.999513  0.750873  1
  Tl  Tl11  1  0.397340  0.000487  0.249127  1
  Tl  Tl12  1  0.999513  0.602660  0.750873  1
  Tl  Tl13  1  0.000487  0.397340  0.249127  1
  Cu  Cu14  1  0.000000  0.000000  0.000000  1
  Si  Si15  1  0.000000  0.000000  0.500000  1
  Pb  Pb16  1  0.394635  0.394635  0.749449  1
  Pb  Pb17  1  0.605365  0.605365  0.250551  1
