# generated using pymatgen
data_Hf6OsPb2
_symmetry_space_group_name_H-M   'P 1'
_cell_length_a   8.11709000
_cell_length_b   8.11709037
_cell_length_c   3.49619200
_cell_angle_alpha   90.00000000
_cell_angle_beta   90.00000000
_cell_angle_gamma   120.00000662
_symmetry_Int_Tables_number   1
_chemical_formula_structural   Hf6OsPb2
_chemical_formula_sum   'Hf6 Os1 Pb2'
_cell_volume   199.49252171
_cell_formula_units_Z   1
loop_
 _symmetry_equiv_pos_site_id
 _symmetry_equiv_pos_as_xyz
  1  'x, y, z'
loop_
 _atom_site_type_symbol
 _atom_site_label
 _atom_site_symmetry_multiplicity
 _atom_site_fract_x
 _atom_site_fract_y
 _atom_site_fract_z
 _atom_site_occupancy
  Hf  Hf0  1  0.620942  0.000000  0.000000  1
  Hf  Hf1  1  0.379058  0.379057  0.000000  1
  Hf  Hf2  1  0.000000  0.620941  0.000000  1
  Hf  Hf3  1  0.248883  0.000000  0.499999  1
  Hf  Hf4  1  0.000000  0.248882  0.499999  1
  Hf  Hf5  1  0.751116  0.751117  0.499999  1
  Os  Os6  1  0.000000  0.000000  0.000000  1
  Pb  Pb7  1  0.666667  0.333334  0.499999  1
  Pb  Pb8  1  0.333333  0.666666  0.499999  1
