# generated using pymatgen
data_SrGa10Pt(PbO10)2
_symmetry_space_group_name_H-M   'P 1'
_cell_length_a   9.88226788
_cell_length_b   9.88226920
_cell_length_c   5.26545143
_cell_angle_alpha   74.81278892
_cell_angle_beta   74.81277311
_cell_angle_gamma   73.86316022
_symmetry_Int_Tables_number   1
_chemical_formula_structural   SrGa10Pt(PbO10)2
_chemical_formula_sum   'Sr1 Ga10 Pt1 Pb2 O20'
_cell_volume   466.67892644
_cell_formula_units_Z   1
loop_
 _symmetry_equiv_pos_site_id
 _symmetry_equiv_pos_as_xyz
  1  'x, y, z'
loop_
 _atom_site_type_symbol
 _atom_site_label
 _atom_site_symmetry_multiplicity
 _atom_site_fract_x
 _atom_site_fract_y
 _atom_site_fract_z
 _atom_site_occupancy
  Sr  Sr0  1  0.000000  0.000000  0.000000  1
  Ga  Ga1  1  0.636648  0.363352  0.500000  1
  Ga  Ga2  1  0.363352  0.636648  0.500000  1
  Ga  Ga3  1  0.279540  0.008163  0.373690  1
  Ga  Ga4  1  0.991837  0.720460  0.626310  1
  Ga  Ga5  1  0.720460  0.991837  0.626310  1
  Ga  Ga6  1  0.008163  0.279540  0.373690  1
  Ga  Ga7  1  0.580868  0.147569  0.106794  1
  Ga  Ga8  1  0.852431  0.419132  0.893206  1
  Ga  Ga9  1  0.419132  0.852431  0.893206  1
  Ga  Ga10  1  0.147569  0.580868  0.106794  1
  Pt  Pt11  1  0.500000  0.500000  0.000000  1
  Pb  Pb12  1  0.724116  0.724116  0.210021  1
  Pb  Pb13  1  0.275884  0.275884  0.789979  1
  O  O14  1  0.567210  0.567210  0.268157  1
  O  O15  1  0.432790  0.432790  0.731843  1
  O  O16  1  0.097634  0.097634  0.302420  1
  O  O17  1  0.902366  0.902366  0.697580  1
  O  O18  1  0.397347  0.123851  0.133398  1
  O  O19  1  0.876149  0.602653  0.866602  1
  O  O20  1  0.602653  0.876149  0.866602  1
  O  O21  1  0.123851  0.397347  0.133398  1
  O  O22  1  0.336939  0.830380  0.264221  1
  O  O23  1  0.169620  0.663061  0.735779  1
  O  O24  1  0.663061  0.169620  0.735779  1
  O  O25  1  0.830380  0.336939  0.264221  1
  O  O26  1  0.991314  0.278753  0.732918  1
  O  O27  1  0.721247  0.008686  0.267082  1
  O  O28  1  0.008686  0.721247  0.267082  1
  O  O29  1  0.278753  0.991314  0.732918  1
  O  O30  1  0.691000  0.451168  0.744390  1
  O  O31  1  0.548832  0.309000  0.255610  1
  O  O32  1  0.309000  0.548832  0.255610  1
  O  O33  1  0.451168  0.691000  0.744390  1
