# generated using pymatgen
data_V14TcPd
_symmetry_space_group_name_H-M   'P 1'
_cell_length_a   6.00055700
_cell_length_b   6.00493700
_cell_length_c   6.00493700
_cell_angle_alpha   90.00000000
_cell_angle_beta   90.00000000
_cell_angle_gamma   90.00000000
_symmetry_Int_Tables_number   1
_chemical_formula_structural   V14TcPd
_chemical_formula_sum   'V14 Tc1 Pd1'
_cell_volume   216.37569526
_cell_formula_units_Z   1
loop_
 _symmetry_equiv_pos_site_id
 _symmetry_equiv_pos_as_xyz
  1  'x, y, z'
loop_
 _atom_site_type_symbol
 _atom_site_label
 _atom_site_symmetry_multiplicity
 _atom_site_fract_x
 _atom_site_fract_y
 _atom_site_fract_z
 _atom_site_occupancy
  V  V0  1  0.000000  0.500001  0.000000  1
  V  V1  1  0.500001  0.500001  0.000000  1
  V  V2  1  0.254804  0.254521  0.254521  1
  V  V3  1  0.745196  0.254521  0.254521  1
  V  V4  1  0.254804  0.745479  0.254521  1
  V  V5  1  0.745196  0.745479  0.254521  1
  V  V6  1  0.000000  0.000000  0.500001  1
  V  V7  1  0.500001  0.000000  0.500001  1
  V  V8  1  0.000000  0.500001  0.500001  1
  V  V9  1  0.500001  0.500001  0.500001  1
  V  V10  1  0.254804  0.254521  0.745479  1
  V  V11  1  0.745196  0.254521  0.745479  1
  V  V12  1  0.254804  0.745479  0.745479  1
  V  V13  1  0.745196  0.745479  0.745479  1
  Tc  Tc14  1  0.500001  0.000000  0.000000  1
  Pd  Pd15  1  0.000000  0.000000  0.000000  1
