# generated using pymatgen
data_Nd19Tm(IrPt2)4
_symmetry_space_group_name_H-M   'P 1'
_cell_length_a   11.43932100
_cell_length_b   11.43932100
_cell_length_c   6.52460000
_cell_angle_alpha   90.00000000
_cell_angle_beta   90.00000000
_cell_angle_gamma   90.00000000
_symmetry_Int_Tables_number   1
_chemical_formula_structural   Nd19Tm(IrPt2)4
_chemical_formula_sum   'Nd19 Tm1 Ir4 Pt8'
_cell_volume   853.79653051
_cell_formula_units_Z   1
loop_
 _symmetry_equiv_pos_site_id
 _symmetry_equiv_pos_as_xyz
  1  'x, y, z'
loop_
 _atom_site_type_symbol
 _atom_site_label
 _atom_site_symmetry_multiplicity
 _atom_site_fract_x
 _atom_site_fract_y
 _atom_site_fract_z
 _atom_site_occupancy
  Nd  Nd0  1  0.295387  0.088807  0.372544  1
  Nd  Nd1  1  0.295609  0.911076  0.872455  1
  Nd  Nd2  1  0.704391  0.088924  0.872455  1
  Nd  Nd3  1  0.704613  0.911193  0.372544  1
  Nd  Nd4  1  0.588464  0.793610  0.873061  1
  Nd  Nd5  1  0.588290  0.206888  0.374605  1
  Nd  Nd6  1  0.411710  0.793112  0.374605  1
  Nd  Nd7  1  0.411536  0.206390  0.873061  1
  Nd  Nd8  1  0.206888  0.411710  0.625395  1
  Nd  Nd9  1  0.206390  0.588464  0.126939  1
  Nd  Nd10  1  0.793610  0.411536  0.126939  1
  Nd  Nd11  1  0.793112  0.588290  0.625395  1
  Nd  Nd12  1  0.911076  0.704391  0.127545  1
  Nd  Nd13  1  0.911193  0.295387  0.627456  1
  Nd  Nd14  1  0.088807  0.704613  0.627456  1
  Nd  Nd15  1  0.088924  0.295609  0.127545  1
  Nd  Nd16  1  0.000000  0.000000  0.500000  1
  Nd  Nd17  1  0.000000  0.000000  0.000000  1
  Nd  Nd18  1  0.500000  0.500000  0.000000  1
  Tm  Tm19  1  0.500000  0.500000  0.500000  1
  Ir  Ir20  1  0.500000  0.000000  0.114078  1
  Ir  Ir21  1  0.500000  0.000000  0.614229  1
  Ir  Ir22  1  0.000000  0.500000  0.885922  1
  Ir  Ir23  1  0.000000  0.500000  0.385771  1
  Pt  Pt24  1  0.846050  0.154366  0.249778  1
  Pt  Pt25  1  0.845634  0.846050  0.750222  1
  Pt  Pt26  1  0.154366  0.153950  0.750222  1
  Pt  Pt27  1  0.153950  0.845634  0.249778  1
  Pt  Pt28  1  0.650352  0.351116  0.743099  1
  Pt  Pt29  1  0.648884  0.650352  0.256901  1
  Pt  Pt30  1  0.351116  0.349648  0.256901  1
  Pt  Pt31  1  0.349648  0.648884  0.743099  1
