# generated using pymatgen
data_DyY2AuO7
_symmetry_space_group_name_H-M   'P 1'
_cell_length_a   6.50308300
_cell_length_b   6.50696076
_cell_length_c   7.45381900
_cell_angle_alpha   90.00000000
_cell_angle_beta   90.00000000
_cell_angle_gamma   108.87162613
_symmetry_Int_Tables_number   1
_chemical_formula_structural   DyY2AuO7
_chemical_formula_sum   'Dy2 Y4 Au2 O14'
_cell_volume   298.45593872
_cell_formula_units_Z   2
loop_
 _symmetry_equiv_pos_site_id
 _symmetry_equiv_pos_as_xyz
  1  'x, y, z'
loop_
 _atom_site_type_symbol
 _atom_site_label
 _atom_site_symmetry_multiplicity
 _atom_site_fract_x
 _atom_site_fract_y
 _atom_site_fract_z
 _atom_site_occupancy
  Dy  Dy0  1  0.471075  0.002199  0.250000  1
  Dy  Dy1  1  0.528925  0.997801  0.750000  1
  Y  Y2  1  0.002506  0.471581  0.750000  1
  Y  Y3  1  0.500000  0.500000  0.000000  1
  Y  Y4  1  0.997494  0.528419  0.250000  1
  Y  Y5  1  0.500000  0.500000  0.500000  1
  Au  Au6  1  0.000000  0.000000  0.000000  1
  Au  Au7  1  0.000000  0.000000  0.500000  1
  O  O8  1  0.081623  0.329376  0.475509  1
  O  O9  1  0.920169  0.079155  0.750000  1
  O  O10  1  0.081623  0.329376  0.024491  1
  O  O11  1  0.918377  0.670624  0.524491  1
  O  O12  1  0.638567  0.360805  0.750000  1
  O  O13  1  0.670241  0.918766  0.475343  1
  O  O14  1  0.329759  0.081234  0.524657  1
  O  O15  1  0.329759  0.081234  0.975343  1
  O  O16  1  0.670241  0.918766  0.024657  1
  O  O17  1  0.918377  0.670624  0.975509  1
  O  O18  1  0.631664  0.367800  0.250000  1
  O  O19  1  0.361433  0.639195  0.250000  1
  O  O20  1  0.368336  0.632200  0.750000  1
  O  O21  1  0.079831  0.920845  0.250000  1
