# generated using pymatgen
data_Lu2GaB2Ru3Rh2
_symmetry_space_group_name_H-M   'P 1'
_cell_length_a   9.51643000
_cell_length_b   9.51643000
_cell_length_c   3.08290100
_cell_angle_alpha   90.00000000
_cell_angle_beta   90.00000000
_cell_angle_gamma   90.00000000
_symmetry_Int_Tables_number   1
_chemical_formula_structural   Lu2GaB2Ru3Rh2
_chemical_formula_sum   'Lu4 Ga2 B4 Ru6 Rh4'
_cell_volume   279.19503667
_cell_formula_units_Z   2
loop_
 _symmetry_equiv_pos_site_id
 _symmetry_equiv_pos_as_xyz
  1  'x, y, z'
loop_
 _atom_site_type_symbol
 _atom_site_label
 _atom_site_symmetry_multiplicity
 _atom_site_fract_x
 _atom_site_fract_y
 _atom_site_fract_z
 _atom_site_occupancy
  Lu  Lu0  1  0.825513  0.323440  0.000000  1
  Lu  Lu1  1  0.323440  0.174487  0.000000  1
  Lu  Lu2  1  0.676560  0.825513  0.000000  1
  Lu  Lu3  1  0.174487  0.676560  0.000000  1
  Ga  Ga4  1  0.000000  0.000000  0.000000  1
  Ga  Ga5  1  0.500000  0.500000  0.000000  1
  B  B6  1  0.626517  0.116970  0.000000  1
  B  B7  1  0.116970  0.373483  0.000000  1
  B  B8  1  0.883030  0.626517  0.000000  1
  B  B9  1  0.373483  0.883030  0.000000  1
  Ru  Ru10  1  0.069485  0.216697  0.500000  1
  Ru  Ru11  1  0.216697  0.930515  0.500000  1
  Ru  Ru12  1  0.783303  0.069485  0.500000  1
  Ru  Ru13  1  0.930515  0.783303  0.500000  1
  Ru  Ru14  1  0.500000  0.000000  0.500000  1
  Ru  Ru15  1  0.000000  0.500000  0.500000  1
  Rh  Rh16  1  0.430058  0.716474  0.500000  1
  Rh  Rh17  1  0.569942  0.283526  0.500000  1
  Rh  Rh18  1  0.716474  0.569942  0.500000  1
  Rh  Rh19  1  0.283526  0.430058  0.500000  1
