# generated using pymatgen
data_KAlS2
_symmetry_space_group_name_H-M   'P 1'
_cell_length_a   7.42100468
_cell_length_b   7.42100421
_cell_length_c   14.93180676
_cell_angle_alpha   82.73197515
_cell_angle_beta   82.73197551
_cell_angle_gamma   89.98944206
_symmetry_Int_Tables_number   1
_chemical_formula_structural   KAlS2
_chemical_formula_sum   'K8 Al8 S16'
_cell_volume   809.04834880
_cell_formula_units_Z   8
loop_
 _symmetry_equiv_pos_site_id
 _symmetry_equiv_pos_as_xyz
  1  'x, y, z'
loop_
 _atom_site_type_symbol
 _atom_site_label
 _atom_site_symmetry_multiplicity
 _atom_site_fract_x
 _atom_site_fract_y
 _atom_site_fract_z
 _atom_site_occupancy
  K  K0  1  0.653525  0.776938  0.889692  1
  K  K1  1  0.223062  0.346475  0.610308  1
  K  K2  1  0.152121  0.774765  0.890481  1
  K  K3  1  0.774765  0.152121  0.390481  1
  K  K4  1  0.225235  0.847879  0.609519  1
  K  K5  1  0.847879  0.225235  0.109519  1
  K  K6  1  0.776938  0.653525  0.389692  1
  K  K7  1  0.346475  0.223062  0.110308  1
  Al  Al8  1  0.911853  0.290200  0.836435  1
  Al  Al9  1  0.290200  0.911853  0.336435  1
  Al  Al10  1  0.290178  0.419168  0.336752  1
  Al  Al11  1  0.419168  0.290178  0.836752  1
  Al  Al12  1  0.709822  0.580832  0.663248  1
  Al  Al13  1  0.580832  0.709822  0.163248  1
  Al  Al14  1  0.088147  0.709800  0.163565  1
  Al  Al15  1  0.709800  0.088147  0.663565  1
  S  S16  1  0.435846  0.060061  0.750337  1
  S  S17  1  0.060061  0.435846  0.250337  1
  S  S18  1  0.642084  0.266139  0.929814  1
  S  S19  1  0.266139  0.642084  0.429814  1
  S  S20  1  0.939939  0.564154  0.749663  1
  S  S21  1  0.564154  0.939939  0.249663  1
  S  S22  1  0.268416  0.142518  0.425938  1
  S  S23  1  0.142518  0.268416  0.925938  1
  S  S24  1  0.564055  0.435945  0.250000  1
  S  S25  1  0.435945  0.564055  0.750000  1
  S  S26  1  0.733861  0.357916  0.570186  1
  S  S27  1  0.940000  0.060000  0.750000  1
  S  S28  1  0.857482  0.731584  0.074062  1
  S  S29  1  0.731584  0.857482  0.574062  1
  S  S30  1  0.060000  0.940000  0.250000  1
  S  S31  1  0.357916  0.733861  0.070186  1
