# generated using pymatgen
data_La15PrCd4IrPt3
_symmetry_space_group_name_H-M   'P 1'
_cell_length_a   10.19057045
_cell_length_b   10.17055592
_cell_length_c   10.17529800
_cell_angle_alpha   59.98457517
_cell_angle_beta   60.04956372
_cell_angle_gamma   60.13484651
_symmetry_Int_Tables_number   1
_chemical_formula_structural   La15PrCd4IrPt3
_chemical_formula_sum   'La15 Pr1 Cd4 Ir1 Pt3'
_cell_volume   746.66864795
_cell_formula_units_Z   1
loop_
 _symmetry_equiv_pos_site_id
 _symmetry_equiv_pos_as_xyz
  1  'x, y, z'
loop_
 _atom_site_type_symbol
 _atom_site_label
 _atom_site_symmetry_multiplicity
 _atom_site_fract_x
 _atom_site_fract_y
 _atom_site_fract_z
 _atom_site_occupancy
  La  La0  1  0.351446  0.346766  0.346678  1
  La  La1  1  0.351446  0.346766  0.955110  1
  La  La2  1  0.352194  0.953823  0.346992  1
  La  La3  1  0.947281  0.351490  0.350615  1
  La  La4  1  0.805843  0.189441  0.192093  1
  La  La5  1  0.192443  0.808116  0.806628  1
  La  La6  1  0.192443  0.808116  0.192814  1
  La  La7  1  0.805843  0.189441  0.812623  1
  La  La8  1  0.191541  0.191214  0.808623  1
  La  La9  1  0.804535  0.812455  0.191505  1
  La  La10  1  0.939188  0.562324  0.563596  1
  La  La11  1  0.564048  0.938473  0.935145  1
  La  La12  1  0.564048  0.938473  0.562332  1
  La  La13  1  0.939188  0.562324  0.934892  1
  La  La14  1  0.563764  0.559707  0.938264  1
  Pr  Pr15  1  0.939666  0.937033  0.561650  1
  Cd  Cd16  1  0.579571  0.580038  0.580104  1
  Cd  Cd17  1  0.579571  0.580038  0.260285  1
  Cd  Cd18  1  0.580568  0.259855  0.579788  1
  Cd  Cd19  1  0.260648  0.580549  0.579402  1
  Ir  Ir20  1  0.573331  0.142151  0.142260  1
  Pt  Pt21  1  0.140453  0.144197  0.143602  1
  Pt  Pt22  1  0.140453  0.144197  0.571748  1
  Pt  Pt23  1  0.140484  0.573013  0.143252  1
