# generated using pymatgen
data_YNpSnPt
_symmetry_space_group_name_H-M   'P 1'
_cell_length_a   4.98787800
_cell_length_b   4.98787881
_cell_length_c   8.97350900
_cell_angle_alpha   90.00000000
_cell_angle_beta   90.00000000
_cell_angle_gamma   119.99999460
_symmetry_Int_Tables_number   1
_chemical_formula_structural   YNpSnPt
_chemical_formula_sum   'Y2 Np2 Sn2 Pt2'
_cell_volume   193.34131755
_cell_formula_units_Z   2
loop_
 _symmetry_equiv_pos_site_id
 _symmetry_equiv_pos_as_xyz
  1  'x, y, z'
loop_
 _atom_site_type_symbol
 _atom_site_label
 _atom_site_symmetry_multiplicity
 _atom_site_fract_x
 _atom_site_fract_y
 _atom_site_fract_z
 _atom_site_occupancy
  Y  Y0  1  0.333333  0.666667  0.309276  1
  Y  Y1  1  0.666667  0.333333  0.690724  1
  Np  Np2  1  0.333333  0.666667  0.943375  1
  Np  Np3  1  0.666667  0.333333  0.056625  1
  Sn  Sn4  1  0.000000  0.000000  0.500000  1
  Sn  Sn5  1  0.000000  0.000000  0.000000  1
  Pt  Pt6  1  0.666667  0.333333  0.350876  1
  Pt  Pt7  1  0.333333  0.666667  0.649124  1
