# generated using pymatgen
data_V12Co5Si7C4
_symmetry_space_group_name_H-M   'P 1'
_cell_length_a   7.60992696
_cell_length_b   7.60799903
_cell_length_c   7.60919433
_cell_angle_alpha   60.41936021
_cell_angle_beta   60.42453531
_cell_angle_gamma   60.42275822
_symmetry_Int_Tables_number   1
_chemical_formula_structural   V12Co5Si7C4
_chemical_formula_sum   'V12 Co5 Si7 C4'
_cell_volume   314.48585689
_cell_formula_units_Z   1
loop_
 _symmetry_equiv_pos_site_id
 _symmetry_equiv_pos_as_xyz
  1  'x, y, z'
loop_
 _atom_site_type_symbol
 _atom_site_label
 _atom_site_symmetry_multiplicity
 _atom_site_fract_x
 _atom_site_fract_y
 _atom_site_fract_z
 _atom_site_occupancy
  V  V0  1  0.809750  0.809785  0.190472  1
  V  V1  1  0.185050  0.184960  0.814389  1
  V  V2  1  0.809707  0.190582  0.809713  1
  V  V3  1  0.185034  0.814377  0.184999  1
  V  V4  1  0.190573  0.809783  0.809754  1
  V  V5  1  0.814322  0.185005  0.185058  1
  V  V6  1  0.438041  0.437982  0.062078  1
  V  V7  1  0.057467  0.057523  0.444564  1
  V  V8  1  0.438000  0.062147  0.437961  1
  V  V9  1  0.057526  0.444503  0.057540  1
  V  V10  1  0.062116  0.437949  0.437971  1
  V  V11  1  0.444554  0.057522  0.057477  1
  Co  Co12  1  0.138238  0.616970  0.616997  1
  Co  Co13  1  0.616881  0.138377  0.616881  1
  Co  Co14  1  0.616944  0.616912  0.138351  1
  Co  Co15  1  0.625513  0.625559  0.625526  1
  Co  Co16  1  0.834114  0.834226  0.834190  1
  Si  Si17  1  0.760235  0.413155  0.413291  1
  Si  Si18  1  0.413318  0.760321  0.413184  1
  Si  Si19  1  0.413370  0.413101  0.760269  1
  Si  Si20  1  0.412626  0.412197  0.412398  1
  Si  Si21  1  0.501132  0.838228  0.838135  1
  Si  Si22  1  0.838060  0.501087  0.838248  1
  Si  Si23  1  0.838006  0.838284  0.501086  1
  C  C24  1  0.625736  0.123573  0.123561  1
  C  C25  1  0.123560  0.625791  0.123518  1
  C  C26  1  0.123552  0.123524  0.625787  1
  C  C27  1  0.126571  0.126576  0.126600  1
