# generated using pymatgen
data_Yb3Ho(Ni5Sn)4
_symmetry_space_group_name_H-M   'P 1'
_cell_length_a   4.81440100
_cell_length_b   7.98916485
_cell_length_c   10.21224637
_cell_angle_alpha   90.07807021
_cell_angle_beta   90.00000000
_cell_angle_gamma   90.00000000
_symmetry_Int_Tables_number   1
_chemical_formula_structural   Yb3Ho(Ni5Sn)4
_chemical_formula_sum   'Yb3 Ho1 Ni20 Sn4'
_cell_volume   392.79370931
_cell_formula_units_Z   1
loop_
 _symmetry_equiv_pos_site_id
 _symmetry_equiv_pos_as_xyz
  1  'x, y, z'
loop_
 _atom_site_type_symbol
 _atom_site_label
 _atom_site_symmetry_multiplicity
 _atom_site_fract_x
 _atom_site_fract_y
 _atom_site_fract_z
 _atom_site_occupancy
  Yb  Yb0  1  0.250000  0.253822  0.059300  1
  Yb  Yb1  1  0.750000  0.746156  0.940777  1
  Yb  Yb2  1  0.250000  0.753780  0.440369  1
  Ho  Ho3  1  0.750000  0.247350  0.560135  1
  Ni  Ni4  1  0.750000  0.912258  0.482124  1
  Ni  Ni5  1  0.250000  0.586107  0.983367  1
  Ni  Ni6  1  0.750000  0.414389  0.016550  1
  Ni  Ni7  1  0.250000  0.084458  0.516308  1
  Ni  Ni8  1  0.250000  0.188895  0.742928  1
  Ni  Ni9  1  0.750000  0.310966  0.242810  1
  Ni  Ni10  1  0.250000  0.688681  0.757858  1
  Ni  Ni11  1  0.750000  0.810904  0.256804  1
  Ni  Ni12  1  0.750000  0.547396  0.400029  1
  Ni  Ni13  1  0.250000  0.952584  0.899383  1
  Ni  Ni14  1  0.750000  0.047442  0.100950  1
  Ni  Ni15  1  0.250000  0.452378  0.599980  1
  Ni  Ni16  1  0.498393  0.065337  0.309460  1
  Ni  Ni17  1  0.501931  0.434825  0.809620  1
  Ni  Ni18  1  0.001572  0.565519  0.190074  1
  Ni  Ni19  1  0.998216  0.934412  0.690668  1
  Ni  Ni20  1  0.501784  0.934412  0.690668  1
  Ni  Ni21  1  0.498428  0.565519  0.190074  1
  Ni  Ni22  1  0.998069  0.434825  0.809620  1
  Ni  Ni23  1  0.001607  0.065337  0.309460  1
  Sn  Sn24  1  0.750000  0.641143  0.638975  1
  Sn  Sn25  1  0.250000  0.861192  0.138283  1
  Sn  Sn26  1  0.750000  0.138094  0.863436  1
  Sn  Sn27  1  0.250000  0.361819  0.359989  1
