# generated using pymatgen
data_Y3ErAlRh
_symmetry_space_group_name_H-M   'P 1'
_cell_length_a   9.54336134
_cell_length_b   9.54338066
_cell_length_c   9.54314135
_cell_angle_alpha   60.09925432
_cell_angle_beta   60.09949615
_cell_angle_gamma   60.09968907
_symmetry_Int_Tables_number   1
_chemical_formula_structural   Y3ErAlRh
_chemical_formula_sum   'Y12 Er4 Al4 Rh4'
_cell_volume   615.96748578
_cell_formula_units_Z   4
loop_
 _symmetry_equiv_pos_site_id
 _symmetry_equiv_pos_as_xyz
  1  'x, y, z'
loop_
 _atom_site_type_symbol
 _atom_site_label
 _atom_site_symmetry_multiplicity
 _atom_site_fract_x
 _atom_site_fract_y
 _atom_site_fract_z
 _atom_site_occupancy
  Y  Y0  1  0.056952  0.442973  0.442953  1
  Y  Y1  1  0.442405  0.057725  0.057743  1
  Y  Y2  1  0.442968  0.056965  0.442955  1
  Y  Y3  1  0.057738  0.442396  0.057763  1
  Y  Y4  1  0.442956  0.442959  0.056968  1
  Y  Y5  1  0.057735  0.057740  0.442396  1
  Y  Y6  1  0.187217  0.813561  0.813568  1
  Y  Y7  1  0.812801  0.188251  0.188275  1
  Y  Y8  1  0.813563  0.187221  0.813562  1
  Y  Y9  1  0.188264  0.812795  0.188261  1
  Y  Y10  1  0.813570  0.813559  0.187219  1
  Y  Y11  1  0.188264  0.188248  0.812808  1
  Er  Er12  1  0.599811  0.599838  0.599825  1
  Er  Er13  1  0.604006  0.604033  0.191330  1
  Er  Er14  1  0.604010  0.191324  0.604018  1
  Er  Er15  1  0.191331  0.604026  0.604011  1
  Al  Al16  1  0.828411  0.828412  0.828408  1
  Al  Al17  1  0.826578  0.826580  0.517026  1
  Al  Al18  1  0.826581  0.517023  0.826579  1
  Al  Al19  1  0.517023  0.826582  0.826578  1
  Rh  Rh20  1  0.394284  0.394289  0.394267  1
  Rh  Rh21  1  0.391780  0.391767  0.819961  1
  Rh  Rh22  1  0.391784  0.819950  0.391762  1
  Rh  Rh23  1  0.819969  0.391786  0.391765  1
