# generated using pymatgen
data_Sc4Be2B4Ir7Rh3
_symmetry_space_group_name_H-M   'P 1'
_cell_length_a   9.27746302
_cell_length_b   2.99065300
_cell_length_c   9.27661002
_cell_angle_alpha   90.00000000
_cell_angle_beta   89.99193403
_cell_angle_gamma   90.00000000
_symmetry_Int_Tables_number   1
_chemical_formula_structural   Sc4Be2B4Ir7Rh3
_chemical_formula_sum   'Sc4 Be2 B4 Ir7 Rh3'
_cell_volume   257.38578219
_cell_formula_units_Z   1
loop_
 _symmetry_equiv_pos_site_id
 _symmetry_equiv_pos_as_xyz
  1  'x, y, z'
loop_
 _atom_site_type_symbol
 _atom_site_label
 _atom_site_symmetry_multiplicity
 _atom_site_fract_x
 _atom_site_fract_y
 _atom_site_fract_z
 _atom_site_occupancy
  Sc  Sc0  1  0.675126  0.000000  0.175563  1
  Sc  Sc1  1  0.175229  0.000000  0.324922  1
  Sc  Sc2  1  0.824395  0.000000  0.675862  1
  Sc  Sc3  1  0.324585  0.000000  0.824683  1
  Be  Be4  1  0.001059  0.000000  0.000155  1
  Be  Be5  1  0.500109  0.000000  0.499964  1
  B  B6  1  0.371344  0.000000  0.128839  1
  B  B7  1  0.871149  0.000000  0.371233  1
  B  B8  1  0.128819  0.000000  0.629004  1
  B  B9  1  0.628204  0.000000  0.870527  1
  Ir  Ir10  1  0.209336  0.500000  0.067792  1
  Ir  Ir11  1  0.931864  0.500000  0.209037  1
  Ir  Ir12  1  0.432304  0.500000  0.290106  1
  Ir  Ir13  1  0.709560  0.500000  0.432251  1
  Ir  Ir14  1  0.290586  0.500000  0.567332  1
  Ir  Ir15  1  0.568383  0.500000  0.710068  1
  Ir  Ir16  1  0.067642  0.500000  0.790795  1
  Rh  Rh17  1  0.500819  0.500000  0.999947  1
  Rh  Rh18  1  0.999771  0.500000  0.500386  1
  Rh  Rh19  1  0.789713  0.500000  0.931533  1
