# generated using pymatgen
data_Er5Tm3Sc12Ga7Si9
_symmetry_space_group_name_H-M   'P 1'
_cell_length_a   7.13196532
_cell_length_b   7.38877499
_cell_length_c   14.19899802
_cell_angle_alpha   89.98799097
_cell_angle_beta   89.93748375
_cell_angle_gamma   90.03396623
_symmetry_Int_Tables_number   1
_chemical_formula_structural   Er5Tm3Sc12Ga7Si9
_chemical_formula_sum   'Er5 Tm3 Sc12 Ga7 Si9'
_cell_volume   748.23672124
_cell_formula_units_Z   1
loop_
 _symmetry_equiv_pos_site_id
 _symmetry_equiv_pos_as_xyz
  1  'x, y, z'
loop_
 _atom_site_type_symbol
 _atom_site_label
 _atom_site_symmetry_multiplicity
 _atom_site_fract_x
 _atom_site_fract_y
 _atom_site_fract_z
 _atom_site_occupancy
  Er  Er0  1  0.012321  0.174581  0.098618  1
  Er  Er1  1  0.989807  0.822904  0.901698  1
  Er  Er2  1  0.488431  0.677016  0.901866  1
  Er  Er3  1  0.989581  0.823273  0.599301  1
  Er  Er4  1  0.510313  0.322318  0.098779  1
  Tm  Tm5  1  0.010150  0.176324  0.400426  1
  Tm  Tm6  1  0.510493  0.323059  0.400349  1
  Tm  Tm7  1  0.489632  0.676641  0.599278  1
  Sc  Sc8  1  0.163959  0.503134  0.749919  1
  Sc  Sc9  1  0.836846  0.497756  0.249918  1
  Sc  Sc10  1  0.335945  0.003092  0.249065  1
  Sc  Sc11  1  0.663410  0.997306  0.749666  1
  Sc  Sc12  1  0.330365  0.173564  0.625831  1
  Sc  Sc13  1  0.669248  0.826796  0.373889  1
  Sc  Sc14  1  0.169510  0.673766  0.373777  1
  Sc  Sc15  1  0.668080  0.825339  0.126238  1
  Sc  Sc16  1  0.830089  0.326477  0.626048  1
  Sc  Sc17  1  0.329799  0.174090  0.874933  1
  Sc  Sc18  1  0.829270  0.326568  0.874336  1
  Sc  Sc19  1  0.171924  0.675639  0.125128  1
  Ga  Ga20  1  0.161935  0.463909  0.539536  1
  Ga  Ga21  1  0.838069  0.535767  0.460209  1
  Ga  Ga22  1  0.337969  0.963723  0.460390  1
  Ga  Ga23  1  0.838417  0.537285  0.040150  1
  Ga  Ga24  1  0.661809  0.036227  0.539332  1
  Ga  Ga25  1  0.161029  0.463115  0.960698  1
  Ga  Ga26  1  0.660541  0.036941  0.961022  1
  Si  Si27  1  0.031845  0.112237  0.750778  1
  Si  Si28  1  0.967764  0.886967  0.249622  1
  Si  Si29  1  0.467566  0.611918  0.249611  1
  Si  Si30  1  0.532038  0.387466  0.750143  1
  Si  Si31  1  0.284447  0.872784  0.750535  1
  Si  Si32  1  0.716013  0.127605  0.249331  1
  Si  Si33  1  0.215250  0.372044  0.249686  1
  Si  Si34  1  0.784129  0.627680  0.750371  1
  Si  Si35  1  0.342005  0.964691  0.039524  1
