# generated using pymatgen
data_Er2MgNi8Ir
_symmetry_space_group_name_H-M   'P 1'
_cell_length_a   8.62098091
_cell_length_b   8.62098120
_cell_length_c   8.62098048
_cell_angle_alpha   32.95005081
_cell_angle_beta   32.95004805
_cell_angle_gamma   32.95004882
_symmetry_Int_Tables_number   1
_chemical_formula_structural   Er2MgNi8Ir
_chemical_formula_sum   'Er2 Mg1 Ni8 Ir1'
_cell_volume   168.66820948
_cell_formula_units_Z   1
loop_
 _symmetry_equiv_pos_site_id
 _symmetry_equiv_pos_as_xyz
  1  'x, y, z'
loop_
 _atom_site_type_symbol
 _atom_site_label
 _atom_site_symmetry_multiplicity
 _atom_site_fract_x
 _atom_site_fract_y
 _atom_site_fract_z
 _atom_site_occupancy
  Er  Er0  1  0.996405  0.996405  0.996405  1
  Er  Er1  1  0.142599  0.142599  0.142599  1
  Mg  Mg2  1  0.861214  0.861214  0.861214  1
  Ni  Ni3  1  0.666795  0.666795  0.666795  1
  Ni  Ni4  1  0.333687  0.333687  0.333687  1
  Ni  Ni5  1  0.416860  0.921105  0.416860  1
  Ni  Ni6  1  0.416860  0.416860  0.921105  1
  Ni  Ni7  1  0.921105  0.416860  0.416860  1
  Ni  Ni8  1  0.583163  0.077606  0.583163  1
  Ni  Ni9  1  0.583163  0.583163  0.077606  1
  Ni  Ni10  1  0.077606  0.583163  0.583163  1
  Ir  Ir11  1  0.500544  0.500544  0.500544  1
