# generated using pymatgen
data_Dy3Tm5(AlPt)2
_symmetry_space_group_name_H-M   'P 1'
_cell_length_a   9.51020687
_cell_length_b   9.51020626
_cell_length_c   9.51020600
_cell_angle_alpha   60.00000090
_cell_angle_beta   60.00000304
_cell_angle_gamma   60.00000190
_symmetry_Int_Tables_number   1
_chemical_formula_structural   Dy3Tm5(AlPt)2
_chemical_formula_sum   'Dy6 Tm10 Al4 Pt4'
_cell_volume   608.21180588
_cell_formula_units_Z   2
loop_
 _symmetry_equiv_pos_site_id
 _symmetry_equiv_pos_as_xyz
  1  'x, y, z'
loop_
 _atom_site_type_symbol
 _atom_site_label
 _atom_site_symmetry_multiplicity
 _atom_site_fract_x
 _atom_site_fract_y
 _atom_site_fract_z
 _atom_site_occupancy
  Dy  Dy0  1  0.936481  0.563519  0.563519  1
  Dy  Dy1  1  0.563519  0.936481  0.936481  1
  Dy  Dy2  1  0.563519  0.936481  0.563519  1
  Dy  Dy3  1  0.936481  0.563518  0.936481  1
  Dy  Dy4  1  0.563519  0.563519  0.936481  1
  Dy  Dy5  1  0.936481  0.936481  0.563518  1
  Tm  Tm6  1  0.354310  0.354310  0.354310  1
  Tm  Tm7  1  0.354310  0.354310  0.937072  1
  Tm  Tm8  1  0.354310  0.937072  0.354310  1
  Tm  Tm9  1  0.937072  0.354310  0.354310  1
  Tm  Tm10  1  0.808199  0.191801  0.191801  1
  Tm  Tm11  1  0.191801  0.808199  0.808199  1
  Tm  Tm12  1  0.191801  0.808199  0.191801  1
  Tm  Tm13  1  0.808199  0.191801  0.808199  1
  Tm  Tm14  1  0.191801  0.191801  0.808199  1
  Tm  Tm15  1  0.808199  0.808199  0.191801  1
  Al  Al16  1  0.577552  0.577552  0.577552  1
  Al  Al17  1  0.577552  0.577552  0.267342  1
  Al  Al18  1  0.577552  0.267342  0.577552  1
  Al  Al19  1  0.267342  0.577552  0.577552  1
  Pt  Pt20  1  0.143374  0.143374  0.143374  1
  Pt  Pt21  1  0.143374  0.143374  0.569881  1
  Pt  Pt22  1  0.143374  0.569881  0.143374  1
  Pt  Pt23  1  0.569881  0.143374  0.143374  1
