# generated using pymatgen
data_Nb6Pd11Ru7
_symmetry_space_group_name_H-M   'P 1'
_cell_length_a   5.62178326
_cell_length_b   5.62178320
_cell_length_c   13.61590778
_cell_angle_alpha   90.24990877
_cell_angle_beta   89.75008967
_cell_angle_gamma   120.32074092
_symmetry_Int_Tables_number   1
_chemical_formula_structural   Nb6Pd11Ru7
_chemical_formula_sum   'Nb6 Pd11 Ru7'
_cell_volume   371.45584953
_cell_formula_units_Z   1
loop_
 _symmetry_equiv_pos_site_id
 _symmetry_equiv_pos_as_xyz
  1  'x, y, z'
loop_
 _atom_site_type_symbol
 _atom_site_label
 _atom_site_symmetry_multiplicity
 _atom_site_fract_x
 _atom_site_fract_y
 _atom_site_fract_z
 _atom_site_occupancy
  Nb  Nb0  1  0.999288  0.000712  0.250405  1
  Nb  Nb1  1  0.006293  0.993707  0.745771  1
  Nb  Nb2  1  0.331379  0.668621  0.402173  1
  Nb  Nb3  1  0.666950  0.333050  0.598607  1
  Nb  Nb4  1  0.665800  0.334200  0.898754  1
  Nb  Nb5  1  0.333935  0.666065  0.100953  1
  Pd  Pd6  1  0.164350  0.330671  0.916939  1
  Pd  Pd7  1  0.669329  0.835650  0.916939  1
  Pd  Pd8  1  0.166415  0.833585  0.916662  1
  Pd  Pd9  1  0.834499  0.668291  0.082900  1
  Pd  Pd10  1  0.331709  0.165501  0.082900  1
  Pd  Pd11  1  0.834451  0.165549  0.083150  1
  Pd  Pd12  1  0.835531  0.670541  0.417397  1
  Pd  Pd13  1  0.329459  0.164469  0.417397  1
  Pd  Pd14  1  0.832945  0.167055  0.416868  1
  Pd  Pd15  1  0.166273  0.332536  0.582601  1
  Pd  Pd16  1  0.667464  0.833727  0.582601  1
  Ru  Ru17  1  0.501086  0.498914  0.250103  1
  Ru  Ru18  1  0.502465  0.007166  0.250653  1
  Ru  Ru19  1  0.992834  0.497535  0.250653  1
  Ru  Ru20  1  0.497782  0.502218  0.750514  1
  Ru  Ru21  1  0.497496  0.990274  0.749159  1
  Ru  Ru22  1  0.009726  0.502504  0.749159  1
  Ru  Ru23  1  0.162542  0.837458  0.586743  1
