# generated using pymatgen
data_Ca5Pd2Au
_symmetry_space_group_name_H-M   'P 1'
_cell_length_a   9.08844737
_cell_length_b   9.08844777
_cell_length_c   9.08844721
_cell_angle_alpha   129.51171821
_cell_angle_beta   129.51171954
_cell_angle_gamma   74.18857844
_symmetry_Int_Tables_number   1
_chemical_formula_structural   Ca5Pd2Au
_chemical_formula_sum   'Ca10 Pd4 Au2'
_cell_volume   435.64015828
_cell_formula_units_Z   2
loop_
 _symmetry_equiv_pos_site_id
 _symmetry_equiv_pos_as_xyz
  1  'x, y, z'
loop_
 _atom_site_type_symbol
 _atom_site_label
 _atom_site_symmetry_multiplicity
 _atom_site_fract_x
 _atom_site_fract_y
 _atom_site_fract_z
 _atom_site_occupancy
  Ca  Ca0  1  0.472496  0.972496  0.163340  1
  Ca  Ca1  1  0.190844  0.690844  0.163340  1
  Ca  Ca2  1  0.527504  0.027504  0.836660  1
  Ca  Ca3  1  0.027504  0.190844  0.500000  1
  Ca  Ca4  1  0.690844  0.527504  0.500000  1
  Ca  Ca5  1  0.972496  0.809156  0.500000  1
  Ca  Ca6  1  0.000000  0.000000  0.000000  1
  Ca  Ca7  1  0.500000  0.500000  0.000000  1
  Ca  Ca8  1  0.809156  0.309156  0.836660  1
  Ca  Ca9  1  0.309156  0.472496  0.500000  1
  Pd  Pd10  1  0.128567  0.628567  0.757133  1
  Pd  Pd11  1  0.628567  0.871433  0.500000  1
  Pd  Pd12  1  0.371433  0.128567  0.500000  1
  Pd  Pd13  1  0.871433  0.371433  0.242867  1
  Au  Au14  1  0.750000  0.750000  0.000000  1
  Au  Au15  1  0.250000  0.250000  0.000000  1
