# generated using pymatgen
data_K2AgBr3
_symmetry_space_group_name_H-M   'P 1'
_cell_length_a   4.57457200
_cell_length_b   9.59574100
_cell_length_c   18.63998800
_cell_angle_alpha   90.00000000
_cell_angle_beta   90.00000000
_cell_angle_gamma   90.00000000
_symmetry_Int_Tables_number   1
_chemical_formula_structural   K2AgBr3
_chemical_formula_sum   'K8 Ag4 Br12'
_cell_volume   818.22852019
_cell_formula_units_Z   4
loop_
 _symmetry_equiv_pos_site_id
 _symmetry_equiv_pos_as_xyz
  1  'x, y, z'
loop_
 _atom_site_type_symbol
 _atom_site_label
 _atom_site_symmetry_multiplicity
 _atom_site_fract_x
 _atom_site_fract_y
 _atom_site_fract_z
 _atom_site_occupancy
  K  K0  1  0.750000  0.250622  0.037230  1
  K  K1  1  0.250000  0.749378  0.962770  1
  K  K2  1  0.750000  0.750622  0.462770  1
  K  K3  1  0.250000  0.249378  0.537230  1
  K  K4  1  0.750000  0.924197  0.713971  1
  K  K5  1  0.250000  0.575803  0.213971  1
  K  K6  1  0.750000  0.424197  0.786029  1
  K  K7  1  0.250000  0.075803  0.286029  1
  Ag  Ag8  1  0.250000  0.129751  0.864333  1
  Ag  Ag9  1  0.250000  0.629751  0.635667  1
  Ag  Ag10  1  0.750000  0.870249  0.135667  1
  Ag  Ag11  1  0.750000  0.370249  0.364333  1
  Br  Br12  1  0.750000  0.490219  0.598787  1
  Br  Br13  1  0.250000  0.009781  0.098787  1
  Br  Br14  1  0.250000  0.688028  0.778328  1
  Br  Br15  1  0.750000  0.811972  0.278328  1
  Br  Br16  1  0.250000  0.883043  0.571326  1
  Br  Br17  1  0.750000  0.116957  0.428674  1
  Br  Br18  1  0.250000  0.509781  0.401213  1
  Br  Br19  1  0.750000  0.616957  0.071326  1
  Br  Br20  1  0.250000  0.383043  0.928674  1
  Br  Br21  1  0.750000  0.311972  0.221672  1
  Br  Br22  1  0.250000  0.188028  0.721672  1
  Br  Br23  1  0.750000  0.990219  0.901213  1
