# generated using pymatgen
data_Zn4(Ni4N)3
_symmetry_space_group_name_H-M   'P 1'
_cell_length_a   5.26334200
_cell_length_b   5.26334200
_cell_length_c   7.41391500
_cell_angle_alpha   90.00000000
_cell_angle_beta   90.00000000
_cell_angle_gamma   90.00000000
_symmetry_Int_Tables_number   1
_chemical_formula_structural   Zn4(Ni4N)3
_chemical_formula_sum   'Zn4 Ni12 N3'
_cell_volume   205.38597470
_cell_formula_units_Z   1
loop_
 _symmetry_equiv_pos_site_id
 _symmetry_equiv_pos_as_xyz
  1  'x, y, z'
loop_
 _atom_site_type_symbol
 _atom_site_label
 _atom_site_symmetry_multiplicity
 _atom_site_fract_x
 _atom_site_fract_y
 _atom_site_fract_z
 _atom_site_occupancy
  Zn  Zn0  1  0.000000  0.500000  0.243262  1
  Zn  Zn1  1  0.500000  0.000000  0.756738  1
  Zn  Zn2  1  0.500000  0.000000  0.243262  1
  Zn  Zn3  1  0.000000  0.500000  0.756738  1
  Ni  Ni4  1  0.253254  0.249160  0.500000  1
  Ni  Ni5  1  0.743942  0.745053  0.000000  1
  Ni  Ni6  1  0.746746  0.750840  0.500000  1
  Ni  Ni7  1  0.256058  0.254947  0.000000  1
  Ni  Ni8  1  0.249160  0.746746  0.500000  1
  Ni  Ni9  1  0.745053  0.256058  0.000000  1
  Ni  Ni10  1  0.750840  0.253254  0.500000  1
  Ni  Ni11  1  0.254947  0.743942  0.000000  1
  Ni  Ni12  1  0.500000  0.500000  0.242157  1
  Ni  Ni13  1  0.000000  0.000000  0.752506  1
  Ni  Ni14  1  0.000000  0.000000  0.247494  1
  Ni  Ni15  1  0.500000  0.500000  0.757843  1
  N  N16  1  0.000000  0.000000  0.500000  1
  N  N17  1  0.000000  0.000000  0.000000  1
  N  N18  1  0.500000  0.500000  0.500000  1
