# generated using pymatgen
data_La2Al20Ir3Os
_symmetry_space_group_name_H-M   'P 1'
_cell_length_a   6.90985874
_cell_length_b   6.91160090
_cell_length_c   9.23480344
_cell_angle_alpha   89.92953553
_cell_angle_beta   89.92936629
_cell_angle_gamma   97.29615216
_symmetry_Int_Tables_number   1
_chemical_formula_structural   La2Al20Ir3Os
_chemical_formula_sum   'La2 Al20 Ir3 Os1'
_cell_volume   437.46560823
_cell_formula_units_Z   1
loop_
 _symmetry_equiv_pos_site_id
 _symmetry_equiv_pos_as_xyz
  1  'x, y, z'
loop_
 _atom_site_type_symbol
 _atom_site_label
 _atom_site_symmetry_multiplicity
 _atom_site_fract_x
 _atom_site_fract_y
 _atom_site_fract_z
 _atom_site_occupancy
  La  La0  1  0.627136  0.375302  0.750382  1
  La  La1  1  0.372864  0.624698  0.249618  1
  Al  Al2  1  0.275531  0.016718  0.750053  1
  Al  Al3  1  0.016154  0.277307  0.252586  1
  Al  Al4  1  0.724469  0.983282  0.249947  1
  Al  Al5  1  0.983846  0.722693  0.747414  1
  Al  Al6  1  0.878721  0.122083  0.952279  1
  Al  Al7  1  0.121279  0.877917  0.047721  1
  Al  Al8  1  0.879165  0.123630  0.546013  1
  Al  Al9  1  0.120835  0.876370  0.453987  1
  Al  Al10  1  0.646773  0.910160  0.749857  1
  Al  Al11  1  0.909865  0.645936  0.250755  1
  Al  Al12  1  0.353227  0.089840  0.250143  1
  Al  Al13  1  0.090135  0.354064  0.749245  1
  Al  Al14  1  0.341376  0.658964  0.894441  1
  Al  Al15  1  0.658624  0.341036  0.105559  1
  Al  Al16  1  0.340961  0.657595  0.604058  1
  Al  Al17  1  0.659039  0.342405  0.395942  1
  Al  Al18  1  0.723301  0.722859  0.999882  1
  Al  Al19  1  0.722339  0.721178  0.500813  1
  Al  Al20  1  0.276699  0.277141  0.000118  1
  Al  Al21  1  0.277661  0.278822  0.499187  1
  Ir  Ir22  1  0.500000  0.000000  0.000000  1
  Ir  Ir23  1  0.000000  0.500000  0.000000  1
  Ir  Ir24  1  0.500000  0.000000  0.500000  1
  Os  Os25  1  0.000000  0.500000  0.500000  1
