# generated using pymatgen
data_Sc4Os7W
_symmetry_space_group_name_H-M   'P 1'
_cell_length_a   5.16352506
_cell_length_b   5.16352531
_cell_length_c   8.69610500
_cell_angle_alpha   90.00000000
_cell_angle_beta   90.00000000
_cell_angle_gamma   117.95855249
_symmetry_Int_Tables_number   1
_chemical_formula_structural   Sc4Os7W
_chemical_formula_sum   'Sc4 Os7 W1'
_cell_volume   204.79493008
_cell_formula_units_Z   1
loop_
 _symmetry_equiv_pos_site_id
 _symmetry_equiv_pos_as_xyz
  1  'x, y, z'
loop_
 _atom_site_type_symbol
 _atom_site_label
 _atom_site_symmetry_multiplicity
 _atom_site_fract_x
 _atom_site_fract_y
 _atom_site_fract_z
 _atom_site_occupancy
  Sc  Sc0  1  0.328725  0.671275  0.435703  1
  Sc  Sc1  1  0.666635  0.333365  0.566784  1
  Sc  Sc2  1  0.666635  0.333365  0.933216  1
  Sc  Sc3  1  0.328725  0.671275  0.064297  1
  Os  Os4  1  0.994287  0.005713  0.502624  1
  Os  Os5  1  0.994287  0.005713  0.997376  1
  Os  Os6  1  0.827401  0.652028  0.250000  1
  Os  Os7  1  0.347972  0.172599  0.250000  1
  Os  Os8  1  0.176784  0.823216  0.750000  1
  Os  Os9  1  0.175198  0.340026  0.750000  1
  Os  Os10  1  0.659974  0.824802  0.750000  1
  W  W11  1  0.833375  0.166625  0.250000  1
