# generated using pymatgen
data_Er3Mg3Hg2Os
_symmetry_space_group_name_H-M   'P 1'
_cell_length_a   7.87197100
_cell_length_b   7.87197000
_cell_length_c   3.91556800
_cell_angle_alpha   90.00000000
_cell_angle_beta   90.00000000
_cell_angle_gamma   119.99999999
_symmetry_Int_Tables_number   1
_chemical_formula_structural   Er3Mg3Hg2Os
_chemical_formula_sum   'Er3 Mg3 Hg2 Os1'
_cell_volume   210.13206008
_cell_formula_units_Z   1
loop_
 _symmetry_equiv_pos_site_id
 _symmetry_equiv_pos_as_xyz
  1  'x, y, z'
loop_
 _atom_site_type_symbol
 _atom_site_label
 _atom_site_symmetry_multiplicity
 _atom_site_fract_x
 _atom_site_fract_y
 _atom_site_fract_z
 _atom_site_occupancy
  Er  Er0  1  0.435655  0.393425  0.500000  1
  Er  Er1  1  0.606575  0.042230  0.500000  1
  Er  Er2  1  0.957770  0.564345  0.500000  1
  Mg  Mg3  1  0.737079  0.735263  0.000000  1
  Mg  Mg4  1  0.264737  0.001817  0.000000  1
  Mg  Mg5  1  0.998183  0.262921  0.000000  1
  Hg  Hg6  1  0.333333  0.666667  0.000000  1
  Hg  Hg7  1  0.000000  0.000000  0.500000  1
  Os  Os8  1  0.666667  0.333333  0.000000  1
