# generated using pymatgen
data_CaTm(Be12Cu)2
_symmetry_space_group_name_H-M   'P 1'
_cell_length_a   7.27706866
_cell_length_b   7.33023082
_cell_length_c   7.25176540
_cell_angle_alpha   59.87075242
_cell_angle_beta   59.84083887
_cell_angle_gamma   59.52923647
_symmetry_Int_Tables_number   1
_chemical_formula_structural   CaTm(Be12Cu)2
_chemical_formula_sum   'Ca1 Tm1 Be24 Cu2'
_cell_volume   271.95088647
_cell_formula_units_Z   1
loop_
 _symmetry_equiv_pos_site_id
 _symmetry_equiv_pos_as_xyz
  1  'x, y, z'
loop_
 _atom_site_type_symbol
 _atom_site_label
 _atom_site_symmetry_multiplicity
 _atom_site_fract_x
 _atom_site_fract_y
 _atom_site_fract_z
 _atom_site_occupancy
  Ca  Ca0  1  0.251946  0.248054  0.251946  1
  Tm  Tm1  1  0.746468  0.753532  0.746468  1
  Be  Be2  1  0.500133  0.499867  0.500133  1
  Be  Be3  1  0.999991  0.000009  0.999991  1
  Be  Be4  1  0.567943  0.789795  0.435621  1
  Be  Be5  1  0.435621  0.206640  0.567943  1
  Be  Be6  1  0.291030  0.933256  0.712434  1
  Be  Be7  1  0.712434  0.063280  0.291030  1
  Be  Be8  1  0.928342  0.279168  0.068724  1
  Be  Be9  1  0.068724  0.723766  0.928342  1
  Be  Be10  1  0.208227  0.796662  0.560397  1
  Be  Be11  1  0.789319  0.200508  0.441661  1
  Be  Be12  1  0.441661  0.568511  0.789319  1
  Be  Be13  1  0.560397  0.434715  0.208227  1
  Be  Be14  1  0.713527  0.286015  0.933752  1
  Be  Be15  1  0.289184  0.717218  0.063059  1
  Be  Be16  1  0.063059  0.930539  0.289184  1
  Be  Be17  1  0.933752  0.066705  0.713527  1
  Be  Be18  1  0.568676  0.206967  0.788375  1
  Be  Be19  1  0.433751  0.789774  0.209120  1
  Be  Be20  1  0.788375  0.435983  0.568676  1
  Be  Be21  1  0.209120  0.567354  0.433751  1
  Be  Be22  1  0.933734  0.715252  0.291155  1
  Be  Be23  1  0.062571  0.287706  0.712445  1
  Be  Be24  1  0.291155  0.059860  0.933734  1
  Be  Be25  1  0.712445  0.937277  0.062571  1
  Cu  Cu26  1  0.803086  0.559185  0.195328  1
  Cu  Cu27  1  0.195328  0.442401  0.803086  1
