# generated using pymatgen
data_Ho3AgPd8
_symmetry_space_group_name_H-M   'P 1'
_cell_length_a   4.20792100
_cell_length_b   5.83562207
_cell_length_c   17.45547800
_cell_angle_alpha   89.99837998
_cell_angle_beta   90.00098036
_cell_angle_gamma   90.00858121
_symmetry_Int_Tables_number   1
_chemical_formula_structural   Ho3AgPd8
_chemical_formula_sum   'Ho6 Ag2 Pd16'
_cell_volume   428.63386139
_cell_formula_units_Z   2
loop_
 _symmetry_equiv_pos_site_id
 _symmetry_equiv_pos_as_xyz
  1  'x, y, z'
loop_
 _atom_site_type_symbol
 _atom_site_label
 _atom_site_symmetry_multiplicity
 _atom_site_fract_x
 _atom_site_fract_y
 _atom_site_fract_z
 _atom_site_occupancy
  Ho  Ho0  1  0.525686  0.319738  0.043715  1
  Ho  Ho1  1  0.525593  0.825021  0.206193  1
  Ho  Ho2  1  0.526023  0.320320  0.368578  1
  Ho  Ho3  1  0.526340  0.758804  0.543633  1
  Ho  Ho4  1  0.526368  0.253745  0.706162  1
  Ho  Ho5  1  0.526030  0.758605  0.868576  1
  Ag  Ag6  1  0.026294  0.039744  0.456181  1
  Ag  Ag7  1  0.025862  0.039014  0.956214  1
  Pd  Pd8  1  0.525738  0.812213  0.038500  1
  Pd  Pd9  1  0.025530  0.074226  0.123280  1
  Pd  Pd10  1  0.025683  0.574757  0.122855  1
  Pd  Pd11  1  0.525690  0.326679  0.206158  1
  Pd  Pd12  1  0.025845  0.575223  0.289426  1
  Pd  Pd13  1  0.025745  0.074608  0.289118  1
  Pd  Pd14  1  0.526094  0.812983  0.373791  1
  Pd  Pd15  1  0.026203  0.539704  0.456124  1
  Pd  Pd16  1  0.526272  0.266191  0.538574  1
  Pd  Pd17  1  0.026456  0.004289  0.623265  1
  Pd  Pd18  1  0.026360  0.503706  0.622851  1
  Pd  Pd19  1  0.526327  0.752151  0.706119  1
  Pd  Pd20  1  0.026147  0.503831  0.789360  1
  Pd  Pd21  1  0.026246  0.004410  0.789070  1
  Pd  Pd22  1  0.525978  0.266020  0.873748  1
  Pd  Pd23  1  0.025825  0.538981  0.956049  1
