# generated using pymatgen
data_Pr16Tm4Ir11Ru
_symmetry_space_group_name_H-M   'P 1'
_cell_length_a   11.25874000
_cell_length_b   11.25874000
_cell_length_c   6.55750000
_cell_angle_alpha   90.00000000
_cell_angle_beta   90.00000000
_cell_angle_gamma   90.00000000
_symmetry_Int_Tables_number   1
_chemical_formula_structural   Pr16Tm4Ir11Ru
_chemical_formula_sum   'Pr16 Tm4 Ir11 Ru1'
_cell_volume   831.22362704
_cell_formula_units_Z   1
loop_
 _symmetry_equiv_pos_site_id
 _symmetry_equiv_pos_as_xyz
  1  'x, y, z'
loop_
 _atom_site_type_symbol
 _atom_site_label
 _atom_site_symmetry_multiplicity
 _atom_site_fract_x
 _atom_site_fract_y
 _atom_site_fract_z
 _atom_site_occupancy
  Pr  Pr0  1  0.289288  0.086640  0.380429  1
  Pr  Pr1  1  0.289518  0.913430  0.883121  1
  Pr  Pr2  1  0.710482  0.086570  0.883121  1
  Pr  Pr3  1  0.710712  0.913360  0.380429  1
  Pr  Pr4  1  0.586570  0.789518  0.883121  1
  Pr  Pr5  1  0.586640  0.210712  0.380429  1
  Pr  Pr6  1  0.413360  0.789288  0.380429  1
  Pr  Pr7  1  0.413430  0.210482  0.883121  1
  Pr  Pr8  1  0.212164  0.412739  0.619083  1
  Pr  Pr9  1  0.211933  0.587050  0.118786  1
  Pr  Pr10  1  0.788067  0.412950  0.118786  1
  Pr  Pr11  1  0.787836  0.587261  0.619083  1
  Pr  Pr12  1  0.912950  0.711933  0.118786  1
  Pr  Pr13  1  0.912739  0.287836  0.619083  1
  Pr  Pr14  1  0.087261  0.712164  0.619083  1
  Pr  Pr15  1  0.087050  0.288067  0.118786  1
  Tm  Tm16  1  0.000000  0.000000  0.499212  1
  Tm  Tm17  1  0.000000  0.000000  0.999146  1
  Tm  Tm18  1  0.500000  0.500000  0.999146  1
  Tm  Tm19  1  0.500000  0.500000  0.499212  1
  Ir  Ir20  1  0.853720  0.146945  0.250017  1
  Ir  Ir21  1  0.853821  0.853228  0.749756  1
  Ir  Ir22  1  0.146179  0.146772  0.749756  1
  Ir  Ir23  1  0.146280  0.853055  0.250017  1
  Ir  Ir24  1  0.646772  0.353821  0.749756  1
  Ir  Ir25  1  0.646945  0.646280  0.250017  1
  Ir  Ir26  1  0.353055  0.353720  0.250017  1
  Ir  Ir27  1  0.353228  0.646179  0.749756  1
  Ir  Ir28  1  0.500000  0.000000  0.616907  1
  Ir  Ir29  1  0.000000  0.500000  0.882785  1
  Ir  Ir30  1  0.000000  0.500000  0.383085  1
  Ru  Ru31  1  0.500000  0.000000  0.115743  1
