# generated using pymatgen
data_Nb3Al2TcC
_symmetry_space_group_name_H-M   'P 1'
_cell_length_a   8.37082739
_cell_length_b   8.37082685
_cell_length_c   8.37082600
_cell_angle_alpha   59.99999546
_cell_angle_beta   59.99999761
_cell_angle_gamma   59.99999398
_symmetry_Int_Tables_number   1
_chemical_formula_structural   Nb3Al2TcC
_chemical_formula_sum   'Nb12 Al8 Tc4 C4'
_cell_volume   414.75346212
_cell_formula_units_Z   4
loop_
 _symmetry_equiv_pos_site_id
 _symmetry_equiv_pos_as_xyz
  1  'x, y, z'
loop_
 _atom_site_type_symbol
 _atom_site_label
 _atom_site_symmetry_multiplicity
 _atom_site_fract_x
 _atom_site_fract_y
 _atom_site_fract_z
 _atom_site_occupancy
  Nb  Nb0  1  0.559642  0.940358  0.559642  1
  Nb  Nb1  1  0.309642  0.690358  0.690358  1
  Nb  Nb2  1  0.690358  0.309642  0.309642  1
  Nb  Nb3  1  0.309642  0.690358  0.309642  1
  Nb  Nb4  1  0.690358  0.690358  0.309642  1
  Nb  Nb5  1  0.309642  0.309642  0.690358  1
  Nb  Nb6  1  0.559642  0.559642  0.940358  1
  Nb  Nb7  1  0.940358  0.559642  0.559642  1
  Nb  Nb8  1  0.559642  0.940358  0.940358  1
  Nb  Nb9  1  0.940358  0.940358  0.559642  1
  Nb  Nb10  1  0.690358  0.309642  0.690358  1
  Nb  Nb11  1  0.940358  0.559642  0.940358  1
  Al  Al12  1  0.915698  0.915698  0.915698  1
  Al  Al13  1  0.997093  0.334302  0.334302  1
  Al  Al14  1  0.334302  0.997093  0.334302  1
  Al  Al15  1  0.334302  0.334302  0.997093  1
  Al  Al16  1  0.915698  0.252907  0.915698  1
  Al  Al17  1  0.915698  0.915698  0.252907  1
  Al  Al18  1  0.252907  0.915698  0.915698  1
  Al  Al19  1  0.334302  0.334302  0.334302  1
  Tc  Tc20  1  0.125000  0.125000  0.125000  1
  Tc  Tc21  1  0.625000  0.125000  0.125000  1
  Tc  Tc22  1  0.125000  0.625000  0.125000  1
  Tc  Tc23  1  0.125000  0.125000  0.625000  1
  C  C24  1  0.625000  0.625000  0.625000  1
  C  C25  1  0.125000  0.625000  0.625000  1
  C  C26  1  0.625000  0.125000  0.625000  1
  C  C27  1  0.625000  0.625000  0.125000  1
