# generated using pymatgen
data_Er3Ga4Co6Ni3B2
_symmetry_space_group_name_H-M   'P 1'
_cell_length_a   5.15327000
_cell_length_b   5.15327060
_cell_length_c   10.44258600
_cell_angle_alpha   90.00000000
_cell_angle_beta   90.00000000
_cell_angle_gamma   119.99998333
_symmetry_Int_Tables_number   1
_chemical_formula_structural   Er3Ga4Co6Ni3B2
_chemical_formula_sum   'Er3 Ga4 Co6 Ni3 B2'
_cell_volume   240.16217636
_cell_formula_units_Z   1
loop_
 _symmetry_equiv_pos_site_id
 _symmetry_equiv_pos_as_xyz
  1  'x, y, z'
loop_
 _atom_site_type_symbol
 _atom_site_label
 _atom_site_symmetry_multiplicity
 _atom_site_fract_x
 _atom_site_fract_y
 _atom_site_fract_z
 _atom_site_occupancy
  Er  Er0  1  0.000000  0.000000  0.000000  1
  Er  Er1  1  0.000000  0.000000  0.323481  1
  Er  Er2  1  0.000000  0.000000  0.676519  1
  Ga  Ga3  1  0.333333  0.666667  0.314139  1
  Ga  Ga4  1  0.666667  0.333333  0.314139  1
  Ga  Ga5  1  0.666667  0.333333  0.685861  1
  Ga  Ga6  1  0.333333  0.666667  0.685861  1
  Co  Co7  1  0.500000  0.000000  0.129611  1
  Co  Co8  1  0.500000  0.500000  0.129611  1
  Co  Co9  1  0.000000  0.500000  0.129611  1
  Co  Co10  1  0.500000  0.000000  0.870389  1
  Co  Co11  1  0.500000  0.500000  0.870389  1
  Co  Co12  1  0.000000  0.500000  0.870389  1
  Ni  Ni13  1  0.500000  0.000000  0.500000  1
  Ni  Ni14  1  0.500000  0.500000  0.500000  1
  Ni  Ni15  1  0.000000  0.500000  0.500000  1
  B  B16  1  0.333333  0.666667  0.000000  1
  B  B17  1  0.666667  0.333333  0.000000  1
