# generated using pymatgen
data_Nd4HfAl3Ir4
_symmetry_space_group_name_H-M   'P 1'
_cell_length_a   4.41724300
_cell_length_b   7.14919968
_cell_length_c   8.07603920
_cell_angle_alpha   89.39403542
_cell_angle_beta   90.00000000
_cell_angle_gamma   90.00000000
_symmetry_Int_Tables_number   1
_chemical_formula_structural   Nd4HfAl3Ir4
_chemical_formula_sum   'Nd4 Hf1 Al3 Ir4'
_cell_volume   255.02505356
_cell_formula_units_Z   1
loop_
 _symmetry_equiv_pos_site_id
 _symmetry_equiv_pos_as_xyz
  1  'x, y, z'
loop_
 _atom_site_type_symbol
 _atom_site_label
 _atom_site_symmetry_multiplicity
 _atom_site_fract_x
 _atom_site_fract_y
 _atom_site_fract_z
 _atom_site_occupancy
  Nd  Nd0  1  0.250000  0.961908  0.310883  1
  Nd  Nd1  1  0.250000  0.474431  0.176303  1
  Nd  Nd2  1  0.750000  0.017571  0.686559  1
  Nd  Nd3  1  0.750000  0.537467  0.829609  1
  Hf  Hf4  1  0.250000  0.367806  0.568057  1
  Al  Al5  1  0.250000  0.857997  0.934433  1
  Al  Al6  1  0.750000  0.639376  0.435304  1
  Al  Al7  1  0.750000  0.141725  0.062103  1
  Ir  Ir8  1  0.250000  0.222701  0.884364  1
  Ir  Ir9  1  0.250000  0.726557  0.614590  1
  Ir  Ir10  1  0.750000  0.780174  0.110965  1
  Ir  Ir11  1  0.750000  0.272289  0.386830  1
