# generated using pymatgen
data_DyZrNb3Si4
_symmetry_space_group_name_H-M   'P 1'
_cell_length_a   6.97945682
_cell_length_b   6.97937916
_cell_length_c   12.91471692
_cell_angle_alpha   89.97331130
_cell_angle_beta   90.05671179
_cell_angle_gamma   89.86328983
_symmetry_Int_Tables_number   1
_chemical_formula_structural   DyZrNb3Si4
_chemical_formula_sum   'Dy4 Zr4 Nb12 Si16'
_cell_volume   629.10308104
_cell_formula_units_Z   4
loop_
 _symmetry_equiv_pos_site_id
 _symmetry_equiv_pos_as_xyz
  1  'x, y, z'
loop_
 _atom_site_type_symbol
 _atom_site_label
 _atom_site_symmetry_multiplicity
 _atom_site_fract_x
 _atom_site_fract_y
 _atom_site_fract_z
 _atom_site_occupancy
  Dy  Dy0  1  0.997603  0.657757  0.032747  1
  Dy  Dy1  1  0.003283  0.339744  0.531258  1
  Dy  Dy2  1  0.659058  0.997656  0.969369  1
  Dy  Dy3  1  0.160278  0.503181  0.781111  1
  Zr  Zr4  1  0.843615  0.501793  0.283759  1
  Zr  Zr5  1  0.497910  0.157692  0.218397  1
  Zr  Zr6  1  0.504203  0.846857  0.715998  1
  Zr  Zr7  1  0.346280  0.996367  0.466635  1
  Nb  Nb8  1  0.348654  0.506886  0.374954  1
  Nb  Nb9  1  0.845833  0.996663  0.373488  1
  Nb  Nb10  1  0.005594  0.153408  0.128930  1
  Nb  Nb11  1  0.992531  0.848651  0.623610  1
  Nb  Nb12  1  0.650471  0.492425  0.875359  1
  Nb  Nb13  1  0.503550  0.346056  0.621651  1
  Nb  Nb14  1  0.494550  0.650662  0.127181  1
  Nb  Nb15  1  0.153926  0.004047  0.872993  1
  Nb  Nb16  1  0.668372  0.672828  0.498912  1
  Nb  Nb17  1  0.827415  0.167766  0.748812  1
  Nb  Nb18  1  0.170205  0.830473  0.251306  1
  Nb  Nb19  1  0.330053  0.329110  0.001432  1
  Si  Si20  1  0.045833  0.706823  0.436379  1
  Si  Si21  1  0.954611  0.292956  0.937455  1
  Si  Si22  1  0.701119  0.045753  0.562322  1
  Si  Si23  1  0.204166  0.453063  0.188300  1
  Si  Si24  1  0.791106  0.545726  0.686479  1
  Si  Si25  1  0.454819  0.202100  0.812532  1
  Si  Si26  1  0.545420  0.797877  0.313405  1
  Si  Si27  1  0.295395  0.956144  0.064536  1
  Si  Si28  1  0.862741  0.795023  0.816754  1
  Si  Si29  1  0.137236  0.205553  0.321130  1
  Si  Si30  1  0.791872  0.866630  0.182718  1
  Si  Si31  1  0.297621  0.640013  0.569694  1
  Si  Si32  1  0.704602  0.364084  0.073710  1
  Si  Si33  1  0.632331  0.292954  0.426545  1
  Si  Si34  1  0.367404  0.706201  0.931014  1
  Si  Si35  1  0.210343  0.129078  0.679124  1
