# generated using pymatgen
data_HoPaB6W
_symmetry_space_group_name_H-M   'P 1'
_cell_length_a   3.73497100
_cell_length_b   9.20242200
_cell_length_c   11.55785200
_cell_angle_alpha   90.00000000
_cell_angle_beta   90.00000000
_cell_angle_gamma   90.00000000
_symmetry_Int_Tables_number   1
_chemical_formula_structural   HoPaB6W
_chemical_formula_sum   'Ho4 Pa4 B24 W4'
_cell_volume   397.25238027
_cell_formula_units_Z   4
loop_
 _symmetry_equiv_pos_site_id
 _symmetry_equiv_pos_as_xyz
  1  'x, y, z'
loop_
 _atom_site_type_symbol
 _atom_site_label
 _atom_site_symmetry_multiplicity
 _atom_site_fract_x
 _atom_site_fract_y
 _atom_site_fract_z
 _atom_site_occupancy
  Ho  Ho0  1  0.000000  0.945559  0.374172  1
  Ho  Ho1  1  0.000000  0.054441  0.625828  1
  Ho  Ho2  1  0.000000  0.445559  0.125828  1
  Ho  Ho3  1  0.000000  0.554441  0.874172  1
  Pa  Pa4  1  0.000000  0.321862  0.413193  1
  Pa  Pa5  1  0.000000  0.678138  0.586807  1
  Pa  Pa6  1  0.000000  0.821862  0.086807  1
  Pa  Pa7  1  0.000000  0.178138  0.913193  1
  B  B8  1  0.500000  0.552893  0.433480  1
  B  B9  1  0.500000  0.447107  0.566520  1
  B  B10  1  0.500000  0.052893  0.066520  1
  B  B11  1  0.500000  0.947107  0.933480  1
  B  B12  1  0.500000  0.748866  0.420539  1
  B  B13  1  0.500000  0.251134  0.579461  1
  B  B14  1  0.500000  0.248866  0.079461  1
  B  B15  1  0.500000  0.751134  0.920539  1
  B  B16  1  0.500000  0.793649  0.264800  1
  B  B17  1  0.500000  0.206351  0.735200  1
  B  B18  1  0.500000  0.293649  0.235200  1
  B  B19  1  0.500000  0.706351  0.764800  1
  B  B20  1  0.500000  0.632525  0.185094  1
  B  B21  1  0.500000  0.367475  0.814906  1
  B  B22  1  0.500000  0.132525  0.314906  1
  B  B23  1  0.500000  0.867475  0.685094  1
  B  B24  1  0.500000  0.981574  0.212639  1
  B  B25  1  0.500000  0.018426  0.787361  1
  B  B26  1  0.500000  0.481574  0.287361  1
  B  B27  1  0.500000  0.518426  0.712639  1
  B  B28  1  0.500000  0.611289  0.030986  1
  B  B29  1  0.500000  0.388711  0.969014  1
  B  B30  1  0.500000  0.111289  0.469014  1
  B  B31  1  0.500000  0.888711  0.530986  1
  W  W32  1  0.000000  0.638600  0.321957  1
  W  W33  1  0.000000  0.361400  0.678043  1
  W  W34  1  0.000000  0.138600  0.178043  1
  W  W35  1  0.000000  0.861400  0.821957  1
