# generated using pymatgen
data_YTmPt2F14
_symmetry_space_group_name_H-M   'P 1'
_cell_length_a   5.52087069
_cell_length_b   8.86621264
_cell_length_c   11.97603376
_cell_angle_alpha   62.38635934
_cell_angle_beta   90.08214248
_cell_angle_gamma   90.00601879
_symmetry_Int_Tables_number   1
_chemical_formula_structural   YTmPt2F14
_chemical_formula_sum   'Y2 Tm2 Pt4 F28'
_cell_volume   519.44267630
_cell_formula_units_Z   2
loop_
 _symmetry_equiv_pos_site_id
 _symmetry_equiv_pos_as_xyz
  1  'x, y, z'
loop_
 _atom_site_type_symbol
 _atom_site_label
 _atom_site_symmetry_multiplicity
 _atom_site_fract_x
 _atom_site_fract_y
 _atom_site_fract_z
 _atom_site_occupancy
  Y  Y0  1  0.760961  0.183387  0.236385  1
  Y  Y1  1  0.239039  0.816613  0.763615  1
  Tm  Tm2  1  0.261415  0.813562  0.263646  1
  Tm  Tm3  1  0.738585  0.186438  0.736354  1
  Pt  Pt4  1  0.759380  0.728642  0.043437  1
  Pt  Pt5  1  0.240620  0.271358  0.956563  1
  Pt  Pt6  1  0.259345  0.274379  0.458147  1
  Pt  Pt7  1  0.740655  0.725621  0.541853  1
  F  F8  1  0.938327  0.704710  0.413108  1
  F  F9  1  0.061673  0.295290  0.586892  1
  F  F10  1  0.436656  0.294627  0.084790  1
  F  F11  1  0.563344  0.705373  0.915210  1
  F  F12  1  0.465371  0.728146  0.136821  1
  F  F13  1  0.534629  0.271854  0.863179  1
  F  F14  1  0.965625  0.274610  0.365084  1
  F  F15  1  0.034375  0.725390  0.634916  1
  F  F16  1  0.953074  0.744754  0.176121  1
  F  F17  1  0.046926  0.255246  0.823879  1
  F  F18  1  0.450039  0.259096  0.324703  1
  F  F19  1  0.549961  0.740904  0.675297  1
  F  F20  1  0.769954  0.478932  0.142313  1
  F  F21  1  0.230046  0.521068  0.857687  1
  F  F22  1  0.270583  0.524314  0.358684  1
  F  F23  1  0.729417  0.475686  0.641316  1
  F  F24  1  0.940677  0.280340  0.042293  1
  F  F25  1  0.059323  0.719660  0.957707  1
  F  F26  1  0.439115  0.719771  0.454759  1
  F  F27  1  0.560885  0.280229  0.545241  1
  F  F28  1  0.741392  0.975148  0.449632  1
  F  F29  1  0.258608  0.024852  0.550368  1
  F  F30  1  0.240335  0.021609  0.051566  1
  F  F31  1  0.759665  0.978391  0.948434  1
  F  F32  1  0.583669  0.965492  0.232011  1
  F  F33  1  0.416331  0.034508  0.767989  1
  F  F34  1  0.090409  0.026833  0.268206  1
  F  F35  1  0.909591  0.973167  0.731794  1
