# generated using pymatgen
data_NdEr2Nb(Co4P3)2
_symmetry_space_group_name_H-M   'P 1'
_cell_length_a   3.72465100
_cell_length_b   10.65669500
_cell_length_c   12.36468900
_cell_angle_alpha   90.00000000
_cell_angle_beta   90.00000000
_cell_angle_gamma   90.00000000
_symmetry_Int_Tables_number   1
_chemical_formula_structural   NdEr2Nb(Co4P3)2
_chemical_formula_sum   'Nd2 Er4 Nb2 Co16 P12'
_cell_volume   490.78504334
_cell_formula_units_Z   2
loop_
 _symmetry_equiv_pos_site_id
 _symmetry_equiv_pos_as_xyz
  1  'x, y, z'
loop_
 _atom_site_type_symbol
 _atom_site_label
 _atom_site_symmetry_multiplicity
 _atom_site_fract_x
 _atom_site_fract_y
 _atom_site_fract_z
 _atom_site_occupancy
  Nd  Nd0  1  0.000000  0.500000  0.527239  1
  Nd  Nd1  1  0.500000  0.000000  0.472761  1
  Er  Er2  1  0.500000  0.820002  0.204122  1
  Er  Er3  1  0.500000  0.179998  0.204122  1
  Er  Er4  1  0.000000  0.679998  0.795878  1
  Er  Er5  1  0.000000  0.320002  0.795878  1
  Nb  Nb6  1  0.500000  0.500000  0.154532  1
  Nb  Nb7  1  0.000000  0.000000  0.845468  1
  Co  Co8  1  0.500000  0.500000  0.705657  1
  Co  Co9  1  0.000000  0.000000  0.294343  1
  Co  Co10  1  0.000000  0.500000  0.985362  1
  Co  Co11  1  0.500000  0.000000  0.014638  1
  Co  Co12  1  0.500000  0.332057  0.991368  1
  Co  Co13  1  0.500000  0.667943  0.991368  1
  Co  Co14  1  0.000000  0.167943  0.008632  1
  Co  Co15  1  0.000000  0.832057  0.008632  1
  Co  Co16  1  0.500000  0.294910  0.430972  1
  Co  Co17  1  0.500000  0.705090  0.430972  1
  Co  Co18  1  0.000000  0.205090  0.569028  1
  Co  Co19  1  0.000000  0.794910  0.569028  1
  Co  Co20  1  0.500000  0.877463  0.707318  1
  Co  Co21  1  0.500000  0.122537  0.707318  1
  Co  Co22  1  0.000000  0.622537  0.292682  1
  Co  Co23  1  0.000000  0.377463  0.292682  1
  P  P24  1  0.500000  0.500000  0.882604  1
  P  P25  1  0.000000  0.000000  0.117396  1
  P  P26  1  0.500000  0.500000  0.351443  1
  P  P27  1  0.000000  0.000000  0.648557  1
  P  P28  1  0.500000  0.307944  0.617539  1
  P  P29  1  0.500000  0.692056  0.617539  1
  P  P30  1  0.000000  0.192056  0.382461  1
  P  P31  1  0.000000  0.807944  0.382461  1
  P  P32  1  0.500000  0.840961  0.893557  1
  P  P33  1  0.500000  0.159039  0.893557  1
  P  P34  1  0.000000  0.659039  0.106443  1
  P  P35  1  0.000000  0.340961  0.106443  1
