# generated using pymatgen
data_Hf3Nb2Si3B
_symmetry_space_group_name_H-M   'P 1'
_cell_length_a   7.85520500
_cell_length_b   7.85520431
_cell_length_c   5.40921700
_cell_angle_alpha   90.00000000
_cell_angle_beta   90.00000000
_cell_angle_gamma   120.00000710
_symmetry_Int_Tables_number   1
_chemical_formula_structural   Hf3Nb2Si3B
_chemical_formula_sum   'Hf6 Nb4 Si6 B2'
_cell_volume   289.05468565
_cell_formula_units_Z   2
loop_
 _symmetry_equiv_pos_site_id
 _symmetry_equiv_pos_as_xyz
  1  'x, y, z'
loop_
 _atom_site_type_symbol
 _atom_site_label
 _atom_site_symmetry_multiplicity
 _atom_site_fract_x
 _atom_site_fract_y
 _atom_site_fract_z
 _atom_site_occupancy
  Hf  Hf0  1  0.752508  0.752508  0.250000  1
  Hf  Hf1  1  0.247492  0.000000  0.250000  1
  Hf  Hf2  1  0.000000  0.247492  0.250000  1
  Hf  Hf3  1  0.247492  0.247492  0.750000  1
  Hf  Hf4  1  0.752508  0.000000  0.750000  1
  Hf  Hf5  1  0.000000  0.752508  0.750000  1
  Nb  Nb6  1  0.666667  0.333333  0.500000  1
  Nb  Nb7  1  0.333333  0.666667  0.500000  1
  Nb  Nb8  1  0.333333  0.666667  0.000000  1
  Nb  Nb9  1  0.666667  0.333333  0.000000  1
  Si  Si10  1  0.401329  0.401329  0.250000  1
  Si  Si11  1  0.598671  0.000000  0.250000  1
  Si  Si12  1  0.000000  0.598671  0.250000  1
  Si  Si13  1  0.598671  0.598671  0.750000  1
  Si  Si14  1  0.401329  0.000000  0.750000  1
  Si  Si15  1  0.000000  0.401329  0.750000  1
  B  B16  1  0.000000  0.000000  0.500000  1
  B  B17  1  0.000000  0.000000  0.000000  1
