# generated using pymatgen
data_DyEr(BiO4)2
_symmetry_space_group_name_H-M   'P 1'
_cell_length_a   5.51473324
_cell_length_b   7.85565979
_cell_length_c   7.82290730
_cell_angle_alpha   82.96356233
_cell_angle_beta   90.46668850
_cell_angle_gamma   92.39677870
_symmetry_Int_Tables_number   1
_chemical_formula_structural   DyEr(BiO4)2
_chemical_formula_sum   'Dy2 Er2 Bi4 O16'
_cell_volume   336.05468733
_cell_formula_units_Z   2
loop_
 _symmetry_equiv_pos_site_id
 _symmetry_equiv_pos_as_xyz
  1  'x, y, z'
loop_
 _atom_site_type_symbol
 _atom_site_label
 _atom_site_symmetry_multiplicity
 _atom_site_fract_x
 _atom_site_fract_y
 _atom_site_fract_z
 _atom_site_occupancy
  Dy  Dy0  1  0.254394  0.124936  0.621749  1
  Dy  Dy1  1  0.745606  0.875064  0.378251  1
  Er  Er2  1  0.217121  0.152062  0.116348  1
  Er  Er3  1  0.782879  0.847938  0.883652  1
  Bi  Bi4  1  0.240370  0.664329  0.183638  1
  Bi  Bi5  1  0.759630  0.335671  0.816362  1
  Bi  Bi6  1  0.725060  0.336439  0.318751  1
  Bi  Bi7  1  0.274940  0.663561  0.681249  1
  O  O8  1  0.091544  0.418808  0.676656  1
  O  O9  1  0.908456  0.581192  0.323344  1
  O  O10  1  0.581705  0.319639  0.570959  1
  O  O11  1  0.418295  0.680361  0.429041  1
  O  O12  1  0.899920  0.326941  0.072654  1
  O  O13  1  0.100080  0.673059  0.927346  1
  O  O14  1  0.392598  0.417540  0.186276  1
  O  O15  1  0.607402  0.582460  0.813724  1
  O  O16  1  0.035620  0.895271  0.168857  1
  O  O17  1  0.964380  0.104729  0.831143  1
  O  O18  1  0.502088  0.101887  0.321425  1
  O  O19  1  0.497912  0.898113  0.678575  1
  O  O20  1  0.451348  0.181509  0.886711  1
  O  O21  1  0.548652  0.818491  0.113289  1
  O  O22  1  0.996973  0.157353  0.387185  1
  O  O23  1  0.003027  0.842647  0.612815  1
