# generated using pymatgen
data_Y15Tm(LuBi3)4
_symmetry_space_group_name_H-M   'P 1'
_cell_length_a   8.23153574
_cell_length_b   9.51737278
_cell_length_c   12.05312014
_cell_angle_alpha   90.00147430
_cell_angle_beta   90.05485023
_cell_angle_gamma   90.01916599
_symmetry_Int_Tables_number   1
_chemical_formula_structural   Y15Tm(LuBi3)4
_chemical_formula_sum   'Y15 Tm1 Lu4 Bi12'
_cell_volume   944.27221381
_cell_formula_units_Z   1
loop_
 _symmetry_equiv_pos_site_id
 _symmetry_equiv_pos_as_xyz
  1  'x, y, z'
loop_
 _atom_site_type_symbol
 _atom_site_label
 _atom_site_symmetry_multiplicity
 _atom_site_fract_x
 _atom_site_fract_y
 _atom_site_fract_z
 _atom_site_occupancy
  Y  Y0  1  0.186319  0.749983  0.719061  1
  Y  Y1  1  0.686396  0.749959  0.781143  1
  Y  Y2  1  0.813799  0.250131  0.280874  1
  Y  Y3  1  0.313613  0.250400  0.218592  1
  Y  Y4  1  0.806242  0.062982  0.559912  1
  Y  Y5  1  0.693298  0.936936  0.059388  1
  Y  Y6  1  0.193846  0.562790  0.440275  1
  Y  Y7  1  0.693882  0.562636  0.059610  1
  Y  Y8  1  0.193766  0.937165  0.440233  1
  Y  Y9  1  0.306182  0.063178  0.940431  1
  Y  Y10  1  0.806227  0.437090  0.559821  1
  Y  Y11  1  0.355073  0.750311  0.215602  1
  Y  Y12  1  0.854706  0.750044  0.284291  1
  Y  Y13  1  0.644677  0.250676  0.784684  1
  Y  Y14  1  0.146143  0.250788  0.716029  1
  Tm  Tm15  1  0.305863  0.434871  0.940175  1
  Lu  Lu16  1  0.025957  0.749953  0.989033  1
  Lu  Lu17  1  0.525584  0.750154  0.511039  1
  Lu  Lu18  1  0.975142  0.250474  0.010932  1
  Lu  Lu19  1  0.474341  0.250047  0.489031  1
  Bi  Bi20  1  0.433879  0.003636  0.672111  1
  Bi  Bi21  1  0.934365  0.496644  0.828201  1
  Bi  Bi22  1  0.565936  0.503540  0.327855  1
  Bi  Bi23  1  0.066132  0.996645  0.171961  1
  Bi  Bi24  1  0.566109  0.996703  0.327957  1
  Bi  Bi25  1  0.066092  0.503735  0.171763  1
  Bi  Bi26  1  0.433685  0.496681  0.672213  1
  Bi  Bi27  1  0.933932  0.003823  0.828136  1
  Bi  Bi28  1  0.406774  0.747703  0.957837  1
  Bi  Bi29  1  0.907756  0.749990  0.541733  1
  Bi  Bi30  1  0.592118  0.250413  0.041618  1
  Bi  Bi31  1  0.092165  0.249919  0.458460  1
