# generated using pymatgen
data_CeNdCo4(PRh)6
_symmetry_space_group_name_H-M   'P 1'
_cell_length_a   3.83251600
_cell_length_b   10.75199100
_cell_length_c   12.29878300
_cell_angle_alpha   90.00000000
_cell_angle_beta   90.00000000
_cell_angle_gamma   90.00000000
_symmetry_Int_Tables_number   1
_chemical_formula_structural   CeNdCo4(PRh)6
_chemical_formula_sum   'Ce2 Nd2 Co8 P12 Rh12'
_cell_volume   506.79813460
_cell_formula_units_Z   2
loop_
 _symmetry_equiv_pos_site_id
 _symmetry_equiv_pos_as_xyz
  1  'x, y, z'
loop_
 _atom_site_type_symbol
 _atom_site_label
 _atom_site_symmetry_multiplicity
 _atom_site_fract_x
 _atom_site_fract_y
 _atom_site_fract_z
 _atom_site_occupancy
  Ce  Ce0  1  0.750000  0.416814  0.291801  1
  Ce  Ce1  1  0.750000  0.083186  0.791801  1
  Nd  Nd2  1  0.250000  0.582368  0.708542  1
  Nd  Nd3  1  0.250000  0.917632  0.208542  1
  Co  Co4  1  0.250000  0.884469  0.696007  1
  Co  Co5  1  0.250000  0.615531  0.196007  1
  Co  Co6  1  0.750000  0.118514  0.304937  1
  Co  Co7  1  0.750000  0.381486  0.804937  1
  Co  Co8  1  0.250000  0.464155  0.935060  1
  Co  Co9  1  0.250000  0.035845  0.435060  1
  Co  Co10  1  0.750000  0.535667  0.067930  1
  Co  Co11  1  0.750000  0.964333  0.567930  1
  P  P12  1  0.250000  0.430468  0.110242  1
  P  P13  1  0.250000  0.069532  0.610242  1
  P  P14  1  0.750000  0.568706  0.891248  1
  P  P15  1  0.750000  0.931294  0.391248  1
  P  P16  1  0.250000  0.278607  0.870595  1
  P  P17  1  0.250000  0.221393  0.370595  1
  P  P18  1  0.750000  0.723733  0.128083  1
  P  P19  1  0.750000  0.776267  0.628083  1
  P  P20  1  0.250000  0.603954  0.382457  1
  P  P21  1  0.250000  0.896046  0.882457  1
  P  P22  1  0.750000  0.397256  0.617243  1
  P  P23  1  0.750000  0.102744  0.117243  1
  Rh  Rh24  1  0.250000  0.714929  0.991630  1
  Rh  Rh25  1  0.250000  0.785071  0.491630  1
  Rh  Rh26  1  0.750000  0.284500  0.009907  1
  Rh  Rh27  1  0.750000  0.215500  0.509907  1
  Rh  Rh28  1  0.250000  0.408002  0.477448  1
  Rh  Rh29  1  0.250000  0.091998  0.977448  1
  Rh  Rh30  1  0.750000  0.590361  0.517745  1
  Rh  Rh31  1  0.750000  0.909639  0.017745  1
  Rh  Rh32  1  0.250000  0.224249  0.178568  1
  Rh  Rh33  1  0.250000  0.275751  0.678568  1
  Rh  Rh34  1  0.750000  0.775448  0.820558  1
  Rh  Rh35  1  0.750000  0.724552  0.320558  1
