# generated using pymatgen
data_Y15Th(CdPd)4
_symmetry_space_group_name_H-M   'P 1'
_cell_length_a   9.74631994
_cell_length_b   9.74632002
_cell_length_c   9.74632017
_cell_angle_alpha   60.22085621
_cell_angle_beta   60.22085891
_cell_angle_gamma   60.22085282
_symmetry_Int_Tables_number   1
_chemical_formula_structural   Y15Th(CdPd)4
_chemical_formula_sum   'Y15 Th1 Cd4 Pd4'
_cell_volume   657.92019193
_cell_formula_units_Z   1
loop_
 _symmetry_equiv_pos_site_id
 _symmetry_equiv_pos_as_xyz
  1  'x, y, z'
loop_
 _atom_site_type_symbol
 _atom_site_label
 _atom_site_symmetry_multiplicity
 _atom_site_fract_x
 _atom_site_fract_y
 _atom_site_fract_z
 _atom_site_occupancy
  Y  Y0  1  0.356690  0.356690  0.932391  1
  Y  Y1  1  0.356690  0.932391  0.356690  1
  Y  Y2  1  0.932391  0.356690  0.356690  1
  Y  Y3  1  0.811758  0.189918  0.189918  1
  Y  Y4  1  0.190214  0.811251  0.811251  1
  Y  Y5  1  0.189918  0.811758  0.189918  1
  Y  Y6  1  0.811251  0.190214  0.811251  1
  Y  Y7  1  0.189918  0.189918  0.811758  1
  Y  Y8  1  0.811251  0.811251  0.190214  1
  Y  Y9  1  0.936563  0.566486  0.566486  1
  Y  Y10  1  0.563960  0.935912  0.935912  1
  Y  Y11  1  0.566486  0.936563  0.566486  1
  Y  Y12  1  0.935912  0.563960  0.935912  1
  Y  Y13  1  0.566486  0.566486  0.936563  1
  Y  Y14  1  0.935912  0.935912  0.563960  1
  Th  Th15  1  0.349162  0.349162  0.349162  1
  Cd  Cd16  1  0.582166  0.582166  0.582166  1
  Cd  Cd17  1  0.582107  0.582107  0.252049  1
  Cd  Cd18  1  0.582107  0.252049  0.582107  1
  Cd  Cd19  1  0.252049  0.582107  0.582107  1
  Pd  Pd20  1  0.146231  0.146231  0.146231  1
  Pd  Pd21  1  0.141848  0.141848  0.567084  1
  Pd  Pd22  1  0.141848  0.567084  0.141848  1
  Pd  Pd23  1  0.567084  0.141848  0.141848  1
