# generated using pymatgen
data_Yb2Cd3InAg2
_symmetry_space_group_name_H-M   'P 1'
_cell_length_a   5.72526192
_cell_length_b   5.72526142
_cell_length_c   8.30717362
_cell_angle_alpha   90.52635777
_cell_angle_beta   89.47364293
_cell_angle_gamma   135.17387694
_symmetry_Int_Tables_number   1
_chemical_formula_structural   Yb2Cd3InAg2
_chemical_formula_sum   'Yb2 Cd3 In1 Ag2'
_cell_volume   191.94886761
_cell_formula_units_Z   1
loop_
 _symmetry_equiv_pos_site_id
 _symmetry_equiv_pos_as_xyz
  1  'x, y, z'
loop_
 _atom_site_type_symbol
 _atom_site_label
 _atom_site_symmetry_multiplicity
 _atom_site_fract_x
 _atom_site_fract_y
 _atom_site_fract_z
 _atom_site_occupancy
  Yb  Yb0  1  0.065055  0.934945  0.256150  1
  Yb  Yb1  1  0.935291  0.064709  0.744059  1
  Cd  Cd2  1  0.637192  0.362808  0.552749  1
  Cd  Cd3  1  0.364021  0.635979  0.449678  1
  Cd  Cd4  1  0.635247  0.364753  0.945683  1
  In  In5  1  0.362812  0.637188  0.051434  1
  Ag  Ag6  1  0.225082  0.774918  0.750897  1
  Ag  Ag7  1  0.775303  0.224697  0.249351  1
