# generated using pymatgen
data_Tl6Cr(RhCl6)3
_symmetry_space_group_name_H-M   'P 1'
_cell_length_a   7.17036400
_cell_length_b   7.17036367
_cell_length_c   18.01321200
_cell_angle_alpha   90.00000000
_cell_angle_beta   90.00000000
_cell_angle_gamma   120.00000151
_symmetry_Int_Tables_number   1
_chemical_formula_structural   Tl6Cr(RhCl6)3
_chemical_formula_sum   'Tl6 Cr1 Rh3 Cl18'
_cell_volume   802.05503869
_cell_formula_units_Z   1
loop_
 _symmetry_equiv_pos_site_id
 _symmetry_equiv_pos_as_xyz
  1  'x, y, z'
loop_
 _atom_site_type_symbol
 _atom_site_label
 _atom_site_symmetry_multiplicity
 _atom_site_fract_x
 _atom_site_fract_y
 _atom_site_fract_z
 _atom_site_occupancy
  Tl  Tl0  1  0.666667  0.333333  0.940861  1
  Tl  Tl1  1  0.333333  0.666667  0.442364  1
  Tl  Tl2  1  0.666667  0.333333  0.561030  1
  Tl  Tl3  1  0.333333  0.666667  0.059200  1
  Tl  Tl4  1  0.000000  0.000000  0.748333  1
  Tl  Tl5  1  0.000000  0.000000  0.250948  1
  Cr  Cr6  1  0.333333  0.666667  0.837619  1
  Rh  Rh7  1  0.333333  0.666667  0.665868  1
  Rh  Rh8  1  0.666667  0.333333  0.163795  1
  Rh  Rh9  1  0.666667  0.333333  0.335968  1
  Cl  Cl10  1  0.820774  0.641548  0.409630  1
  Cl  Cl11  1  0.178379  0.356759  0.907438  1
  Cl  Cl12  1  0.178379  0.821621  0.907438  1
  Cl  Cl13  1  0.179394  0.358788  0.591453  1
  Cl  Cl14  1  0.643241  0.821621  0.907438  1
  Cl  Cl15  1  0.358452  0.179226  0.409630  1
  Cl  Cl16  1  0.033173  0.516587  0.749890  1
  Cl  Cl17  1  0.820774  0.179226  0.409630  1
  Cl  Cl18  1  0.517592  0.035184  0.249771  1
  Cl  Cl19  1  0.483413  0.516587  0.749890  1
  Cl  Cl20  1  0.517592  0.482408  0.249771  1
  Cl  Cl21  1  0.964816  0.482408  0.249771  1
  Cl  Cl22  1  0.358768  0.179384  0.089822  1
  Cl  Cl23  1  0.483413  0.966827  0.749890  1
  Cl  Cl24  1  0.820616  0.641232  0.089822  1
  Cl  Cl25  1  0.179394  0.820606  0.591453  1
  Cl  Cl26  1  0.641212  0.820606  0.591453  1
  Cl  Cl27  1  0.820616  0.179384  0.089822  1
