# generated using pymatgen
data_Tb2YMg3AgGe2
_symmetry_space_group_name_H-M   'P 1'
_cell_length_a   7.32392500
_cell_length_b   7.31820098
_cell_length_c   4.37523400
_cell_angle_alpha   90.00000000
_cell_angle_beta   90.00000000
_cell_angle_gamma   120.02587258
_symmetry_Int_Tables_number   1
_chemical_formula_structural   Tb2YMg3AgGe2
_chemical_formula_sum   'Tb2 Y1 Mg3 Ag1 Ge2'
_cell_volume   203.03310380
_cell_formula_units_Z   1
loop_
 _symmetry_equiv_pos_site_id
 _symmetry_equiv_pos_as_xyz
  1  'x, y, z'
loop_
 _atom_site_type_symbol
 _atom_site_label
 _atom_site_symmetry_multiplicity
 _atom_site_fract_x
 _atom_site_fract_y
 _atom_site_fract_z
 _atom_site_occupancy
  Tb  Tb0  1  0.422277  0.422107  0.500000  1
  Tb  Tb1  1  0.000170  0.577893  0.500000  1
  Y  Y2  1  0.577784  0.000000  0.500000  1
  Mg  Mg3  1  0.754655  0.754746  0.000000  1
  Mg  Mg4  1  0.245453  0.000000  0.000000  1
  Mg  Mg5  1  0.999909  0.245254  0.000000  1
  Ag  Ag6  1  0.999830  0.000000  0.500000  1
  Ge  Ge7  1  0.666609  0.333293  0.000000  1
  Ge  Ge8  1  0.333315  0.666707  0.000000  1
