# generated using pymatgen
data_Dy9Th7(CdOs)4
_symmetry_space_group_name_H-M   'P 1'
_cell_length_a   9.75068878
_cell_length_b   9.73029655
_cell_length_c   9.83288200
_cell_angle_alpha   59.54154047
_cell_angle_beta   60.22904163
_cell_angle_gamma   60.61887915
_symmetry_Int_Tables_number   1
_chemical_formula_structural   Dy9Th7(CdOs)4
_chemical_formula_sum   'Dy9 Th7 Cd4 Os4'
_cell_volume   661.49163074
_cell_formula_units_Z   1
loop_
 _symmetry_equiv_pos_site_id
 _symmetry_equiv_pos_as_xyz
  1  'x, y, z'
loop_
 _atom_site_type_symbol
 _atom_site_label
 _atom_site_symmetry_multiplicity
 _atom_site_fract_x
 _atom_site_fract_y
 _atom_site_fract_z
 _atom_site_occupancy
  Dy  Dy0  1  0.058834  0.439826  0.059287  1
  Dy  Dy1  1  0.440599  0.444690  0.055443  1
  Dy  Dy2  1  0.056090  0.059387  0.439318  1
  Dy  Dy3  1  0.185460  0.815371  0.816387  1
  Dy  Dy4  1  0.815005  0.185634  0.183742  1
  Dy  Dy5  1  0.813241  0.188362  0.813960  1
  Dy  Dy6  1  0.187503  0.812050  0.187007  1
  Dy  Dy7  1  0.812031  0.810298  0.189664  1
  Dy  Dy8  1  0.188267  0.190612  0.811375  1
  Th  Th9  1  0.593291  0.596870  0.603556  1
  Th  Th10  1  0.601290  0.594186  0.204199  1
  Th  Th11  1  0.604789  0.202977  0.595367  1
  Th  Th12  1  0.204608  0.601066  0.600590  1
  Th  Th13  1  0.061156  0.439311  0.435133  1
  Th  Th14  1  0.432838  0.065935  0.062915  1
  Th  Th15  1  0.438560  0.061876  0.437999  1
  Cd  Cd16  1  0.834978  0.830415  0.830423  1
  Cd  Cd17  1  0.833709  0.831679  0.502916  1
  Cd  Cd18  1  0.831329  0.502881  0.833487  1
  Cd  Cd19  1  0.502059  0.829278  0.834004  1
  Os  Os20  1  0.386253  0.388273  0.398053  1
  Os  Os21  1  0.394865  0.382297  0.823901  1
  Os  Os22  1  0.397967  0.827699  0.385856  1
  Os  Os23  1  0.825282  0.399028  0.395419  1
