# generated using pymatgen
data_LaThCu16(Si4Ni)2
_symmetry_space_group_name_H-M   'P 1'
_cell_length_a   8.13470711
_cell_length_b   8.11646333
_cell_length_c   8.10641746
_cell_angle_alpha   120.73538064
_cell_angle_beta   120.13310405
_cell_angle_gamma   89.35680362
_symmetry_Int_Tables_number   1
_chemical_formula_structural   LaThCu16(Si4Ni)2
_chemical_formula_sum   'La1 Th1 Cu16 Si8 Ni2'
_cell_volume   375.58390988
_cell_formula_units_Z   1
loop_
 _symmetry_equiv_pos_site_id
 _symmetry_equiv_pos_as_xyz
  1  'x, y, z'
loop_
 _atom_site_type_symbol
 _atom_site_label
 _atom_site_symmetry_multiplicity
 _atom_site_fract_x
 _atom_site_fract_y
 _atom_site_fract_z
 _atom_site_occupancy
  La  La0  1  0.252713  0.248517  0.999559  1
  Th  Th1  1  0.749278  0.744263  0.997042  1
  Cu  Cu2  1  0.563007  0.700334  0.262780  1
  Cu  Cu3  1  0.795127  0.931168  0.729602  1
  Cu  Cu4  1  0.311568  0.810232  0.753862  1
  Cu  Cu5  1  0.806962  0.057612  0.501394  1
  Cu  Cu6  1  0.432674  0.300252  0.735184  1
  Cu  Cu7  1  0.190892  0.940346  0.499780  1
  Cu  Cu8  1  0.443961  0.694515  0.502431  1
  Cu  Cu9  1  0.942266  0.442133  0.750636  1
  Cu  Cu10  1  0.696360  0.190921  0.252509  1
  Cu  Cu11  1  0.060667  0.555372  0.249324  1
  Cu  Cu12  1  0.499571  0.001012  0.500461  1
  Cu  Cu13  1  0.003834  0.498655  0.499864  1
  Cu  Cu14  1  0.297728  0.569518  0.864404  1
  Cu  Cu15  1  0.935358  0.199821  0.136020  1
  Cu  Cu16  1  0.062587  0.797940  0.861358  1
  Cu  Cu17  1  0.200882  0.064213  0.268303  1
  Si  Si18  1  0.443546  0.952531  0.157048  1
  Si  Si19  1  0.206104  0.707806  0.149847  1
  Si  Si20  1  0.702997  0.547523  0.489839  1
  Si  Si21  1  0.934171  0.782844  0.487066  1
  Si  Si22  1  0.301001  0.442056  0.503496  1
  Si  Si23  1  0.781993  0.300326  0.848943  1
  Si  Si24  1  0.560780  0.065545  0.856341  1
  Si  Si25  1  0.056929  0.205376  0.499264  1
  Ni  Ni26  1  0.558637  0.313527  0.503729  1
  Ni  Ni27  1  0.708408  0.435644  0.139912  1
