# generated using pymatgen
data_Tm6Mn15Co2MoP12
_symmetry_space_group_name_H-M   'P 1'
_cell_length_a   3.62382100
_cell_length_b   10.83755100
_cell_length_c   12.59939100
_cell_angle_alpha   90.00000000
_cell_angle_beta   90.00000000
_cell_angle_gamma   90.00000000
_symmetry_Int_Tables_number   1
_chemical_formula_structural   Tm6Mn15Co2MoP12
_chemical_formula_sum   'Tm6 Mn15 Co2 Mo1 P12'
_cell_volume   494.82022830
_cell_formula_units_Z   1
loop_
 _symmetry_equiv_pos_site_id
 _symmetry_equiv_pos_as_xyz
  1  'x, y, z'
loop_
 _atom_site_type_symbol
 _atom_site_label
 _atom_site_symmetry_multiplicity
 _atom_site_fract_x
 _atom_site_fract_y
 _atom_site_fract_z
 _atom_site_occupancy
  Tm  Tm0  1  0.000000  0.500000  0.533029  1
  Tm  Tm1  1  0.500000  0.000000  0.468445  1
  Tm  Tm2  1  0.500000  0.822571  0.206991  1
  Tm  Tm3  1  0.500000  0.177429  0.206991  1
  Tm  Tm4  1  0.000000  0.677329  0.793632  1
  Tm  Tm5  1  0.000000  0.322671  0.793632  1
  Mn  Mn6  1  0.000000  0.000000  0.834932  1
  Mn  Mn7  1  0.000000  0.500000  0.989713  1
  Mn  Mn8  1  0.500000  0.000000  0.007771  1
  Mn  Mn9  1  0.500000  0.331312  0.994450  1
  Mn  Mn10  1  0.500000  0.668688  0.994450  1
  Mn  Mn11  1  0.000000  0.165675  0.002040  1
  Mn  Mn12  1  0.000000  0.834325  0.002040  1
  Mn  Mn13  1  0.500000  0.296362  0.434767  1
  Mn  Mn14  1  0.500000  0.703638  0.434767  1
  Mn  Mn15  1  0.000000  0.201461  0.568237  1
  Mn  Mn16  1  0.000000  0.798539  0.568237  1
  Mn  Mn17  1  0.500000  0.880997  0.702056  1
  Mn  Mn18  1  0.500000  0.119003  0.702056  1
  Mn  Mn19  1  0.000000  0.622291  0.300537  1
  Mn  Mn20  1  0.000000  0.377709  0.300537  1
  Co  Co21  1  0.500000  0.500000  0.704271  1
  Co  Co22  1  0.000000  0.000000  0.294979  1
  Mo  Mo23  1  0.500000  0.500000  0.163788  1
  P  P24  1  0.500000  0.500000  0.877640  1
  P  P25  1  0.000000  0.000000  0.120584  1
  P  P26  1  0.500000  0.500000  0.362674  1
  P  P27  1  0.000000  0.000000  0.640284  1
  P  P28  1  0.500000  0.318858  0.619768  1
  P  P29  1  0.500000  0.681142  0.619768  1
  P  P30  1  0.000000  0.179627  0.382238  1
  P  P31  1  0.000000  0.820373  0.382238  1
  P  P32  1  0.500000  0.845364  0.883102  1
  P  P33  1  0.500000  0.154636  0.883102  1
  P  P34  1  0.000000  0.659199  0.113128  1
  P  P35  1  0.000000  0.340801  0.113128  1
