# generated using pymatgen
data_Ho7Fe2Co4Sn23
_symmetry_space_group_name_H-M   'P 1'
_cell_length_a   9.70973428
_cell_length_b   9.71763626
_cell_length_c   9.94545558
_cell_angle_alpha   90.00000208
_cell_angle_beta   89.88414449
_cell_angle_gamma   120.02692709
_symmetry_Int_Tables_number   1
_chemical_formula_structural   Ho7Fe2Co4Sn23
_chemical_formula_sum   'Ho7 Fe2 Co4 Sn23'
_cell_volume   812.46415537
_cell_formula_units_Z   1
loop_
 _symmetry_equiv_pos_site_id
 _symmetry_equiv_pos_as_xyz
  1  'x, y, z'
loop_
 _atom_site_type_symbol
 _atom_site_label
 _atom_site_symmetry_multiplicity
 _atom_site_fract_x
 _atom_site_fract_y
 _atom_site_fract_z
 _atom_site_occupancy
  Ho  Ho0  1  0.002652  0.001325  0.997753  1
  Ho  Ho1  1  0.518419  0.480271  0.693797  1
  Ho  Ho2  1  0.518419  0.038147  0.693797  1
  Ho  Ho3  1  0.961373  0.480686  0.694558  1
  Ho  Ho4  1  0.041247  0.520624  0.306276  1
  Ho  Ho5  1  0.479686  0.959876  0.307067  1
  Ho  Ho6  1  0.479686  0.519810  0.307067  1
  Fe  Fe7  1  0.168301  0.832429  0.801469  1
  Fe  Fe8  1  0.168301  0.335872  0.801469  1
  Co  Co9  1  0.663810  0.831906  0.801905  1
  Co  Co10  1  0.337114  0.168557  0.197565  1
  Co  Co11  1  0.831307  0.662681  0.197687  1
  Co  Co12  1  0.831307  0.168626  0.197687  1
  Sn  Sn13  1  0.666665  0.333332  0.180395  1
  Sn  Sn14  1  0.666468  0.333234  0.881076  1
  Sn  Sn15  1  0.335360  0.667681  0.118686  1
  Sn  Sn16  1  0.346206  0.346628  0.999713  1
  Sn  Sn17  1  0.000939  0.654498  0.999935  1
  Sn  Sn18  1  0.652969  0.999758  0.999775  1
  Sn  Sn19  1  0.652969  0.653210  0.999775  1
  Sn  Sn20  1  0.331403  0.665702  0.819975  1
  Sn  Sn21  1  0.436681  0.218341  0.454088  1
  Sn  Sn22  1  0.217350  0.781901  0.546387  1
  Sn  Sn23  1  0.217350  0.435448  0.546387  1
  Sn  Sn24  1  0.563945  0.781972  0.545939  1
  Sn  Sn25  1  0.116749  0.883273  0.273938  1
  Sn  Sn26  1  0.782414  0.564142  0.453534  1
  Sn  Sn27  1  0.782414  0.218273  0.453534  1
  Sn  Sn28  1  0.346206  0.999578  0.999713  1
  Sn  Sn29  1  0.116749  0.233475  0.273938  1
  Sn  Sn30  1  0.766809  0.883404  0.272249  1
  Sn  Sn31  1  0.232508  0.116254  0.728817  1
  Sn  Sn32  1  0.883136  0.765925  0.727323  1
  Sn  Sn33  1  0.883136  0.117211  0.727323  1
  Sn  Sn34  1  0.999017  0.999509  0.499464  1
  Sn  Sn35  1  0.000939  0.346442  0.999935  1
