# generated using pymatgen
data_Rb(PuS2)2
_symmetry_space_group_name_H-M   'P 1'
_cell_length_a   4.08534400
_cell_length_b   12.58113000
_cell_length_c   14.64817600
_cell_angle_alpha   90.00000000
_cell_angle_beta   90.00000000
_cell_angle_gamma   90.00000000
_symmetry_Int_Tables_number   1
_chemical_formula_structural   Rb(PuS2)2
_chemical_formula_sum   'Rb4 Pu8 S16'
_cell_volume   752.89052360
_cell_formula_units_Z   4
loop_
 _symmetry_equiv_pos_site_id
 _symmetry_equiv_pos_as_xyz
  1  'x, y, z'
loop_
 _atom_site_type_symbol
 _atom_site_label
 _atom_site_symmetry_multiplicity
 _atom_site_fract_x
 _atom_site_fract_y
 _atom_site_fract_z
 _atom_site_occupancy
  Rb  Rb0  1  0.250000  0.244315  0.339051  1
  Rb  Rb1  1  0.750000  0.755685  0.660949  1
  Rb  Rb2  1  0.750000  0.255685  0.839051  1
  Rb  Rb3  1  0.250000  0.744315  0.160949  1
  Pu  Pu4  1  0.250000  0.067253  0.109049  1
  Pu  Pu5  1  0.750000  0.932747  0.890951  1
  Pu  Pu6  1  0.750000  0.432747  0.609049  1
  Pu  Pu7  1  0.250000  0.567253  0.390951  1
  Pu  Pu8  1  0.250000  0.077022  0.602646  1
  Pu  Pu9  1  0.750000  0.922978  0.397354  1
  Pu  Pu10  1  0.750000  0.422978  0.102646  1
  Pu  Pu11  1  0.250000  0.577022  0.897354  1
  S  S12  1  0.750000  0.020192  0.717004  1
  S  S13  1  0.250000  0.979808  0.282996  1
  S  S14  1  0.250000  0.479808  0.217004  1
  S  S15  1  0.750000  0.520192  0.782996  1
  S  S16  1  0.250000  0.070110  0.924707  1
  S  S17  1  0.750000  0.929890  0.075293  1
  S  S18  1  0.750000  0.429890  0.424707  1
  S  S19  1  0.250000  0.570110  0.575293  1
  S  S20  1  0.750000  0.112919  0.484315  1
  S  S21  1  0.250000  0.887081  0.515685  1
  S  S22  1  0.250000  0.387081  0.984315  1
  S  S23  1  0.750000  0.612919  0.015685  1
  S  S24  1  0.750000  0.208391  0.143941  1
  S  S25  1  0.250000  0.791609  0.856059  1
  S  S26  1  0.250000  0.291609  0.643941  1
  S  S27  1  0.750000  0.708391  0.356059  1
