# generated using pymatgen
data_Hf18Re8AsRu
_symmetry_space_group_name_H-M   'P 1'
_cell_length_a   8.60840600
_cell_length_b   8.60840576
_cell_length_c   8.62561300
_cell_angle_alpha   90.00000000
_cell_angle_beta   90.00000000
_cell_angle_gamma   120.00000094
_symmetry_Int_Tables_number   1
_chemical_formula_structural   Hf18Re8AsRu
_chemical_formula_sum   'Hf18 Re8 As1 Ru1'
_cell_volume   553.56174200
_cell_formula_units_Z   1
loop_
 _symmetry_equiv_pos_site_id
 _symmetry_equiv_pos_as_xyz
  1  'x, y, z'
loop_
 _atom_site_type_symbol
 _atom_site_label
 _atom_site_symmetry_multiplicity
 _atom_site_fract_x
 _atom_site_fract_y
 _atom_site_fract_z
 _atom_site_occupancy
  Hf  Hf0  1  0.192313  0.807687  0.452505  1
  Hf  Hf1  1  0.192313  0.384625  0.452505  1
  Hf  Hf2  1  0.615375  0.807687  0.452505  1
  Hf  Hf3  1  0.802697  0.197303  0.554296  1
  Hf  Hf4  1  0.802697  0.605394  0.554296  1
  Hf  Hf5  1  0.394606  0.197303  0.554296  1
  Hf  Hf6  1  0.802697  0.197303  0.945704  1
  Hf  Hf7  1  0.802697  0.605394  0.945704  1
  Hf  Hf8  1  0.394606  0.197303  0.945704  1
  Hf  Hf9  1  0.192313  0.807687  0.047495  1
  Hf  Hf10  1  0.192313  0.384625  0.047495  1
  Hf  Hf11  1  0.615375  0.807687  0.047495  1
  Hf  Hf12  1  0.541880  0.458120  0.250000  1
  Hf  Hf13  1  0.541880  0.083761  0.250000  1
  Hf  Hf14  1  0.916239  0.458120  0.250000  1
  Hf  Hf15  1  0.457913  0.542087  0.750000  1
  Hf  Hf16  1  0.457913  0.915827  0.750000  1
  Hf  Hf17  1  0.084173  0.542087  0.750000  1
  Re  Re18  1  0.889777  0.110223  0.250000  1
  Re  Re19  1  0.889777  0.779552  0.250000  1
  Re  Re20  1  0.220448  0.110223  0.250000  1
  Re  Re21  1  0.110441  0.889559  0.750000  1
  Re  Re22  1  0.110441  0.220882  0.750000  1
  Re  Re23  1  0.779118  0.889559  0.750000  1
  Re  Re24  1  0.000000  0.000000  0.501085  1
  Re  Re25  1  0.000000  0.000000  0.998915  1
  As  As26  1  0.333333  0.666667  0.250000  1
  Ru  Ru27  1  0.666667  0.333333  0.750000  1
