# generated using pymatgen
data_SmDy19Sn16
_symmetry_space_group_name_H-M   'P 1'
_cell_length_a   8.05032148
_cell_length_b   8.19785978
_cell_length_c   15.47806137
_cell_angle_alpha   90.00801956
_cell_angle_beta   89.90509192
_cell_angle_gamma   89.92487973
_symmetry_Int_Tables_number   1
_chemical_formula_structural   SmDy19Sn16
_chemical_formula_sum   'Sm1 Dy19 Sn16'
_cell_volume   1021.47866517
_cell_formula_units_Z   1
loop_
 _symmetry_equiv_pos_site_id
 _symmetry_equiv_pos_as_xyz
  1  'x, y, z'
loop_
 _atom_site_type_symbol
 _atom_site_label
 _atom_site_symmetry_multiplicity
 _atom_site_fract_x
 _atom_site_fract_y
 _atom_site_fract_z
 _atom_site_occupancy
  Sm  Sm0  1  0.019144  0.179719  0.902336  1
  Dy  Dy1  1  0.367296  0.835034  0.877999  1
  Dy  Dy2  1  0.867383  0.664755  0.621601  1
  Dy  Dy3  1  0.632556  0.164595  0.378189  1
  Dy  Dy4  1  0.133138  0.335641  0.122141  1
  Dy  Dy5  1  0.633046  0.164605  0.122011  1
  Dy  Dy6  1  0.132614  0.335376  0.378170  1
  Dy  Dy7  1  0.367486  0.835192  0.621709  1
  Dy  Dy8  1  0.867149  0.664672  0.878099  1
  Dy  Dy9  1  0.520146  0.320973  0.901605  1
  Dy  Dy10  1  0.020360  0.179495  0.598589  1
  Dy  Dy11  1  0.479805  0.679374  0.401645  1
  Dy  Dy12  1  0.980139  0.820249  0.098470  1
  Dy  Dy13  1  0.480010  0.679551  0.098364  1
  Dy  Dy14  1  0.979826  0.820607  0.401662  1
  Dy  Dy15  1  0.520237  0.320792  0.598071  1
  Dy  Dy16  1  0.198405  0.502570  0.749690  1
  Dy  Dy17  1  0.697915  0.997330  0.749561  1
  Dy  Dy18  1  0.801746  0.497639  0.250115  1
  Dy  Dy19  1  0.301816  0.002307  0.250066  1
  Sn  Sn20  1  0.294513  0.034326  0.042427  1
  Sn  Sn21  1  0.792683  0.464814  0.458304  1
  Sn  Sn22  1  0.707413  0.965080  0.541648  1
  Sn  Sn23  1  0.207879  0.536500  0.958662  1
  Sn  Sn24  1  0.704864  0.963062  0.958729  1
  Sn  Sn25  1  0.207228  0.535114  0.541632  1
  Sn  Sn26  1  0.292742  0.035153  0.458344  1
  Sn  Sn27  1  0.792700  0.464977  0.041747  1
  Sn  Sn28  1  0.564809  0.619285  0.749928  1
  Sn  Sn29  1  0.064995  0.879854  0.749770  1
  Sn  Sn30  1  0.435218  0.380931  0.250052  1
  Sn  Sn31  1  0.935178  0.119273  0.250098  1
  Sn  Sn32  1  0.329094  0.146192  0.749546  1
  Sn  Sn33  1  0.826762  0.354921  0.748990  1
  Sn  Sn34  1  0.671869  0.853773  0.249992  1
  Sn  Sn35  1  0.171839  0.646268  0.250042  1
