# generated using pymatgen
data_Tb10Y6Cd4Ir3Ru
_symmetry_space_group_name_H-M   'P 1'
_cell_length_a   9.69012654
_cell_length_b   9.69012667
_cell_length_c   9.69012665
_cell_angle_alpha   59.78891942
_cell_angle_beta   59.78891717
_cell_angle_gamma   59.78891904
_symmetry_Int_Tables_number   1
_chemical_formula_structural   Tb10Y6Cd4Ir3Ru
_chemical_formula_sum   'Tb10 Y6 Cd4 Ir3 Ru1'
_cell_volume   640.30543838
_cell_formula_units_Z   1
loop_
 _symmetry_equiv_pos_site_id
 _symmetry_equiv_pos_as_xyz
  1  'x, y, z'
loop_
 _atom_site_type_symbol
 _atom_site_label
 _atom_site_symmetry_multiplicity
 _atom_site_fract_x
 _atom_site_fract_y
 _atom_site_fract_z
 _atom_site_occupancy
  Tb  Tb0  1  0.348964  0.348964  0.348964  1
  Tb  Tb1  1  0.348155  0.348155  0.956892  1
  Tb  Tb2  1  0.348155  0.956892  0.348155  1
  Tb  Tb3  1  0.956892  0.348155  0.348155  1
  Tb  Tb4  1  0.811699  0.189378  0.189378  1
  Tb  Tb5  1  0.188647  0.809086  0.809086  1
  Tb  Tb6  1  0.189378  0.811699  0.189378  1
  Tb  Tb7  1  0.809086  0.188647  0.809086  1
  Tb  Tb8  1  0.189378  0.189378  0.811699  1
  Tb  Tb9  1  0.809086  0.809086  0.188647  1
  Y  Y10  1  0.939537  0.561372  0.561372  1
  Y  Y11  1  0.559628  0.938384  0.938384  1
  Y  Y12  1  0.561372  0.939537  0.561372  1
  Y  Y13  1  0.938384  0.559628  0.938384  1
  Y  Y14  1  0.561372  0.561372  0.939537  1
  Y  Y15  1  0.938384  0.938384  0.559628  1
  Cd  Cd16  1  0.579999  0.579999  0.579999  1
  Cd  Cd17  1  0.580785  0.580785  0.256550  1
  Cd  Cd18  1  0.580785  0.256550  0.580785  1
  Cd  Cd19  1  0.256550  0.580785  0.580785  1
  Ir  Ir20  1  0.143259  0.143259  0.576678  1
  Ir  Ir21  1  0.143259  0.576678  0.143259  1
  Ir  Ir22  1  0.576678  0.143259  0.143259  1
  Ru  Ru23  1  0.140568  0.140568  0.140568  1
