# generated using pymatgen
data_DyZn3InPd2
_symmetry_space_group_name_H-M   'P 1'
_cell_length_a   5.21464000
_cell_length_b   8.49104800
_cell_length_c   10.89072500
_cell_angle_alpha   90.00000000
_cell_angle_beta   90.00000000
_cell_angle_gamma   90.00000000
_symmetry_Int_Tables_number   1
_chemical_formula_structural   DyZn3InPd2
_chemical_formula_sum   'Dy4 Zn12 In4 Pd8'
_cell_volume   482.21689191
_cell_formula_units_Z   4
loop_
 _symmetry_equiv_pos_site_id
 _symmetry_equiv_pos_as_xyz
  1  'x, y, z'
loop_
 _atom_site_type_symbol
 _atom_site_label
 _atom_site_symmetry_multiplicity
 _atom_site_fract_x
 _atom_site_fract_y
 _atom_site_fract_z
 _atom_site_occupancy
  Dy  Dy0  1  0.750000  0.747929  0.443547  1
  Dy  Dy1  1  0.250000  0.252071  0.556453  1
  Dy  Dy2  1  0.250000  0.752071  0.943547  1
  Dy  Dy3  1  0.750000  0.247929  0.056453  1
  Zn  Zn4  1  0.496254  0.938894  0.686820  1
  Zn  Zn5  1  0.503746  0.061106  0.313180  1
  Zn  Zn6  1  0.503746  0.561106  0.186820  1
  Zn  Zn7  1  0.996254  0.061106  0.313180  1
  Zn  Zn8  1  0.496254  0.438894  0.813180  1
  Zn  Zn9  1  0.003746  0.938894  0.686820  1
  Zn  Zn10  1  0.003746  0.438894  0.813180  1
  Zn  Zn11  1  0.996254  0.561106  0.186820  1
  Zn  Zn12  1  0.750000  0.693469  0.757544  1
  Zn  Zn13  1  0.250000  0.306531  0.242456  1
  Zn  Zn14  1  0.250000  0.806531  0.257544  1
  Zn  Zn15  1  0.750000  0.193469  0.742456  1
  In  In16  1  0.750000  0.866699  0.136075  1
  In  In17  1  0.250000  0.133301  0.863925  1
  In  In18  1  0.250000  0.633301  0.636075  1
  In  In19  1  0.750000  0.366699  0.363925  1
  Pd  Pd20  1  0.750000  0.594556  0.983630  1
  Pd  Pd21  1  0.250000  0.405444  0.016370  1
  Pd  Pd22  1  0.250000  0.905444  0.483630  1
  Pd  Pd23  1  0.750000  0.094556  0.516370  1
  Pd  Pd24  1  0.750000  0.949686  0.898890  1
  Pd  Pd25  1  0.250000  0.050314  0.101110  1
  Pd  Pd26  1  0.250000  0.550314  0.398890  1
  Pd  Pd27  1  0.750000  0.449686  0.601110  1
