# generated using pymatgen
data_Sr3CoNiO6
_symmetry_space_group_name_H-M   'P 1'
_cell_length_a   6.62026395
_cell_length_b   6.62026385
_cell_length_c   6.62026400
_cell_angle_alpha   92.98904908
_cell_angle_beta   92.98905444
_cell_angle_gamma   92.98904974
_symmetry_Int_Tables_number   1
_chemical_formula_structural   Sr3CoNiO6
_chemical_formula_sum   'Sr6 Co2 Ni2 O12'
_cell_volume   288.92505859
_cell_formula_units_Z   2
loop_
 _symmetry_equiv_pos_site_id
 _symmetry_equiv_pos_as_xyz
  1  'x, y, z'
loop_
 _atom_site_type_symbol
 _atom_site_label
 _atom_site_symmetry_multiplicity
 _atom_site_fract_x
 _atom_site_fract_y
 _atom_site_fract_z
 _atom_site_occupancy
  Sr  Sr0  1  0.884488  0.615512  0.250000  1
  Sr  Sr1  1  0.250000  0.884488  0.615512  1
  Sr  Sr2  1  0.615512  0.250000  0.884488  1
  Sr  Sr3  1  0.750000  0.115512  0.384488  1
  Sr  Sr4  1  0.384488  0.750000  0.115512  1
  Sr  Sr5  1  0.115512  0.384488  0.750000  1
  Co  Co6  1  0.500000  0.500000  0.500000  1
  Co  Co7  1  0.000000  0.000000  0.000000  1
  Ni  Ni8  1  0.250000  0.250000  0.250000  1
  Ni  Ni9  1  0.750000  0.750000  0.750000  1
  O  O10  1  0.222376  0.537672  0.414753  1
  O  O11  1  0.414753  0.222376  0.537672  1
  O  O12  1  0.537672  0.414753  0.222376  1
  O  O13  1  0.914753  0.037672  0.722376  1
  O  O14  1  0.722376  0.914753  0.037672  1
  O  O15  1  0.037672  0.722376  0.914753  1
  O  O16  1  0.777624  0.462328  0.585247  1
  O  O17  1  0.585247  0.777624  0.462328  1
  O  O18  1  0.462328  0.585247  0.777624  1
  O  O19  1  0.085247  0.962328  0.277624  1
  O  O20  1  0.277624  0.085247  0.962328  1
  O  O21  1  0.962328  0.277624  0.085247  1
