# generated using pymatgen
data_Pr3PaIn2Ir3
_symmetry_space_group_name_H-M   'P 1'
_cell_length_a   7.61893889
_cell_length_b   7.61893897
_cell_length_c   4.37771800
_cell_angle_alpha   90.00000000
_cell_angle_beta   90.00000000
_cell_angle_gamma   121.31643082
_symmetry_Int_Tables_number   1
_chemical_formula_structural   Pr3PaIn2Ir3
_chemical_formula_sum   'Pr3 Pa1 In2 Ir3'
_cell_volume   217.09616960
_cell_formula_units_Z   1
loop_
 _symmetry_equiv_pos_site_id
 _symmetry_equiv_pos_as_xyz
  1  'x, y, z'
loop_
 _atom_site_type_symbol
 _atom_site_label
 _atom_site_symmetry_multiplicity
 _atom_site_fract_x
 _atom_site_fract_y
 _atom_site_fract_z
 _atom_site_occupancy
  Pr  Pr0  1  0.026539  0.592822  0.500000  1
  Pr  Pr1  1  0.379127  0.379127  0.500000  1
  Pr  Pr2  1  0.592822  0.026539  0.500000  1
  Pa  Pa3  1  0.734274  0.734274  0.000000  1
  In  In4  1  0.998507  0.249765  0.000000  1
  In  In5  1  0.249765  0.998507  0.000000  1
  Ir  Ir6  1  0.365550  0.679427  0.000000  1
  Ir  Ir7  1  0.973990  0.973990  0.500000  1
  Ir  Ir8  1  0.679427  0.365550  0.000000  1
