# generated using pymatgen
data_Dy2Tm5Cd(Co3Sn11)2
_symmetry_space_group_name_H-M   'P 1'
_cell_length_a   9.64148810
_cell_length_b   9.64292200
_cell_length_c   9.99584509
_cell_angle_alpha   90.00000095
_cell_angle_beta   90.01347981
_cell_angle_gamma   120.00491339
_symmetry_Int_Tables_number   1
_chemical_formula_structural   Dy2Tm5Cd(Co3Sn11)2
_chemical_formula_sum   'Dy2 Tm5 Cd1 Co6 Sn22'
_cell_volume   804.78774067
_cell_formula_units_Z   1
loop_
 _symmetry_equiv_pos_site_id
 _symmetry_equiv_pos_as_xyz
  1  'x, y, z'
loop_
 _atom_site_type_symbol
 _atom_site_label
 _atom_site_symmetry_multiplicity
 _atom_site_fract_x
 _atom_site_fract_y
 _atom_site_fract_z
 _atom_site_occupancy
  Dy  Dy0  1  0.000084  0.000042  0.000097  1
  Dy  Dy1  1  0.957875  0.478938  0.693760  1
  Tm  Tm2  1  0.479481  0.520565  0.306044  1
  Tm  Tm3  1  0.520621  0.479443  0.693890  1
  Tm  Tm4  1  0.479481  0.958916  0.306044  1
  Tm  Tm5  1  0.520621  0.041178  0.693890  1
  Tm  Tm6  1  0.041097  0.520549  0.305849  1
  Cd  Cd7  1  0.000041  0.000020  0.499937  1
  Co  Co8  1  0.831564  0.168439  0.197100  1
  Co  Co9  1  0.168848  0.832249  0.803121  1
  Co  Co10  1  0.831564  0.663123  0.197100  1
  Co  Co11  1  0.168848  0.336600  0.803121  1
  Co  Co12  1  0.336816  0.168407  0.197144  1
  Co  Co13  1  0.663006  0.831504  0.802986  1
  Sn  Sn14  1  0.346538  0.000147  0.000049  1
  Sn  Sn15  1  0.653531  0.999988  0.000035  1
  Sn  Sn16  1  0.000022  0.346353  0.000152  1
  Sn  Sn17  1  0.000022  0.653669  0.000152  1
  Sn  Sn18  1  0.653531  0.653543  0.000035  1
  Sn  Sn19  1  0.346538  0.346391  0.000049  1
  Sn  Sn20  1  0.333738  0.666870  0.818285  1
  Sn  Sn21  1  0.666618  0.333308  0.181691  1
  Sn  Sn22  1  0.781877  0.217334  0.452992  1
  Sn  Sn23  1  0.218579  0.783147  0.546171  1
  Sn  Sn24  1  0.781877  0.564541  0.452992  1
  Sn  Sn25  1  0.218579  0.435433  0.546171  1
  Sn  Sn26  1  0.435580  0.217789  0.453401  1
  Sn  Sn27  1  0.564506  0.782253  0.546528  1
  Sn  Sn28  1  0.333361  0.666681  0.120761  1
  Sn  Sn29  1  0.665181  0.332590  0.880055  1
  Sn  Sn30  1  0.116998  0.883094  0.271208  1
  Sn  Sn31  1  0.882908  0.116289  0.728968  1
  Sn  Sn32  1  0.116998  0.233905  0.271208  1
  Sn  Sn33  1  0.882908  0.766618  0.728968  1
  Sn  Sn34  1  0.766099  0.883050  0.271140  1
  Sn  Sn35  1  0.234069  0.117034  0.728907  1
