# generated using pymatgen
data_Fe(OsO3)2
_symmetry_space_group_name_H-M   'P 1'
_cell_length_a   4.60821800
_cell_length_b   10.43437315
_cell_length_c   9.21303500
_cell_angle_alpha   63.80195719
_cell_angle_beta   90.00000000
_cell_angle_gamma   90.00000000
_symmetry_Int_Tables_number   1
_chemical_formula_structural   Fe(OsO3)2
_chemical_formula_sum   'Fe4 Os8 O24'
_cell_volume   397.49065084
_cell_formula_units_Z   4
loop_
 _symmetry_equiv_pos_site_id
 _symmetry_equiv_pos_as_xyz
  1  'x, y, z'
loop_
 _atom_site_type_symbol
 _atom_site_label
 _atom_site_symmetry_multiplicity
 _atom_site_fract_x
 _atom_site_fract_y
 _atom_site_fract_z
 _atom_site_occupancy
  Fe  Fe0  1  0.500000  0.500000  0.000000  1
  Fe  Fe1  1  0.000000  0.000000  0.500000  1
  Fe  Fe2  1  0.500000  0.500000  0.500000  1
  Fe  Fe3  1  0.000000  0.000000  0.000000  1
  Os  Os4  1  0.000000  0.669586  0.165207  1
  Os  Os5  1  0.000000  0.669586  0.665207  1
  Os  Os6  1  0.500000  0.169586  0.165207  1
  Os  Os7  1  0.500000  0.169586  0.665207  1
  Os  Os8  1  0.500000  0.830414  0.834793  1
  Os  Os9  1  0.500000  0.830414  0.334793  1
  Os  Os10  1  0.000000  0.330414  0.334793  1
  Os  Os11  1  0.000000  0.330414  0.834793  1
  O  O12  1  0.687259  0.000000  0.156299  1
  O  O13  1  0.687259  0.000000  0.656299  1
  O  O14  1  0.812741  0.500000  0.156299  1
  O  O15  1  0.812741  0.500000  0.656299  1
  O  O16  1  0.187259  0.500000  0.843701  1
  O  O17  1  0.187259  0.500000  0.343701  1
  O  O18  1  0.312741  0.000000  0.343701  1
  O  O19  1  0.312741  0.000000  0.843701  1
  O  O20  1  0.701393  0.671244  0.813520  1
  O  O21  1  0.701393  0.671244  0.313520  1
  O  O22  1  0.298607  0.671244  0.015237  1
  O  O23  1  0.298607  0.671244  0.515237  1
  O  O24  1  0.298607  0.328756  0.186480  1
  O  O25  1  0.298607  0.328756  0.686480  1
  O  O26  1  0.201393  0.828756  0.686480  1
  O  O27  1  0.201393  0.828756  0.186480  1
  O  O28  1  0.798607  0.828756  0.984763  1
  O  O29  1  0.798607  0.828756  0.484763  1
  O  O30  1  0.798607  0.171244  0.313520  1
  O  O31  1  0.798607  0.171244  0.813520  1
  O  O32  1  0.201393  0.171244  0.015237  1
  O  O33  1  0.201393  0.171244  0.515237  1
  O  O34  1  0.701393  0.328756  0.984763  1
  O  O35  1  0.701393  0.328756  0.484763  1
