# generated using pymatgen
data_Hf6Al16Pt4Rh3
_symmetry_space_group_name_H-M   'P 1'
_cell_length_a   8.74062003
_cell_length_b   8.73728431
_cell_length_c   8.73728464
_cell_angle_alpha   60.02525713
_cell_angle_beta   59.98737175
_cell_angle_gamma   59.98736816
_symmetry_Int_Tables_number   1
_chemical_formula_structural   Hf6Al16Pt4Rh3
_chemical_formula_sum   'Hf6 Al16 Pt4 Rh3'
_cell_volume   471.82403319
_cell_formula_units_Z   1
loop_
 _symmetry_equiv_pos_site_id
 _symmetry_equiv_pos_as_xyz
  1  'x, y, z'
loop_
 _atom_site_type_symbol
 _atom_site_label
 _atom_site_symmetry_multiplicity
 _atom_site_fract_x
 _atom_site_fract_y
 _atom_site_fract_z
 _atom_site_occupancy
  Hf  Hf0  1  0.683713  0.316286  0.316286  1
  Hf  Hf1  1  0.316286  0.683713  0.683713  1
  Hf  Hf2  1  0.318551  0.681448  0.318551  1
  Hf  Hf3  1  0.318551  0.318551  0.681448  1
  Hf  Hf4  1  0.681448  0.318551  0.681448  1
  Hf  Hf5  1  0.681448  0.681448  0.318551  1
  Al  Al6  1  0.333493  0.338497  0.338497  1
  Al  Al7  1  0.338497  0.333493  0.989512  1
  Al  Al8  1  0.989512  0.338497  0.338497  1
  Al  Al9  1  0.338497  0.989512  0.333493  1
  Al  Al10  1  0.666507  0.661503  0.661503  1
  Al  Al11  1  0.661503  0.666507  0.010488  1
  Al  Al12  1  0.661503  0.010488  0.666507  1
  Al  Al13  1  0.010488  0.661503  0.661503  1
  Al  Al14  1  0.123079  0.117238  0.117238  1
  Al  Al15  1  0.117238  0.123079  0.642444  1
  Al  Al16  1  0.642444  0.117238  0.117238  1
  Al  Al17  1  0.117238  0.642444  0.123079  1
  Al  Al18  1  0.876920  0.882761  0.882761  1
  Al  Al19  1  0.882761  0.876920  0.357559  1
  Al  Al20  1  0.882761  0.357559  0.876920  1
  Al  Al21  1  0.357559  0.882761  0.882761  1
  Pt  Pt22  1  0.000000  0.500000  0.000000  1
  Pt  Pt23  1  0.000000  0.000000  0.500000  1
  Pt  Pt24  1  0.500000  0.000000  0.500000  1
  Pt  Pt25  1  0.500000  0.500000  0.000000  1
  Rh  Rh26  1  0.000000  0.000000  0.000000  1
  Rh  Rh27  1  0.500000  0.000000  0.000000  1
  Rh  Rh28  1  0.000000  0.500000  0.500000  1
