# generated using pymatgen
data_Nb8Fe7Si14Pt
_symmetry_space_group_name_H-M   'P 1'
_cell_length_a   9.29963973
_cell_length_b   9.31679859
_cell_length_c   9.28169608
_cell_angle_alpha   94.34851718
_cell_angle_beta   94.25023908
_cell_angle_gamma   148.26516538
_symmetry_Int_Tables_number   1
_chemical_formula_structural   Nb8Fe7Si14Pt
_chemical_formula_sum   'Nb8 Fe7 Si14 Pt1'
_cell_volume   406.78471297
_cell_formula_units_Z   1
loop_
 _symmetry_equiv_pos_site_id
 _symmetry_equiv_pos_as_xyz
  1  'x, y, z'
loop_
 _atom_site_type_symbol
 _atom_site_label
 _atom_site_symmetry_multiplicity
 _atom_site_fract_x
 _atom_site_fract_y
 _atom_site_fract_z
 _atom_site_occupancy
  Nb  Nb0  1  0.135129  0.135129  0.270257  1
  Nb  Nb1  1  0.864926  0.864926  0.729853  1
  Nb  Nb2  1  0.866105  0.133516  0.002876  1
  Nb  Nb3  1  0.136771  0.869360  0.002876  1
  Nb  Nb4  1  0.500247  0.690484  0.192994  1
  Nb  Nb5  1  0.498474  0.309125  0.807689  1
  Nb  Nb6  1  0.309215  0.498564  0.807689  1
  Nb  Nb7  1  0.692746  0.502510  0.192994  1
  Fe  Fe8  1  0.105041  0.605041  0.210083  1
  Fe  Fe9  1  0.104792  0.899816  0.502498  1
  Fe  Fe10  1  0.397705  0.602681  0.502498  1
  Fe  Fe11  1  0.595528  0.400968  0.495082  1
  Fe  Fe12  1  0.899554  0.094114  0.495082  1
  Fe  Fe13  1  0.899691  0.399691  0.799382  1
  Fe  Fe14  1  0.598241  0.098241  0.196482  1
  Si  Si15  1  0.290409  0.290409  0.580818  1
  Si  Si16  1  0.708968  0.708968  0.417935  1
  Si  Si17  1  0.729737  0.315247  0.006886  1
  Si  Si18  1  0.277148  0.691638  0.006886  1
  Si  Si19  1  0.996900  0.293728  0.297351  1
  Si  Si20  1  0.977462  0.688220  0.701006  1
  Si  Si21  1  0.723544  0.012785  0.701006  1
  Si  Si22  1  0.300451  0.003622  0.297351  1
  Si  Si23  1  0.506588  0.909981  0.407476  1
  Si  Si24  1  0.526865  0.126585  0.585558  1
  Si  Si25  1  0.058693  0.458973  0.585558  1
  Si  Si26  1  0.900888  0.497496  0.407476  1
  Si  Si27  1  0.751050  0.751136  0.000237  1
  Si  Si28  1  0.249187  0.249101  0.000237  1
  Pt  Pt29  1  0.397942  0.897942  0.795884  1
