# generated using pymatgen
data_Mn4Ga6SeO12
_symmetry_space_group_name_H-M   'P 1'
_cell_length_a   7.82465887
_cell_length_b   7.82465808
_cell_length_c   7.82465800
_cell_angle_alpha   109.47122560
_cell_angle_beta   109.47122355
_cell_angle_gamma   109.47120878
_symmetry_Int_Tables_number   1
_chemical_formula_structural   Mn4Ga6SeO12
_chemical_formula_sum   'Mn4 Ga6 Se1 O12'
_cell_volume   368.78587370
_cell_formula_units_Z   1
loop_
 _symmetry_equiv_pos_site_id
 _symmetry_equiv_pos_as_xyz
  1  'x, y, z'
loop_
 _atom_site_type_symbol
 _atom_site_label
 _atom_site_symmetry_multiplicity
 _atom_site_fract_x
 _atom_site_fract_y
 _atom_site_fract_z
 _atom_site_occupancy
  Mn  Mn0  1  0.337111  0.337111  0.337111  1
  Mn  Mn1  1  0.000000  0.662889  0.000000  1
  Mn  Mn2  1  0.000000  0.000000  0.662889  1
  Mn  Mn3  1  0.662889  0.000000  0.000000  1
  Ga  Ga4  1  0.750000  0.500000  0.250000  1
  Ga  Ga5  1  0.250000  0.500000  0.750000  1
  Ga  Ga6  1  0.500000  0.750000  0.250000  1
  Ga  Ga7  1  0.500000  0.250000  0.750000  1
  Ga  Ga8  1  0.250000  0.750000  0.500000  1
  Ga  Ga9  1  0.750000  0.250000  0.500000  1
  Se  Se10  1  0.000000  0.000000  0.000000  1
  O  O11  1  0.742554  0.000000  0.466300  1
  O  O12  1  0.257446  0.723746  0.257446  1
  O  O13  1  0.276254  0.533700  0.533700  1
  O  O14  1  0.533700  0.533700  0.276254  1
  O  O15  1  0.000000  0.466300  0.742554  1
  O  O16  1  0.723746  0.257446  0.257446  1
  O  O17  1  0.257446  0.257446  0.723746  1
  O  O18  1  0.742554  0.466300  0.000000  1
  O  O19  1  0.466300  0.000000  0.742554  1
  O  O20  1  0.466300  0.742554  0.000000  1
  O  O21  1  0.533700  0.276254  0.533700  1
  O  O22  1  0.000000  0.742554  0.466300  1
