# generated using pymatgen
data_Ho20PdRu11
_symmetry_space_group_name_H-M   'P 1'
_cell_length_a   10.78638567
_cell_length_b   10.78638375
_cell_length_c   6.35871606
_cell_angle_alpha   89.99357747
_cell_angle_beta   89.99358439
_cell_angle_gamma   89.72334489
_symmetry_Int_Tables_number   1
_chemical_formula_structural   Ho20PdRu11
_chemical_formula_sum   'Ho20 Pd1 Ru11'
_cell_volume   739.80315029
_cell_formula_units_Z   1
loop_
 _symmetry_equiv_pos_site_id
 _symmetry_equiv_pos_as_xyz
  1  'x, y, z'
loop_
 _atom_site_type_symbol
 _atom_site_label
 _atom_site_symmetry_multiplicity
 _atom_site_fract_x
 _atom_site_fract_y
 _atom_site_fract_z
 _atom_site_occupancy
  Ho  Ho0  1  0.293078  0.087094  0.375765  1
  Ho  Ho1  1  0.292018  0.920708  0.875713  1
  Ho  Ho2  1  0.709152  0.087313  0.876621  1
  Ho  Ho3  1  0.709572  0.914501  0.377254  1
  Ho  Ho4  1  0.591984  0.795807  0.876540  1
  Ho  Ho5  1  0.586926  0.206678  0.374882  1
  Ho  Ho6  1  0.416851  0.795980  0.368986  1
  Ho  Ho7  1  0.414750  0.210469  0.876154  1
  Ho  Ho8  1  0.204193  0.408016  0.623460  1
  Ho  Ho9  1  0.204020  0.583149  0.131014  1
  Ho  Ho10  1  0.793322  0.413074  0.125118  1
  Ho  Ho11  1  0.789531  0.585250  0.623846  1
  Ho  Ho12  1  0.912906  0.706922  0.124235  1
  Ho  Ho13  1  0.912687  0.290848  0.623379  1
  Ho  Ho14  1  0.079292  0.707982  0.624287  1
  Ho  Ho15  1  0.085499  0.290428  0.122746  1
  Ho  Ho16  1  0.001625  0.000133  0.499393  1
  Ho  Ho17  1  0.999867  0.998375  0.000607  1
  Ho  Ho18  1  0.503745  0.499298  0.002380  1
  Ho  Ho19  1  0.500702  0.496255  0.497620  1
  Pd  Pd20  1  0.343157  0.656843  0.750000  1
  Ru  Ru21  1  0.847389  0.152611  0.250000  1
  Ru  Ru22  1  0.847722  0.846355  0.748824  1
  Ru  Ru23  1  0.153645  0.152278  0.751176  1
  Ru  Ru24  1  0.156084  0.843916  0.250000  1
  Ru  Ru25  1  0.652785  0.347215  0.750000  1
  Ru  Ru26  1  0.649270  0.652896  0.250854  1
  Ru  Ru27  1  0.347104  0.350730  0.249146  1
  Ru  Ru28  1  0.500989  0.999835  0.123694  1
  Ru  Ru29  1  0.500333  0.000367  0.625862  1
  Ru  Ru30  1  0.999633  0.499667  0.874138  1
  Ru  Ru31  1  0.000165  0.499011  0.376306  1
