# generated using pymatgen
data_YHo4Tm11(InPd)4
_symmetry_space_group_name_H-M   'P 1'
_cell_length_a   9.64234776
_cell_length_b   9.65129982
_cell_length_c   9.64873297
_cell_angle_alpha   59.75199844
_cell_angle_beta   59.67944042
_cell_angle_gamma   59.67830090
_symmetry_Int_Tables_number   1
_chemical_formula_structural   YHo4Tm11(InPd)4
_chemical_formula_sum   'Y1 Ho4 Tm11 In4 Pd4'
_cell_volume   630.64666018
_cell_formula_units_Z   1
loop_
 _symmetry_equiv_pos_site_id
 _symmetry_equiv_pos_as_xyz
  1  'x, y, z'
loop_
 _atom_site_type_symbol
 _atom_site_label
 _atom_site_symmetry_multiplicity
 _atom_site_fract_x
 _atom_site_fract_y
 _atom_site_fract_z
 _atom_site_occupancy
  Y  Y0  1  0.063933  0.063947  0.435774  1
  Ho  Ho1  1  0.435395  0.065850  0.435388  1
  Ho  Ho2  1  0.063047  0.437068  0.062985  1
  Ho  Ho3  1  0.059571  0.647868  0.648228  1
  Ho  Ho4  1  0.434506  0.434959  0.066285  1
  Tm  Tm5  1  0.647855  0.058734  0.648171  1
  Tm  Tm6  1  0.190187  0.809317  0.189612  1
  Tm  Tm7  1  0.190152  0.189692  0.809754  1
  Tm  Tm8  1  0.811178  0.810759  0.187928  1
  Tm  Tm9  1  0.439660  0.061069  0.060796  1
  Tm  Tm10  1  0.808880  0.190306  0.190243  1
  Tm  Tm11  1  0.063299  0.437276  0.436577  1
  Tm  Tm12  1  0.811130  0.187827  0.811279  1
  Tm  Tm13  1  0.187479  0.811198  0.811734  1
  Tm  Tm14  1  0.647887  0.647968  0.058599  1
  Tm  Tm15  1  0.647296  0.648109  0.648553  1
  In  In16  1  0.416092  0.415188  0.415350  1
  In  In17  1  0.748974  0.417625  0.416754  1
  In  In18  1  0.418316  0.748995  0.415614  1
  In  In19  1  0.417901  0.415706  0.749210  1
  Pd  Pd20  1  0.855443  0.856475  0.431142  1
  Pd  Pd21  1  0.853883  0.856425  0.856919  1
  Pd  Pd22  1  0.432157  0.856617  0.856461  1
  Pd  Pd23  1  0.855779  0.431024  0.856640  1
