# generated using pymatgen
data_Dy8Ho2(InSb)3
_symmetry_space_group_name_H-M   'P 1'
_cell_length_a   8.98496000
_cell_length_b   8.96177043
_cell_length_c   6.55094703
_cell_angle_alpha   90.01011888
_cell_angle_beta   90.00000000
_cell_angle_gamma   120.08563446
_symmetry_Int_Tables_number   1
_chemical_formula_structural   Dy8Ho2(InSb)3
_chemical_formula_sum   'Dy8 Ho2 In3 Sb3'
_cell_volume   456.42483700
_cell_formula_units_Z   1
loop_
 _symmetry_equiv_pos_site_id
 _symmetry_equiv_pos_as_xyz
  1  'x, y, z'
loop_
 _atom_site_type_symbol
 _atom_site_label
 _atom_site_symmetry_multiplicity
 _atom_site_fract_x
 _atom_site_fract_y
 _atom_site_fract_z
 _atom_site_occupancy
  Dy  Dy0  1  0.331108  0.666021  0.000786  1
  Dy  Dy1  1  0.665089  0.333979  0.499214  1
  Dy  Dy2  1  0.760651  0.000000  0.750000  1
  Dy  Dy3  1  0.762945  0.759650  0.250009  1
  Dy  Dy4  1  0.003295  0.240350  0.249991  1
  Dy  Dy5  1  0.002199  0.762800  0.749993  1
  Dy  Dy6  1  0.239400  0.237200  0.750007  1
  Dy  Dy7  1  0.238070  0.000000  0.250000  1
  Ho  Ho8  1  0.665047  0.333935  0.000794  1
  Ho  Ho9  1  0.331112  0.666065  0.499206  1
  In  In10  1  0.396257  0.000000  0.750000  1
  In  In11  1  0.394965  0.396093  0.249989  1
  In  In12  1  0.998871  0.603907  0.250011  1
  Sb  Sb13  1  0.997770  0.391991  0.750014  1
  Sb  Sb14  1  0.605779  0.608009  0.749986  1
  Sb  Sb15  1  0.607441  0.000000  0.250000  1
