# generated using pymatgen
data_La9Pr7CdHg3Ir4
_symmetry_space_group_name_H-M   'P 1'
_cell_length_a   10.04579994
_cell_length_b   10.06175059
_cell_length_c   10.07093600
_cell_angle_alpha   59.96979678
_cell_angle_beta   59.91719511
_cell_angle_gamma   60.40219071
_symmetry_Int_Tables_number   1
_chemical_formula_structural   La9Pr7CdHg3Ir4
_chemical_formula_sum   'La9 Pr7 Cd1 Hg3 Ir4'
_cell_volume   721.34280937
_cell_formula_units_Z   1
loop_
 _symmetry_equiv_pos_site_id
 _symmetry_equiv_pos_as_xyz
  1  'x, y, z'
loop_
 _atom_site_type_symbol
 _atom_site_label
 _atom_site_symmetry_multiplicity
 _atom_site_fract_x
 _atom_site_fract_y
 _atom_site_fract_z
 _atom_site_occupancy
  La  La0  1  0.347829  0.347587  0.348310  1
  La  La1  1  0.347829  0.347587  0.956274  1
  La  La2  1  0.349264  0.957020  0.346858  1
  La  La3  1  0.955538  0.349666  0.347398  1
  La  La4  1  0.807294  0.190055  0.192923  1
  La  La5  1  0.188906  0.808246  0.810675  1
  La  La6  1  0.188906  0.808246  0.192174  1
  La  La7  1  0.807294  0.190055  0.809729  1
  La  La8  1  0.190465  0.190632  0.809451  1
  Pr  Pr9  1  0.804218  0.804544  0.195619  1
  Pr  Pr10  1  0.936608  0.563068  0.563471  1
  Pr  Pr11  1  0.562648  0.937657  0.936640  1
  Pr  Pr12  1  0.562648  0.937657  0.563054  1
  Pr  Pr13  1  0.936608  0.563068  0.936854  1
  Pr  Pr14  1  0.561859  0.562140  0.938001  1
  Pr  Pr15  1  0.937614  0.938608  0.561889  1
  Cd  Cd16  1  0.259337  0.580753  0.579954  1
  Hg  Hg17  1  0.583412  0.585691  0.582994  1
  Hg  Hg18  1  0.583412  0.585691  0.247904  1
  Hg  Hg19  1  0.583539  0.247117  0.584671  1
  Ir  Ir20  1  0.140581  0.140649  0.141050  1
  Ir  Ir21  1  0.140581  0.140649  0.577720  1
  Ir  Ir22  1  0.146912  0.576776  0.138156  1
  Ir  Ir23  1  0.576699  0.146841  0.138229  1
