# generated using pymatgen
data_PrNb6PbS12
_symmetry_space_group_name_H-M   'P 1'
_cell_length_a   5.85238100
_cell_length_b   5.85238158
_cell_length_c   14.67428000
_cell_angle_alpha   90.00000000
_cell_angle_beta   90.00000000
_cell_angle_gamma   120.00000237
_symmetry_Int_Tables_number   1
_chemical_formula_structural   PrNb6PbS12
_chemical_formula_sum   'Pr1 Nb6 Pb1 S12'
_cell_volume   435.26390029
_cell_formula_units_Z   1
loop_
 _symmetry_equiv_pos_site_id
 _symmetry_equiv_pos_as_xyz
  1  'x, y, z'
loop_
 _atom_site_type_symbol
 _atom_site_label
 _atom_site_symmetry_multiplicity
 _atom_site_fract_x
 _atom_site_fract_y
 _atom_site_fract_z
 _atom_site_occupancy
  Pr  Pr0  1  0.000000  0.000000  0.000000  1
  Nb  Nb1  1  0.000000  0.000000  0.754321  1
  Nb  Nb2  1  0.000000  0.000000  0.245679  1
  Nb  Nb3  1  0.333333  0.666667  0.246254  1
  Nb  Nb4  1  0.666667  0.333333  0.753746  1
  Nb  Nb5  1  0.666667  0.333333  0.246254  1
  Nb  Nb6  1  0.333333  0.666667  0.753746  1
  Pb  Pb7  1  0.000000  0.000000  0.500000  1
  S  S8  1  0.338187  0.000000  0.138813  1
  S  S9  1  0.000000  0.338187  0.138813  1
  S  S10  1  0.661813  0.661813  0.138813  1
  S  S11  1  0.337774  0.337774  0.647394  1
  S  S12  1  0.662226  0.662226  0.352606  1
  S  S13  1  0.662226  0.000000  0.647394  1
  S  S14  1  0.000000  0.662226  0.647394  1
  S  S15  1  0.000000  0.661813  0.861187  1
  S  S16  1  0.338187  0.338187  0.861187  1
  S  S17  1  0.000000  0.337774  0.352606  1
  S  S18  1  0.337774  0.000000  0.352606  1
  S  S19  1  0.661813  0.000000  0.861187  1
