# generated using pymatgen
data_Hf8Re4Ir3Os
_symmetry_space_group_name_H-M   'P 1'
_cell_length_a   6.52357700
_cell_length_b   4.63008300
_cell_length_c   9.24932500
_cell_angle_alpha   90.00000000
_cell_angle_beta   90.00237505
_cell_angle_gamma   90.00000000
_symmetry_Int_Tables_number   1
_chemical_formula_structural   Hf8Re4Ir3Os
_chemical_formula_sum   'Hf8 Re4 Ir3 Os1'
_cell_volume   279.37311415
_cell_formula_units_Z   1
loop_
 _symmetry_equiv_pos_site_id
 _symmetry_equiv_pos_as_xyz
  1  'x, y, z'
loop_
 _atom_site_type_symbol
 _atom_site_label
 _atom_site_symmetry_multiplicity
 _atom_site_fract_x
 _atom_site_fract_y
 _atom_site_fract_z
 _atom_site_occupancy
  Hf  Hf0  1  0.501048  0.749999  0.123405  1
  Hf  Hf1  1  0.998974  0.749999  0.123404  1
  Hf  Hf2  1  0.500137  0.250000  0.374996  1
  Hf  Hf3  1  0.999863  0.250000  0.374998  1
  Hf  Hf4  1  0.501040  0.749999  0.626619  1
  Hf  Hf5  1  0.998959  0.749999  0.626620  1
  Hf  Hf6  1  0.502361  0.250000  0.874994  1
  Hf  Hf7  1  0.997636  0.250000  0.874986  1
  Re  Re8  1  0.750001  0.250000  0.125979  1
  Re  Re9  1  0.249987  0.749999  0.374994  1
  Re  Re10  1  0.750002  0.250000  0.624010  1
  Re  Re11  1  0.250001  0.749999  0.875005  1
  Ir  Ir12  1  0.249990  0.250000  0.125381  1
  Ir  Ir13  1  0.750001  0.749999  0.374996  1
  Ir  Ir14  1  0.250003  0.250000  0.624613  1
  Os  Os15  1  0.749994  0.749999  0.875002  1
