# generated using pymatgen
data_LiTb10Ho2InNi4
_symmetry_space_group_name_H-M   'P 1'
_cell_length_a   8.36047801
_cell_length_b   8.37023950
_cell_length_c   8.36047914
_cell_angle_alpha   112.24300355
_cell_angle_beta   110.14353075
_cell_angle_gamma   106.04109510
_symmetry_Int_Tables_number   1
_chemical_formula_structural   LiTb10Ho2InNi4
_chemical_formula_sum   'Li1 Tb10 Ho2 In1 Ni4'
_cell_volume   449.28583298
_cell_formula_units_Z   1
loop_
 _symmetry_equiv_pos_site_id
 _symmetry_equiv_pos_as_xyz
  1  'x, y, z'
loop_
 _atom_site_type_symbol
 _atom_site_label
 _atom_site_symmetry_multiplicity
 _atom_site_fract_x
 _atom_site_fract_y
 _atom_site_fract_z
 _atom_site_occupancy
  Li  Li0  1  0.000000  0.000000  0.000000  1
  Tb  Tb1  1  0.423631  0.226873  0.195610  1
  Tb  Tb2  1  0.576369  0.773127  0.804390  1
  Tb  Tb3  1  0.031264  0.226873  0.803242  1
  Tb  Tb4  1  0.968736  0.773127  0.196758  1
  Tb  Tb5  1  0.182530  0.293731  0.477695  1
  Tb  Tb6  1  0.817470  0.706269  0.522305  1
  Tb  Tb7  1  0.183966  0.706269  0.888799  1
  Tb  Tb8  1  0.816034  0.293731  0.111201  1
  Tb  Tb9  1  0.321509  0.628417  0.306909  1
  Tb  Tb10  1  0.678491  0.371583  0.693091  1
  Ho  Ho11  1  0.322177  0.014502  0.692326  1
  Ho  Ho12  1  0.677823  0.985498  0.307674  1
  In  In13  1  0.500000  0.500000  0.000000  1
  Ni  Ni14  1  0.349232  0.000000  0.349232  1
  Ni  Ni15  1  0.650768  0.000000  0.650768  1
  Ni  Ni16  1  0.125134  0.625737  0.500604  1
  Ni  Ni17  1  0.874866  0.374263  0.499396  1
