# generated using pymatgen
data_Nd7Tm13Si15Hg
_symmetry_space_group_name_H-M   'P 1'
_cell_length_a   7.72879372
_cell_length_b   7.74713869
_cell_length_c   14.33068000
_cell_angle_alpha   89.85958445
_cell_angle_beta   89.70603957
_cell_angle_gamma   90.16757495
_symmetry_Int_Tables_number   1
_chemical_formula_structural   Nd7Tm13Si15Hg
_chemical_formula_sum   'Nd7 Tm13 Si15 Hg1'
_cell_volume   858.04675187
_cell_formula_units_Z   1
loop_
 _symmetry_equiv_pos_site_id
 _symmetry_equiv_pos_as_xyz
  1  'x, y, z'
loop_
 _atom_site_type_symbol
 _atom_site_label
 _atom_site_symmetry_multiplicity
 _atom_site_fract_x
 _atom_site_fract_y
 _atom_site_fract_z
 _atom_site_occupancy
  Nd  Nd0  1  0.359698  0.007373  0.959475  1
  Nd  Nd1  1  0.985360  0.636848  0.539976  1
  Nd  Nd2  1  0.491977  0.857154  0.209151  1
  Nd  Nd3  1  0.515454  0.149378  0.712457  1
  Nd  Nd4  1  0.859743  0.492921  0.794229  1
  Nd  Nd5  1  0.140195  0.504892  0.290507  1
  Nd  Nd6  1  0.007026  0.357188  0.042223  1
  Tm  Tm7  1  0.490840  0.358710  0.124462  1
  Tm  Tm8  1  0.982297  0.145948  0.629016  1
  Tm  Tm9  1  0.860625  0.007689  0.875453  1
  Tm  Tm10  1  0.136410  0.990217  0.371530  1
  Tm  Tm11  1  0.513796  0.635216  0.623414  1
  Tm  Tm12  1  0.362329  0.491432  0.877337  1
  Tm  Tm13  1  0.643301  0.505705  0.373881  1
  Tm  Tm14  1  0.006169  0.861312  0.125885  1
  Tm  Tm15  1  0.643880  0.998049  0.453845  1
  Tm  Tm16  1  0.315120  0.323523  0.498709  1
  Tm  Tm17  1  0.186033  0.819921  0.752812  1
  Tm  Tm18  1  0.816567  0.181838  0.250298  1
  Tm  Tm19  1  0.681825  0.682644  0.000658  1
  Si  Si20  1  0.709406  0.061740  0.062202  1
  Si  Si21  1  0.936908  0.287529  0.436943  1
  Si  Si22  1  0.439119  0.209137  0.312258  1
  Si  Si23  1  0.563935  0.788452  0.811504  1
  Si  Si24  1  0.210408  0.438439  0.689555  1
  Si  Si25  1  0.788367  0.563447  0.187308  1
  Si  Si26  1  0.064286  0.710170  0.939559  1
  Si  Si27  1  0.798935  0.845287  0.692170  1
  Si  Si28  1  0.202597  0.150460  0.187711  1
  Si  Si29  1  0.843857  0.799800  0.311481  1
  Si  Si30  1  0.354551  0.701155  0.431659  1
  Si  Si31  1  0.652104  0.296289  0.940186  1
  Si  Si32  1  0.697475  0.341888  0.556474  1
  Si  Si33  1  0.296559  0.651808  0.061078  1
  Si  Si34  1  0.152956  0.205439  0.811206  1
  Hg  Hg35  1  0.289895  0.941009  0.563383  1
