# generated using pymatgen
data_Tb3Hf2Zr(SnRh)6
_symmetry_space_group_name_H-M   'P 1'
_cell_length_a   7.49617641
_cell_length_b   7.48328908
_cell_length_c   7.54811700
_cell_angle_alpha   90.00000000
_cell_angle_beta   90.00000000
_cell_angle_gamma   119.94282517
_symmetry_Int_Tables_number   1
_chemical_formula_structural   Tb3Hf2Zr(SnRh)6
_chemical_formula_sum   'Tb3 Hf2 Zr1 Sn6 Rh6'
_cell_volume   366.90319914
_cell_formula_units_Z   1
loop_
 _symmetry_equiv_pos_site_id
 _symmetry_equiv_pos_as_xyz
  1  'x, y, z'
loop_
 _atom_site_type_symbol
 _atom_site_label
 _atom_site_symmetry_multiplicity
 _atom_site_fract_x
 _atom_site_fract_y
 _atom_site_fract_z
 _atom_site_occupancy
  Tb  Tb0  1  0.999912  0.404834  0.250000  1
  Tb  Tb1  1  0.591788  0.594298  0.250000  1
  Tb  Tb2  1  0.408240  0.002431  0.250000  1
  Hf  Hf3  1  0.607325  0.606184  0.750000  1
  Hf  Hf4  1  0.392266  0.998247  0.750000  1
  Zr  Zr5  1  0.000504  0.395819  0.750000  1
  Sn  Sn6  1  0.265039  0.265546  0.508866  1
  Sn  Sn7  1  0.999623  0.732487  0.504299  1
  Sn  Sn8  1  0.999623  0.732487  0.995701  1
  Sn  Sn9  1  0.735188  0.001066  0.509052  1
  Sn  Sn10  1  0.735188  0.001066  0.990948  1
  Sn  Sn11  1  0.265039  0.265546  0.991134  1
  Rh  Rh12  1  0.336472  0.669109  0.539455  1
  Rh  Rh13  1  0.663701  0.332752  0.540283  1
  Rh  Rh14  1  0.336472  0.669109  0.960545  1
  Rh  Rh15  1  0.000039  0.995904  0.750000  1
  Rh  Rh16  1  0.999882  0.000367  0.250000  1
  Rh  Rh17  1  0.663701  0.332752  0.959717  1
