# generated using pymatgen
data_La8Ta(IrO8)3
_symmetry_space_group_name_H-M   'P 1'
_cell_length_a   5.52277436
_cell_length_b   9.53863038
_cell_length_c   10.36360846
_cell_angle_alpha   89.59200130
_cell_angle_beta   89.95761346
_cell_angle_gamma   90.00514298
_symmetry_Int_Tables_number   1
_chemical_formula_structural   La8Ta(IrO8)3
_chemical_formula_sum   'La8 Ta1 Ir3 O24'
_cell_volume   545.93782519
_cell_formula_units_Z   1
loop_
 _symmetry_equiv_pos_site_id
 _symmetry_equiv_pos_as_xyz
  1  'x, y, z'
loop_
 _atom_site_type_symbol
 _atom_site_label
 _atom_site_symmetry_multiplicity
 _atom_site_fract_x
 _atom_site_fract_y
 _atom_site_fract_z
 _atom_site_occupancy
  La  La0  1  0.523436  0.105834  0.957337  1
  La  La1  1  0.024438  0.400841  0.039044  1
  La  La2  1  0.470863  0.606438  0.542219  1
  La  La3  1  0.975812  0.901774  0.459609  1
  La  La4  1  0.529079  0.218479  0.368828  1
  La  La5  1  0.030727  0.271624  0.638024  1
  La  La6  1  0.465021  0.718845  0.133041  1
  La  La7  1  0.969448  0.787799  0.857168  1
  Ta  Ta8  1  0.462106  0.993606  0.644851  1
  Ir  Ir9  1  0.955498  0.500699  0.358831  1
  Ir  Ir10  1  0.541181  0.498440  0.860041  1
  Ir  Ir11  1  0.041600  0.003657  0.140036  1
  O  O12  1  0.307697  0.127880  0.179820  1
  O  O13  1  0.805878  0.368909  0.823781  1
  O  O14  1  0.686545  0.623033  0.317224  1
  O  O15  1  0.193433  0.856365  0.669986  1
  O  O16  1  0.726914  0.111105  0.556750  1
  O  O17  1  0.218987  0.389285  0.435538  1
  O  O18  1  0.276646  0.613976  0.934998  1
  O  O19  1  0.777281  0.889915  0.067763  1
  O  O20  1  0.673092  0.639098  0.745725  1
  O  O21  1  0.171003  0.860476  0.252983  1
  O  O22  1  0.309162  0.132703  0.761124  1
  O  O23  1  0.832958  0.357516  0.246398  1
  O  O24  1  0.678721  0.955794  0.789449  1
  O  O25  1  0.161106  0.556361  0.217690  1
  O  O26  1  0.335505  0.442806  0.721603  1
  O  O27  1  0.836850  0.060526  0.277107  1
  O  O28  1  0.252036  0.091057  0.506797  1
  O  O29  1  0.748372  0.414167  0.494962  1
  O  O30  1  0.748590  0.589321  0.994058  1
  O  O31  1  0.247369  0.913943  0.005892  1
  O  O32  1  0.063385  0.648065  0.472877  1
  O  O33  1  0.585072  0.843795  0.522749  1
  O  O34  1  0.938827  0.150271  0.020899  1
  O  O35  1  0.435365  0.355595  0.984798  1
