# generated using pymatgen
data_Pr10InSi4Ag
_symmetry_space_group_name_H-M   'P 1'
_cell_length_a   7.81722600
_cell_length_b   9.36963261
_cell_length_c   7.81722600
_cell_angle_alpha   114.65526146
_cell_angle_beta   90.00000000
_cell_angle_gamma   114.65526146
_symmetry_Int_Tables_number   1
_chemical_formula_structural   Pr10InSi4Ag
_chemical_formula_sum   'Pr10 In1 Si4 Ag1'
_cell_volume   462.31511421
_cell_formula_units_Z   1
loop_
 _symmetry_equiv_pos_site_id
 _symmetry_equiv_pos_as_xyz
  1  'x, y, z'
loop_
 _atom_site_type_symbol
 _atom_site_label
 _atom_site_symmetry_multiplicity
 _atom_site_fract_x
 _atom_site_fract_y
 _atom_site_fract_z
 _atom_site_occupancy
  Pr  Pr0  1  0.978410  0.956819  0.978410  1
  Pr  Pr1  1  0.521590  0.043181  0.521590  1
  Pr  Pr2  1  0.529269  0.723861  0.676090  1
  Pr  Pr3  1  0.194595  0.723861  0.047772  1
  Pr  Pr4  1  0.676090  0.723861  0.194595  1
  Pr  Pr5  1  0.047772  0.723861  0.529269  1
  Pr  Pr6  1  0.452228  0.276139  0.305405  1
  Pr  Pr7  1  0.823910  0.276139  0.970731  1
  Pr  Pr8  1  0.305405  0.276139  0.823910  1
  Pr  Pr9  1  0.970731  0.276139  0.452228  1
  In  In10  1  0.750000  0.500000  0.750000  1
  Si  Si11  1  0.885552  0.000000  0.614448  1
  Si  Si12  1  0.114448  0.000000  0.385552  1
  Si  Si13  1  0.614448  0.000000  0.114448  1
  Si  Si14  1  0.385552  0.000000  0.885552  1
  Ag  Ag15  1  0.250000  0.500000  0.250000  1
