# generated using pymatgen
data_Ho5In4PdRu
_symmetry_space_group_name_H-M   'P 1'
_cell_length_a   3.60406000
_cell_length_b   8.07830348
_cell_length_c   18.28256554
_cell_angle_alpha   90.08335630
_cell_angle_beta   90.00000000
_cell_angle_gamma   90.00000000
_symmetry_Int_Tables_number   1
_chemical_formula_structural   Ho5In4PdRu
_chemical_formula_sum   'Ho10 In8 Pd2 Ru2'
_cell_volume   532.29067269
_cell_formula_units_Z   2
loop_
 _symmetry_equiv_pos_site_id
 _symmetry_equiv_pos_as_xyz
  1  'x, y, z'
loop_
 _atom_site_type_symbol
 _atom_site_label
 _atom_site_symmetry_multiplicity
 _atom_site_fract_x
 _atom_site_fract_y
 _atom_site_fract_z
 _atom_site_occupancy
  Ho  Ho0  1  0.000000  0.500000  0.500000  1
  Ho  Ho1  1  0.000000  0.000000  0.000000  1
  Ho  Ho2  1  0.000000  0.728250  0.277707  1
  Ho  Ho3  1  0.000000  0.271750  0.722293  1
  Ho  Ho4  1  0.000000  0.746417  0.780382  1
  Ho  Ho5  1  0.000000  0.253583  0.219618  1
  Ho  Ho6  1  0.000000  0.614513  0.086902  1
  Ho  Ho7  1  0.000000  0.385487  0.913098  1
  Ho  Ho8  1  0.000000  0.882711  0.584441  1
  Ho  Ho9  1  0.000000  0.117289  0.415559  1
  In  In10  1  0.500000  0.709364  0.931245  1
  In  In11  1  0.500000  0.290636  0.068755  1
  In  In12  1  0.500000  0.790123  0.432181  1
  In  In13  1  0.500000  0.209877  0.567819  1
  In  In14  1  0.500000  0.575722  0.650042  1
  In  In15  1  0.500000  0.424278  0.349958  1
  In  In16  1  0.500000  0.921801  0.149825  1
  In  In17  1  0.500000  0.078199  0.850175  1
  Pd  Pd18  1  0.500000  0.978766  0.696219  1
  Pd  Pd19  1  0.500000  0.021234  0.303781  1
  Ru  Ru20  1  0.500000  0.519802  0.195752  1
  Ru  Ru21  1  0.500000  0.480198  0.804248  1
