# generated using pymatgen
data_Nd6Zn21Cd2P
_symmetry_space_group_name_H-M   'P 1'
_cell_length_a   9.31564081
_cell_length_b   9.31564179
_cell_length_c   9.31564213
_cell_angle_alpha   60.22986062
_cell_angle_beta   60.22985445
_cell_angle_gamma   60.22986159
_symmetry_Int_Tables_number   1
_chemical_formula_structural   Nd6Zn21Cd2P
_chemical_formula_sum   'Nd6 Zn21 Cd2 P1'
_cell_volume   574.61567077
_cell_formula_units_Z   1
loop_
 _symmetry_equiv_pos_site_id
 _symmetry_equiv_pos_as_xyz
  1  'x, y, z'
loop_
 _atom_site_type_symbol
 _atom_site_label
 _atom_site_symmetry_multiplicity
 _atom_site_fract_x
 _atom_site_fract_y
 _atom_site_fract_z
 _atom_site_occupancy
  Nd  Nd0  1  0.783817  0.783817  0.215766  1
  Nd  Nd1  1  0.212533  0.791177  0.212533  1
  Nd  Nd2  1  0.791177  0.212533  0.212533  1
  Nd  Nd3  1  0.212533  0.212533  0.791177  1
  Nd  Nd4  1  0.783817  0.215766  0.783817  1
  Nd  Nd5  1  0.215766  0.783817  0.783817  1
  Zn  Zn6  1  0.828185  0.828185  0.516299  1
  Zn  Zn7  1  0.828185  0.516299  0.828185  1
  Zn  Zn8  1  0.516299  0.828185  0.828185  1
  Zn  Zn9  1  0.827555  0.827555  0.827555  1
  Zn  Zn10  1  0.169148  0.169148  0.486187  1
  Zn  Zn11  1  0.169148  0.486187  0.169148  1
  Zn  Zn12  1  0.486187  0.169148  0.169148  1
  Zn  Zn13  1  0.172685  0.172685  0.172685  1
  Zn  Zn14  1  0.629083  0.629083  0.110914  1
  Zn  Zn15  1  0.629083  0.110914  0.629083  1
  Zn  Zn16  1  0.110914  0.629083  0.629083  1
  Zn  Zn17  1  0.630902  0.630902  0.630902  1
  Zn  Zn18  1  0.369687  0.369687  0.890391  1
  Zn  Zn19  1  0.369687  0.890391  0.369687  1
  Zn  Zn20  1  0.890391  0.369687  0.369687  1
  Zn  Zn21  1  0.999261  0.999261  0.500422  1
  Zn  Zn22  1  0.501088  0.994253  0.501088  1
  Zn  Zn23  1  0.994253  0.501088  0.501088  1
  Zn  Zn24  1  0.501088  0.501088  0.994253  1
  Zn  Zn25  1  0.999261  0.500422  0.999261  1
  Zn  Zn26  1  0.500422  0.999261  0.999261  1
  Cd  Cd27  1  0.374653  0.374653  0.374653  1
  Cd  Cd28  1  0.504505  0.504505  0.504505  1
  P  P29  1  0.998688  0.998688  0.998688  1
