# generated using pymatgen
data_Ba6YPd4O15
_symmetry_space_group_name_H-M   'P 1'
_cell_length_a   7.55236320
_cell_length_b   7.61046981
_cell_length_c   7.46140737
_cell_angle_alpha   86.22139370
_cell_angle_beta   86.09165465
_cell_angle_gamma   84.94293550
_symmetry_Int_Tables_number   1
_chemical_formula_structural   Ba6YPd4O15
_chemical_formula_sum   'Ba6 Y1 Pd4 O15'
_cell_volume   425.42197312
_cell_formula_units_Z   1
loop_
 _symmetry_equiv_pos_site_id
 _symmetry_equiv_pos_as_xyz
  1  'x, y, z'
loop_
 _atom_site_type_symbol
 _atom_site_label
 _atom_site_symmetry_multiplicity
 _atom_site_fract_x
 _atom_site_fract_y
 _atom_site_fract_z
 _atom_site_occupancy
  Ba  Ba0  1  0.331140  0.675900  0.000950  1
  Ba  Ba1  1  0.006227  0.331547  0.672214  1
  Ba  Ba2  1  0.667436  0.995938  0.330044  1
  Ba  Ba3  1  0.139831  0.861560  0.495840  1
  Ba  Ba4  1  0.499971  0.149485  0.865795  1
  Ba  Ba5  1  0.864317  0.497720  0.140903  1
  Y  Y6  1  0.501219  0.497490  0.500470  1
  Pd  Pd7  1  0.295241  0.298599  0.291687  1
  Pd  Pd8  1  0.704618  0.706075  0.704320  1
  Pd  Pd9  1  0.094701  0.097087  0.099035  1
  Pd  Pd10  1  0.901083  0.897876  0.904192  1
  O  O11  1  0.144834  0.994332  0.847904  1
  O  O12  1  0.843203  0.140877  0.003682  1
  O  O13  1  0.990445  0.822586  0.149898  1
  O  O14  1  0.038520  0.209612  0.344423  1
  O  O15  1  0.343973  0.041508  0.201231  1
  O  O16  1  0.213582  0.363768  0.030754  1
  O  O17  1  0.794860  0.961725  0.655291  1
  O  O18  1  0.657141  0.799943  0.963678  1
  O  O19  1  0.962639  0.657534  0.793799  1
  O  O20  1  0.372991  0.234940  0.549524  1
  O  O21  1  0.548502  0.369915  0.232207  1
  O  O22  1  0.233911  0.548084  0.375820  1
  O  O23  1  0.765366  0.624055  0.452641  1
  O  O24  1  0.451944  0.765861  0.624584  1
  O  O25  1  0.632308  0.455983  0.769115  1
