# generated using pymatgen
data_Ag2Te5Au2Se3
_symmetry_space_group_name_H-M   'P 1'
_cell_length_a   4.51513974
_cell_length_b   8.83780213
_cell_length_c   9.92265435
_cell_angle_alpha   56.79848542
_cell_angle_beta   90.52354989
_cell_angle_gamma   89.71991106
_symmetry_Int_Tables_number   1
_chemical_formula_structural   Ag2Te5Au2Se3
_chemical_formula_sum   'Ag2 Te5 Au2 Se3'
_cell_volume   331.27639104
_cell_formula_units_Z   1
loop_
 _symmetry_equiv_pos_site_id
 _symmetry_equiv_pos_as_xyz
  1  'x, y, z'
loop_
 _atom_site_type_symbol
 _atom_site_label
 _atom_site_symmetry_multiplicity
 _atom_site_fract_x
 _atom_site_fract_y
 _atom_site_fract_z
 _atom_site_occupancy
  Ag  Ag0  1  0.479559  0.501699  0.251362  1
  Ag  Ag1  1  0.506708  0.493005  0.748126  1
  Te  Te2  1  0.971431  0.697381  0.795853  1
  Te  Te3  1  0.033223  0.709764  0.298585  1
  Te  Te4  1  0.048519  0.297417  0.197028  1
  Te  Te5  1  0.604816  0.810751  0.956124  1
  Te  Te6  1  0.621738  0.195056  0.547696  1
  Au  Au7  1  0.017977  0.998028  0.497470  1
  Au  Au8  1  0.006004  0.010073  0.998565  1
  Se  Se9  1  0.381320  0.799756  0.458721  1
  Se  Se10  1  0.380706  0.198754  0.040924  1
  Se  Se11  1  0.947999  0.288314  0.709546  1
