# generated using pymatgen
data_Er8Sc12Ga13Si3
_symmetry_space_group_name_H-M   'P 1'
_cell_length_a   7.21137423
_cell_length_b   7.47536926
_cell_length_c   14.39271200
_cell_angle_alpha   90.00000000
_cell_angle_beta   90.00000000
_cell_angle_gamma   90.13012245
_symmetry_Int_Tables_number   1
_chemical_formula_structural   Er8Sc12Ga13Si3
_chemical_formula_sum   'Er8 Sc12 Ga13 Si3'
_cell_volume   775.87578742
_cell_formula_units_Z   1
loop_
 _symmetry_equiv_pos_site_id
 _symmetry_equiv_pos_as_xyz
  1  'x, y, z'
loop_
 _atom_site_type_symbol
 _atom_site_label
 _atom_site_symmetry_multiplicity
 _atom_site_fract_x
 _atom_site_fract_y
 _atom_site_fract_z
 _atom_site_occupancy
  Er  Er0  1  0.012167  0.178866  0.097121  1
  Er  Er1  1  0.987747  0.820671  0.904831  1
  Er  Er2  1  0.489416  0.677725  0.904863  1
  Er  Er3  1  0.987747  0.820671  0.595169  1
  Er  Er4  1  0.511492  0.319697  0.096794  1
  Er  Er5  1  0.012167  0.178866  0.402879  1
  Er  Er6  1  0.511492  0.319697  0.403206  1
  Er  Er7  1  0.489416  0.677725  0.595137  1
  Sc  Sc8  1  0.161182  0.504338  0.750000  1
  Sc  Sc9  1  0.837749  0.493053  0.250000  1
  Sc  Sc10  1  0.338314  0.006542  0.250000  1
  Sc  Sc11  1  0.665521  0.993994  0.750000  1
  Sc  Sc12  1  0.331610  0.174256  0.622602  1
  Sc  Sc13  1  0.669981  0.828082  0.377453  1
  Sc  Sc14  1  0.169992  0.671198  0.376759  1
  Sc  Sc15  1  0.669981  0.828082  0.122547  1
  Sc  Sc16  1  0.828506  0.329312  0.623148  1
  Sc  Sc17  1  0.331610  0.174256  0.877398  1
  Sc  Sc18  1  0.828506  0.329312  0.876852  1
  Sc  Sc19  1  0.169992  0.671198  0.123241  1
  Ga  Ga20  1  0.033684  0.119268  0.750000  1
  Ga  Ga21  1  0.966952  0.886811  0.250000  1
  Ga  Ga22  1  0.468025  0.612797  0.250000  1
  Ga  Ga23  1  0.532877  0.388336  0.750000  1
  Ga  Ga24  1  0.284541  0.871685  0.750000  1
  Ga  Ga25  1  0.159586  0.464584  0.540559  1
  Ga  Ga26  1  0.838251  0.534391  0.457962  1
  Ga  Ga27  1  0.338076  0.964880  0.458368  1
  Ga  Ga28  1  0.838251  0.534391  0.042038  1
  Ga  Ga29  1  0.661489  0.035121  0.540785  1
  Ga  Ga30  1  0.159586  0.464584  0.959441  1
  Ga  Ga31  1  0.661489  0.035121  0.959215  1
  Ga  Ga32  1  0.338076  0.964880  0.041632  1
  Si  Si33  1  0.715015  0.125692  0.250000  1
  Si  Si34  1  0.215025  0.373415  0.250000  1
  Si  Si35  1  0.784489  0.626504  0.750000  1
