# generated using pymatgen
data_Tb3Tm13(InRh)4
_symmetry_space_group_name_H-M   'P 1'
_cell_length_a   9.55531183
_cell_length_b   9.55330926
_cell_length_c   9.55336421
_cell_angle_alpha   60.01367650
_cell_angle_beta   59.99288074
_cell_angle_gamma   60.04236252
_symmetry_Int_Tables_number   1
_chemical_formula_structural   Tb3Tm13(InRh)4
_chemical_formula_sum   'Tb3 Tm13 In4 Rh4'
_cell_volume   616.87957739
_cell_formula_units_Z   1
loop_
 _symmetry_equiv_pos_site_id
 _symmetry_equiv_pos_as_xyz
  1  'x, y, z'
loop_
 _atom_site_type_symbol
 _atom_site_label
 _atom_site_symmetry_multiplicity
 _atom_site_fract_x
 _atom_site_fract_y
 _atom_site_fract_z
 _atom_site_occupancy
  Tb  Tb0  1  0.061184  0.061184  0.438816  1
  Tb  Tb1  1  0.437870  0.062798  0.437351  1
  Tb  Tb2  1  0.062798  0.437870  0.061982  1
  Tm  Tm3  1  0.049140  0.648718  0.650849  1
  Tm  Tm4  1  0.438606  0.438606  0.061394  1
  Tm  Tm5  1  0.648718  0.049140  0.651294  1
  Tm  Tm6  1  0.189661  0.810769  0.187937  1
  Tm  Tm7  1  0.188456  0.188456  0.811544  1
  Tm  Tm8  1  0.811160  0.811160  0.188840  1
  Tm  Tm9  1  0.439530  0.060862  0.059977  1
  Tm  Tm10  1  0.811143  0.189557  0.187669  1
  Tm  Tm11  1  0.060862  0.439530  0.439631  1
  Tm  Tm12  1  0.810769  0.189661  0.811634  1
  Tm  Tm13  1  0.189557  0.811143  0.811631  1
  Tm  Tm14  1  0.650268  0.650312  0.047090  1
  Tm  Tm15  1  0.650312  0.650268  0.652330  1
  In  In16  1  0.416294  0.418137  0.416555  1
  In  In17  1  0.747166  0.418118  0.417958  1
  In  In18  1  0.418118  0.747166  0.416756  1
  In  In19  1  0.418137  0.416294  0.749013  1
  Rh  Rh20  1  0.858249  0.857195  0.426898  1
  Rh  Rh21  1  0.857195  0.858249  0.857658  1
  Rh  Rh22  1  0.427340  0.857468  0.858125  1
  Rh  Rh23  1  0.857468  0.427340  0.857067  1
