# generated using pymatgen
data_Zr4Al4Mo3Au
_symmetry_space_group_name_H-M   'P 1'
_cell_length_a   5.29705697
_cell_length_b   5.29705587
_cell_length_c   8.88979800
_cell_angle_alpha   90.00000000
_cell_angle_beta   90.00000000
_cell_angle_gamma   119.53334219
_symmetry_Int_Tables_number   1
_chemical_formula_structural   Zr4Al4Mo3Au
_chemical_formula_sum   'Zr4 Al4 Mo3 Au1'
_cell_volume   217.02750675
_cell_formula_units_Z   1
loop_
 _symmetry_equiv_pos_site_id
 _symmetry_equiv_pos_as_xyz
  1  'x, y, z'
loop_
 _atom_site_type_symbol
 _atom_site_label
 _atom_site_symmetry_multiplicity
 _atom_site_fract_x
 _atom_site_fract_y
 _atom_site_fract_z
 _atom_site_occupancy
  Zr  Zr0  1  0.334261  0.665739  0.190127  1
  Zr  Zr1  1  0.665476  0.334524  0.316822  1
  Zr  Zr2  1  0.665476  0.334524  0.683178  1
  Zr  Zr3  1  0.334261  0.665739  0.809873  1
  Al  Al4  1  0.999378  0.000622  0.248212  1
  Al  Al5  1  0.999378  0.000622  0.751788  1
  Al  Al6  1  0.829481  0.654688  0.000000  1
  Al  Al7  1  0.345312  0.170519  0.000000  1
  Mo  Mo8  1  0.168796  0.341893  0.500000  1
  Mo  Mo9  1  0.658107  0.831204  0.500000  1
  Mo  Mo10  1  0.168343  0.831657  0.500000  1
  Au  Au11  1  0.831885  0.168115  0.000000  1
