# generated using pymatgen
data_YbCe3(ReB2)6
_symmetry_space_group_name_H-M   'P 1'
_cell_length_a   6.26852592
_cell_length_b   6.25483414
_cell_length_c   7.53267668
_cell_angle_alpha   89.46096661
_cell_angle_beta   89.51984477
_cell_angle_gamma   114.22419748
_symmetry_Int_Tables_number   1
_chemical_formula_structural   YbCe3(ReB2)6
_chemical_formula_sum   'Yb1 Ce3 Re6 B12'
_cell_volume   269.30335371
_cell_formula_units_Z   1
loop_
 _symmetry_equiv_pos_site_id
 _symmetry_equiv_pos_as_xyz
  1  'x, y, z'
loop_
 _atom_site_type_symbol
 _atom_site_label
 _atom_site_symmetry_multiplicity
 _atom_site_fract_x
 _atom_site_fract_y
 _atom_site_fract_z
 _atom_site_occupancy
  Yb  Yb0  1  0.902196  0.557572  0.323298  1
  Ce  Ce1  1  0.449192  0.097765  0.170608  1
  Ce  Ce2  1  0.093280  0.443688  0.668605  1
  Ce  Ce3  1  0.550622  0.902042  0.831534  1
  Re  Re4  1  0.413550  0.589583  0.249415  1
  Re  Re5  1  0.587182  0.411015  0.750710  1
  Re  Re6  1  0.009690  0.192114  0.090867  1
  Re  Re7  1  0.806662  0.988812  0.413092  1
  Re  Re8  1  0.988282  0.808320  0.909847  1
  Re  Re9  1  0.193431  0.010018  0.587841  1
  B  B10  1  0.751468  0.843453  0.134761  1
  B  B11  1  0.155800  0.243592  0.366030  1
  B  B12  1  0.247564  0.155416  0.866918  1
  B  B13  1  0.845788  0.750475  0.629549  1
  B  B14  1  0.417119  0.841979  0.482030  1
  B  B15  1  0.157500  0.584639  0.021263  1
  B  B16  1  0.588821  0.159957  0.520401  1
  B  B17  1  0.842483  0.418474  0.983085  1
  B  B18  1  0.555885  0.649348  0.534295  1
  B  B19  1  0.348365  0.444499  0.965143  1
  B  B20  1  0.445248  0.350523  0.464913  1
  B  B21  1  0.649873  0.556712  0.035793  1
