# generated using pymatgen
data_Ho3Er3NbCo17P12
_symmetry_space_group_name_H-M   'P 1'
_cell_length_a   3.69222600
_cell_length_b   10.54538101
_cell_length_c   12.23545501
_cell_angle_alpha   90.00525841
_cell_angle_beta   90.00000000
_cell_angle_gamma   90.00000000
_symmetry_Int_Tables_number   1
_chemical_formula_structural   Ho3Er3NbCo17P12
_chemical_formula_sum   'Ho3 Er3 Nb1 Co17 P12'
_cell_volume   476.39881727
_cell_formula_units_Z   1
loop_
 _symmetry_equiv_pos_site_id
 _symmetry_equiv_pos_as_xyz
  1  'x, y, z'
loop_
 _atom_site_type_symbol
 _atom_site_label
 _atom_site_symmetry_multiplicity
 _atom_site_fract_x
 _atom_site_fract_y
 _atom_site_fract_z
 _atom_site_occupancy
  Ho  Ho0  1  0.750000  0.250059  0.472840  1
  Ho  Ho1  1  0.250000  0.750002  0.522643  1
  Ho  Ho2  1  0.750000  0.067186  0.204157  1
  Er  Er3  1  0.250000  0.930138  0.792923  1
  Er  Er4  1  0.250000  0.569836  0.792726  1
  Er  Er5  1  0.750000  0.432756  0.204135  1
  Nb  Nb6  1  0.250000  0.250041  0.844869  1
  Co  Co7  1  0.750000  0.749889  0.161741  1
  Co  Co8  1  0.250000  0.250299  0.297912  1
  Co  Co9  1  0.750000  0.749937  0.703651  1
  Co  Co10  1  0.750000  0.250143  0.015830  1
  Co  Co11  1  0.250000  0.749970  0.985415  1
  Co  Co12  1  0.250000  0.420668  0.010869  1
  Co  Co13  1  0.250000  0.079595  0.010671  1
  Co  Co14  1  0.750000  0.586142  0.995982  1
  Co  Co15  1  0.750000  0.913517  0.995874  1
  Co  Co16  1  0.250000  0.454840  0.566875  1
  Co  Co17  1  0.250000  0.045172  0.567103  1
  Co  Co18  1  0.750000  0.547865  0.430130  1
  Co  Co19  1  0.750000  0.952129  0.430405  1
  Co  Co20  1  0.250000  0.870393  0.291976  1
  Co  Co21  1  0.250000  0.629327  0.291752  1
  Co  Co22  1  0.750000  0.126643  0.705502  1
  Co  Co23  1  0.750000  0.373386  0.705365  1
  P  P24  1  0.250000  0.250286  0.119360  1
  P  P25  1  0.750000  0.749914  0.882451  1
  P  P26  1  0.250000  0.250019  0.643689  1
  P  P27  1  0.750000  0.750023  0.344782  1
  P  P28  1  0.250000  0.440085  0.382260  1
  P  P29  1  0.250000  0.059971  0.382671  1
  P  P30  1  0.750000  0.562053  0.614545  1
  P  P31  1  0.750000  0.937911  0.614739  1
  P  P32  1  0.250000  0.898596  0.110122  1
  P  P33  1  0.250000  0.601086  0.110355  1
  P  P34  1  0.750000  0.088576  0.896902  1
  P  P35  1  0.750000  0.411546  0.896781  1
