# generated using pymatgen
data_Y3HoGa4(IrPd)2
_symmetry_space_group_name_H-M   'P 1'
_cell_length_a   4.43249900
_cell_length_b   6.87956159
_cell_length_c   7.70038766
_cell_angle_alpha   90.04746148
_cell_angle_beta   90.00000000
_cell_angle_gamma   90.00000000
_symmetry_Int_Tables_number   1
_chemical_formula_structural   Y3HoGa4(IrPd)2
_chemical_formula_sum   'Y3 Ho1 Ga4 Ir2 Pd2'
_cell_volume   234.81284461
_cell_formula_units_Z   1
loop_
 _symmetry_equiv_pos_site_id
 _symmetry_equiv_pos_as_xyz
  1  'x, y, z'
loop_
 _atom_site_type_symbol
 _atom_site_label
 _atom_site_symmetry_multiplicity
 _atom_site_fract_x
 _atom_site_fract_y
 _atom_site_fract_z
 _atom_site_occupancy
  Y  Y0  1  0.250000  0.024884  0.812240  1
  Y  Y1  1  0.250000  0.524664  0.687507  1
  Y  Y2  1  0.750000  0.985455  0.196215  1
  Ho  Ho3  1  0.750000  0.485432  0.303944  1
  Ga  Ga4  1  0.250000  0.161552  0.426962  1
  Ga  Ga5  1  0.250000  0.661119  0.073403  1
  Ga  Ga6  1  0.750000  0.832895  0.569848  1
  Ga  Ga7  1  0.750000  0.333184  0.930168  1
  Ir  Ir8  1  0.250000  0.771961  0.394676  1
  Ir  Ir9  1  0.250000  0.273828  0.105677  1
  Pd  Pd10  1  0.750000  0.222844  0.603611  1
  Pd  Pd11  1  0.750000  0.722183  0.895750  1
