# generated using pymatgen
data_Y8Sc12Si15Ag
_symmetry_space_group_name_H-M   'P 1'
_cell_length_a   7.13483216
_cell_length_b   7.37806759
_cell_length_c   14.08051105
_cell_angle_alpha   89.88602697
_cell_angle_beta   89.60917074
_cell_angle_gamma   90.16783036
_symmetry_Int_Tables_number   1
_chemical_formula_structural   Y8Sc12Si15Ag
_chemical_formula_sum   'Y8 Sc12 Si15 Ag1'
_cell_volume   741.19411895
_cell_formula_units_Z   1
loop_
 _symmetry_equiv_pos_site_id
 _symmetry_equiv_pos_as_xyz
  1  'x, y, z'
loop_
 _atom_site_type_symbol
 _atom_site_label
 _atom_site_symmetry_multiplicity
 _atom_site_fract_x
 _atom_site_fract_y
 _atom_site_fract_z
 _atom_site_occupancy
  Y  Y0  1  0.012101  0.175070  0.097721  1
  Y  Y1  1  0.987751  0.825959  0.903844  1
  Y  Y2  1  0.487443  0.676657  0.903595  1
  Y  Y3  1  0.988472  0.830973  0.597778  1
  Y  Y4  1  0.512011  0.323895  0.096698  1
  Y  Y5  1  0.008982  0.171573  0.398905  1
  Y  Y6  1  0.512163  0.322987  0.400011  1
  Y  Y7  1  0.493987  0.678060  0.599861  1
  Sc  Sc8  1  0.163065  0.501326  0.753100  1
  Sc  Sc9  1  0.837879  0.498959  0.250884  1
  Sc  Sc10  1  0.337845  0.999902  0.248948  1
  Sc  Sc11  1  0.664613  0.996565  0.751291  1
  Sc  Sc12  1  0.341299  0.173185  0.626863  1
  Sc  Sc13  1  0.665223  0.823090  0.373794  1
  Sc  Sc14  1  0.167300  0.675371  0.371878  1
  Sc  Sc15  1  0.669929  0.824205  0.124861  1
  Sc  Sc16  1  0.826074  0.325328  0.625424  1
  Sc  Sc17  1  0.328944  0.175350  0.876011  1
  Sc  Sc18  1  0.830323  0.322632  0.875882  1
  Sc  Sc19  1  0.169051  0.676573  0.125254  1
  Si  Si20  1  0.036048  0.121027  0.750055  1
  Si  Si21  1  0.965317  0.883069  0.248860  1
  Si  Si22  1  0.466521  0.615809  0.248266  1
  Si  Si23  1  0.534423  0.385474  0.752036  1
  Si  Si24  1  0.284981  0.874107  0.750849  1
  Si  Si25  1  0.712902  0.127028  0.248535  1
  Si  Si26  1  0.214524  0.371439  0.248650  1
  Si  Si27  1  0.788067  0.627223  0.752327  1
  Si  Si28  1  0.835191  0.537685  0.459259  1
  Si  Si29  1  0.338162  0.961971  0.460714  1
  Si  Si30  1  0.843647  0.535558  0.039076  1
  Si  Si31  1  0.658960  0.036275  0.537932  1
  Si  Si32  1  0.155414  0.464396  0.961717  1
  Si  Si33  1  0.656983  0.035189  0.960629  1
  Si  Si34  1  0.342814  0.964361  0.039802  1
  Ag  Ag35  1  0.161593  0.461727  0.538687  1
