# generated using pymatgen
data_Er3Lu3Zn23P
_symmetry_space_group_name_H-M   'P 1'
_cell_length_a   8.98607157
_cell_length_b   8.98577063
_cell_length_c   8.98583000
_cell_angle_alpha   59.99925618
_cell_angle_beta   60.00054508
_cell_angle_gamma   60.00102177
_symmetry_Int_Tables_number   1
_chemical_formula_structural   Er3Lu3Zn23P
_chemical_formula_sum   'Er3 Lu3 Zn23 P1'
_cell_volume   513.06348054
_cell_formula_units_Z   1
loop_
 _symmetry_equiv_pos_site_id
 _symmetry_equiv_pos_as_xyz
  1  'x, y, z'
loop_
 _atom_site_type_symbol
 _atom_site_label
 _atom_site_symmetry_multiplicity
 _atom_site_fract_x
 _atom_site_fract_y
 _atom_site_fract_z
 _atom_site_occupancy
  Er  Er0  1  0.289401  0.710983  0.710978  1
  Er  Er1  1  0.289394  0.710989  0.288648  1
  Er  Er2  1  0.289388  0.288624  0.710986  1
  Lu  Lu3  1  0.710934  0.289481  0.289477  1
  Lu  Lu4  1  0.710886  0.289525  0.710088  1
  Lu  Lu5  1  0.710912  0.710106  0.289496  1
  Zn  Zn6  1  0.626705  0.124433  0.124430  1
  Zn  Zn7  1  0.123420  0.625748  0.125418  1
  Zn  Zn8  1  0.123431  0.125418  0.625737  1
  Zn  Zn9  1  0.123435  0.125402  0.125419  1
  Zn  Zn10  1  0.374769  0.875071  0.875086  1
  Zn  Zn11  1  0.874155  0.373754  0.876045  1
  Zn  Zn12  1  0.874168  0.876043  0.373748  1
  Zn  Zn13  1  0.874157  0.876042  0.876045  1
  Zn  Zn14  1  0.500953  0.999818  0.999824  1
  Zn  Zn15  1  0.500955  0.999818  0.499406  1
  Zn  Zn16  1  0.500953  0.499396  0.999827  1
  Zn  Zn17  1  0.999615  0.499803  0.499806  1
  Zn  Zn18  1  0.999603  0.499823  0.000766  1
  Zn  Zn19  1  0.999613  0.000768  0.499809  1
  Zn  Zn20  1  0.000113  0.999971  0.999966  1
  Zn  Zn21  1  0.009067  0.330317  0.330315  1
  Zn  Zn22  1  0.330234  0.010799  0.329479  1
  Zn  Zn23  1  0.330248  0.329482  0.010781  1
  Zn  Zn24  1  0.330251  0.329479  0.329486  1
  Zn  Zn25  1  0.988429  0.670527  0.670526  1
  Zn  Zn26  1  0.670523  0.990031  0.669731  1
  Zn  Zn27  1  0.670518  0.669716  0.990042  1
  Zn  Zn28  1  0.670533  0.669710  0.669712  1
  P  P29  1  0.503236  0.498925  0.498924  1
