# generated using pymatgen
data_Ti4CCl6
_symmetry_space_group_name_H-M   'P 1'
_cell_length_a   3.33005300
_cell_length_b   11.36136700
_cell_length_c   11.73342500
_cell_angle_alpha   90.00000000
_cell_angle_beta   90.00000000
_cell_angle_gamma   90.00000000
_symmetry_Int_Tables_number   1
_chemical_formula_structural   Ti4CCl6
_chemical_formula_sum   'Ti8 C2 Cl12'
_cell_volume   443.92186479
_cell_formula_units_Z   2
loop_
 _symmetry_equiv_pos_site_id
 _symmetry_equiv_pos_as_xyz
  1  'x, y, z'
loop_
 _atom_site_type_symbol
 _atom_site_label
 _atom_site_symmetry_multiplicity
 _atom_site_fract_x
 _atom_site_fract_y
 _atom_site_fract_z
 _atom_site_occupancy
  Ti  Ti0  1  0.000000  0.095358  0.076000  1
  Ti  Ti1  1  0.000000  0.904642  0.924000  1
  Ti  Ti2  1  0.000000  0.595358  0.424000  1
  Ti  Ti3  1  0.000000  0.404642  0.576000  1
  Ti  Ti4  1  0.500000  0.116317  0.865008  1
  Ti  Ti5  1  0.500000  0.883683  0.134992  1
  Ti  Ti6  1  0.500000  0.616317  0.634992  1
  Ti  Ti7  1  0.500000  0.383683  0.365008  1
  C  C8  1  0.500000  0.000000  0.000000  1
  C  C9  1  0.500000  0.500000  0.500000  1
  Cl  Cl10  1  0.500000  0.269883  0.680688  1
  Cl  Cl11  1  0.500000  0.730117  0.319312  1
  Cl  Cl12  1  0.500000  0.769883  0.819312  1
  Cl  Cl13  1  0.500000  0.230117  0.180688  1
  Cl  Cl14  1  0.000000  0.256017  0.937033  1
  Cl  Cl15  1  0.000000  0.743983  0.062967  1
  Cl  Cl16  1  0.000000  0.484040  0.245392  1
  Cl  Cl17  1  0.000000  0.515960  0.754608  1
  Cl  Cl18  1  0.000000  0.984040  0.254608  1
  Cl  Cl19  1  0.000000  0.015960  0.745392  1
  Cl  Cl20  1  0.000000  0.243983  0.437033  1
  Cl  Cl21  1  0.000000  0.756017  0.562967  1
