# generated using pymatgen
data_Yb3TmAlOs7
_symmetry_space_group_name_H-M   'P 1'
_cell_length_a   5.31431100
_cell_length_b   5.31431133
_cell_length_c   8.69121100
_cell_angle_alpha   90.00000000
_cell_angle_beta   90.00000000
_cell_angle_gamma   119.99999172
_symmetry_Int_Tables_number   1
_chemical_formula_structural   Yb3TmAlOs7
_chemical_formula_sum   'Yb3 Tm1 Al1 Os7'
_cell_volume   212.57144320
_cell_formula_units_Z   1
loop_
 _symmetry_equiv_pos_site_id
 _symmetry_equiv_pos_as_xyz
  1  'x, y, z'
loop_
 _atom_site_type_symbol
 _atom_site_label
 _atom_site_symmetry_multiplicity
 _atom_site_fract_x
 _atom_site_fract_y
 _atom_site_fract_z
 _atom_site_occupancy
  Yb  Yb0  1  0.666667  0.333333  0.570766  1
  Yb  Yb1  1  0.666667  0.333333  0.935586  1
  Yb  Yb2  1  0.333333  0.666667  0.060257  1
  Tm  Tm3  1  0.333333  0.666667  0.429579  1
  Al  Al4  1  0.000000  0.000000  0.500649  1
  Os  Os5  1  0.000000  0.000000  0.001347  1
  Os  Os6  1  0.828912  0.171088  0.251945  1
  Os  Os7  1  0.828912  0.657823  0.251945  1
  Os  Os8  1  0.342177  0.171088  0.251945  1
  Os  Os9  1  0.171256  0.828744  0.748660  1
  Os  Os10  1  0.171256  0.342512  0.748660  1
  Os  Os11  1  0.657488  0.828744  0.748660  1
