# generated using pymatgen
data_YPu3(AlSi2)2
_symmetry_space_group_name_H-M   'P 1'
_cell_length_a   6.82723325
_cell_length_b   6.82723283
_cell_length_c   4.37228400
_cell_angle_alpha   90.00000000
_cell_angle_beta   90.00000000
_cell_angle_gamma   89.60464795
_symmetry_Int_Tables_number   1
_chemical_formula_structural   YPu3(AlSi2)2
_chemical_formula_sum   'Y1 Pu3 Al2 Si4'
_cell_volume   203.79216306
_cell_formula_units_Z   1
loop_
 _symmetry_equiv_pos_site_id
 _symmetry_equiv_pos_as_xyz
  1  'x, y, z'
loop_
 _atom_site_type_symbol
 _atom_site_label
 _atom_site_symmetry_multiplicity
 _atom_site_fract_x
 _atom_site_fract_y
 _atom_site_fract_z
 _atom_site_occupancy
  Y  Y0  1  0.675589  0.175589  0.500000  1
  Pu  Pu1  1  0.322421  0.822421  0.500000  1
  Pu  Pu2  1  0.828587  0.674332  0.500000  1
  Pu  Pu3  1  0.174332  0.328587  0.500000  1
  Al  Al4  1  0.500689  0.499365  0.000000  1
  Al  Al5  1  0.999365  0.000689  0.000000  1
  Si  Si6  1  0.624188  0.873835  0.000000  1
  Si  Si7  1  0.876254  0.376254  0.000000  1
  Si  Si8  1  0.373835  0.124188  0.000000  1
  Si  Si9  1  0.124740  0.624740  0.000000  1
