# generated using pymatgen
data_Ho8Ti8Re4Si15Ge
_symmetry_space_group_name_H-M   'P 1'
_cell_length_a   6.93409084
_cell_length_b   6.92247369
_cell_length_c   12.76772700
_cell_angle_alpha   90.00338548
_cell_angle_beta   89.98136272
_cell_angle_gamma   89.98253891
_symmetry_Int_Tables_number   1
_chemical_formula_structural   Ho8Ti8Re4Si15Ge
_chemical_formula_sum   'Ho8 Ti8 Re4 Si15 Ge1'
_cell_volume   612.86438530
_cell_formula_units_Z   1
loop_
 _symmetry_equiv_pos_site_id
 _symmetry_equiv_pos_as_xyz
  1  'x, y, z'
loop_
 _atom_site_type_symbol
 _atom_site_label
 _atom_site_symmetry_multiplicity
 _atom_site_fract_x
 _atom_site_fract_y
 _atom_site_fract_z
 _atom_site_occupancy
  Ho  Ho0  1  0.341006  0.000120  0.468131  1
  Ho  Ho1  1  0.500575  0.839413  0.719926  1
  Ho  Ho2  1  0.500831  0.159783  0.219406  1
  Ho  Ho3  1  0.840301  0.498861  0.280428  1
  Ho  Ho4  1  0.160123  0.501399  0.780919  1
  Ho  Ho5  1  0.660130  0.998331  0.970134  1
  Ho  Ho6  1  0.998792  0.341683  0.529441  1
  Ho  Ho7  1  0.999380  0.659727  0.030836  1
  Ti  Ti8  1  0.153617  0.005851  0.878107  1
  Ti  Ti9  1  0.494610  0.652113  0.126743  1
  Ti  Ti10  1  0.507281  0.349019  0.626893  1
  Ti  Ti11  1  0.652822  0.495935  0.873842  1
  Ti  Ti12  1  0.346913  0.505767  0.372992  1
  Ti  Ti13  1  0.846961  0.994873  0.376610  1
  Ti  Ti14  1  0.005251  0.152699  0.123074  1
  Ti  Ti15  1  0.991489  0.843984  0.622259  1
  Re  Re16  1  0.328680  0.328770  0.000187  1
  Re  Re17  1  0.171349  0.828611  0.250101  1
  Re  Re18  1  0.824176  0.172238  0.750573  1
  Re  Re19  1  0.671473  0.671152  0.500287  1
  Si  Si20  1  0.370628  0.700062  0.933779  1
  Si  Si21  1  0.628558  0.300551  0.433449  1
  Si  Si22  1  0.699890  0.370565  0.066604  1
  Si  Si23  1  0.300032  0.629235  0.566368  1
  Si  Si24  1  0.800557  0.870435  0.183728  1
  Si  Si25  1  0.129305  0.199790  0.316261  1
  Si  Si26  1  0.871197  0.801317  0.816472  1
  Si  Si27  1  0.291991  0.952704  0.067529  1
  Si  Si28  1  0.547735  0.791079  0.316753  1
  Si  Si29  1  0.456322  0.208828  0.818415  1
  Si  Si30  1  0.792271  0.545969  0.683796  1
  Si  Si31  1  0.208242  0.452855  0.182988  1
  Si  Si32  1  0.707517  0.047436  0.567029  1
  Si  Si33  1  0.952610  0.291872  0.932810  1
  Si  Si34  1  0.047280  0.708534  0.432495  1
  Ge  Ge35  1  0.200104  0.128440  0.680636  1
