# generated using pymatgen
data_Hf7Zr5(UPt10)2
_symmetry_space_group_name_H-M   'P 1'
_cell_length_a   8.25930383
_cell_length_b   8.25931182
_cell_length_c   9.68260465
_cell_angle_alpha   90.07472460
_cell_angle_beta   90.07471189
_cell_angle_gamma   107.69417095
_symmetry_Int_Tables_number   1
_chemical_formula_structural   Hf7Zr5(UPt10)2
_chemical_formula_sum   'Hf7 Zr5 U2 Pt20'
_cell_volume   629.26148061
_cell_formula_units_Z   1
loop_
 _symmetry_equiv_pos_site_id
 _symmetry_equiv_pos_as_xyz
  1  'x, y, z'
loop_
 _atom_site_type_symbol
 _atom_site_label
 _atom_site_symmetry_multiplicity
 _atom_site_fract_x
 _atom_site_fract_y
 _atom_site_fract_z
 _atom_site_occupancy
  Hf  Hf0  1  0.811258  0.188742  0.500000  1
  Hf  Hf1  1  0.188742  0.811258  0.500000  1
  Hf  Hf2  1  0.500000  0.500000  0.500000  1
  Hf  Hf3  1  0.001254  0.500569  0.255180  1
  Hf  Hf4  1  0.998746  0.499431  0.744820  1
  Hf  Hf5  1  0.499431  0.998746  0.744820  1
  Hf  Hf6  1  0.500569  0.001254  0.255180  1
  Zr  Zr7  1  0.000000  0.000000  0.000000  1
  Zr  Zr8  1  0.310533  0.310533  0.192097  1
  Zr  Zr9  1  0.689467  0.689467  0.807903  1
  Zr  Zr10  1  0.183403  0.183403  0.681247  1
  Zr  Zr11  1  0.816597  0.816597  0.318753  1
  U  U12  1  0.689225  0.310776  0.000000  1
  U  U13  1  0.310775  0.689224  0.000000  1
  Pt  Pt14  1  0.849185  0.143411  0.209819  1
  Pt  Pt15  1  0.150815  0.856589  0.790181  1
  Pt  Pt16  1  0.647190  0.353503  0.707807  1
  Pt  Pt17  1  0.646498  0.352810  0.292193  1
  Pt  Pt18  1  0.352810  0.646497  0.292193  1
  Pt  Pt19  1  0.353502  0.647190  0.707807  1
  Pt  Pt20  1  0.856589  0.150815  0.790181  1
  Pt  Pt21  1  0.143411  0.849185  0.209819  1
  Pt  Pt22  1  0.937265  0.643412  0.997488  1
  Pt  Pt23  1  0.062735  0.356588  0.002512  1
  Pt  Pt24  1  0.562572  0.853987  0.499804  1
  Pt  Pt25  1  0.146013  0.437428  0.500196  1
  Pt  Pt26  1  0.437428  0.146013  0.500196  1
  Pt  Pt27  1  0.853987  0.562572  0.499804  1
  Pt  Pt28  1  0.356588  0.062735  0.002512  1
  Pt  Pt29  1  0.643412  0.937265  0.997488  1
  Pt  Pt30  1  0.104622  0.104622  0.394367  1
  Pt  Pt31  1  0.895378  0.895378  0.605633  1
  Pt  Pt32  1  0.391857  0.391857  0.892331  1
  Pt  Pt33  1  0.608143  0.608143  0.107669  1
