# generated using pymatgen
data_K2PrU(AgS3)2
_symmetry_space_group_name_H-M   'P 1'
_cell_length_a   4.15651000
_cell_length_b   7.73099848
_cell_length_c   10.69388025
_cell_angle_alpha   83.09442725
_cell_angle_beta   90.00000000
_cell_angle_gamma   74.40588418
_symmetry_Int_Tables_number   1
_chemical_formula_structural   K2PrU(AgS3)2
_chemical_formula_sum   'K2 Pr1 U1 Ag2 S6'
_cell_volume   328.39877574
_cell_formula_units_Z   1
loop_
 _symmetry_equiv_pos_site_id
 _symmetry_equiv_pos_as_xyz
  1  'x, y, z'
loop_
 _atom_site_type_symbol
 _atom_site_label
 _atom_site_symmetry_multiplicity
 _atom_site_fract_x
 _atom_site_fract_y
 _atom_site_fract_z
 _atom_site_occupancy
  K  K0  1  0.274313  0.451374  0.205938  1
  K  K1  1  0.725688  0.548627  0.794062  1
  Pr  Pr2  1  0.000000  0.000000  0.000000  1
  U  U3  1  0.000000  0.000000  0.500000  1
  Ag  Ag4  1  0.553297  0.893408  0.258495  1
  Ag  Ag5  1  0.446704  0.106591  0.741505  1
  S  S6  1  0.630016  0.739970  0.064819  1
  S  S7  1  0.945543  0.108913  0.257105  1
  S  S8  1  0.613497  0.773007  0.487272  1
  S  S9  1  0.386504  0.226993  0.512729  1
  S  S10  1  0.054458  0.891086  0.742895  1
  S  S11  1  0.369985  0.260030  0.935181  1
