# generated using pymatgen
data_KV2Tc4Se7
_symmetry_space_group_name_H-M   'P 1'
_cell_length_a   9.68121565
_cell_length_b   9.73619528
_cell_length_c   9.77532900
_cell_angle_alpha   60.47288276
_cell_angle_beta   60.21857682
_cell_angle_gamma   60.55420747
_symmetry_Int_Tables_number   1
_chemical_formula_structural   KV2Tc4Se7
_chemical_formula_sum   'K2 V4 Tc8 Se14'
_cell_volume   657.63693162
_cell_formula_units_Z   2
loop_
 _symmetry_equiv_pos_site_id
 _symmetry_equiv_pos_as_xyz
  1  'x, y, z'
loop_
 _atom_site_type_symbol
 _atom_site_label
 _atom_site_symmetry_multiplicity
 _atom_site_fract_x
 _atom_site_fract_y
 _atom_site_fract_z
 _atom_site_occupancy
  K  K0  1  0.368828  0.381052  0.374014  1
  K  K1  1  0.631159  0.630739  0.620449  1
  V  V2  1  0.293057  0.116701  0.002221  1
  V  V3  1  0.189683  0.893140  0.056396  1
  V  V4  1  0.889452  0.059268  0.193820  1
  V  V5  1  0.944823  0.808771  0.108071  1
  Tc  Tc6  1  0.804734  0.115970  0.941087  1
  Tc  Tc7  1  0.120135  0.945658  0.799327  1
  Tc  Tc8  1  0.992453  0.294333  0.127166  1
  Tc  Tc9  1  0.876786  0.006151  0.703420  1
  Tc  Tc10  1  0.121840  0.987651  0.298189  1
  Tc  Tc11  1  0.011093  0.701531  0.878700  1
  Tc  Tc12  1  0.700330  0.874249  0.012520  1
  Tc  Tc13  1  0.057081  0.199118  0.885956  1
  Se  Se14  1  0.977093  0.244047  0.636108  1
  Se  Se15  1  0.249264  0.647548  0.964551  1
  Se  Se16  1  0.639136  0.980355  0.237627  1
  Se  Se17  1  0.017801  0.757953  0.355239  1
  Se  Se18  1  0.753370  0.361624  0.019888  1
  Se  Se19  1  0.357659  0.031561  0.753071  1
  Se  Se20  1  0.173154  0.414916  0.822694  1
  Se  Se21  1  0.415343  0.804957  0.169822  1
  Se  Se22  1  0.808811  0.163251  0.421226  1
  Se  Se23  1  0.836538  0.582441  0.188957  1
  Se  Se24  1  0.579638  0.179282  0.836738  1
  Se  Se25  1  0.188698  0.827152  0.583337  1
  Se  Se26  1  0.778408  0.774508  0.784488  1
  Se  Se27  1  0.223631  0.216071  0.224919  1
