# generated using pymatgen
data_Pr2Nd2ScPt3O14
_symmetry_space_group_name_H-M   'P 1'
_cell_length_a   7.44158199
_cell_length_b   7.52559449
_cell_length_c   7.44511000
_cell_angle_alpha   60.35315397
_cell_angle_beta   59.98431586
_cell_angle_gamma   60.33074630
_symmetry_Int_Tables_number   1
_chemical_formula_structural   Pr2Nd2ScPt3O14
_chemical_formula_sum   'Pr2 Nd2 Sc1 Pt3 O14'
_cell_volume   296.30269078
_cell_formula_units_Z   1
loop_
 _symmetry_equiv_pos_site_id
 _symmetry_equiv_pos_as_xyz
  1  'x, y, z'
loop_
 _atom_site_type_symbol
 _atom_site_label
 _atom_site_symmetry_multiplicity
 _atom_site_fract_x
 _atom_site_fract_y
 _atom_site_fract_z
 _atom_site_occupancy
  Pr  Pr0  1  0.625000  0.625000  0.125000  1
  Pr  Pr1  1  0.625000  0.625000  0.625000  1
  Nd  Nd2  1  0.625000  0.125000  0.625000  1
  Nd  Nd3  1  0.125000  0.625000  0.625000  1
  Sc  Sc4  1  0.125000  0.625000  0.125000  1
  Pt  Pt5  1  0.125000  0.125000  0.625000  1
  Pt  Pt6  1  0.625000  0.125000  0.125000  1
  Pt  Pt7  1  0.125000  0.125000  0.125000  1
  O  O8  1  0.500691  0.491660  0.503825  1
  O  O9  1  0.749309  0.758340  0.746175  1
  O  O10  1  0.455783  0.050781  0.455863  1
  O  O11  1  0.211130  0.796327  0.212801  1
  O  O12  1  0.469775  0.453510  0.038358  1
  O  O13  1  0.038870  0.453673  0.470259  1
  O  O14  1  0.455783  0.050781  0.037574  1
  O  O15  1  0.037967  0.050011  0.456012  1
  O  O16  1  0.038870  0.453673  0.037199  1
  O  O17  1  0.794217  0.199219  0.212426  1
  O  O18  1  0.211130  0.796327  0.779741  1
  O  O19  1  0.794217  0.199219  0.794137  1
  O  O20  1  0.212033  0.199989  0.793988  1
  O  O21  1  0.780225  0.796490  0.211642  1
