# generated using pymatgen
data_Sc4NbSn3Ru8
_symmetry_space_group_name_H-M   'P 1'
_cell_length_a   6.42882100
_cell_length_b   4.53224200
_cell_length_c   9.07197800
_cell_angle_alpha   90.00000000
_cell_angle_beta   89.99901460
_cell_angle_gamma   90.00000000
_symmetry_Int_Tables_number   1
_chemical_formula_structural   Sc4NbSn3Ru8
_chemical_formula_sum   'Sc4 Nb1 Sn3 Ru8'
_cell_volume   264.32997391
_cell_formula_units_Z   1
loop_
 _symmetry_equiv_pos_site_id
 _symmetry_equiv_pos_as_xyz
  1  'x, y, z'
loop_
 _atom_site_type_symbol
 _atom_site_label
 _atom_site_symmetry_multiplicity
 _atom_site_fract_x
 _atom_site_fract_y
 _atom_site_fract_z
 _atom_site_occupancy
  Sc  Sc0  1  0.750006  0.250001  0.131140  1
  Sc  Sc1  1  0.250042  0.750000  0.375003  1
  Sc  Sc2  1  0.749971  0.250001  0.618830  1
  Sc  Sc3  1  0.249981  0.750000  0.874990  1
  Nb  Nb4  1  0.749979  0.750000  0.875007  1
  Sn  Sn5  1  0.249994  0.250001  0.123784  1
  Sn  Sn6  1  0.750042  0.750000  0.375065  1
  Sn  Sn7  1  0.250003  0.250001  0.626164  1
  Ru  Ru8  1  0.504074  0.750000  0.117260  1
  Ru  Ru9  1  0.995949  0.750000  0.117269  1
  Ru  Ru10  1  0.496879  0.250001  0.374920  1
  Ru  Ru11  1  0.003143  0.250001  0.374920  1
  Ru  Ru12  1  0.995762  0.750000  0.632729  1
  Ru  Ru13  1  0.504217  0.750000  0.632717  1
  Ru  Ru14  1  0.991357  0.250001  0.875103  1
  Ru  Ru15  1  0.508600  0.250001  0.875102  1
