# generated using pymatgen
data_KCo(PO3)4
_symmetry_space_group_name_H-M   'P 1'
_cell_length_a   10.46667717
_cell_length_b   10.46667857
_cell_length_c   5.11855242
_cell_angle_alpha   81.42933187
_cell_angle_beta   81.42933464
_cell_angle_gamma   72.41876755
_symmetry_Int_Tables_number   1
_chemical_formula_structural   KCo(PO3)4
_chemical_formula_sum   'K2 Co2 P8 O24'
_cell_volume   525.35458082
_cell_formula_units_Z   2
loop_
 _symmetry_equiv_pos_site_id
 _symmetry_equiv_pos_as_xyz
  1  'x, y, z'
loop_
 _atom_site_type_symbol
 _atom_site_label
 _atom_site_symmetry_multiplicity
 _atom_site_fract_x
 _atom_site_fract_y
 _atom_site_fract_z
 _atom_site_occupancy
  K  K0  1  0.405799  0.405799  0.745602  1
  K  K1  1  0.594201  0.594201  0.254398  1
  Co  Co2  1  0.000000  0.500000  0.000000  1
  Co  Co3  1  0.500000  0.000000  0.000000  1
  P  P4  1  0.069609  0.313010  0.528314  1
  P  P5  1  0.313010  0.069609  0.528314  1
  P  P6  1  0.930391  0.686990  0.471686  1
  P  P7  1  0.686990  0.930391  0.471686  1
  P  P8  1  0.802246  0.354222  0.836591  1
  P  P9  1  0.354222  0.802246  0.836591  1
  P  P10  1  0.197754  0.645778  0.163409  1
  P  P11  1  0.645778  0.197754  0.163409  1
  O  O12  1  0.906800  0.654774  0.769008  1
  O  O13  1  0.654774  0.906800  0.769008  1
  O  O14  1  0.093200  0.345226  0.230992  1
  O  O15  1  0.345226  0.093200  0.230992  1
  O  O16  1  0.854016  0.423296  0.022951  1
  O  O17  1  0.423296  0.854016  0.022951  1
  O  O18  1  0.145984  0.576704  0.977049  1
  O  O19  1  0.576704  0.145984  0.977049  1
  O  O20  1  0.097803  0.407346  0.696123  1
  O  O21  1  0.407346  0.097803  0.696123  1
  O  O22  1  0.902197  0.592654  0.303877  1
  O  O23  1  0.592654  0.902197  0.303877  1
  O  O24  1  0.924765  0.291168  0.614900  1
  O  O25  1  0.291168  0.924765  0.614900  1
  O  O26  1  0.075235  0.708832  0.385100  1
  O  O27  1  0.708832  0.075235  0.385100  1
  O  O28  1  0.678613  0.431796  0.713105  1
  O  O29  1  0.431796  0.678613  0.713105  1
  O  O30  1  0.321387  0.568204  0.286895  1
  O  O31  1  0.568204  0.321387  0.286895  1
  O  O32  1  0.786603  0.213397  0.000000  1
  O  O33  1  0.213397  0.786603  0.000000  1
  O  O34  1  0.162304  0.162304  0.600656  1
  O  O35  1  0.837696  0.837696  0.399344  1
