# generated using pymatgen
data_Zr2Ti3Rh
_symmetry_space_group_name_H-M   'P 1'
_cell_length_a   5.19393727
_cell_length_b   5.61965983
_cell_length_c   5.61965900
_cell_angle_alpha   59.99999897
_cell_angle_beta   57.24944216
_cell_angle_gamma   57.24944507
_symmetry_Int_Tables_number   1
_chemical_formula_structural   Zr2Ti3Rh
_chemical_formula_sum   'Zr2 Ti3 Rh1'
_cell_volume   110.92647947
_cell_formula_units_Z   1
loop_
 _symmetry_equiv_pos_site_id
 _symmetry_equiv_pos_as_xyz
  1  'x, y, z'
loop_
 _atom_site_type_symbol
 _atom_site_label
 _atom_site_symmetry_multiplicity
 _atom_site_fract_x
 _atom_site_fract_y
 _atom_site_fract_z
 _atom_site_occupancy
  Zr  Zr0  1  0.251298  0.249567  0.249567  1
  Zr  Zr1  1  0.998702  0.000433  0.000433  1
  Ti  Ti2  1  0.625000  0.625000  0.125000  1
  Ti  Ti3  1  0.625000  0.125000  0.625000  1
  Ti  Ti4  1  0.625000  0.625000  0.625000  1
  Rh  Rh5  1  0.125000  0.625000  0.625000  1
