# generated using pymatgen
data_PrY3(Rh2O7)2
_symmetry_space_group_name_H-M   'P 1'
_cell_length_a   7.29993555
_cell_length_b   7.29993618
_cell_length_c   7.29993603
_cell_angle_alpha   59.66323254
_cell_angle_beta   59.66322716
_cell_angle_gamma   59.66323061
_symmetry_Int_Tables_number   1
_chemical_formula_structural   PrY3(Rh2O7)2
_chemical_formula_sum   'Pr1 Y3 Rh4 O14'
_cell_volume   272.96464307
_cell_formula_units_Z   1
loop_
 _symmetry_equiv_pos_site_id
 _symmetry_equiv_pos_as_xyz
  1  'x, y, z'
loop_
 _atom_site_type_symbol
 _atom_site_label
 _atom_site_symmetry_multiplicity
 _atom_site_fract_x
 _atom_site_fract_y
 _atom_site_fract_z
 _atom_site_occupancy
  Pr  Pr0  1  0.500000  0.500000  0.500000  1
  Y  Y1  1  0.000000  0.500000  0.500000  1
  Y  Y2  1  0.500000  0.500000  0.000000  1
  Y  Y3  1  0.500000  0.000000  0.500000  1
  Rh  Rh4  1  0.000000  0.000000  0.000000  1
  Rh  Rh5  1  0.500000  0.000000  0.000000  1
  Rh  Rh6  1  0.000000  0.000000  0.500000  1
  Rh  Rh7  1  0.000000  0.500000  0.000000  1
  O  O8  1  0.370861  0.370861  0.370861  1
  O  O9  1  0.629139  0.629139  0.629139  1
  O  O10  1  0.921837  0.334661  0.334661  1
  O  O11  1  0.334915  0.914702  0.914702  1
  O  O12  1  0.334661  0.334661  0.921837  1
  O  O13  1  0.914702  0.914702  0.334915  1
  O  O14  1  0.914702  0.334915  0.914702  1
  O  O15  1  0.334661  0.921837  0.334661  1
  O  O16  1  0.078163  0.665339  0.665339  1
  O  O17  1  0.665085  0.085298  0.085298  1
  O  O18  1  0.665339  0.665339  0.078163  1
  O  O19  1  0.085298  0.085298  0.665085  1
  O  O20  1  0.085298  0.665085  0.085298  1
  O  O21  1  0.665339  0.078163  0.665339  1
