# generated using pymatgen
data_Ta11Nb3Ga3As5
_symmetry_space_group_name_H-M   'P 1'
_cell_length_a   3.52357300
_cell_length_b   7.97161699
_cell_length_c   14.29987830
_cell_angle_alpha   104.04390315
_cell_angle_beta   90.00000000
_cell_angle_gamma   102.76820679
_symmetry_Int_Tables_number   1
_chemical_formula_structural   Ta11Nb3Ga3As5
_chemical_formula_sum   'Ta11 Nb3 Ga3 As5'
_cell_volume   379.41108229
_cell_formula_units_Z   1
loop_
 _symmetry_equiv_pos_site_id
 _symmetry_equiv_pos_as_xyz
  1  'x, y, z'
loop_
 _atom_site_type_symbol
 _atom_site_label
 _atom_site_symmetry_multiplicity
 _atom_site_fract_x
 _atom_site_fract_y
 _atom_site_fract_z
 _atom_site_occupancy
  Ta  Ta0  1  0.000412  0.000823  0.000107  1
  Ta  Ta1  1  0.499377  0.998754  0.500560  1
  Ta  Ta2  1  0.428614  0.857228  0.824743  1
  Ta  Ta3  1  0.569492  0.138985  0.170301  1
  Ta  Ta4  1  0.196671  0.393341  0.307897  1
  Ta  Ta5  1  0.802277  0.604555  0.693530  1
  Ta  Ta6  1  0.210825  0.421650  0.796802  1
  Ta  Ta7  1  0.789589  0.579178  0.204306  1
  Ta  Ta8  1  0.331915  0.663830  0.032473  1
  Ta  Ta9  1  0.668503  0.337009  0.967202  1
  Ta  Ta10  1  0.000159  0.000319  0.662584  1
  Nb  Nb11  1  0.001229  0.002459  0.337449  1
  Nb  Nb12  1  0.178524  0.357046  0.549353  1
  Nb  Nb13  1  0.822148  0.644298  0.450555  1
  Ga  Ga14  1  0.174502  0.349003  0.107201  1
  Ga  Ga15  1  0.826918  0.653838  0.892948  1
  Ga  Ga16  1  0.369351  0.738703  0.597140  1
  As  As17  1  0.630841  0.261683  0.404303  1
  As  As18  1  0.372947  0.745893  0.332946  1
  As  As19  1  0.626190  0.252382  0.667832  1
  As  As20  1  0.063699  0.127400  0.848236  1
  As  As21  1  0.935813  0.871625  0.151532  1
