# generated using pymatgen
data_LuScGaB2Ru5
_symmetry_space_group_name_H-M   'P 1'
_cell_length_a   9.43047840
_cell_length_b   9.43047840
_cell_length_c   3.06873800
_cell_angle_alpha   90.00000000
_cell_angle_beta   90.00000000
_cell_angle_gamma   89.11475251
_symmetry_Int_Tables_number   1
_chemical_formula_structural   LuScGaB2Ru5
_chemical_formula_sum   'Lu2 Sc2 Ga2 B4 Ru10'
_cell_volume   272.88233448
_cell_formula_units_Z   2
loop_
 _symmetry_equiv_pos_site_id
 _symmetry_equiv_pos_as_xyz
  1  'x, y, z'
loop_
 _atom_site_type_symbol
 _atom_site_label
 _atom_site_symmetry_multiplicity
 _atom_site_fract_x
 _atom_site_fract_y
 _atom_site_fract_z
 _atom_site_occupancy
  Lu  Lu0  1  0.675975  0.175975  0.000000  1
  Lu  Lu1  1  0.324025  0.824025  0.000000  1
  Sc  Sc2  1  0.173665  0.326335  0.000000  1
  Sc  Sc3  1  0.826335  0.673665  0.000000  1
  Ga  Ga4  1  0.000000  0.000000  0.000000  1
  Ga  Ga5  1  0.500000  0.500000  0.000000  1
  B  B6  1  0.122346  0.622346  0.000000  1
  B  B7  1  0.877654  0.377654  0.000000  1
  B  B8  1  0.625141  0.874859  0.000000  1
  B  B9  1  0.374859  0.125141  0.000000  1
  Ru  Ru10  1  0.214473  0.075814  0.500000  1
  Ru  Ru11  1  0.785527  0.924186  0.500000  1
  Ru  Ru12  1  0.065729  0.782436  0.500000  1
  Ru  Ru13  1  0.717564  0.434271  0.500000  1
  Ru  Ru14  1  0.934271  0.217564  0.500000  1
  Ru  Ru15  1  0.282436  0.565729  0.500000  1
  Ru  Ru16  1  0.575814  0.714473  0.500000  1
  Ru  Ru17  1  0.424186  0.285527  0.500000  1
  Ru  Ru18  1  0.500000  0.000000  0.500000  1
  Ru  Ru19  1  0.000000  0.500000  0.500000  1
