# generated using pymatgen
data_Dy3Ho3Al16Os7
_symmetry_space_group_name_H-M   'P 1'
_cell_length_a   8.95069149
_cell_length_b   8.94968614
_cell_length_c   8.94916906
_cell_angle_alpha   60.00934319
_cell_angle_beta   59.99819216
_cell_angle_gamma   59.99246795
_symmetry_Int_Tables_number   1
_chemical_formula_structural   Dy3Ho3Al16Os7
_chemical_formula_sum   'Dy3 Ho3 Al16 Os7'
_cell_volume   506.91144777
_cell_formula_units_Z   1
loop_
 _symmetry_equiv_pos_site_id
 _symmetry_equiv_pos_as_xyz
  1  'x, y, z'
loop_
 _atom_site_type_symbol
 _atom_site_label
 _atom_site_symmetry_multiplicity
 _atom_site_fract_x
 _atom_site_fract_y
 _atom_site_fract_z
 _atom_site_occupancy
  Dy  Dy0  1  0.211755  0.788245  0.788264  1
  Dy  Dy1  1  0.788264  0.211736  0.211755  1
  Dy  Dy2  1  0.788226  0.211774  0.788226  1
  Ho  Ho3  1  0.788038  0.788031  0.211969  1
  Ho  Ho4  1  0.211888  0.788112  0.211888  1
  Ho  Ho5  1  0.211969  0.211962  0.788038  1
  Al  Al6  1  0.832325  0.832309  0.832341  1
  Al  Al7  1  0.832409  0.832318  0.502939  1
  Al  Al8  1  0.502939  0.832335  0.832409  1
  Al  Al9  1  0.832341  0.503025  0.832325  1
  Al  Al10  1  0.167682  0.167591  0.167665  1
  Al  Al11  1  0.167691  0.167675  0.496975  1
  Al  Al12  1  0.167665  0.497061  0.167682  1
  Al  Al13  1  0.496975  0.167659  0.167691  1
  Al  Al14  1  0.620862  0.620880  0.620780  1
  Al  Al15  1  0.620781  0.620907  0.137489  1
  Al  Al16  1  0.137489  0.620824  0.620781  1
  Al  Al17  1  0.620780  0.137478  0.620862  1
  Al  Al18  1  0.379093  0.379219  0.379176  1
  Al  Al19  1  0.379120  0.379138  0.862522  1
  Al  Al20  1  0.379176  0.862511  0.379093  1
  Al  Al21  1  0.862522  0.379220  0.379120  1
  Os  Os22  1  0.499977  0.500023  0.499977  1
  Os  Os23  1  0.000080  0.500070  0.499930  1
  Os  Os24  1  0.499930  0.999920  0.000080  1
  Os  Os25  1  0.500006  0.999994  0.500006  1
  Os  Os26  1  0.499934  0.500066  0.000077  1
  Os  Os27  1  0.000006  0.499994  0.000006  1
  Os  Os28  1  0.000077  0.999923  0.499934  1
