# generated using pymatgen
data_CeTh(Al4Ni)2
_symmetry_space_group_name_H-M   'P 1'
_cell_length_a   8.05926705
_cell_length_b   8.05926780
_cell_length_c   6.60717500
_cell_angle_alpha   90.00000000
_cell_angle_beta   90.00000000
_cell_angle_gamma   149.93434715
_symmetry_Int_Tables_number   1
_chemical_formula_structural   CeTh(Al4Ni)2
_chemical_formula_sum   'Ce1 Th1 Al8 Ni2'
_cell_volume   214.99964715
_cell_formula_units_Z   1
loop_
 _symmetry_equiv_pos_site_id
 _symmetry_equiv_pos_as_xyz
  1  'x, y, z'
loop_
 _atom_site_type_symbol
 _atom_site_label
 _atom_site_symmetry_multiplicity
 _atom_site_fract_x
 _atom_site_fract_y
 _atom_site_fract_z
 _atom_site_occupancy
  Ce  Ce0  1  0.386514  0.613486  0.750000  1
  Th  Th1  1  0.614303  0.385697  0.250000  1
  Al  Al2  1  0.999112  0.000888  0.995603  1
  Al  Al3  1  0.999112  0.000888  0.504397  1
  Al  Al4  1  0.812088  0.187912  0.051373  1
  Al  Al5  1  0.190135  0.809865  0.945000  1
  Al  Al6  1  0.190135  0.809865  0.555000  1
  Al  Al7  1  0.812088  0.187912  0.448627  1
  Al  Al8  1  0.421822  0.578178  0.250000  1
  Al  Al9  1  0.576085  0.423915  0.750000  1
  Ni  Ni10  1  0.725428  0.274572  0.750000  1
  Ni  Ni11  1  0.273175  0.726825  0.250000  1
