# generated using pymatgen
data_Tb2YbMnVC6
_symmetry_space_group_name_H-M   'P 1'
_cell_length_a   8.18454624
_cell_length_b   8.15758770
_cell_length_c   4.99360600
_cell_angle_alpha   90.00000000
_cell_angle_beta   90.00000000
_cell_angle_gamma   120.18005107
_symmetry_Int_Tables_number   1
_chemical_formula_structural   Tb2YbMnVC6
_chemical_formula_sum   'Tb4 Yb2 Mn2 V2 C12'
_cell_volume   288.21093472
_cell_formula_units_Z   2
loop_
 _symmetry_equiv_pos_site_id
 _symmetry_equiv_pos_as_xyz
  1  'x, y, z'
loop_
 _atom_site_type_symbol
 _atom_site_label
 _atom_site_symmetry_multiplicity
 _atom_site_fract_x
 _atom_site_fract_y
 _atom_site_fract_z
 _atom_site_occupancy
  Tb  Tb0  1  0.683535  0.066545  0.250000  1
  Tb  Tb1  1  0.313826  0.932590  0.750000  1
  Tb  Tb2  1  0.065734  0.385006  0.750000  1
  Tb  Tb3  1  0.383749  0.319136  0.250000  1
  Yb  Yb4  1  0.612472  0.681316  0.750000  1
  Yb  Yb5  1  0.928532  0.612647  0.250000  1
  Mn  Mn6  1  0.666542  0.330245  0.750000  1
  Mn  Mn7  1  0.335667  0.668383  0.250000  1
  V  V8  1  0.998664  0.997735  0.500065  1
  V  V9  1  0.998664  0.997735  0.999935  1
  C  C10  1  0.956095  0.765070  0.750000  1
  C  C11  1  0.193570  0.959698  0.250000  1
  C  C12  1  0.768650  0.812844  0.250000  1
  C  C13  1  0.234836  0.196544  0.750000  1
  C  C14  1  0.812502  0.042208  0.750000  1
  C  C15  1  0.039575  0.234206  0.250000  1
  C  C16  1  0.857552  0.572604  0.750000  1
  C  C17  1  0.286349  0.859849  0.250000  1
  C  C18  1  0.577163  0.715582  0.250000  1
  C  C19  1  0.428039  0.285346  0.750000  1
  C  C20  1  0.143826  0.428140  0.250000  1
  C  C21  1  0.714454  0.136571  0.750000  1
