# generated using pymatgen
data_TbSmEr4Ta2O14
_symmetry_space_group_name_H-M   'P 1'
_cell_length_a   6.43928251
_cell_length_b   6.43928231
_cell_length_c   7.52212952
_cell_angle_alpha   90.03466409
_cell_angle_beta   89.96533583
_cell_angle_gamma   109.36406339
_symmetry_Int_Tables_number   1
_chemical_formula_structural   TbSmEr4Ta2O14
_chemical_formula_sum   'Tb1 Sm1 Er4 Ta2 O14'
_cell_volume   294.25624359
_cell_formula_units_Z   1
loop_
 _symmetry_equiv_pos_site_id
 _symmetry_equiv_pos_as_xyz
  1  'x, y, z'
loop_
 _atom_site_type_symbol
 _atom_site_label
 _atom_site_symmetry_multiplicity
 _atom_site_fract_x
 _atom_site_fract_y
 _atom_site_fract_z
 _atom_site_occupancy
  Tb  Tb0  1  0.500000  0.500000  0.500000  1
  Sm  Sm1  1  0.500000  0.500000  0.000000  1
  Er  Er2  1  0.533709  0.001174  0.748548  1
  Er  Er3  1  0.001174  0.533709  0.251452  1
  Er  Er4  1  0.466291  0.998826  0.251452  1
  Er  Er5  1  0.998826  0.466291  0.748548  1
  Ta  Ta6  1  0.000000  0.000000  0.500000  1
  Ta  Ta7  1  0.000000  0.000000  0.000000  1
  O  O8  1  0.677490  0.928377  0.467302  1
  O  O9  1  0.928377  0.677490  0.532698  1
  O  O10  1  0.677292  0.929403  0.032960  1
  O  O11  1  0.929403  0.677292  0.967040  1
  O  O12  1  0.322510  0.071623  0.532698  1
  O  O13  1  0.071623  0.322510  0.467302  1
  O  O14  1  0.322708  0.070597  0.967040  1
  O  O15  1  0.070597  0.322708  0.032960  1
  O  O16  1  0.932742  0.067258  0.750059  1
  O  O17  1  0.067258  0.932742  0.249941  1
  O  O18  1  0.366375  0.633624  0.745680  1
  O  O19  1  0.633624  0.366375  0.254320  1
  O  O20  1  0.640815  0.359185  0.746228  1
  O  O21  1  0.359185  0.640815  0.253772  1
