# generated using pymatgen
data_Hf10CuSn2GeSb4
_symmetry_space_group_name_H-M   'P 1'
_cell_length_a   8.60077926
_cell_length_b   8.61595862
_cell_length_c   5.78362300
_cell_angle_alpha   90.05133664
_cell_angle_beta   89.97428521
_cell_angle_gamma   120.05839252
_symmetry_Int_Tables_number   1
_chemical_formula_structural   Hf10CuSn2GeSb4
_chemical_formula_sum   'Hf10 Cu1 Sn2 Ge1 Sb4'
_cell_volume   370.95053276
_cell_formula_units_Z   1
loop_
 _symmetry_equiv_pos_site_id
 _symmetry_equiv_pos_as_xyz
  1  'x, y, z'
loop_
 _atom_site_type_symbol
 _atom_site_label
 _atom_site_symmetry_multiplicity
 _atom_site_fract_x
 _atom_site_fract_y
 _atom_site_fract_z
 _atom_site_occupancy
  Hf  Hf0  1  0.668037  0.334263  0.998928  1
  Hf  Hf1  1  0.331963  0.666229  0.998928  1
  Hf  Hf2  1  0.332364  0.666312  0.501403  1
  Hf  Hf3  1  0.667636  0.333947  0.501403  1
  Hf  Hf4  1  0.733770  0.733402  0.752296  1
  Hf  Hf5  1  0.266230  0.999631  0.752296  1
  Hf  Hf6  1  0.000000  0.268177  0.752565  1
  Hf  Hf7  1  0.262872  0.262508  0.248355  1
  Hf  Hf8  1  0.737128  0.999636  0.248355  1
  Hf  Hf9  1  0.000000  0.736366  0.248259  1
  Cu  Cu10  1  0.000000  0.001249  0.993426  1
  Sn  Sn11  1  0.387517  0.387614  0.751523  1
  Sn  Sn12  1  0.612483  0.000097  0.751523  1
  Ge  Ge13  1  0.000000  0.000384  0.504869  1
  Sb  Sb14  1  0.000000  0.611643  0.751670  1
  Sb  Sb15  1  0.608095  0.608527  0.247903  1
  Sb  Sb16  1  0.391905  0.000433  0.247903  1
  Sb  Sb17  1  0.000000  0.389580  0.248392  1
