# generated using pymatgen
data_Tb5Y(WO7)2
_symmetry_space_group_name_H-M   'P 1'
_cell_length_a   6.49728815
_cell_length_b   6.51281876
_cell_length_c   7.51654001
_cell_angle_alpha   89.99604158
_cell_angle_beta   89.99678724
_cell_angle_gamma   109.14444133
_symmetry_Int_Tables_number   1
_chemical_formula_structural   Tb5Y(WO7)2
_chemical_formula_sum   'Tb5 Y1 W2 O14'
_cell_volume   300.47657947
_cell_formula_units_Z   1
loop_
 _symmetry_equiv_pos_site_id
 _symmetry_equiv_pos_as_xyz
  1  'x, y, z'
loop_
 _atom_site_type_symbol
 _atom_site_label
 _atom_site_symmetry_multiplicity
 _atom_site_fract_x
 _atom_site_fract_y
 _atom_site_fract_z
 _atom_site_occupancy
  Tb  Tb0  1  0.518141  0.518077  0.250024  1
  Tb  Tb1  1  0.481688  0.481586  0.750009  1
  Tb  Tb2  1  0.998973  0.466944  0.497406  1
  Tb  Tb3  1  0.533451  0.001064  0.502573  1
  Tb  Tb4  1  0.001128  0.533273  0.997362  1
  Y  Y5  1  0.467151  0.998877  0.002620  1
  W  W6  1  0.000774  0.000842  0.249850  1
  W  W7  1  0.999208  0.999237  0.750113  1
  O  O8  1  0.067521  0.318036  0.218065  1
  O  O9  1  0.682901  0.933495  0.782453  1
  O  O10  1  0.932420  0.681984  0.718143  1
  O  O11  1  0.317289  0.066659  0.281883  1
  O  O12  1  0.676039  0.919863  0.222090  1
  O  O13  1  0.081253  0.324970  0.777429  1
  O  O14  1  0.324022  0.080245  0.722567  1
  O  O15  1  0.918703  0.675175  0.277373  1
  O  O16  1  0.369533  0.631439  0.499993  1
  O  O17  1  0.629825  0.367229  0.000073  1
  O  O18  1  0.364342  0.637783  0.999962  1
  O  O19  1  0.635677  0.363204  0.500002  1
  O  O20  1  0.926408  0.073938  0.500013  1
  O  O21  1  0.073552  0.926079  0.999996  1
