# generated using pymatgen
data_Ce8Zn8Ir6RuRh
_symmetry_space_group_name_H-M   'P 1'
_cell_length_a   3.94081700
_cell_length_b   7.35704903
_cell_length_c   16.28606541
_cell_angle_alpha   90.00767389
_cell_angle_beta   90.00000000
_cell_angle_gamma   90.00000000
_symmetry_Int_Tables_number   1
_chemical_formula_structural   Ce8Zn8Ir6RuRh
_chemical_formula_sum   'Ce8 Zn8 Ir6 Ru1 Rh1'
_cell_volume   472.17837063
_cell_formula_units_Z   1
loop_
 _symmetry_equiv_pos_site_id
 _symmetry_equiv_pos_as_xyz
  1  'x, y, z'
loop_
 _atom_site_type_symbol
 _atom_site_label
 _atom_site_symmetry_multiplicity
 _atom_site_fract_x
 _atom_site_fract_y
 _atom_site_fract_z
 _atom_site_occupancy
  Ce  Ce0  1  0.250000  0.673103  0.558765  1
  Ce  Ce1  1  0.750000  0.825475  0.060639  1
  Ce  Ce2  1  0.250000  0.054558  0.716710  1
  Ce  Ce3  1  0.250000  0.172174  0.941476  1
  Ce  Ce4  1  0.750000  0.940695  0.281796  1
  Ce  Ce5  1  0.250000  0.554668  0.783498  1
  Ce  Ce6  1  0.750000  0.448565  0.216336  1
  Ce  Ce7  1  0.750000  0.327141  0.441221  1
  Zn  Zn8  1  0.250000  0.115291  0.151809  1
  Zn  Zn9  1  0.750000  0.502398  0.939240  1
  Zn  Zn10  1  0.750000  0.002313  0.560675  1
  Zn  Zn11  1  0.750000  0.384688  0.651949  1
  Zn  Zn12  1  0.750000  0.884357  0.848238  1
  Zn  Zn13  1  0.250000  0.498006  0.061015  1
  Zn  Zn14  1  0.250000  0.615621  0.347884  1
  Zn  Zn15  1  0.250000  0.997379  0.438611  1
  Ir  Ir16  1  0.750000  0.748752  0.437202  1
  Ir  Ir17  1  0.750000  0.256705  0.813862  1
  Ir  Ir18  1  0.750000  0.756904  0.686113  1
  Ir  Ir19  1  0.250000  0.750963  0.938202  1
  Ir  Ir20  1  0.250000  0.251410  0.561719  1
  Ir  Ir21  1  0.750000  0.250097  0.063220  1
  Ru  Ru22  1  0.250000  0.745531  0.186206  1
  Rh  Rh23  1  0.250000  0.243206  0.313614  1
