# generated using pymatgen
data_Y9Th(Sn3Ge)2
_symmetry_space_group_name_H-M   'P 1'
_cell_length_a   9.26980600
_cell_length_b   9.29202192
_cell_length_c   6.56400800
_cell_angle_alpha   90.00000000
_cell_angle_beta   90.00000000
_cell_angle_gamma   119.92094248
_symmetry_Int_Tables_number   1
_chemical_formula_structural   Y9Th(Sn3Ge)2
_chemical_formula_sum   'Y9 Th1 Sn6 Ge2'
_cell_volume   490.03379017
_cell_formula_units_Z   1
loop_
 _symmetry_equiv_pos_site_id
 _symmetry_equiv_pos_as_xyz
  1  'x, y, z'
loop_
 _atom_site_type_symbol
 _atom_site_label
 _atom_site_symmetry_multiplicity
 _atom_site_fract_x
 _atom_site_fract_y
 _atom_site_fract_z
 _atom_site_occupancy
  Y  Y0  1  0.999580  0.744777  0.750000  1
  Y  Y1  1  0.254804  0.255223  0.750000  1
  Y  Y2  1  0.333374  0.665573  0.500288  1
  Y  Y3  1  0.667802  0.334427  0.500288  1
  Y  Y4  1  0.748356  0.747053  0.250000  1
  Y  Y5  1  0.742735  0.000000  0.750000  1
  Y  Y6  1  0.001303  0.252947  0.250000  1
  Y  Y7  1  0.333374  0.665573  0.999712  1
  Y  Y8  1  0.667802  0.334427  0.999712  1
  Th  Th9  1  0.252632  0.000000  0.250000  1
  Sn  Sn10  1  0.607892  0.607740  0.750000  1
  Sn  Sn11  1  0.000152  0.392260  0.750000  1
  Sn  Sn12  1  0.390530  0.000000  0.750000  1
  Sn  Sn13  1  0.611473  0.000000  0.250000  1
  Sn  Sn14  1  0.396583  0.398339  0.250000  1
  Sn  Sn15  1  0.998244  0.601661  0.250000  1
  Ge  Ge16  1  0.996682  0.000000  0.992259  1
  Ge  Ge17  1  0.996682  0.000000  0.507741  1
