# generated using pymatgen
data_CePr3ErP12Ru19
_symmetry_space_group_name_H-M   'P 1'
_cell_length_a   12.61859400
_cell_length_b   12.61859403
_cell_length_c   4.01705900
_cell_angle_alpha   90.00000000
_cell_angle_beta   90.00000000
_cell_angle_gamma   119.99999992
_symmetry_Int_Tables_number   1
_chemical_formula_structural   CePr3ErP12Ru19
_chemical_formula_sum   'Ce1 Pr3 Er1 P12 Ru19'
_cell_volume   553.93751457
_cell_formula_units_Z   1
loop_
 _symmetry_equiv_pos_site_id
 _symmetry_equiv_pos_as_xyz
  1  'x, y, z'
loop_
 _atom_site_type_symbol
 _atom_site_label
 _atom_site_symmetry_multiplicity
 _atom_site_fract_x
 _atom_site_fract_y
 _atom_site_fract_z
 _atom_site_occupancy
  Ce  Ce0  1  0.666667  0.333333  0.000000  1
  Pr  Pr1  1  0.184603  0.184543  0.500000  1
  Pr  Pr2  1  0.815457  0.000060  0.500000  1
  Pr  Pr3  1  0.999940  0.815397  0.500000  1
  Er  Er4  1  0.333333  0.666667  0.000000  1
  P  P5  1  0.810940  0.811883  0.000000  1
  P  P6  1  0.188117  0.999056  0.000000  1
  P  P7  1  0.000944  0.189060  0.000000  1
  P  P8  1  0.174482  0.479068  0.500000  1
  P  P9  1  0.520932  0.695414  0.500000  1
  P  P10  1  0.304586  0.825518  0.500000  1
  P  P11  1  0.695785  0.523520  0.500000  1
  P  P12  1  0.827736  0.304215  0.500000  1
  P  P13  1  0.476480  0.172264  0.500000  1
  P  P14  1  0.374264  0.374744  0.000000  1
  P  P15  1  0.625256  0.999519  0.000000  1
  P  P16  1  0.000481  0.625736  0.000000  1
  Ru  Ru17  1  0.553866  0.553973  0.000000  1
  Ru  Ru18  1  0.446027  0.999892  0.000000  1
  Ru  Ru19  1  0.000108  0.446134  0.000000  1
  Ru  Ru20  1  0.712518  0.713578  0.500000  1
  Ru  Ru21  1  0.286422  0.998940  0.500000  1
  Ru  Ru22  1  0.001060  0.287482  0.500000  1
  Ru  Ru23  1  0.185859  0.381609  0.000000  1
  Ru  Ru24  1  0.618391  0.804250  0.000000  1
  Ru  Ru25  1  0.195750  0.814141  0.000000  1
  Ru  Ru26  1  0.804495  0.619580  0.000000  1
  Ru  Ru27  1  0.815085  0.195505  0.000000  1
  Ru  Ru28  1  0.380420  0.184915  0.000000  1
  Ru  Ru29  1  0.367733  0.494632  0.500000  1
  Ru  Ru30  1  0.505368  0.873101  0.500000  1
  Ru  Ru31  1  0.126899  0.632267  0.500000  1
  Ru  Ru32  1  0.874410  0.506444  0.500000  1
  Ru  Ru33  1  0.632034  0.125590  0.500000  1
  Ru  Ru34  1  0.493556  0.367966  0.500000  1
  Ru  Ru35  1  0.000000  0.000000  0.000000  1
