# generated using pymatgen
data_Y2ThAl3Co2Ni
_symmetry_space_group_name_H-M   'P 1'
_cell_length_a   7.02743645
_cell_length_b   7.02743721
_cell_length_c   3.85108700
_cell_angle_alpha   90.00000000
_cell_angle_beta   90.00000000
_cell_angle_gamma   118.78874028
_symmetry_Int_Tables_number   1
_chemical_formula_structural   Y2ThAl3Co2Ni
_chemical_formula_sum   'Y2 Th1 Al3 Co2 Ni1'
_cell_volume   166.67876061
_cell_formula_units_Z   1
loop_
 _symmetry_equiv_pos_site_id
 _symmetry_equiv_pos_as_xyz
  1  'x, y, z'
loop_
 _atom_site_type_symbol
 _atom_site_label
 _atom_site_symmetry_multiplicity
 _atom_site_fract_x
 _atom_site_fract_y
 _atom_site_fract_z
 _atom_site_occupancy
  Y  Y0  1  0.581388  0.998047  0.000000  1
  Y  Y1  1  0.998047  0.581388  0.000000  1
  Th  Th2  1  0.428970  0.428970  0.000000  1
  Al  Al3  1  0.237606  0.992947  0.500000  1
  Al  Al4  1  0.992947  0.237606  0.500000  1
  Al  Al5  1  0.778854  0.778854  0.500000  1
  Co  Co6  1  0.333383  0.642601  0.500000  1
  Co  Co7  1  0.642601  0.333383  0.500000  1
  Ni  Ni8  1  0.006204  0.006204  0.000000  1
