# generated using pymatgen
data_Ni3Au5O8
_symmetry_space_group_name_H-M   'P 1'
_cell_length_a   5.29076410
_cell_length_b   6.16940381
_cell_length_c   7.11407100
_cell_angle_alpha   64.19382510
_cell_angle_beta   104.46656249
_cell_angle_gamma   90.04277053
_symmetry_Int_Tables_number   1
_chemical_formula_structural   Ni3Au5O8
_chemical_formula_sum   'Ni3 Au5 O8'
_cell_volume   200.86364058
_cell_formula_units_Z   1
loop_
 _symmetry_equiv_pos_site_id
 _symmetry_equiv_pos_as_xyz
  1  'x, y, z'
loop_
 _atom_site_type_symbol
 _atom_site_label
 _atom_site_symmetry_multiplicity
 _atom_site_fract_x
 _atom_site_fract_y
 _atom_site_fract_z
 _atom_site_occupancy
  Ni  Ni0  1  0.999823  0.007690  0.499943  1
  Ni  Ni1  1  0.500133  0.249769  0.499919  1
  Ni  Ni2  1  0.000188  0.492375  0.500114  1
  Au  Au3  1  0.499985  0.749963  0.500015  1
  Au  Au4  1  0.003976  0.002140  0.996077  1
  Au  Au5  1  0.499962  0.250031  0.999960  1
  Au  Au6  1  0.995952  0.498005  0.003948  1
  Au  Au7  1  0.499974  0.750017  0.000015  1
  O  O8  1  0.893639  0.664396  0.670674  1
  O  O9  1  0.389045  0.913984  0.669083  1
  O  O10  1  0.889214  0.165640  0.668220  1
  O  O11  1  0.389317  0.416416  0.668964  1
  O  O12  1  0.106304  0.835707  0.329360  1
  O  O13  1  0.610724  0.083458  0.330962  1
  O  O14  1  0.110823  0.334424  0.331802  1
  O  O15  1  0.610946  0.585985  0.330944  1
