# generated using pymatgen
data_Tb3DyOs7W
_symmetry_space_group_name_H-M   'P 1'
_cell_length_a   5.30710560
_cell_length_b   5.30710646
_cell_length_c   8.91474906
_cell_angle_alpha   89.98903019
_cell_angle_beta   90.01097288
_cell_angle_gamma   117.84937654
_symmetry_Int_Tables_number   1
_chemical_formula_structural   Tb3DyOs7W
_chemical_formula_sum   'Tb3 Dy1 Os7 W1'
_cell_volume   222.00599412
_cell_formula_units_Z   1
loop_
 _symmetry_equiv_pos_site_id
 _symmetry_equiv_pos_as_xyz
  1  'x, y, z'
loop_
 _atom_site_type_symbol
 _atom_site_label
 _atom_site_symmetry_multiplicity
 _atom_site_fract_x
 _atom_site_fract_y
 _atom_site_fract_z
 _atom_site_occupancy
  Tb  Tb0  1  0.328587  0.671413  0.437880  1
  Tb  Tb1  1  0.665754  0.334246  0.566472  1
  Tb  Tb2  1  0.665757  0.334243  0.933658  1
  Dy  Dy3  1  0.328517  0.671483  0.062148  1
  Os  Os4  1  0.991906  0.008094  0.502413  1
  Os  Os5  1  0.992136  0.007864  0.997596  1
  Os  Os6  1  0.824747  0.648900  0.249499  1
  Os  Os7  1  0.351100  0.175253  0.249499  1
  Os  Os8  1  0.178667  0.821333  0.750473  1
  Os  Os9  1  0.171962  0.336975  0.750260  1
  Os  Os10  1  0.663025  0.828038  0.750260  1
  W  W11  1  0.837841  0.162159  0.249841  1
