# generated using pymatgen
data_Ce3Al12PdRu3
_symmetry_space_group_name_H-M   'P 1'
_cell_length_a   8.94780403
_cell_length_b   8.92497716
_cell_length_c   9.55348971
_cell_angle_alpha   89.74978220
_cell_angle_beta   90.12478635
_cell_angle_gamma   119.91564360
_symmetry_Int_Tables_number   1
_chemical_formula_structural   Ce3Al12PdRu3
_chemical_formula_sum   'Ce6 Al24 Pd2 Ru6'
_cell_volume   661.27277726
_cell_formula_units_Z   2
loop_
 _symmetry_equiv_pos_site_id
 _symmetry_equiv_pos_as_xyz
  1  'x, y, z'
loop_
 _atom_site_type_symbol
 _atom_site_label
 _atom_site_symmetry_multiplicity
 _atom_site_fract_x
 _atom_site_fract_y
 _atom_site_fract_z
 _atom_site_occupancy
  Ce  Ce0  1  0.809688  0.613949  0.750493  1
  Ce  Ce1  1  0.190312  0.804261  0.250493  1
  Ce  Ce2  1  0.616550  0.808275  0.250000  1
  Ce  Ce3  1  0.383450  0.191725  0.750000  1
  Ce  Ce4  1  0.809688  0.195739  0.749507  1
  Ce  Ce5  1  0.190312  0.386051  0.249507  1
  Al  Al6  1  0.331394  0.662153  0.478276  1
  Al  Al7  1  0.668606  0.330758  0.978276  1
  Al  Al8  1  0.668606  0.337847  0.521724  1
  Al  Al9  1  0.331394  0.669242  0.021724  1
  Al  Al10  1  0.163154  0.325680  0.577938  1
  Al  Al11  1  0.676764  0.833381  0.578119  1
  Al  Al12  1  0.157972  0.833373  0.578238  1
  Al  Al13  1  0.836846  0.162525  0.077938  1
  Al  Al14  1  0.842028  0.166627  0.421762  1
  Al  Al15  1  0.842028  0.675402  0.078238  1
  Al  Al16  1  0.323236  0.156617  0.078119  1
  Al  Al17  1  0.676764  0.843383  0.921881  1
  Al  Al18  1  0.157972  0.324598  0.921762  1
  Al  Al19  1  0.836846  0.674320  0.422062  1
  Al  Al20  1  0.999165  0.999583  0.250000  1
  Al  Al21  1  0.000835  0.000417  0.750000  1
  Al  Al22  1  0.562296  0.125106  0.246601  1
  Al  Al23  1  0.437704  0.562810  0.746601  1
  Al  Al24  1  0.125764  0.562882  0.750000  1
  Al  Al25  1  0.874236  0.437118  0.250000  1
  Al  Al26  1  0.562296  0.437190  0.253399  1
  Al  Al27  1  0.437704  0.874894  0.753399  1
  Al  Al28  1  0.163154  0.837475  0.922062  1
  Al  Al29  1  0.323236  0.166619  0.421881  1
  Pd  Pd30  1  0.500000  0.000000  0.500000  1
  Pd  Pd31  1  0.500000  0.500000  0.000000  1
  Ru  Ru32  1  0.000000  0.000000  0.500000  1
  Ru  Ru33  1  0.000000  0.000000  0.000000  1
  Ru  Ru34  1  0.000000  0.500000  0.000000  1
  Ru  Ru35  1  0.000000  0.500000  0.500000  1
  Ru  Ru36  1  0.500000  0.500000  0.500000  1
  Ru  Ru37  1  0.500000  0.000000  0.000000  1
