# generated using pymatgen
data_Cs4Co3MoSe8
_symmetry_space_group_name_H-M   'P 1'
_cell_length_a   5.58620961
_cell_length_b   7.46536154
_cell_length_c   12.84234200
_cell_angle_alpha   88.94099766
_cell_angle_beta   83.36000952
_cell_angle_gamma   79.43630351
_symmetry_Int_Tables_number   1
_chemical_formula_structural   Cs4Co3MoSe8
_chemical_formula_sum   'Cs4 Co3 Mo1 Se8'
_cell_volume   522.95468018
_cell_formula_units_Z   1
loop_
 _symmetry_equiv_pos_site_id
 _symmetry_equiv_pos_as_xyz
  1  'x, y, z'
loop_
 _atom_site_type_symbol
 _atom_site_label
 _atom_site_symmetry_multiplicity
 _atom_site_fract_x
 _atom_site_fract_y
 _atom_site_fract_z
 _atom_site_occupancy
  Cs  Cs0  1  0.074575  0.034811  0.666257  1
  Cs  Cs1  1  0.568772  0.531507  0.189613  1
  Cs  Cs2  1  0.431149  0.466309  0.809711  1
  Cs  Cs3  1  0.926169  0.964702  0.333712  1
  Co  Co4  1  0.249820  0.499696  0.499693  1
  Co  Co5  1  0.749901  0.500620  0.500351  1
  Co  Co6  1  0.249890  0.000119  0.000009  1
  Mo  Mo7  1  0.750145  0.999407  0.999930  1
  Se  Se8  1  0.945230  0.565388  0.639656  1
  Se  Se9  1  0.441233  0.064104  0.145419  1
  Se  Se10  1  0.952171  0.252150  0.962878  1
  Se  Se11  1  0.453117  0.742269  0.462366  1
  Se  Se12  1  0.549132  0.937274  0.854336  1
  Se  Se13  1  0.049085  0.435497  0.360172  1
  Se  Se14  1  0.552030  0.258051  0.538119  1
  Se  Se15  1  0.057582  0.748091  0.037777  1
