# generated using pymatgen
data_NaCaTa2O6F
_symmetry_space_group_name_H-M   'P 1'
_cell_length_a   7.39456821
_cell_length_b   7.39456821
_cell_length_c   7.39456821
_cell_angle_alpha   120.37095783
_cell_angle_beta   119.43479789
_cell_angle_gamma   90.17020934
_symmetry_Int_Tables_number   1
_chemical_formula_structural   NaCaTa2O6F
_chemical_formula_sum   'Na2 Ca2 Ta4 O12 F2'
_cell_volume   286.30066688
_cell_formula_units_Z   2
loop_
 _symmetry_equiv_pos_site_id
 _symmetry_equiv_pos_as_xyz
  1  'x, y, z'
loop_
 _atom_site_type_symbol
 _atom_site_label
 _atom_site_symmetry_multiplicity
 _atom_site_fract_x
 _atom_site_fract_y
 _atom_site_fract_z
 _atom_site_occupancy
  Na  Na0  1  0.000000  0.500000  0.000000  1
  Na  Na1  1  0.000000  0.000000  0.500000  1
  Ca  Ca2  1  0.000000  0.500000  0.500000  1
  Ca  Ca3  1  0.500000  0.500000  0.000000  1
  Ta  Ta4  1  0.000000  0.000000  0.000000  1
  Ta  Ta5  1  0.500000  0.500000  0.500000  1
  Ta  Ta6  1  0.500000  0.000000  0.000000  1
  Ta  Ta7  1  0.500000  0.000000  0.500000  1
  O  O8  1  0.817572  0.073777  0.138358  1
  O  O9  1  0.814281  0.064281  0.750000  1
  O  O10  1  0.817572  0.679213  0.743795  1
  O  O11  1  0.435419  0.073777  0.756205  1
  O  O12  1  0.564581  0.320787  0.638358  1
  O  O13  1  0.572863  0.322863  0.250000  1
  O  O14  1  0.435419  0.679213  0.361642  1
  O  O15  1  0.427137  0.677137  0.750000  1
  O  O16  1  0.564581  0.926223  0.243795  1
  O  O17  1  0.182428  0.320787  0.256205  1
  O  O18  1  0.182428  0.926223  0.861642  1
  O  O19  1  0.185719  0.935719  0.250000  1
  F  F20  1  0.130920  0.380920  0.750000  1
  F  F21  1  0.869080  0.619080  0.250000  1
