# generated using pymatgen
data_Pr9SmB2Cl15
_symmetry_space_group_name_H-M   'P 1'
_cell_length_a   9.10969415
_cell_length_b   9.95487521
_cell_length_c   10.74416839
_cell_angle_alpha   90.67648539
_cell_angle_beta   114.53442821
_cell_angle_gamma   111.19758363
_symmetry_Int_Tables_number   1
_chemical_formula_structural   Pr9SmB2Cl15
_chemical_formula_sum   'Pr9 Sm1 B2 Cl15'
_cell_volume   811.19473834
_cell_formula_units_Z   1
loop_
 _symmetry_equiv_pos_site_id
 _symmetry_equiv_pos_as_xyz
  1  'x, y, z'
loop_
 _atom_site_type_symbol
 _atom_site_label
 _atom_site_symmetry_multiplicity
 _atom_site_fract_x
 _atom_site_fract_y
 _atom_site_fract_z
 _atom_site_occupancy
  Pr  Pr0  1  0.810811  0.419397  0.278270  1
  Pr  Pr1  1  0.187123  0.580566  0.720492  1
  Pr  Pr2  1  0.681143  0.743581  0.818263  1
  Pr  Pr3  1  0.317595  0.255217  0.181949  1
  Pr  Pr4  1  0.527765  0.700254  0.102795  1
  Pr  Pr5  1  0.472467  0.299817  0.897101  1
  Pr  Pr6  1  0.590624  0.036593  0.334032  1
  Pr  Pr7  1  0.405463  0.961837  0.664821  1
  Pr  Pr8  1  0.737323  0.079378  0.049825  1
  Sm  Sm9  1  0.271144  0.923001  0.951697  1
  B  B10  1  0.464203  0.817593  0.874589  1
  B  B11  1  0.532442  0.180989  0.124084  1
  Cl  Cl12  1  0.004267  0.997842  0.998320  1
  Cl  Cl13  1  0.632892  0.882601  0.586004  1
  Cl  Cl14  1  0.364164  0.115928  0.413416  1
  Cl  Cl15  1  0.881433  0.299307  0.522071  1
  Cl  Cl16  1  0.116858  0.699878  0.476630  1
  Cl  Cl17  1  0.292387  0.768694  0.175529  1
  Cl  Cl18  1  0.702955  0.233064  0.817091  1
  Cl  Cl19  1  0.056624  0.346052  0.227800  1
  Cl  Cl20  1  0.167030  0.053920  0.712134  1
  Cl  Cl21  1  0.832387  0.942177  0.294155  1
  Cl  Cl22  1  0.236574  0.411074  0.946395  1
  Cl  Cl23  1  0.762138  0.588239  0.053049  1
  Cl  Cl24  1  0.406834  0.468589  0.661455  1
  Cl  Cl25  1  0.591785  0.530976  0.338327  1
  Cl  Cl26  1  0.953571  0.663434  0.779707  1
