# generated using pymatgen
data_Nd8Cr3MoN12
_symmetry_space_group_name_H-M   'P 1'
_cell_length_a   6.09667607
_cell_length_b   6.07623708
_cell_length_c   11.92569325
_cell_angle_alpha   88.14983572
_cell_angle_beta   87.94922441
_cell_angle_gamma   127.85061674
_symmetry_Int_Tables_number   1
_chemical_formula_structural   Nd8Cr3MoN12
_chemical_formula_sum   'Nd8 Cr3 Mo1 N12'
_cell_volume   347.79162809
_cell_formula_units_Z   1
loop_
 _symmetry_equiv_pos_site_id
 _symmetry_equiv_pos_as_xyz
  1  'x, y, z'
loop_
 _atom_site_type_symbol
 _atom_site_label
 _atom_site_symmetry_multiplicity
 _atom_site_fract_x
 _atom_site_fract_y
 _atom_site_fract_z
 _atom_site_occupancy
  Nd  Nd0  1  0.568011  0.969983  0.849599  1
  Nd  Nd1  1  0.029496  0.430373  0.648190  1
  Nd  Nd2  1  0.419183  0.024113  0.145644  1
  Nd  Nd3  1  0.979497  0.572719  0.358210  1
  Nd  Nd4  1  0.346141  0.129335  0.574522  1
  Nd  Nd5  1  0.872906  0.653699  0.921040  1
  Nd  Nd6  1  0.660233  0.876494  0.429821  1
  Nd  Nd7  1  0.122038  0.340386  0.069054  1
  Cr  Cr8  1  0.718388  0.720832  0.672431  1
  Cr  Cr9  1  0.280728  0.282542  0.826755  1
  Cr  Cr10  1  0.294184  0.285108  0.330601  1
  Mo  Mo11  1  0.711995  0.706812  0.173830  1
  N  N12  1  0.615701  0.381909  0.748789  1
  N  N13  1  0.368875  0.626056  0.253670  1
  N  N14  1  0.533724  0.871600  0.634656  1
  N  N15  1  0.124482  0.466896  0.864733  1
  N  N16  1  0.473273  0.135163  0.369764  1
  N  N17  1  0.872784  0.519726  0.128550  1
  N  N18  1  0.652380  0.845785  0.036385  1
  N  N19  1  0.156465  0.342449  0.461046  1
  N  N20  1  0.331320  0.143981  0.956064  1
  N  N21  1  0.857554  0.669042  0.543243  1
  N  N22  1  0.999719  0.999734  0.749566  1
  N  N23  1  0.010920  0.005262  0.253839  1
