# generated using pymatgen
data_La20Si11Sn
_symmetry_space_group_name_H-M   'P 1'
_cell_length_a   7.93513300
_cell_length_b   7.93513300
_cell_length_c   14.62978300
_cell_angle_alpha   90.00000000
_cell_angle_beta   90.00000000
_cell_angle_gamma   90.00000000
_symmetry_Int_Tables_number   1
_chemical_formula_structural   La20Si11Sn
_chemical_formula_sum   'La20 Si11 Sn1'
_cell_volume   921.18382800
_cell_formula_units_Z   1
loop_
 _symmetry_equiv_pos_site_id
 _symmetry_equiv_pos_as_xyz
  1  'x, y, z'
loop_
 _atom_site_type_symbol
 _atom_site_label
 _atom_site_symmetry_multiplicity
 _atom_site_fract_x
 _atom_site_fract_y
 _atom_site_fract_z
 _atom_site_occupancy
  La  La0  1  0.500000  0.000000  0.780045  1
  La  La1  1  0.329411  0.314206  0.105314  1
  La  La2  1  0.828438  0.814909  0.894765  1
  La  La3  1  0.000000  0.500000  0.225487  1
  La  La4  1  0.822887  0.175941  0.390233  1
  La  La5  1  0.171562  0.185091  0.894765  1
  La  La6  1  0.670589  0.685794  0.105314  1
  La  La7  1  0.000000  0.500000  0.729210  1
  La  La8  1  0.810350  0.836038  0.608755  1
  La  La9  1  0.324059  0.322887  0.390233  1
  La  La10  1  0.185794  0.829411  0.105314  1
  La  La11  1  0.189650  0.163962  0.608755  1
  La  La12  1  0.814206  0.170589  0.105314  1
  La  La13  1  0.336038  0.689650  0.608755  1
  La  La14  1  0.500000  0.000000  0.274178  1
  La  La15  1  0.685091  0.328438  0.894765  1
  La  La16  1  0.663962  0.310350  0.608755  1
  La  La17  1  0.314909  0.671562  0.894765  1
  La  La18  1  0.177113  0.824059  0.390233  1
  La  La19  1  0.675941  0.677113  0.390233  1
  Si  Si20  1  0.614241  0.387498  0.248388  1
  Si  Si21  1  0.887502  0.114044  0.751702  1
  Si  Si22  1  0.500000  0.000000  0.493086  1
  Si  Si23  1  0.887498  0.885759  0.248388  1
  Si  Si24  1  0.000000  0.500000  0.005198  1
  Si  Si25  1  0.112498  0.885956  0.751702  1
  Si  Si26  1  0.385956  0.387502  0.751702  1
  Si  Si27  1  0.112502  0.114241  0.248388  1
  Si  Si28  1  0.385759  0.612502  0.248388  1
  Si  Si29  1  0.614044  0.612498  0.751702  1
  Si  Si30  1  0.500000  0.000000  0.995469  1
  Sn  Sn31  1  0.000000  0.500000  0.500693  1
