# generated using pymatgen
data_LiHo(BeB14)2
_symmetry_space_group_name_H-M   'P 1'
_cell_length_a   7.16416605
_cell_length_b   7.16416429
_cell_length_c   7.16416609
_cell_angle_alpha   132.71370912
_cell_angle_beta   110.55936467
_cell_angle_gamma   88.30877645
_symmetry_Int_Tables_number   1
_chemical_formula_structural   LiHo(BeB14)2
_chemical_formula_sum   'Li1 Ho1 Be2 B28'
_cell_volume   241.04172604
_cell_formula_units_Z   1
loop_
 _symmetry_equiv_pos_site_id
 _symmetry_equiv_pos_as_xyz
  1  'x, y, z'
loop_
 _atom_site_type_symbol
 _atom_site_label
 _atom_site_symmetry_multiplicity
 _atom_site_fract_x
 _atom_site_fract_y
 _atom_site_fract_z
 _atom_site_occupancy
  Li  Li0  1  0.373675  0.750000  0.623675  1
  Ho  Ho1  1  0.606860  0.250000  0.356860  1
  Be  Be2  1  0.005807  0.506178  0.011984  1
  Be  Be3  1  0.005807  0.993822  0.499629  1
  B  B4  1  0.977460  0.343626  0.633835  1
  B  B5  1  0.627833  0.328362  0.794117  1
  B  B6  1  0.801881  0.833619  0.968262  1
  B  B7  1  0.634643  0.666381  0.968262  1
  B  B8  1  0.196462  0.165675  0.030787  1
  B  B9  1  0.777468  0.779192  0.677277  1
  B  B10  1  0.965755  0.666284  0.794117  1
  B  B11  1  0.027486  0.656268  0.371218  1
  B  B12  1  0.965755  0.171638  0.299471  1
  B  B13  1  0.035537  0.827059  0.699819  1
  B  B14  1  0.365113  0.334325  0.030787  1
  B  B15  1  0.079229  0.909118  0.170110  1
  B  B16  1  0.627833  0.833716  0.299471  1
  B  B17  1  0.398085  0.720808  0.998275  1
  B  B18  1  0.241660  0.410945  0.830716  1
  B  B19  1  0.219925  0.220619  0.322254  1
  B  B20  1  0.214949  0.843732  0.371218  1
  B  B21  1  0.919771  0.089055  0.830716  1
  B  B22  1  0.398085  0.399809  0.677277  1
  B  B23  1  0.219925  0.897671  0.999306  1
  B  B24  1  0.777468  0.100191  0.998275  1
  B  B25  1  0.601635  0.279381  0.999306  1
  B  B26  1  0.601635  0.602329  0.322254  1
  B  B27  1  0.035537  0.335718  0.208478  1
  B  B28  1  0.760993  0.590882  0.170110  1
  B  B29  1  0.790210  0.156374  0.633835  1
  B  B30  1  0.372760  0.164282  0.699819  1
  B  B31  1  0.372760  0.672941  0.208478  1
