# generated using pymatgen
data_TbSb2O6F
_symmetry_space_group_name_H-M   'P 1'
_cell_length_a   7.34827357
_cell_length_b   7.34827464
_cell_length_c   7.34827469
_cell_angle_alpha   120.26479298
_cell_angle_beta   119.30352485
_cell_angle_gamma   90.37626021
_symmetry_Int_Tables_number   1
_chemical_formula_structural   TbSb2O6F
_chemical_formula_sum   'Tb2 Sb4 O12 F2'
_cell_volume   281.45410657
_cell_formula_units_Z   2
loop_
 _symmetry_equiv_pos_site_id
 _symmetry_equiv_pos_as_xyz
  1  'x, y, z'
loop_
 _atom_site_type_symbol
 _atom_site_label
 _atom_site_symmetry_multiplicity
 _atom_site_fract_x
 _atom_site_fract_y
 _atom_site_fract_z
 _atom_site_occupancy
  Tb  Tb0  1  0.500000  0.500000  0.000000  1
  Tb  Tb1  1  0.000000  0.500000  0.500000  1
  Sb  Sb2  1  0.000000  0.000000  0.000000  1
  Sb  Sb3  1  0.500000  0.000000  0.500000  1
  Sb  Sb4  1  0.500000  0.000000  0.000000  1
  Sb  Sb5  1  0.500000  0.500000  0.500000  1
  O  O6  1  0.182314  0.932314  0.250000  1
  O  O7  1  0.580066  0.330066  0.250000  1
  O  O8  1  0.176230  0.906514  0.845047  1
  O  O9  1  0.561469  0.331183  0.654953  1
  O  O10  1  0.561469  0.906514  0.230285  1
  O  O11  1  0.176230  0.331183  0.269715  1
  O  O12  1  0.817686  0.067686  0.750000  1
  O  O13  1  0.419934  0.669934  0.750000  1
  O  O14  1  0.823770  0.093486  0.154953  1
  O  O15  1  0.438531  0.668817  0.345047  1
  O  O16  1  0.438531  0.093486  0.769715  1
  O  O17  1  0.823770  0.668817  0.730285  1
  F  F18  1  0.856699  0.606699  0.250000  1
  F  F19  1  0.143301  0.393301  0.750000  1
