# generated using pymatgen
data_Na3Ni2BiO6
_symmetry_space_group_name_H-M   'P 1'
_cell_length_a   5.47402949
_cell_length_b   9.48125383
_cell_length_c   5.74889550
_cell_angle_alpha   105.83893848
_cell_angle_beta   99.05855915
_cell_angle_gamma   90.00137920
_symmetry_Int_Tables_number   1
_chemical_formula_structural   Na3Ni2BiO6
_chemical_formula_sum   'Na6 Ni4 Bi2 O12'
_cell_volume   283.17267294
_cell_formula_units_Z   2
loop_
 _symmetry_equiv_pos_site_id
 _symmetry_equiv_pos_as_xyz
  1  'x, y, z'
loop_
 _atom_site_type_symbol
 _atom_site_label
 _atom_site_symmetry_multiplicity
 _atom_site_fract_x
 _atom_site_fract_y
 _atom_site_fract_z
 _atom_site_occupancy
  Na  Na0  1  0.250000  0.250000  0.499999  1
  Na  Na1  1  0.750000  0.750000  0.499999  1
  Na  Na2  1  0.761387  0.412874  0.499995  1
  Na  Na3  1  0.261387  0.912874  0.499995  1
  Na  Na4  1  0.738612  0.087126  0.500005  1
  Na  Na5  1  0.238612  0.587126  0.500005  1
  Ni  Ni6  1  0.500294  0.833078  0.999996  1
  Ni  Ni7  1  0.999706  0.666922  0.000002  1
  Ni  Ni8  1  0.000294  0.333078  0.999996  1
  Ni  Ni9  1  0.499706  0.166922  0.000002  1
  Bi  Bi10  1  0.000000  0.000000  0.000000  1
  Bi  Bi11  1  0.500000  0.500000  0.000000  1
  O  O12  1  0.132235  0.132244  0.790356  1
  O  O13  1  0.632235  0.632244  0.790356  1
  O  O14  1  0.367766  0.367756  0.209644  1
  O  O15  1  0.867766  0.867756  0.209644  1
  O  O16  1  0.867580  0.201999  0.209131  1
  O  O17  1  0.367580  0.701999  0.209131  1
  O  O18  1  0.369238  0.034781  0.209117  1
  O  O19  1  0.869238  0.534781  0.209117  1
  O  O20  1  0.130763  0.465218  0.790882  1
  O  O21  1  0.630763  0.965218  0.790882  1
  O  O22  1  0.632419  0.298002  0.790868  1
  O  O23  1  0.132419  0.798002  0.790868  1
