# generated using pymatgen
data_Ag3Bi(NO3)8
_symmetry_space_group_name_H-M   'P 1'
_cell_length_a   8.01214295
_cell_length_b   8.01214361
_cell_length_c   8.01214390
_cell_angle_alpha   87.17203037
_cell_angle_beta   87.17203399
_cell_angle_gamma   87.17203056
_symmetry_Int_Tables_number   1
_chemical_formula_structural   Ag3Bi(NO3)8
_chemical_formula_sum   'Ag3 Bi1 N8 O24'
_cell_volume   512.51567213
_cell_formula_units_Z   1
loop_
 _symmetry_equiv_pos_site_id
 _symmetry_equiv_pos_as_xyz
  1  'x, y, z'
loop_
 _atom_site_type_symbol
 _atom_site_label
 _atom_site_symmetry_multiplicity
 _atom_site_fract_x
 _atom_site_fract_y
 _atom_site_fract_z
 _atom_site_occupancy
  Ag  Ag0  1  0.000000  0.500000  0.500000  1
  Ag  Ag1  1  0.500000  0.500000  0.000000  1
  Ag  Ag2  1  0.500000  0.000000  0.500000  1
  Bi  Bi3  1  0.000000  0.000000  0.000000  1
  N  N4  1  0.334219  0.334219  0.334219  1
  N  N5  1  0.335246  0.162048  0.826586  1
  N  N6  1  0.162048  0.826586  0.335246  1
  N  N7  1  0.826586  0.335246  0.162048  1
  N  N8  1  0.665781  0.665781  0.665781  1
  N  N9  1  0.173414  0.664754  0.837952  1
  N  N10  1  0.837952  0.173414  0.664754  1
  N  N11  1  0.664754  0.837952  0.173414  1
  O  O12  1  0.730069  0.304611  0.046750  1
  O  O13  1  0.186322  0.953537  0.232647  1
  O  O14  1  0.249572  0.802504  0.458089  1
  O  O15  1  0.232647  0.186322  0.953537  1
  O  O16  1  0.229166  0.317414  0.456079  1
  O  O17  1  0.456079  0.229166  0.317414  1
  O  O18  1  0.317414  0.456079  0.229166  1
  O  O19  1  0.197496  0.541911  0.750428  1
  O  O20  1  0.953250  0.269931  0.695389  1
  O  O21  1  0.695389  0.953250  0.269931  1
  O  O22  1  0.046463  0.767353  0.813678  1
  O  O23  1  0.541911  0.750428  0.197496  1
  O  O24  1  0.813678  0.046463  0.767353  1
  O  O25  1  0.750428  0.197496  0.541911  1
  O  O26  1  0.767353  0.813678  0.046463  1
  O  O27  1  0.269931  0.695389  0.953250  1
  O  O28  1  0.770834  0.682586  0.543921  1
  O  O29  1  0.543921  0.770834  0.682586  1
  O  O30  1  0.682586  0.543921  0.770834  1
  O  O31  1  0.802504  0.458089  0.249572  1
  O  O32  1  0.046750  0.730069  0.304611  1
  O  O33  1  0.304611  0.046750  0.730069  1
  O  O34  1  0.953537  0.232647  0.186322  1
  O  O35  1  0.458089  0.249572  0.802504  1
