# generated using pymatgen
data_LiTh8(Si4Os)3
_symmetry_space_group_name_H-M   'P 1'
_cell_length_a   8.26861004
_cell_length_b   8.26880901
_cell_length_c   8.40291700
_cell_angle_alpha   90.00406741
_cell_angle_beta   89.99420710
_cell_angle_gamma   120.00675742
_symmetry_Int_Tables_number   1
_chemical_formula_structural   LiTh8(Si4Os)3
_chemical_formula_sum   'Li1 Th8 Si12 Os3'
_cell_volume   497.51548022
_cell_formula_units_Z   1
loop_
 _symmetry_equiv_pos_site_id
 _symmetry_equiv_pos_as_xyz
  1  'x, y, z'
loop_
 _atom_site_type_symbol
 _atom_site_label
 _atom_site_symmetry_multiplicity
 _atom_site_fract_x
 _atom_site_fract_y
 _atom_site_fract_z
 _atom_site_occupancy
  Li  Li0  1  0.333313  0.666678  0.007130  1
  Th  Th1  1  0.999984  0.000010  0.247733  1
  Th  Th2  1  0.000012  0.999988  0.750560  1
  Th  Th3  1  0.505272  0.494732  0.253199  1
  Th  Th4  1  0.505289  0.010573  0.253170  1
  Th  Th5  1  0.989417  0.494708  0.253160  1
  Th  Th6  1  0.503513  0.496488  0.748106  1
  Th  Th7  1  0.503485  0.007004  0.748091  1
  Th  Th8  1  0.993000  0.496517  0.748081  1
  Si  Si9  1  0.166854  0.833147  0.493249  1
  Si  Si10  1  0.166843  0.333679  0.493254  1
  Si  Si11  1  0.666327  0.833161  0.493260  1
  Si  Si12  1  0.834528  0.165467  0.504591  1
  Si  Si13  1  0.834523  0.669068  0.504578  1
  Si  Si14  1  0.330930  0.165473  0.504581  1
  Si  Si15  1  0.833613  0.166383  0.006643  1
  Si  Si16  1  0.833585  0.667200  0.006646  1
  Si  Si17  1  0.332805  0.166419  0.006653  1
  Si  Si18  1  0.166435  0.833571  0.996688  1
  Si  Si19  1  0.166451  0.332879  0.996687  1
  Si  Si20  1  0.667118  0.833549  0.996690  1
  Os  Os21  1  0.333336  0.666662  0.508558  1
  Os  Os22  1  0.666670  0.333331  0.494871  1
  Os  Os23  1  0.666699  0.333315  0.983820  1
