# generated using pymatgen
data_ZrNb7(GaC3)2
_symmetry_space_group_name_H-M   'P 1'
_cell_length_a   3.18134500
_cell_length_b   3.18134374
_cell_length_c   24.24988400
_cell_angle_alpha   90.00000000
_cell_angle_beta   90.00000000
_cell_angle_gamma   119.99998190
_symmetry_Int_Tables_number   1
_chemical_formula_structural   ZrNb7(GaC3)2
_chemical_formula_sum   'Zr1 Nb7 Ga2 C6'
_cell_volume   212.55030948
_cell_formula_units_Z   1
loop_
 _symmetry_equiv_pos_site_id
 _symmetry_equiv_pos_as_xyz
  1  'x, y, z'
loop_
 _atom_site_type_symbol
 _atom_site_label
 _atom_site_symmetry_multiplicity
 _atom_site_fract_x
 _atom_site_fract_y
 _atom_site_fract_z
 _atom_site_occupancy
  Zr  Zr0  1  0.333333  0.666667  0.055099  1
  Nb  Nb1  1  0.000000  0.000000  0.342901  1
  Nb  Nb2  1  0.000000  0.000000  0.657738  1
  Nb  Nb3  1  0.000000  0.000000  0.839030  1
  Nb  Nb4  1  0.000000  0.000000  0.163699  1
  Nb  Nb5  1  0.333333  0.666667  0.444420  1
  Nb  Nb6  1  0.666667  0.333333  0.555833  1
  Nb  Nb7  1  0.666667  0.333333  0.941936  1
  Ga  Ga8  1  0.333333  0.666667  0.252376  1
  Ga  Ga9  1  0.666667  0.333333  0.748947  1
  C  C10  1  0.000000  0.000000  0.500126  1
  C  C11  1  0.000000  0.000000  0.995781  1
  C  C12  1  0.666667  0.333333  0.391156  1
  C  C13  1  0.333333  0.666667  0.609114  1
  C  C14  1  0.333333  0.666667  0.888053  1
  C  C15  1  0.666667  0.333333  0.113789  1
