# generated using pymatgen
data_Ti8Al14GeRu4Rh3
_symmetry_space_group_name_H-M   'P 1'
_cell_length_a   8.64776912
_cell_length_b   8.64647752
_cell_length_c   8.64783465
_cell_angle_alpha   119.98514151
_cell_angle_beta   119.92788565
_cell_angle_gamma   90.00254594
_symmetry_Int_Tables_number   1
_chemical_formula_structural   Ti8Al14GeRu4Rh3
_chemical_formula_sum   'Ti8 Al14 Ge1 Ru4 Rh3'
_cell_volume   457.82119662
_cell_formula_units_Z   1
loop_
 _symmetry_equiv_pos_site_id
 _symmetry_equiv_pos_as_xyz
  1  'x, y, z'
loop_
 _atom_site_type_symbol
 _atom_site_label
 _atom_site_symmetry_multiplicity
 _atom_site_fract_x
 _atom_site_fract_y
 _atom_site_fract_z
 _atom_site_occupancy
  Ti  Ti0  1  0.791314  0.291858  0.079126  1
  Ti  Ti1  1  0.215653  0.295155  0.501156  1
  Ti  Ti2  1  0.207989  0.707907  0.503533  1
  Ti  Ti3  1  0.216281  0.716202  0.921409  1
  Ti  Ti4  1  0.794494  0.714755  0.500076  1
  Ti  Ti5  1  0.783034  0.283326  0.496009  1
  Ti  Ti6  1  0.377150  0.121587  0.743783  1
  Ti  Ti7  1  0.383000  0.634685  0.259630  1
  Al  Al8  1  0.155720  0.341216  0.184155  1
  Al  Al9  1  0.156704  0.973371  0.816087  1
  Al  Al10  1  0.152858  0.344064  0.809406  1
  Al  Al11  1  0.533403  0.343521  0.189594  1
  Al  Al12  1  0.843676  0.655009  0.810387  1
  Al  Al13  1  0.844631  0.031710  0.188242  1
  Al  Al14  1  0.841368  0.656832  0.183509  1
  Al  Al15  1  0.474799  0.658216  0.816839  1
  Al  Al16  1  0.380937  0.121350  0.259686  1
  Al  Al17  1  0.860733  0.120443  0.739193  1
  Al  Al18  1  0.620136  0.876957  0.256445  1
  Al  Al19  1  0.619361  0.363019  0.742523  1
  Al  Al20  1  0.618465  0.877875  0.741227  1
  Al  Al21  1  0.137296  0.878992  0.259838  1
  Ge  Ge22  1  0.996595  0.496258  0.500307  1
  Ru  Ru23  1  0.001211  0.999577  0.501228  1
  Ru  Ru24  1  0.498770  0.000495  0.999101  1
  Ru  Ru25  1  0.497410  0.497837  0.999801  1
  Ru  Ru26  1  0.497867  0.499831  0.497777  1
  Rh  Rh27  1  0.000839  0.499908  0.000652  1
  Rh  Rh28  1  0.999583  0.999524  0.999585  1
  Rh  Rh29  1  0.498719  0.998517  0.499696  1
