# generated using pymatgen
data_Dy6CrCo17P12
_symmetry_space_group_name_H-M   'P 1'
_cell_length_a   3.68652800
_cell_length_b   10.51463300
_cell_length_c   12.18430800
_cell_angle_alpha   90.00000000
_cell_angle_beta   90.00000000
_cell_angle_gamma   90.00000000
_symmetry_Int_Tables_number   1
_chemical_formula_structural   Dy6CrCo17P12
_chemical_formula_sum   'Dy6 Cr1 Co17 P12'
_cell_volume   472.29410439
_cell_formula_units_Z   1
loop_
 _symmetry_equiv_pos_site_id
 _symmetry_equiv_pos_as_xyz
  1  'x, y, z'
loop_
 _atom_site_type_symbol
 _atom_site_label
 _atom_site_symmetry_multiplicity
 _atom_site_fract_x
 _atom_site_fract_y
 _atom_site_fract_z
 _atom_site_occupancy
  Dy  Dy0  1  0.000000  0.500000  0.522874  1
  Dy  Dy1  1  0.500000  0.000000  0.477534  1
  Dy  Dy2  1  0.500000  0.817428  0.206229  1
  Dy  Dy3  1  0.500000  0.182572  0.206229  1
  Dy  Dy4  1  0.000000  0.682337  0.795354  1
  Dy  Dy5  1  0.000000  0.317663  0.795354  1
  Cr  Cr6  1  0.500000  0.500000  0.155614  1
  Co  Co7  1  0.000000  0.500000  0.987454  1
  Co  Co8  1  0.500000  0.000000  0.014485  1
  Co  Co9  1  0.500000  0.296698  0.430537  1
  Co  Co10  1  0.500000  0.703302  0.430537  1
  Co  Co11  1  0.000000  0.203068  0.569075  1
  Co  Co12  1  0.000000  0.796932  0.569075  1
  Co  Co13  1  0.500000  0.879226  0.708964  1
  Co  Co14  1  0.500000  0.120774  0.708964  1
  Co  Co15  1  0.000000  0.620314  0.291005  1
  Co  Co16  1  0.000000  0.379686  0.291005  1
  Co  Co17  1  0.500000  0.332977  0.993497  1
  Co  Co18  1  0.500000  0.667023  0.993497  1
  Co  Co19  1  0.000000  0.166846  0.005928  1
  Co  Co20  1  0.000000  0.833154  0.005928  1
  Co  Co21  1  0.000000  0.000000  0.840047  1
  Co  Co22  1  0.500000  0.500000  0.702834  1
  Co  Co23  1  0.000000  0.000000  0.296478  1
  P  P24  1  0.500000  0.310846  0.616058  1
  P  P25  1  0.500000  0.689154  0.616058  1
  P  P26  1  0.000000  0.188873  0.384237  1
  P  P27  1  0.000000  0.811127  0.384237  1
  P  P28  1  0.500000  0.500000  0.882225  1
  P  P29  1  0.000000  0.000000  0.117167  1
  P  P30  1  0.500000  0.848818  0.892522  1
  P  P31  1  0.500000  0.151182  0.892522  1
  P  P32  1  0.000000  0.653504  0.106986  1
  P  P33  1  0.000000  0.346496  0.106986  1
  P  P34  1  0.500000  0.500000  0.346352  1
  P  P35  1  0.000000  0.000000  0.656148  1
