# generated using pymatgen
data_TbEr2Pa(CdNi2)2
_symmetry_space_group_name_H-M   'P 1'
_cell_length_a   7.44012200
_cell_length_b   7.44780504
_cell_length_c   3.55000100
_cell_angle_alpha   90.00000000
_cell_angle_beta   90.00000000
_cell_angle_gamma   92.20963189
_symmetry_Int_Tables_number   1
_chemical_formula_structural   TbEr2Pa(CdNi2)2
_chemical_formula_sum   'Tb1 Er2 Pa1 Cd2 Ni4'
_cell_volume   196.56844040
_cell_formula_units_Z   1
loop_
 _symmetry_equiv_pos_site_id
 _symmetry_equiv_pos_as_xyz
  1  'x, y, z'
loop_
 _atom_site_type_symbol
 _atom_site_label
 _atom_site_symmetry_multiplicity
 _atom_site_fract_x
 _atom_site_fract_y
 _atom_site_fract_z
 _atom_site_occupancy
  Tb  Tb0  1  0.829931  0.672794  0.500000  1
  Er  Er1  1  0.325517  0.825600  0.500000  1
  Er  Er2  1  0.172744  0.329756  0.500000  1
  Pa  Pa3  1  0.669898  0.170537  0.500000  1
  Cd  Cd4  1  0.006372  0.998506  0.000000  1
  Cd  Cd5  1  0.497393  0.505519  0.000000  1
  Ni  Ni6  1  0.111908  0.610691  0.000000  1
  Ni  Ni7  1  0.860369  0.359556  0.000000  1
  Ni  Ni8  1  0.629551  0.897009  0.000000  1
  Ni  Ni9  1  0.396317  0.130030  0.000000  1
