# generated using pymatgen
data_Nb6ReSi6MoW4
_symmetry_space_group_name_H-M   'P 1'
_cell_length_a   7.71380792
_cell_length_b   7.71970300
_cell_length_c   7.71374868
_cell_angle_alpha   126.45083556
_cell_angle_beta   128.50538256
_cell_angle_gamma   77.46638148
_symmetry_Int_Tables_number   1
_chemical_formula_structural   Nb6ReSi6MoW4
_chemical_formula_sum   'Nb6 Re1 Si6 Mo1 W4'
_cell_volume   280.47689814
_cell_formula_units_Z   1
loop_
 _symmetry_equiv_pos_site_id
 _symmetry_equiv_pos_as_xyz
  1  'x, y, z'
loop_
 _atom_site_type_symbol
 _atom_site_label
 _atom_site_symmetry_multiplicity
 _atom_site_fract_x
 _atom_site_fract_y
 _atom_site_fract_z
 _atom_site_occupancy
  Nb  Nb0  1  0.550166  0.091865  0.041605  1
  Nb  Nb1  1  0.449300  0.495096  0.547180  1
  Nb  Nb2  1  0.947911  0.495099  0.045795  1
  Nb  Nb3  1  0.050256  0.091863  0.541695  1
  Nb  Nb4  1  0.752745  0.902839  0.651959  1
  Nb  Nb5  1  0.250880  0.902840  0.150096  1
  Re  Re6  1  0.370510  0.496037  0.125521  1
  Si  Si7  1  0.746561  0.499327  0.248602  1
  Si  Si8  1  0.250712  0.499315  0.752755  1
  Si  Si9  1  0.333564  0.825195  0.491630  1
  Si  Si10  1  0.667454  0.163363  0.495910  1
  Si  Si11  1  0.833422  0.828731  0.995307  1
  Si  Si12  1  0.169216  0.166475  0.997256  1
  Mo  Mo13  1  0.628639  0.754014  0.125382  1
  W  W14  1  0.499246  0.238532  0.739278  1
  W  W15  1  0.000527  0.240736  0.240210  1
  W  W16  1  0.129043  0.754679  0.625667  1
  W  W17  1  0.869844  0.496194  0.626352  1
