# generated using pymatgen
data_Zr6Sc4Al12Pt4Rh3
_symmetry_space_group_name_H-M   'P 1'
_cell_length_a   8.94777932
_cell_length_b   8.94777919
_cell_length_c   8.95384803
_cell_angle_alpha   60.02242222
_cell_angle_beta   60.02242088
_cell_angle_gamma   59.99999999
_symmetry_Int_Tables_number   1
_chemical_formula_structural   Zr6Sc4Al12Pt4Rh3
_chemical_formula_sum   'Zr6 Sc4 Al12 Pt4 Rh3'
_cell_volume   507.07516877
_cell_formula_units_Z   1
loop_
 _symmetry_equiv_pos_site_id
 _symmetry_equiv_pos_as_xyz
  1  'x, y, z'
loop_
 _atom_site_type_symbol
 _atom_site_label
 _atom_site_symmetry_multiplicity
 _atom_site_fract_x
 _atom_site_fract_y
 _atom_site_fract_z
 _atom_site_occupancy
  Zr  Zr0  1  0.683247  0.683247  0.316213  1
  Zr  Zr1  1  0.317292  0.683247  0.316213  1
  Zr  Zr2  1  0.683247  0.317292  0.316213  1
  Zr  Zr3  1  0.316747  0.316747  0.683874  1
  Zr  Zr4  1  0.682632  0.316747  0.683874  1
  Zr  Zr5  1  0.316747  0.682632  0.683874  1
  Sc  Sc6  1  0.880545  0.880545  0.358363  1
  Sc  Sc7  1  0.878086  0.360026  0.883802  1
  Sc  Sc8  1  0.360026  0.878086  0.883802  1
  Sc  Sc9  1  0.878086  0.878086  0.883802  1
  Al  Al10  1  0.121645  0.121645  0.635064  1
  Al  Al11  1  0.123763  0.633704  0.118770  1
  Al  Al12  1  0.633704  0.123763  0.118770  1
  Al  Al13  1  0.123763  0.123763  0.118770  1
  Al  Al14  1  0.663015  0.663015  0.010954  1
  Al  Al15  1  0.660892  0.012725  0.665491  1
  Al  Al16  1  0.012725  0.660892  0.665491  1
  Al  Al17  1  0.660892  0.660892  0.665491  1
  Al  Al18  1  0.336296  0.336296  0.991114  1
  Al  Al19  1  0.338338  0.990032  0.333293  1
  Al  Al20  1  0.990032  0.338338  0.333293  1
  Al  Al21  1  0.338338  0.338338  0.333293  1
  Pt  Pt22  1  0.000144  0.000144  0.999569  1
  Pt  Pt23  1  0.000934  0.000934  0.499038  1
  Pt  Pt24  1  0.499093  0.000934  0.499038  1
  Pt  Pt25  1  0.000934  0.499093  0.499038  1
  Rh  Rh26  1  0.498995  0.498995  0.001164  1
  Rh  Rh27  1  0.000846  0.498995  0.001164  1
  Rh  Rh28  1  0.498995  0.000846  0.001164  1
