# generated using pymatgen
data_Ta9TiSi6C
_symmetry_space_group_name_H-M   'P 1'
_cell_length_a   7.53964932
_cell_length_b   7.54698363
_cell_length_c   5.27235037
_cell_angle_alpha   90.04249390
_cell_angle_beta   89.97872792
_cell_angle_gamma   120.03216332
_symmetry_Int_Tables_number   1
_chemical_formula_structural   Ta9TiSi6C
_chemical_formula_sum   'Ta9 Ti1 Si6 C1'
_cell_volume   259.72782821
_cell_formula_units_Z   1
loop_
 _symmetry_equiv_pos_site_id
 _symmetry_equiv_pos_as_xyz
  1  'x, y, z'
loop_
 _atom_site_type_symbol
 _atom_site_label
 _atom_site_symmetry_multiplicity
 _atom_site_fract_x
 _atom_site_fract_y
 _atom_site_fract_z
 _atom_site_occupancy
  Ta  Ta0  1  0.240167  0.240530  0.255111  1
  Ta  Ta1  1  0.759833  0.000363  0.255111  1
  Ta  Ta2  1  0.000000  0.241982  0.746671  1
  Ta  Ta3  1  0.759296  0.759054  0.743123  1
  Ta  Ta4  1  0.240704  0.999758  0.743123  1
  Ta  Ta5  1  0.334049  0.667083  0.000328  1
  Ta  Ta6  1  0.665951  0.333033  0.000328  1
  Ta  Ta7  1  0.666146  0.332071  0.499712  1
  Ta  Ta8  1  0.333854  0.665926  0.499712  1
  Ti  Ti9  1  0.000000  0.758797  0.256998  1
  Si  Si10  1  0.000000  0.403079  0.240811  1
  Si  Si11  1  0.603013  0.600492  0.241036  1
  Si  Si12  1  0.396987  0.997479  0.241036  1
  Si  Si13  1  0.000000  0.600681  0.759969  1
  Si  Si14  1  0.400449  0.400271  0.758997  1
  Si  Si15  1  0.599551  0.999822  0.758997  1
  C  C16  1  0.000000  0.999579  0.498938  1
