# generated using pymatgen
data_DyHo5ReSb2
_symmetry_space_group_name_H-M   'P 1'
_cell_length_a   8.12461000
_cell_length_b   8.12405641
_cell_length_c   4.30899700
_cell_angle_alpha   90.00000000
_cell_angle_beta   90.00000000
_cell_angle_gamma   120.00224599
_symmetry_Int_Tables_number   1
_chemical_formula_structural   DyHo5ReSb2
_chemical_formula_sum   'Dy1 Ho5 Re1 Sb2'
_cell_volume   246.30455730
_cell_formula_units_Z   1
loop_
 _symmetry_equiv_pos_site_id
 _symmetry_equiv_pos_as_xyz
  1  'x, y, z'
loop_
 _atom_site_type_symbol
 _atom_site_label
 _atom_site_symmetry_multiplicity
 _atom_site_fract_x
 _atom_site_fract_y
 _atom_site_fract_z
 _atom_site_occupancy
  Dy  Dy0  1  0.605030  0.000000  0.500000  1
  Ho  Ho1  1  0.235869  0.000000  0.000000  1
  Ho  Ho2  1  0.764110  0.764001  0.000000  1
  Ho  Ho3  1  0.000109  0.235999  0.000000  1
  Ho  Ho4  1  0.394812  0.394835  0.500000  1
  Ho  Ho5  1  0.999977  0.605165  0.500000  1
  Re  Re6  1  0.000206  0.000000  0.500000  1
  Sb  Sb7  1  0.333218  0.666551  0.000000  1
  Sb  Sb8  1  0.666669  0.333449  0.000000  1
