# generated using pymatgen
data_Zr2(ScSb)3
_symmetry_space_group_name_H-M   'P 1'
_cell_length_a   8.53401500
_cell_length_b   8.53401457
_cell_length_c   5.83532900
_cell_angle_alpha   90.00000000
_cell_angle_beta   90.00000000
_cell_angle_gamma   120.00000555
_symmetry_Int_Tables_number   1
_chemical_formula_structural   Zr2(ScSb)3
_chemical_formula_sum   'Zr4 Sc6 Sb6'
_cell_volume   368.04653733
_cell_formula_units_Z   2
loop_
 _symmetry_equiv_pos_site_id
 _symmetry_equiv_pos_as_xyz
  1  'x, y, z'
loop_
 _atom_site_type_symbol
 _atom_site_label
 _atom_site_symmetry_multiplicity
 _atom_site_fract_x
 _atom_site_fract_y
 _atom_site_fract_z
 _atom_site_occupancy
  Zr  Zr0  1  0.666667  0.333333  0.000000  1
  Zr  Zr1  1  0.333333  0.666667  0.000000  1
  Zr  Zr2  1  0.333333  0.666667  0.500000  1
  Zr  Zr3  1  0.666667  0.333333  0.500000  1
  Sc  Sc4  1  0.748076  0.748076  0.750000  1
  Sc  Sc5  1  0.251924  0.000000  0.750000  1
  Sc  Sc6  1  0.000000  0.251924  0.750000  1
  Sc  Sc7  1  0.251924  0.251924  0.250000  1
  Sc  Sc8  1  0.748076  0.000000  0.250000  1
  Sc  Sc9  1  0.000000  0.748076  0.250000  1
  Sb  Sb10  1  0.384262  0.384262  0.750000  1
  Sb  Sb11  1  0.615738  0.000000  0.750000  1
  Sb  Sb12  1  0.000000  0.615738  0.750000  1
  Sb  Sb13  1  0.615738  0.615738  0.250000  1
  Sb  Sb14  1  0.384262  0.000000  0.250000  1
  Sb  Sb15  1  0.000000  0.384262  0.250000  1
