# generated using pymatgen
data_Er4RuI4
_symmetry_space_group_name_H-M   'P 1'
_cell_length_a   10.91790339
_cell_length_b   10.91790562
_cell_length_c   6.15844906
_cell_angle_alpha   89.35491690
_cell_angle_beta   89.35491383
_cell_angle_gamma   88.84903431
_symmetry_Int_Tables_number   1
_chemical_formula_structural   Er4RuI4
_chemical_formula_sum   'Er8 Ru2 I8'
_cell_volume   733.85174615
_cell_formula_units_Z   2
loop_
 _symmetry_equiv_pos_site_id
 _symmetry_equiv_pos_as_xyz
  1  'x, y, z'
loop_
 _atom_site_type_symbol
 _atom_site_label
 _atom_site_symmetry_multiplicity
 _atom_site_fract_x
 _atom_site_fract_y
 _atom_site_fract_z
 _atom_site_occupancy
  Er  Er0  1  0.203676  0.915842  0.997256  1
  Er  Er1  1  0.796324  0.084158  0.002744  1
  Er  Er2  1  0.084158  0.796324  0.502744  1
  Er  Er3  1  0.915842  0.203676  0.497256  1
  Er  Er4  1  0.797971  0.920146  0.506452  1
  Er  Er5  1  0.202029  0.079854  0.493548  1
  Er  Er6  1  0.079854  0.202029  0.993548  1
  Er  Er7  1  0.920146  0.797971  0.006452  1
  Ru  Ru8  1  0.000005  0.999995  0.250000  1
  Ru  Ru9  1  0.999995  0.000005  0.750000  1
  I  I10  1  0.367081  0.840215  0.502351  1
  I  I11  1  0.632919  0.159785  0.497649  1
  I  I12  1  0.159785  0.632919  0.997649  1
  I  I13  1  0.840215  0.367081  0.002351  1
  I  I14  1  0.363397  0.152531  0.005055  1
  I  I15  1  0.636603  0.847469  0.994945  1
  I  I16  1  0.847469  0.636603  0.494945  1
  I  I17  1  0.152531  0.363397  0.505055  1
