# generated using pymatgen
data_Hf12Th8Si15Au
_symmetry_space_group_name_H-M   'P 1'
_cell_length_a   7.38532662
_cell_length_b   7.43705341
_cell_length_c   13.67146009
_cell_angle_alpha   90.11386049
_cell_angle_beta   89.84759669
_cell_angle_gamma   89.88664869
_symmetry_Int_Tables_number   1
_chemical_formula_structural   Hf12Th8Si15Au
_chemical_formula_sum   'Hf12 Th8 Si15 Au1'
_cell_volume   750.90026622
_cell_formula_units_Z   1
loop_
 _symmetry_equiv_pos_site_id
 _symmetry_equiv_pos_as_xyz
  1  'x, y, z'
loop_
 _atom_site_type_symbol
 _atom_site_label
 _atom_site_symmetry_multiplicity
 _atom_site_fract_x
 _atom_site_fract_y
 _atom_site_fract_z
 _atom_site_occupancy
  Hf  Hf0  1  0.172449  0.173187  0.998559  1
  Hf  Hf1  1  0.825906  0.826226  0.500645  1
  Hf  Hf2  1  0.328417  0.680903  0.248139  1
  Hf  Hf3  1  0.673553  0.324940  0.750580  1
  Hf  Hf4  1  0.151519  0.993596  0.376257  1
  Hf  Hf5  1  0.844482  0.002019  0.873921  1
  Hf  Hf6  1  0.503762  0.654110  0.624807  1
  Hf  Hf7  1  0.345115  0.497503  0.875302  1
  Hf  Hf8  1  0.496756  0.346902  0.118937  1
  Hf  Hf9  1  0.658773  0.511056  0.379862  1
  Hf  Hf10  1  0.998358  0.154162  0.625566  1
  Hf  Hf11  1  0.000741  0.845859  0.123759  1
  Th  Th12  1  0.994358  0.341399  0.214996  1
  Th  Th13  1  0.004135  0.656033  0.715573  1
  Th  Th14  1  0.156732  0.498388  0.469139  1
  Th  Th15  1  0.503265  0.842865  0.032392  1
  Th  Th16  1  0.841551  0.504915  0.966101  1
  Th  Th17  1  0.497458  0.155735  0.537669  1
  Th  Th18  1  0.343390  0.996539  0.784051  1
  Th  Th19  1  0.658691  0.998674  0.284243  1
  Si  Si20  1  0.633269  0.700935  0.814907  1
  Si  Si21  1  0.202056  0.868069  0.565935  1
  Si  Si22  1  0.131395  0.798179  0.933910  1
  Si  Si23  1  0.797814  0.132992  0.063982  1
  Si  Si24  1  0.867685  0.201614  0.435691  1
  Si  Si25  1  0.298273  0.367896  0.685754  1
  Si  Si26  1  0.700136  0.633128  0.184593  1
  Si  Si27  1  0.287990  0.044802  0.182953  1
  Si  Si28  1  0.711956  0.951738  0.685396  1
  Si  Si29  1  0.451962  0.791929  0.435761  1
  Si  Si30  1  0.209053  0.547476  0.064982  1
  Si  Si31  1  0.545375  0.209762  0.933327  1
  Si  Si32  1  0.789187  0.451295  0.566704  1
  Si  Si33  1  0.045600  0.289946  0.815198  1
  Si  Si34  1  0.955572  0.707903  0.314202  1
  Au  Au35  1  0.373271  0.297325  0.316209  1
