# generated using pymatgen
data_Ho2Tm2ReB12Ir
_symmetry_space_group_name_H-M   'P 1'
_cell_length_a   3.64394600
_cell_length_b   9.10700336
_cell_length_c   11.49845703
_cell_angle_alpha   90.29073031
_cell_angle_beta   90.00000000
_cell_angle_gamma   90.00000000
_symmetry_Int_Tables_number   1
_chemical_formula_structural   Ho2Tm2ReB12Ir
_chemical_formula_sum   'Ho4 Tm4 Re2 B24 Ir2'
_cell_volume   381.57631090
_cell_formula_units_Z   2
loop_
 _symmetry_equiv_pos_site_id
 _symmetry_equiv_pos_as_xyz
  1  'x, y, z'
loop_
 _atom_site_type_symbol
 _atom_site_label
 _atom_site_symmetry_multiplicity
 _atom_site_fract_x
 _atom_site_fract_y
 _atom_site_fract_z
 _atom_site_occupancy
  Ho  Ho0  1  0.000000  0.316781  0.409882  1
  Ho  Ho1  1  0.000000  0.683219  0.590118  1
  Ho  Ho2  1  0.000000  0.826154  0.082531  1
  Ho  Ho3  1  0.000000  0.173846  0.917469  1
  Tm  Tm4  1  0.000000  0.946306  0.372391  1
  Tm  Tm5  1  0.000000  0.053694  0.627609  1
  Tm  Tm6  1  0.000000  0.441636  0.125724  1
  Tm  Tm7  1  0.000000  0.558364  0.874276  1
  Re  Re8  1  0.000000  0.138482  0.180134  1
  Re  Re9  1  0.000000  0.861518  0.819866  1
  B  B10  1  0.500000  0.554214  0.434017  1
  B  B11  1  0.500000  0.445786  0.565983  1
  B  B12  1  0.500000  0.053302  0.067215  1
  B  B13  1  0.500000  0.946698  0.932785  1
  B  B14  1  0.500000  0.750068  0.421184  1
  B  B15  1  0.500000  0.249932  0.578816  1
  B  B16  1  0.500000  0.248632  0.080648  1
  B  B17  1  0.500000  0.751368  0.919352  1
  B  B18  1  0.500000  0.791409  0.265945  1
  B  B19  1  0.500000  0.208591  0.734055  1
  B  B20  1  0.500000  0.292742  0.234382  1
  B  B21  1  0.500000  0.707258  0.765618  1
  B  B22  1  0.500000  0.631243  0.183673  1
  B  B23  1  0.500000  0.368757  0.816327  1
  B  B24  1  0.500000  0.131170  0.315121  1
  B  B25  1  0.500000  0.868830  0.684879  1
  B  B26  1  0.500000  0.982239  0.213460  1
  B  B27  1  0.500000  0.017761  0.786540  1
  B  B28  1  0.500000  0.482023  0.286978  1
  B  B29  1  0.500000  0.517977  0.713022  1
  B  B30  1  0.500000  0.605248  0.029525  1
  B  B31  1  0.500000  0.394752  0.970475  1
  B  B32  1  0.500000  0.105928  0.471316  1
  B  B33  1  0.500000  0.894072  0.528684  1
  Ir  Ir34  1  0.000000  0.636929  0.321670  1
  Ir  Ir35  1  0.000000  0.363071  0.678330  1
