# generated using pymatgen
data_Sc4SeI6
_symmetry_space_group_name_H-M   'P 1'
_cell_length_a   4.05597500
_cell_length_b   13.46496500
_cell_length_c   14.11529800
_cell_angle_alpha   90.00000000
_cell_angle_beta   90.00000000
_cell_angle_gamma   90.00000000
_symmetry_Int_Tables_number   1
_chemical_formula_structural   Sc4SeI6
_chemical_formula_sum   'Sc8 Se2 I12'
_cell_volume   770.88669423
_cell_formula_units_Z   2
loop_
 _symmetry_equiv_pos_site_id
 _symmetry_equiv_pos_as_xyz
  1  'x, y, z'
loop_
 _atom_site_type_symbol
 _atom_site_label
 _atom_site_symmetry_multiplicity
 _atom_site_fract_x
 _atom_site_fract_y
 _atom_site_fract_z
 _atom_site_occupancy
  Sc  Sc0  1  0.000000  0.101230  0.078087  1
  Sc  Sc1  1  0.000000  0.898770  0.921913  1
  Sc  Sc2  1  0.000000  0.601230  0.421913  1
  Sc  Sc3  1  0.000000  0.398770  0.578087  1
  Sc  Sc4  1  0.500000  0.122215  0.855051  1
  Sc  Sc5  1  0.500000  0.877785  0.144949  1
  Sc  Sc6  1  0.500000  0.622215  0.644949  1
  Sc  Sc7  1  0.500000  0.377785  0.355051  1
  Se  Se8  1  0.500000  0.000000  0.000000  1
  Se  Se9  1  0.500000  0.500000  0.500000  1
  I  I10  1  0.500000  0.265886  0.674140  1
  I  I11  1  0.500000  0.734114  0.325860  1
  I  I12  1  0.500000  0.765886  0.825860  1
  I  I13  1  0.500000  0.234114  0.174140  1
  I  I14  1  0.000000  0.258536  0.930580  1
  I  I15  1  0.000000  0.741464  0.069420  1
  I  I16  1  0.000000  0.485025  0.243821  1
  I  I17  1  0.000000  0.514975  0.756179  1
  I  I18  1  0.000000  0.985025  0.256179  1
  I  I19  1  0.000000  0.014975  0.743821  1
  I  I20  1  0.000000  0.241464  0.430580  1
  I  I21  1  0.000000  0.758536  0.569420  1
