# generated using pymatgen
data_Yb3LuGa18CuIr5
_symmetry_space_group_name_H-M   'P 1'
_cell_length_a   7.55747543
_cell_length_b   7.57043683
_cell_length_c   9.53570259
_cell_angle_alpha   90.27787154
_cell_angle_beta   90.34067188
_cell_angle_gamma   119.98470004
_symmetry_Int_Tables_number   1
_chemical_formula_structural   Yb3LuGa18CuIr5
_chemical_formula_sum   'Yb3 Lu1 Ga18 Cu1 Ir5'
_cell_volume   472.52257772
_cell_formula_units_Z   1
loop_
 _symmetry_equiv_pos_site_id
 _symmetry_equiv_pos_as_xyz
  1  'x, y, z'
loop_
 _atom_site_type_symbol
 _atom_site_label
 _atom_site_symmetry_multiplicity
 _atom_site_fract_x
 _atom_site_fract_y
 _atom_site_fract_z
 _atom_site_occupancy
  Yb  Yb0  1  0.002502  0.333561  0.749256  1
  Yb  Yb1  1  0.665904  0.997034  0.250109  1
  Yb  Yb2  1  0.334378  0.004865  0.749523  1
  Lu  Lu3  1  0.999666  0.664904  0.250438  1
  Ga  Ga4  1  0.122071  0.119772  0.248061  1
  Ga  Ga5  1  0.876238  0.877258  0.751145  1
  Ga  Ga6  1  0.997347  0.331829  0.082319  1
  Ga  Ga7  1  0.000766  0.665826  0.920456  1
  Ga  Ga8  1  0.001449  0.667475  0.577693  1
  Ga  Ga9  1  0.333850  0.997424  0.422067  1
  Ga  Ga10  1  0.996687  0.331551  0.419961  1
  Ga  Ga11  1  0.666023  0.001141  0.575859  1
  Ga  Ga12  1  0.664966  0.000191  0.922333  1
  Ga  Ga13  1  0.333896  0.998240  0.080209  1
  Ga  Ga14  1  0.332443  0.333651  0.559169  1
  Ga  Ga15  1  0.669035  0.668662  0.431975  1
  Ga  Ga16  1  0.670937  0.671172  0.070920  1
  Ga  Ga17  1  0.335621  0.336146  0.939921  1
  Ga  Ga18  1  0.335647  0.543282  0.249365  1
  Ga  Ga19  1  0.662728  0.455311  0.750471  1
  Ga  Ga20  1  0.545554  0.335982  0.249848  1
  Ga  Ga21  1  0.454750  0.664233  0.750270  1
  Cu  Cu22  1  0.999845  0.000753  0.000032  1
  Ir  Ir23  1  0.671797  0.330450  0.001176  1
  Ir  Ir24  1  0.327447  0.670306  0.001353  1
  Ir  Ir25  1  0.327847  0.669977  0.498233  1
  Ir  Ir26  1  0.670900  0.329289  0.499475  1
  Ir  Ir27  1  0.999708  0.999713  0.498363  1
