# generated using pymatgen
data_Dy3Er9Ni4
_symmetry_space_group_name_H-M   'P 1'
_cell_length_a   6.31712428
_cell_length_b   6.77721328
_cell_length_c   9.44875200
_cell_angle_alpha   90.00000000
_cell_angle_beta   90.00000000
_cell_angle_gamma   90.03335939
_symmetry_Int_Tables_number   1
_chemical_formula_structural   Dy3Er9Ni4
_chemical_formula_sum   'Dy3 Er9 Ni4'
_cell_volume   404.52461249
_cell_formula_units_Z   1
loop_
 _symmetry_equiv_pos_site_id
 _symmetry_equiv_pos_as_xyz
  1  'x, y, z'
loop_
 _atom_site_type_symbol
 _atom_site_label
 _atom_site_symmetry_multiplicity
 _atom_site_fract_x
 _atom_site_fract_y
 _atom_site_fract_z
 _atom_site_occupancy
  Dy  Dy0  1  0.862227  0.529916  0.250000  1
  Dy  Dy1  1  0.637091  0.030623  0.250000  1
  Dy  Dy2  1  0.138426  0.469866  0.750000  1
  Er  Er3  1  0.320467  0.677892  0.065377  1
  Er  Er4  1  0.179894  0.177178  0.434925  1
  Er  Er5  1  0.679335  0.322311  0.565890  1
  Er  Er6  1  0.820005  0.822789  0.934434  1
  Er  Er7  1  0.679335  0.322311  0.934110  1
  Er  Er8  1  0.820005  0.822789  0.565566  1
  Er  Er9  1  0.320467  0.677892  0.434623  1
  Er  Er10  1  0.179894  0.177178  0.065075  1
  Er  Er11  1  0.362323  0.968291  0.750000  1
  Ni  Ni12  1  0.053875  0.891173  0.250000  1
  Ni  Ni13  1  0.444182  0.391477  0.250000  1
  Ni  Ni14  1  0.948160  0.108498  0.750000  1
  Ni  Ni15  1  0.554315  0.609818  0.750000  1
