# generated using pymatgen
data_NiAg4Pd3O8
_symmetry_space_group_name_H-M   'P 1'
_cell_length_a   5.45112940
_cell_length_b   6.28358296
_cell_length_c   7.31153228
_cell_angle_alpha   64.09737834
_cell_angle_beta   104.73230966
_cell_angle_gamma   90.08370635
_symmetry_Int_Tables_number   1
_chemical_formula_structural   NiAg4Pd3O8
_chemical_formula_sum   'Ni1 Ag4 Pd3 O8'
_cell_volume   216.13647194
_cell_formula_units_Z   1
loop_
 _symmetry_equiv_pos_site_id
 _symmetry_equiv_pos_as_xyz
  1  'x, y, z'
loop_
 _atom_site_type_symbol
 _atom_site_label
 _atom_site_symmetry_multiplicity
 _atom_site_fract_x
 _atom_site_fract_y
 _atom_site_fract_z
 _atom_site_occupancy
  Ni  Ni0  1  0.000480  0.500188  0.499564  1
  Ag  Ag1  1  0.999816  0.999943  0.000051  1
  Ag  Ag2  1  0.498425  0.250587  0.998818  1
  Ag  Ag3  1  0.000039  0.499973  0.000023  1
  Ag  Ag4  1  0.501464  0.749383  0.001231  1
  Pd  Pd5  1  0.500043  0.746899  0.500071  1
  Pd  Pd6  1  0.999973  0.000047  0.500059  1
  Pd  Pd7  1  0.499993  0.252968  0.500023  1
  O  O8  1  0.887242  0.669070  0.662604  1
  O  O9  1  0.390421  0.916597  0.665145  1
  O  O10  1  0.886967  0.165187  0.662468  1
  O  O11  1  0.390142  0.416811  0.664585  1
  O  O12  1  0.112948  0.834937  0.337554  1
  O  O13  1  0.609500  0.083359  0.334981  1
  O  O14  1  0.112705  0.331079  0.337275  1
  O  O15  1  0.609846  0.582973  0.335547  1
