# generated using pymatgen
data_Ce3U5B24(MoW)2
_symmetry_space_group_name_H-M   'P 1'
_cell_length_a   3.73173700
_cell_length_b   9.32409702
_cell_length_c   11.43692901
_cell_angle_alpha   89.97966535
_cell_angle_beta   90.00000000
_cell_angle_gamma   90.00000000
_symmetry_Int_Tables_number   1
_chemical_formula_structural   Ce3U5B24(MoW)2
_chemical_formula_sum   'Ce3 U5 B24 Mo2 W2'
_cell_volume   397.94880991
_cell_formula_units_Z   1
loop_
 _symmetry_equiv_pos_site_id
 _symmetry_equiv_pos_as_xyz
  1  'x, y, z'
loop_
 _atom_site_type_symbol
 _atom_site_label
 _atom_site_symmetry_multiplicity
 _atom_site_fract_x
 _atom_site_fract_y
 _atom_site_fract_z
 _atom_site_occupancy
  Ce  Ce0  1  0.000000  0.334932  0.408103  1
  Ce  Ce1  1  0.000000  0.664997  0.592126  1
  Ce  Ce2  1  0.000000  0.835000  0.091858  1
  U  U3  1  0.000000  0.164886  0.907704  1
  U  U4  1  0.000000  0.956542  0.394614  1
  U  U5  1  0.000000  0.043260  0.605284  1
  U  U6  1  0.000000  0.455960  0.104663  1
  U  U7  1  0.000000  0.543238  0.895117  1
  B  B8  1  0.500000  0.552747  0.431205  1
  B  B9  1  0.500000  0.446436  0.570047  1
  B  B10  1  0.500000  0.053857  0.066611  1
  B  B11  1  0.500000  0.950992  0.930914  1
  B  B12  1  0.500000  0.745561  0.422842  1
  B  B13  1  0.500000  0.254318  0.577907  1
  B  B14  1  0.500000  0.243917  0.075517  1
  B  B15  1  0.500000  0.755272  0.922376  1
  B  B16  1  0.500000  0.803686  0.274002  1
  B  B17  1  0.500000  0.195436  0.728053  1
  B  B18  1  0.500000  0.303061  0.225037  1
  B  B19  1  0.500000  0.697345  0.774545  1
  B  B20  1  0.500000  0.643161  0.187292  1
  B  B21  1  0.500000  0.354269  0.813492  1
  B  B22  1  0.500000  0.143640  0.311614  1
  B  B23  1  0.500000  0.857169  0.688220  1
  B  B24  1  0.500000  0.989586  0.219565  1
  B  B25  1  0.500000  0.013877  0.781835  1
  B  B26  1  0.500000  0.488525  0.279772  1
  B  B27  1  0.500000  0.510821  0.720637  1
  B  B28  1  0.500000  0.637225  0.037390  1
  B  B29  1  0.500000  0.358052  0.960938  1
  B  B30  1  0.500000  0.137191  0.461798  1
  B  B31  1  0.500000  0.863471  0.538209  1
  Mo  Mo32  1  0.000000  0.146994  0.178479  1
  Mo  Mo33  1  0.000000  0.856771  0.819587  1
  W  W34  1  0.000000  0.646955  0.318529  1
  W  W35  1  0.000000  0.350851  0.684118  1
