# generated using pymatgen
data_Zr3Pa(ZnRh)4
_symmetry_space_group_name_H-M   'P 1'
_cell_length_a   3.70416300
_cell_length_b   6.95899760
_cell_length_c   8.25317075
_cell_angle_alpha   91.34910239
_cell_angle_beta   90.00000000
_cell_angle_gamma   90.00000000
_symmetry_Int_Tables_number   1
_chemical_formula_structural   Zr3Pa(ZnRh)4
_chemical_formula_sum   'Zr3 Pa1 Zn4 Rh4'
_cell_volume   212.68516723
_cell_formula_units_Z   1
loop_
 _symmetry_equiv_pos_site_id
 _symmetry_equiv_pos_as_xyz
  1  'x, y, z'
loop_
 _atom_site_type_symbol
 _atom_site_label
 _atom_site_symmetry_multiplicity
 _atom_site_fract_x
 _atom_site_fract_y
 _atom_site_fract_z
 _atom_site_occupancy
  Zr  Zr0  1  0.750000  0.434684  0.804560  1
  Zr  Zr1  1  0.750000  0.934812  0.689885  1
  Zr  Zr2  1  0.250000  0.063391  0.324202  1
  Pa  Pa3  1  0.250000  0.558570  0.177179  1
  Zn  Zn4  1  0.250000  0.618410  0.566564  1
  Zn  Zn5  1  0.750000  0.372656  0.444135  1
  Zn  Zn6  1  0.750000  0.897063  0.060900  1
  Zn  Zn7  1  0.250000  0.126877  0.934117  1
  Rh  Rh8  1  0.250000  0.728173  0.875959  1
  Rh  Rh9  1  0.750000  0.280305  0.131345  1
  Rh  Rh10  1  0.750000  0.765541  0.363680  1
  Rh  Rh11  1  0.250000  0.219520  0.627476  1
