# generated using pymatgen
data_Tb3Y17(Bi2P)4
_symmetry_space_group_name_H-M   'P 1'
_cell_length_a   8.01957703
_cell_length_b   8.99669829
_cell_length_c   12.24152937
_cell_angle_alpha   89.97217898
_cell_angle_beta   90.00512406
_cell_angle_gamma   90.00780698
_symmetry_Int_Tables_number   1
_chemical_formula_structural   Tb3Y17(Bi2P)4
_chemical_formula_sum   'Tb3 Y17 Bi8 P4'
_cell_volume   883.22273823
_cell_formula_units_Z   1
loop_
 _symmetry_equiv_pos_site_id
 _symmetry_equiv_pos_as_xyz
  1  'x, y, z'
loop_
 _atom_site_type_symbol
 _atom_site_label
 _atom_site_symmetry_multiplicity
 _atom_site_fract_x
 _atom_site_fract_y
 _atom_site_fract_z
 _atom_site_occupancy
  Tb  Tb0  1  0.683143  0.450883  0.564878  1
  Tb  Tb1  1  0.817848  0.450841  0.064746  1
  Tb  Tb2  1  0.182296  0.548945  0.935342  1
  Y  Y3  1  0.853367  0.749951  0.795099  1
  Y  Y4  1  0.146693  0.250043  0.205052  1
  Y  Y5  1  0.353419  0.249939  0.704702  1
  Y  Y6  1  0.646869  0.750149  0.294880  1
  Y  Y7  1  0.378629  0.749610  0.700360  1
  Y  Y8  1  0.621621  0.250370  0.299552  1
  Y  Y9  1  0.878607  0.250445  0.799589  1
  Y  Y10  1  0.121395  0.749602  0.200594  1
  Y  Y11  1  0.956394  0.749378  0.501427  1
  Y  Y12  1  0.042628  0.250763  0.498465  1
  Y  Y13  1  0.457034  0.251420  0.998527  1
  Y  Y14  1  0.543082  0.748503  0.001588  1
  Y  Y15  1  0.682598  0.048104  0.565037  1
  Y  Y16  1  0.316981  0.951934  0.435157  1
  Y  Y17  1  0.183288  0.952157  0.935150  1
  Y  Y18  1  0.318645  0.548356  0.435516  1
  Y  Y19  1  0.816602  0.047864  0.064930  1
  Bi  Bi20  1  0.578943  0.490002  0.827497  1
  Bi  Bi21  1  0.420877  0.510086  0.172700  1
  Bi  Bi22  1  0.078691  0.510023  0.672122  1
  Bi  Bi23  1  0.421398  0.990141  0.171917  1
  Bi  Bi24  1  0.921249  0.490174  0.327880  1
  Bi  Bi25  1  0.578586  0.009850  0.828045  1
  Bi  Bi26  1  0.921579  0.009866  0.327952  1
  Bi  Bi27  1  0.078512  0.989957  0.671928  1
  P  P28  1  0.571803  0.751484  0.511903  1
  P  P29  1  0.427252  0.249231  0.487319  1
  P  P30  1  0.072100  0.247802  0.987816  1
  P  P31  1  0.927873  0.752126  0.012330  1
