# generated using pymatgen
data_Dy3YAl18(Ir2Pt)2
_symmetry_space_group_name_H-M   'P 1'
_cell_length_a   7.57052509
_cell_length_b   7.57126896
_cell_length_c   9.44887902
_cell_angle_alpha   89.95035228
_cell_angle_beta   89.94520973
_cell_angle_gamma   119.62861505
_symmetry_Int_Tables_number   1
_chemical_formula_structural   Dy3YAl18(Ir2Pt)2
_chemical_formula_sum   'Dy3 Y1 Al18 Ir4 Pt2'
_cell_volume   470.78001557
_cell_formula_units_Z   1
loop_
 _symmetry_equiv_pos_site_id
 _symmetry_equiv_pos_as_xyz
  1  'x, y, z'
loop_
 _atom_site_type_symbol
 _atom_site_label
 _atom_site_symmetry_multiplicity
 _atom_site_fract_x
 _atom_site_fract_y
 _atom_site_fract_z
 _atom_site_occupancy
  Dy  Dy0  1  0.995127  0.670468  0.250982  1
  Dy  Dy1  1  0.004943  0.329536  0.749008  1
  Dy  Dy2  1  0.670507  0.995163  0.250988  1
  Y  Y3  1  0.329667  0.005031  0.749030  1
  Al  Al4  1  0.127706  0.127708  0.250623  1
  Al  Al5  1  0.872255  0.872352  0.749375  1
  Al  Al6  1  0.000639  0.331383  0.077330  1
  Al  Al7  1  0.999271  0.668532  0.922678  1
  Al  Al8  1  0.999940  0.665030  0.574377  1
  Al  Al9  1  0.334907  0.999976  0.425517  1
  Al  Al10  1  0.999970  0.334880  0.425630  1
  Al  Al11  1  0.665199  0.000044  0.574352  1
  Al  Al12  1  0.668692  0.999382  0.922708  1
  Al  Al13  1  0.331415  0.000621  0.077451  1
  Al  Al14  1  0.332520  0.332576  0.551375  1
  Al  Al15  1  0.667477  0.667472  0.448601  1
  Al  Al16  1  0.669168  0.669151  0.057286  1
  Al  Al17  1  0.330819  0.330901  0.942738  1
  Al  Al18  1  0.340362  0.546985  0.253050  1
  Al  Al19  1  0.659787  0.453056  0.746944  1
  Al  Al20  1  0.546958  0.340342  0.253051  1
  Al  Al21  1  0.452892  0.659485  0.746955  1
  Ir  Ir22  1  0.328050  0.671910  0.499894  1
  Ir  Ir23  1  0.671973  0.328144  0.499888  1
  Ir  Ir24  1  0.999903  0.999928  0.000108  1
  Ir  Ir25  1  0.999886  0.999918  0.499881  1
  Pt  Pt26  1  0.672135  0.327905  0.000088  1
  Pt  Pt27  1  0.327834  0.672120  0.000094  1
