# generated using pymatgen
data_CaTm(NbSe2)6
_symmetry_space_group_name_H-M   'P 1'
_cell_length_a   6.09210900
_cell_length_b   6.09210911
_cell_length_c   14.60705100
_cell_angle_alpha   90.00000000
_cell_angle_beta   90.00000000
_cell_angle_gamma   120.00000481
_symmetry_Int_Tables_number   1
_chemical_formula_structural   CaTm(NbSe2)6
_chemical_formula_sum   'Ca1 Tm1 Nb6 Se12'
_cell_volume   469.49232240
_cell_formula_units_Z   1
loop_
 _symmetry_equiv_pos_site_id
 _symmetry_equiv_pos_as_xyz
  1  'x, y, z'
loop_
 _atom_site_type_symbol
 _atom_site_label
 _atom_site_symmetry_multiplicity
 _atom_site_fract_x
 _atom_site_fract_y
 _atom_site_fract_z
 _atom_site_occupancy
  Ca  Ca0  1  0.666667  0.333333  0.750000  1
  Tm  Tm1  1  0.333333  0.666667  0.250000  1
  Nb  Nb2  1  0.333333  0.666667  0.006556  1
  Nb  Nb3  1  0.000000  0.000000  0.005478  1
  Nb  Nb4  1  0.666667  0.333333  0.004421  1
  Nb  Nb5  1  0.333333  0.666667  0.493444  1
  Nb  Nb6  1  0.000000  0.000000  0.494522  1
  Nb  Nb7  1  0.666667  0.333333  0.495579  1
  Se  Se8  1  0.671554  0.665354  0.379918  1
  Se  Se9  1  0.665255  0.671951  0.608620  1
  Se  Se10  1  0.006696  0.671951  0.891380  1
  Se  Se11  1  0.665255  0.993304  0.891380  1
  Se  Se12  1  0.671554  0.006200  0.120082  1
  Se  Se13  1  0.334646  0.006200  0.379918  1
  Se  Se14  1  0.006696  0.334745  0.608620  1
  Se  Se15  1  0.328049  0.993304  0.608620  1
  Se  Se16  1  0.993800  0.665354  0.120082  1
  Se  Se17  1  0.328049  0.334745  0.891380  1
  Se  Se18  1  0.993800  0.328446  0.379918  1
  Se  Se19  1  0.334646  0.328446  0.120082  1
