# generated using pymatgen
data_Tb18InAgIr12
_symmetry_space_group_name_H-M   'P 1'
_cell_length_a   10.88335100
_cell_length_b   10.88335100
_cell_length_c   6.30066100
_cell_angle_alpha   90.00000000
_cell_angle_beta   90.00000000
_cell_angle_gamma   90.00000000
_symmetry_Int_Tables_number   1
_chemical_formula_structural   Tb18InAgIr12
_chemical_formula_sum   'Tb18 In1 Ag1 Ir12'
_cell_volume   746.29646632
_cell_formula_units_Z   1
loop_
 _symmetry_equiv_pos_site_id
 _symmetry_equiv_pos_as_xyz
  1  'x, y, z'
loop_
 _atom_site_type_symbol
 _atom_site_label
 _atom_site_symmetry_multiplicity
 _atom_site_fract_x
 _atom_site_fract_y
 _atom_site_fract_z
 _atom_site_occupancy
  Tb  Tb0  1  0.284464  0.087000  0.380260  1
  Tb  Tb1  1  0.292946  0.913162  0.878370  1
  Tb  Tb2  1  0.707054  0.086838  0.878370  1
  Tb  Tb3  1  0.715536  0.913000  0.380260  1
  Tb  Tb4  1  0.583741  0.780318  0.880807  1
  Tb  Tb5  1  0.589004  0.207146  0.377182  1
  Tb  Tb6  1  0.410996  0.792854  0.377182  1
  Tb  Tb7  1  0.416259  0.219682  0.880807  1
  Tb  Tb8  1  0.207146  0.410996  0.622818  1
  Tb  Tb9  1  0.219682  0.583741  0.119193  1
  Tb  Tb10  1  0.780318  0.416259  0.119193  1
  Tb  Tb11  1  0.792854  0.589004  0.622818  1
  Tb  Tb12  1  0.913162  0.707054  0.121630  1
  Tb  Tb13  1  0.913000  0.284464  0.619740  1
  Tb  Tb14  1  0.087000  0.715536  0.619740  1
  Tb  Tb15  1  0.086838  0.292946  0.121630  1
  Tb  Tb16  1  0.000000  0.000000  0.000000  1
  Tb  Tb17  1  0.500000  0.500000  0.500000  1
  In  In18  1  0.000000  0.000000  0.500000  1
  Ag  Ag19  1  0.500000  0.500000  0.000000  1
  Ir  Ir20  1  0.846361  0.157731  0.240713  1
  Ir  Ir21  1  0.842269  0.846361  0.759287  1
  Ir  Ir22  1  0.157731  0.153639  0.759287  1
  Ir  Ir23  1  0.153639  0.842269  0.240713  1
  Ir  Ir24  1  0.659757  0.342834  0.736665  1
  Ir  Ir25  1  0.657166  0.659757  0.263335  1
  Ir  Ir26  1  0.342834  0.340243  0.263335  1
  Ir  Ir27  1  0.340243  0.657166  0.736665  1
  Ir  Ir28  1  0.500000  0.000000  0.120600  1
  Ir  Ir29  1  0.500000  0.000000  0.620595  1
  Ir  Ir30  1  0.000000  0.500000  0.879400  1
  Ir  Ir31  1  0.000000  0.500000  0.379405  1
