# generated using pymatgen
data_BaEuH9W
_symmetry_space_group_name_H-M   'P 1'
_cell_length_a   9.12952400
_cell_length_b   9.12952389
_cell_length_c   5.27952600
_cell_angle_alpha   90.00000000
_cell_angle_beta   90.00000000
_cell_angle_gamma   120.00000766
_symmetry_Int_Tables_number   1
_chemical_formula_structural   BaEuH9W
_chemical_formula_sum   'Ba3 Eu3 H27 W3'
_cell_volume   381.08494765
_cell_formula_units_Z   3
loop_
 _symmetry_equiv_pos_site_id
 _symmetry_equiv_pos_as_xyz
  1  'x, y, z'
loop_
 _atom_site_type_symbol
 _atom_site_label
 _atom_site_symmetry_multiplicity
 _atom_site_fract_x
 _atom_site_fract_y
 _atom_site_fract_z
 _atom_site_occupancy
  Ba  Ba0  1  0.000000  0.604510  0.000000  1
  Ba  Ba1  1  0.395490  0.395490  0.000000  1
  Ba  Ba2  1  0.604510  0.000000  0.000000  1
  Eu  Eu3  1  0.000000  0.260138  0.500000  1
  Eu  Eu4  1  0.739862  0.739862  0.500000  1
  Eu  Eu5  1  0.260138  0.000000  0.500000  1
  H  H6  1  0.798288  0.318495  0.742065  1
  H  H7  1  0.681505  0.479793  0.742065  1
  H  H8  1  0.520207  0.201712  0.742065  1
  H  H9  1  0.201712  0.520207  0.257935  1
  H  H10  1  0.520207  0.201712  0.257935  1
  H  H11  1  0.798288  0.318495  0.257935  1
  H  H12  1  0.681505  0.479793  0.257935  1
  H  H13  1  0.318495  0.798288  0.742065  1
  H  H14  1  0.479793  0.681505  0.742065  1
  H  H15  1  0.199219  0.000000  0.000000  1
  H  H16  1  0.800781  0.800781  0.000000  1
  H  H17  1  0.000000  0.199219  0.000000  1
  H  H18  1  0.860613  0.000000  0.252364  1
  H  H19  1  0.139387  0.139387  0.747636  1
  H  H20  1  0.000000  0.860613  0.747636  1
  H  H21  1  0.000000  0.860613  0.252364  1
  H  H22  1  0.139387  0.139387  0.252364  1
  H  H23  1  0.860613  0.000000  0.747636  1
  H  H24  1  0.133766  0.656550  0.500000  1
  H  H25  1  0.522784  0.866234  0.500000  1
  H  H26  1  0.343450  0.477216  0.500000  1
  H  H27  1  0.477216  0.343450  0.500000  1
  H  H28  1  0.866234  0.522784  0.500000  1
  H  H29  1  0.656550  0.133766  0.500000  1
  H  H30  1  0.201712  0.520207  0.742065  1
  H  H31  1  0.318495  0.798288  0.257935  1
  H  H32  1  0.479793  0.681505  0.257935  1
  W  W33  1  0.666667  0.333333  0.500000  1
  W  W34  1  0.333333  0.666667  0.500000  1
  W  W35  1  0.000000  0.000000  0.000000  1
