# generated using pymatgen
data_Sc6ZnSn5Pd6
_symmetry_space_group_name_H-M   'P 1'
_cell_length_a   7.57022900
_cell_length_b   7.63089751
_cell_length_c   6.94473675
_cell_angle_alpha   90.10132346
_cell_angle_beta   90.00000000
_cell_angle_gamma   119.73734597
_symmetry_Int_Tables_number   1
_chemical_formula_structural   Sc6ZnSn5Pd6
_chemical_formula_sum   'Sc6 Zn1 Sn5 Pd6'
_cell_volume   348.34815927
_cell_formula_units_Z   1
loop_
 _symmetry_equiv_pos_site_id
 _symmetry_equiv_pos_as_xyz
  1  'x, y, z'
loop_
 _atom_site_type_symbol
 _atom_site_label
 _atom_site_symmetry_multiplicity
 _atom_site_fract_x
 _atom_site_fract_y
 _atom_site_fract_z
 _atom_site_occupancy
  Sc  Sc0  1  0.406943  0.008578  0.242123  1
  Sc  Sc1  1  0.612690  0.614310  0.245625  1
  Sc  Sc2  1  0.981535  0.377989  0.244938  1
  Sc  Sc3  1  0.398365  0.991422  0.757877  1
  Sc  Sc4  1  0.603546  0.622011  0.755062  1
  Sc  Sc5  1  0.998380  0.385690  0.754375  1
  Zn  Zn6  1  0.715615  0.000000  0.000000  1
  Sn  Sn7  1  0.277103  0.274783  0.499768  1
  Sn  Sn8  1  0.002320  0.725217  0.500232  1
  Sn  Sn9  1  0.997436  0.719930  0.999843  1
  Sn  Sn10  1  0.277506  0.280070  0.000157  1
  Sn  Sn11  1  0.725798  0.000000  0.500000  1
  Pd  Pd12  1  0.336956  0.669368  0.014615  1
  Pd  Pd13  1  0.333575  0.664622  0.482283  1
  Pd  Pd14  1  0.667588  0.330632  0.985385  1
  Pd  Pd15  1  0.668955  0.335378  0.517717  1
  Pd  Pd16  1  0.997876  0.000063  0.240629  1
  Pd  Pd17  1  0.997813  0.999937  0.759371  1
