# generated using pymatgen
data_SmEu2(As2Pd3)3
_symmetry_space_group_name_H-M   'P 1'
_cell_length_a   8.66834111
_cell_length_b   8.66834132
_cell_length_c   10.16468640
_cell_angle_alpha   72.67606971
_cell_angle_beta   72.67606776
_cell_angle_gamma   27.59652354
_symmetry_Int_Tables_number   1
_chemical_formula_structural   SmEu2(As2Pd3)3
_chemical_formula_sum   'Sm1 Eu2 As6 Pd9'
_cell_volume   336.77056521
_cell_formula_units_Z   1
loop_
 _symmetry_equiv_pos_site_id
 _symmetry_equiv_pos_as_xyz
  1  'x, y, z'
loop_
 _atom_site_type_symbol
 _atom_site_label
 _atom_site_symmetry_multiplicity
 _atom_site_fract_x
 _atom_site_fract_y
 _atom_site_fract_z
 _atom_site_occupancy
  Sm  Sm0  1  0.000000  0.000000  0.000000  1
  Eu  Eu1  1  0.845525  0.845525  0.699655  1
  Eu  Eu2  1  0.154475  0.154475  0.300345  1
  As  As3  1  0.801303  0.801303  0.131156  1
  As  As4  1  0.198697  0.198697  0.868844  1
  As  As5  1  0.538381  0.538381  0.213732  1
  As  As6  1  0.461619  0.461619  0.786268  1
  As  As7  1  0.636297  0.636297  0.547095  1
  As  As8  1  0.363703  0.363703  0.452905  1
  Pd  Pd9  1  0.956281  0.956281  0.329934  1
  Pd  Pd10  1  0.043719  0.043719  0.670066  1
  Pd  Pd11  1  0.779217  0.779217  0.391724  1
  Pd  Pd12  1  0.220783  0.220783  0.608276  1
  Pd  Pd13  1  0.378917  0.378917  0.198736  1
  Pd  Pd14  1  0.621083  0.621083  0.801264  1
  Pd  Pd15  1  0.500000  0.500000  0.500000  1
  Pd  Pd16  1  0.680297  0.680297  0.031325  1
  Pd  Pd17  1  0.319703  0.319703  0.968675  1
