# generated using pymatgen
data_YbY5HoCo6Sn23
_symmetry_space_group_name_H-M   'P 1'
_cell_length_a   9.72578700
_cell_length_b   9.72579589
_cell_length_c   9.95306700
_cell_angle_alpha   90.00105381
_cell_angle_beta   89.99848017
_cell_angle_gamma   120.00035125
_symmetry_Int_Tables_number   1
_chemical_formula_structural   YbY5HoCo6Sn23
_chemical_formula_sum   'Yb1 Y5 Ho1 Co6 Sn23'
_cell_volume   815.33470208
_cell_formula_units_Z   1
loop_
 _symmetry_equiv_pos_site_id
 _symmetry_equiv_pos_as_xyz
  1  'x, y, z'
loop_
 _atom_site_type_symbol
 _atom_site_label
 _atom_site_symmetry_multiplicity
 _atom_site_fract_x
 _atom_site_fract_y
 _atom_site_fract_z
 _atom_site_occupancy
  Yb  Yb0  1  0.999996  0.000004  0.000007  1
  Y  Y1  1  0.521112  0.478884  0.693547  1
  Y  Y2  1  0.521085  0.042223  0.693639  1
  Y  Y3  1  0.957773  0.478911  0.693636  1
  Y  Y4  1  0.042234  0.521103  0.306360  1
  Y  Y5  1  0.478901  0.957769  0.306359  1
  Ho  Ho6  1  0.479090  0.520912  0.306297  1
  Co  Co7  1  0.168328  0.831670  0.801728  1
  Co  Co8  1  0.168326  0.336666  0.801706  1
  Co  Co9  1  0.663333  0.831672  0.801705  1
  Co  Co10  1  0.336789  0.168637  0.198368  1
  Co  Co11  1  0.831366  0.663213  0.198367  1
  Co  Co12  1  0.831677  0.168325  0.198290  1
  Sn  Sn13  1  0.666610  0.333390  0.183252  1
  Sn  Sn14  1  0.666667  0.333333  0.881657  1
  Sn  Sn15  1  0.333511  0.666487  0.118570  1
  Sn  Sn16  1  0.345665  0.345710  0.000100  1
  Sn  Sn17  1  0.999998  0.654359  0.000012  1
  Sn  Sn18  1  0.654373  0.999999  0.000009  1
  Sn  Sn19  1  0.654289  0.654336  0.000101  1
  Sn  Sn20  1  0.333329  0.666672  0.816772  1
  Sn  Sn21  1  0.437124  0.218819  0.451752  1
  Sn  Sn22  1  0.218553  0.781446  0.548137  1
  Sn  Sn23  1  0.218715  0.437139  0.547964  1
  Sn  Sn24  1  0.562864  0.781287  0.547966  1
  Sn  Sn25  1  0.117119  0.882884  0.273510  1
  Sn  Sn26  1  0.781180  0.562872  0.451752  1
  Sn  Sn27  1  0.781448  0.218555  0.451848  1
  Sn  Sn28  1  0.345637  0.000002  0.000012  1
  Sn  Sn29  1  0.117344  0.234436  0.273552  1
  Sn  Sn30  1  0.765557  0.882653  0.273556  1
  Sn  Sn31  1  0.234240  0.117128  0.726477  1
  Sn  Sn32  1  0.882874  0.765768  0.726481  1
  Sn  Sn33  1  0.882894  0.117103  0.726509  1
  Sn  Sn34  1  0.999997  0.000003  0.499993  1
  Sn  Sn35  1  0.000000  0.345631  0.000008  1
