# generated using pymatgen
data_Ho3Er13(TmPt4)4
_symmetry_space_group_name_H-M   'P 1'
_cell_length_a   7.42426100
_cell_length_b   7.52096600
_cell_length_c   14.64339600
_cell_angle_alpha   90.00069867
_cell_angle_beta   89.99998056
_cell_angle_gamma   89.99608193
_symmetry_Int_Tables_number   1
_chemical_formula_structural   Ho3Er13(TmPt4)4
_chemical_formula_sum   'Ho3 Er13 Tm4 Pt16'
_cell_volume   817.65230065
_cell_formula_units_Z   1
loop_
 _symmetry_equiv_pos_site_id
 _symmetry_equiv_pos_as_xyz
  1  'x, y, z'
loop_
 _atom_site_type_symbol
 _atom_site_label
 _atom_site_symmetry_multiplicity
 _atom_site_fract_x
 _atom_site_fract_y
 _atom_site_fract_z
 _atom_site_occupancy
  Ho  Ho0  1  0.998247  0.179735  0.093020  1
  Ho  Ho1  1  0.501754  0.679737  0.906988  1
  Ho  Ho2  1  0.001760  0.820250  0.593007  1
  Er  Er3  1  0.656535  0.168028  0.622465  1
  Er  Er4  1  0.156601  0.332025  0.877474  1
  Er  Er5  1  0.343413  0.832002  0.122544  1
  Er  Er6  1  0.843316  0.667927  0.377513  1
  Er  Er7  1  0.343438  0.831962  0.377547  1
  Er  Er8  1  0.843396  0.668029  0.122491  1
  Er  Er9  1  0.656574  0.168041  0.877521  1
  Er  Er10  1  0.156605  0.332000  0.622440  1
  Er  Er11  1  0.501852  0.679789  0.593043  1
  Er  Er12  1  0.001870  0.820157  0.906904  1
  Er  Er13  1  0.498132  0.320137  0.093094  1
  Er  Er14  1  0.998112  0.179889  0.406925  1
  Er  Er15  1  0.498140  0.320190  0.406961  1
  Tm  Tm16  1  0.818955  0.511827  0.749982  1
  Tm  Tm17  1  0.318949  0.988158  0.749994  1
  Tm  Tm18  1  0.181068  0.488149  0.250036  1
  Tm  Tm19  1  0.681021  0.011868  0.250048  1
  Pt  Pt20  1  0.683976  0.968287  0.457866  1
  Pt  Pt21  1  0.184052  0.531993  0.042054  1
  Pt  Pt22  1  0.315924  0.031971  0.957945  1
  Pt  Pt23  1  0.815866  0.467935  0.541984  1
  Pt  Pt24  1  0.316245  0.032045  0.542003  1
  Pt  Pt25  1  0.816230  0.468076  0.957955  1
  Pt  Pt26  1  0.683753  0.968093  0.042038  1
  Pt  Pt27  1  0.184134  0.531696  0.457896  1
  Pt  Pt28  1  0.454157  0.387883  0.749929  1
  Pt  Pt29  1  0.954155  0.112100  0.750073  1
  Pt  Pt30  1  0.545810  0.611966  0.250000  1
  Pt  Pt31  1  0.045870  0.887928  0.250068  1
  Pt  Pt32  1  0.681461  0.855681  0.749909  1
  Pt  Pt33  1  0.181455  0.644309  0.750079  1
  Pt  Pt34  1  0.318732  0.144457  0.250055  1
  Pt  Pt35  1  0.818440  0.355681  0.250150  1
