# generated using pymatgen
data_Y2TiSi2Mo
_symmetry_space_group_name_H-M   'P 1'
_cell_length_a   3.94461400
_cell_length_b   3.94461400
_cell_length_c   7.69576000
_cell_angle_alpha   90.00000000
_cell_angle_beta   90.00000000
_cell_angle_gamma   90.00000000
_symmetry_Int_Tables_number   1
_chemical_formula_structural   Y2TiSi2Mo
_chemical_formula_sum   'Y2 Ti1 Si2 Mo1'
_cell_volume   119.74586868
_cell_formula_units_Z   1
loop_
 _symmetry_equiv_pos_site_id
 _symmetry_equiv_pos_as_xyz
  1  'x, y, z'
loop_
 _atom_site_type_symbol
 _atom_site_label
 _atom_site_symmetry_multiplicity
 _atom_site_fract_x
 _atom_site_fract_y
 _atom_site_fract_z
 _atom_site_occupancy
  Y  Y0  1  0.000000  0.500000  0.351029  1
  Y  Y1  1  0.500000  0.000000  0.648971  1
  Ti  Ti2  1  0.500000  0.500000  0.000000  1
  Si  Si3  1  0.000000  0.500000  0.769271  1
  Si  Si4  1  0.500000  0.000000  0.230729  1
  Mo  Mo5  1  0.000000  0.000000  0.000000  1
