# generated using pymatgen
data_Er4TmSnSb2
_symmetry_space_group_name_H-M   'P 1'
_cell_length_a   8.88091819
_cell_length_b   8.86263965
_cell_length_c   6.33025510
_cell_angle_alpha   90.02042033
_cell_angle_beta   89.98981108
_cell_angle_gamma   119.93193257
_symmetry_Int_Tables_number   1
_chemical_formula_structural   Er4TmSnSb2
_chemical_formula_sum   'Er8 Tm2 Sn2 Sb4'
_cell_volume   431.78768109
_cell_formula_units_Z   2
loop_
 _symmetry_equiv_pos_site_id
 _symmetry_equiv_pos_as_xyz
  1  'x, y, z'
loop_
 _atom_site_type_symbol
 _atom_site_label
 _atom_site_symmetry_multiplicity
 _atom_site_fract_x
 _atom_site_fract_y
 _atom_site_fract_z
 _atom_site_occupancy
  Er  Er0  1  0.000848  0.757440  0.750067  1
  Er  Er1  1  0.000848  0.243409  0.249933  1
  Er  Er2  1  0.755934  0.756604  0.249995  1
  Er  Er3  1  0.755934  0.999331  0.750005  1
  Er  Er4  1  0.243479  0.242005  0.749977  1
  Er  Er5  1  0.243479  0.001474  0.250023  1
  Er  Er6  1  0.665120  0.332560  0.500000  1
  Er  Er7  1  0.333945  0.666973  0.000000  1
  Tm  Tm8  1  0.333941  0.666970  0.500000  1
  Tm  Tm9  1  0.664988  0.332494  0.000000  1
  Sn  Sn10  1  0.391804  0.999030  0.749999  1
  Sn  Sn11  1  0.391804  0.392773  0.250001  1
  Sb  Sb12  1  0.999406  0.608986  0.249989  1
  Sb  Sb13  1  0.999406  0.390422  0.750011  1
  Sb  Sb14  1  0.609530  0.609226  0.750000  1
  Sb  Sb15  1  0.609530  0.000304  0.250000  1
