# generated using pymatgen
data_Nd6HoRhO12
_symmetry_space_group_name_H-M   'P 1'
_cell_length_a   6.87048339
_cell_length_b   6.87048464
_cell_length_c   6.87048400
_cell_angle_alpha   95.75022179
_cell_angle_beta   95.75022284
_cell_angle_gamma   95.75021422
_symmetry_Int_Tables_number   1
_chemical_formula_structural   Nd6HoRhO12
_chemical_formula_sum   'Nd6 Ho1 Rh1 O12'
_cell_volume   319.05917545
_cell_formula_units_Z   1
loop_
 _symmetry_equiv_pos_site_id
 _symmetry_equiv_pos_as_xyz
  1  'x, y, z'
loop_
 _atom_site_type_symbol
 _atom_site_label
 _atom_site_symmetry_multiplicity
 _atom_site_fract_x
 _atom_site_fract_y
 _atom_site_fract_z
 _atom_site_occupancy
  Nd  Nd0  1  0.731014  0.907876  0.422033  1
  Nd  Nd1  1  0.422033  0.731014  0.907876  1
  Nd  Nd2  1  0.092124  0.577967  0.268986  1
  Nd  Nd3  1  0.907876  0.422033  0.731014  1
  Nd  Nd4  1  0.577967  0.268986  0.092124  1
  Nd  Nd5  1  0.268986  0.092124  0.577967  1
  Ho  Ho6  1  0.000000  0.000000  0.000000  1
  Rh  Rh7  1  0.500000  0.500000  0.500000  1
  O  O8  1  0.062989  0.919267  0.313754  1
  O  O9  1  0.686246  0.937011  0.080733  1
  O  O10  1  0.447988  0.795423  0.578284  1
  O  O11  1  0.080733  0.686246  0.937011  1
  O  O12  1  0.795423  0.578284  0.447988  1
  O  O13  1  0.421716  0.552012  0.204577  1
  O  O14  1  0.578284  0.447988  0.795423  1
  O  O15  1  0.204577  0.421716  0.552012  1
  O  O16  1  0.919267  0.313754  0.062989  1
  O  O17  1  0.552012  0.204577  0.421716  1
  O  O18  1  0.313754  0.062989  0.919267  1
  O  O19  1  0.937011  0.080733  0.686246  1
