# generated using pymatgen
data_Nd10Co2GeSb3
_symmetry_space_group_name_H-M   'P 1'
_cell_length_a   8.17572400
_cell_length_b   8.93449145
_cell_length_c   12.52058614
_cell_angle_alpha   90.17895032
_cell_angle_beta   90.00000000
_cell_angle_gamma   90.00000000
_symmetry_Int_Tables_number   1
_chemical_formula_structural   Nd10Co2GeSb3
_chemical_formula_sum   'Nd20 Co4 Ge2 Sb6'
_cell_volume   914.57347513
_cell_formula_units_Z   2
loop_
 _symmetry_equiv_pos_site_id
 _symmetry_equiv_pos_as_xyz
  1  'x, y, z'
loop_
 _atom_site_type_symbol
 _atom_site_label
 _atom_site_symmetry_multiplicity
 _atom_site_fract_x
 _atom_site_fract_y
 _atom_site_fract_z
 _atom_site_occupancy
  Nd  Nd0  1  0.158063  0.763632  0.209097  1
  Nd  Nd1  1  0.658063  0.236368  0.290903  1
  Nd  Nd2  1  0.846541  0.251007  0.799000  1
  Nd  Nd3  1  0.346541  0.748993  0.701000  1
  Nd  Nd4  1  0.450865  0.758298  0.002499  1
  Nd  Nd5  1  0.950865  0.241702  0.497501  1
  Nd  Nd6  1  0.538291  0.242101  0.008384  1
  Nd  Nd7  1  0.038291  0.757899  0.491616  1
  Nd  Nd8  1  0.630085  0.761489  0.300758  1
  Nd  Nd9  1  0.130085  0.238511  0.199242  1
  Nd  Nd10  1  0.374800  0.250510  0.695240  1
  Nd  Nd11  1  0.874800  0.749490  0.804760  1
  Nd  Nd12  1  0.817899  0.962828  0.072477  1
  Nd  Nd13  1  0.317899  0.037172  0.427523  1
  Nd  Nd14  1  0.182902  0.469459  0.936391  1
  Nd  Nd15  1  0.682902  0.530541  0.563609  1
  Nd  Nd16  1  0.179569  0.035856  0.936277  1
  Nd  Nd17  1  0.679569  0.964144  0.563723  1
  Nd  Nd18  1  0.818654  0.531022  0.066756  1
  Nd  Nd19  1  0.318654  0.468978  0.433244  1
  Co  Co20  1  0.433185  0.751566  0.486599  1
  Co  Co21  1  0.933185  0.248434  0.013401  1
  Co  Co22  1  0.567760  0.250053  0.508112  1
  Co  Co23  1  0.067760  0.749947  0.991888  1
  Ge  Ge24  1  0.929805  0.995352  0.327955  1
  Ge  Ge25  1  0.429805  0.004648  0.172045  1
  Sb  Sb26  1  0.072190  0.492922  0.670299  1
  Sb  Sb27  1  0.572190  0.507078  0.829701  1
  Sb  Sb28  1  0.072982  0.007299  0.673908  1
  Sb  Sb29  1  0.572982  0.992701  0.826092  1
  Sb  Sb30  1  0.926408  0.505366  0.324374  1
  Sb  Sb31  1  0.426408  0.494634  0.175626  1
