# generated using pymatgen
data_KNpScSe4
_symmetry_space_group_name_H-M   'P 1'
_cell_length_a   4.00993000
_cell_length_b   8.63079890
_cell_length_c   6.84180000
_cell_angle_alpha   74.37450948
_cell_angle_beta   90.00000000
_cell_angle_gamma   90.00000000
_symmetry_Int_Tables_number   1
_chemical_formula_structural   KNpScSe4
_chemical_formula_sum   'K1 Np1 Sc1 Se4'
_cell_volume   228.03618457
_cell_formula_units_Z   1
loop_
 _symmetry_equiv_pos_site_id
 _symmetry_equiv_pos_as_xyz
  1  'x, y, z'
loop_
 _atom_site_type_symbol
 _atom_site_label
 _atom_site_symmetry_multiplicity
 _atom_site_fract_x
 _atom_site_fract_y
 _atom_site_fract_z
 _atom_site_occupancy
  K  K0  1  0.500000  0.497014  0.652309  1
  Np  Np1  1  0.000000  0.996027  0.003129  1
  Sc  Sc2  1  0.500000  0.004575  0.501441  1
  Se  Se3  1  0.000000  0.815295  0.412775  1
  Se  Se4  1  0.500000  0.809399  0.887796  1
  Se  Se5  1  0.000000  0.189330  0.597565  1
  Se  Se6  1  0.500000  0.187480  0.111946  1
