# generated using pymatgen
data_Tb16InAg3Pt4
_symmetry_space_group_name_H-M   'P 1'
_cell_length_a   9.63461662
_cell_length_b   9.64726748
_cell_length_c   9.64723097
_cell_angle_alpha   60.27969684
_cell_angle_beta   60.16286518
_cell_angle_gamma   60.16281879
_symmetry_Int_Tables_number   1
_chemical_formula_structural   Tb16InAg3Pt4
_chemical_formula_sum   'Tb16 In1 Ag3 Pt4'
_cell_volume   636.94971036
_cell_formula_units_Z   1
loop_
 _symmetry_equiv_pos_site_id
 _symmetry_equiv_pos_as_xyz
  1  'x, y, z'
loop_
 _atom_site_type_symbol
 _atom_site_label
 _atom_site_symmetry_multiplicity
 _atom_site_fract_x
 _atom_site_fract_y
 _atom_site_fract_z
 _atom_site_occupancy
  Tb  Tb0  1  0.809669  0.805568  0.191522  1
  Tb  Tb1  1  0.809670  0.191522  0.805569  1
  Tb  Tb2  1  0.190196  0.189706  0.810847  1
  Tb  Tb3  1  0.643894  0.063714  0.644396  1
  Tb  Tb4  1  0.067970  0.060147  0.436750  1
  Tb  Tb5  1  0.436065  0.434856  0.063243  1
  Tb  Tb6  1  0.647915  0.648556  0.648558  1
  Tb  Tb7  1  0.810399  0.191481  0.191482  1
  Tb  Tb8  1  0.188233  0.809816  0.809812  1
  Tb  Tb9  1  0.066212  0.643422  0.643421  1
  Tb  Tb10  1  0.436519  0.064810  0.064808  1
  Tb  Tb11  1  0.436065  0.063243  0.434857  1
  Tb  Tb12  1  0.067969  0.436749  0.060147  1
  Tb  Tb13  1  0.643892  0.644397  0.063716  1
  Tb  Tb14  1  0.190197  0.810849  0.189703  1
  Tb  Tb15  1  0.068929  0.433989  0.433989  1
  In  In16  1  0.740984  0.420971  0.420970  1
  Ag  Ag17  1  0.415885  0.417095  0.417097  1
  Ag  Ag18  1  0.414770  0.415225  0.753833  1
  Ag  Ag19  1  0.414770  0.753833  0.415227  1
  Pt  Pt20  1  0.857167  0.430177  0.857201  1
  Pt  Pt21  1  0.855226  0.854608  0.854607  1
  Pt  Pt22  1  0.857167  0.857198  0.430175  1
  Pt  Pt23  1  0.430240  0.858068  0.858067  1
