# generated using pymatgen
data_TbPr2Y3Ta2O14
_symmetry_space_group_name_H-M   'P 1'
_cell_length_a   6.52967811
_cell_length_b   6.53378923
_cell_length_c   7.64136600
_cell_angle_alpha   90.00000000
_cell_angle_beta   90.00000000
_cell_angle_gamma   109.37962217
_symmetry_Int_Tables_number   1
_chemical_formula_structural   TbPr2Y3Ta2O14
_chemical_formula_sum   'Tb1 Pr2 Y3 Ta2 O14'
_cell_volume   307.53636978
_cell_formula_units_Z   1
loop_
 _symmetry_equiv_pos_site_id
 _symmetry_equiv_pos_as_xyz
  1  'x, y, z'
loop_
 _atom_site_type_symbol
 _atom_site_label
 _atom_site_symmetry_multiplicity
 _atom_site_fract_x
 _atom_site_fract_y
 _atom_site_fract_z
 _atom_site_occupancy
  Tb  Tb0  1  0.533587  0.000507  0.750000  1
  Pr  Pr1  1  0.499951  0.499923  0.500010  1
  Pr  Pr2  1  0.499951  0.499923  0.999990  1
  Y  Y3  1  0.000561  0.532913  0.250000  1
  Y  Y4  1  0.467050  0.999455  0.250000  1
  Y  Y5  1  0.999522  0.467214  0.750000  1
  Ta  Ta6  1  0.999927  0.999976  0.499898  1
  Ta  Ta7  1  0.999927  0.999976  0.000102  1
  O  O8  1  0.681066  0.931533  0.468136  1
  O  O9  1  0.931598  0.681184  0.531661  1
  O  O10  1  0.681066  0.931533  0.031864  1
  O  O11  1  0.931598  0.681184  0.968339  1
  O  O12  1  0.319016  0.068571  0.531578  1
  O  O13  1  0.068382  0.318859  0.468312  1
  O  O14  1  0.319016  0.068571  0.968422  1
  O  O15  1  0.068382  0.318859  0.031688  1
  O  O16  1  0.937652  0.062216  0.750000  1
  O  O17  1  0.062260  0.937765  0.250000  1
  O  O18  1  0.362666  0.635654  0.750000  1
  O  O19  1  0.636724  0.363183  0.250000  1
  O  O20  1  0.643624  0.357341  0.750000  1
  O  O21  1  0.356470  0.643658  0.250000  1
