# generated using pymatgen
data_DyTh2(MgPt)3
_symmetry_space_group_name_H-M   'P 1'
_cell_length_a   7.63332860
_cell_length_b   7.63332806
_cell_length_c   4.01484900
_cell_angle_alpha   90.00000000
_cell_angle_beta   90.00000000
_cell_angle_gamma   120.57772704
_symmetry_Int_Tables_number   1
_chemical_formula_structural   DyTh2(MgPt)3
_chemical_formula_sum   'Dy1 Th2 Mg3 Pt3'
_cell_volume   201.40484303
_cell_formula_units_Z   1
loop_
 _symmetry_equiv_pos_site_id
 _symmetry_equiv_pos_as_xyz
  1  'x, y, z'
loop_
 _atom_site_type_symbol
 _atom_site_label
 _atom_site_symmetry_multiplicity
 _atom_site_fract_x
 _atom_site_fract_y
 _atom_site_fract_z
 _atom_site_occupancy
  Dy  Dy0  1  0.408235  0.408235  0.000000  1
  Th  Th1  1  0.584227  0.001828  0.000000  1
  Th  Th2  1  0.001828  0.584227  0.000000  1
  Mg  Mg3  1  0.241409  0.007888  0.500000  1
  Mg  Mg4  1  0.007888  0.241409  0.500000  1
  Mg  Mg5  1  0.751290  0.751290  0.500000  1
  Pt  Pt6  1  0.332582  0.675732  0.500000  1
  Pt  Pt7  1  0.675732  0.332582  0.500000  1
  Pt  Pt8  1  0.996808  0.996808  0.000000  1
