# generated using pymatgen
data_NdSm11(SiBr3)4
_symmetry_space_group_name_H-M   'P 1'
_cell_length_a   10.29890803
_cell_length_b   10.31174320
_cell_length_c   10.31309417
_cell_angle_alpha   109.48066181
_cell_angle_beta   109.42520835
_cell_angle_gamma   109.42857862
_symmetry_Int_Tables_number   1
_chemical_formula_structural   NdSm11(SiBr3)4
_chemical_formula_sum   'Nd1 Sm11 Si4 Br12'
_cell_volume   843.94492261
_cell_formula_units_Z   1
loop_
 _symmetry_equiv_pos_site_id
 _symmetry_equiv_pos_as_xyz
  1  'x, y, z'
loop_
 _atom_site_type_symbol
 _atom_site_label
 _atom_site_symmetry_multiplicity
 _atom_site_fract_x
 _atom_site_fract_y
 _atom_site_fract_z
 _atom_site_occupancy
  Nd  Nd0  1  0.487959  0.238266  0.476460  1
  Sm  Sm1  1  0.262642  0.012867  0.025320  1
  Sm  Sm2  1  0.024673  0.262845  0.012450  1
  Sm  Sm3  1  0.487483  0.749324  0.012206  1
  Sm  Sm4  1  0.750149  0.237174  0.262575  1
  Sm  Sm5  1  0.012711  0.025443  0.262568  1
  Sm  Sm6  1  0.012565  0.487190  0.749755  1
  Sm  Sm7  1  0.237263  0.262518  0.749707  1
  Sm  Sm8  1  0.262787  0.750206  0.237291  1
  Sm  Sm9  1  0.237018  0.474297  0.486658  1
  Sm  Sm10  1  0.474437  0.486840  0.237274  1
  Sm  Sm11  1  0.749873  0.012586  0.486828  1
  Si  Si12  1  0.000312  0.250307  0.500601  1
  Si  Si13  1  0.249786  0.499771  0.999583  1
  Si  Si14  1  0.499731  0.998506  0.248437  1
  Si  Si15  1  0.248705  0.249954  0.248424  1
  Br  Br16  1  0.754275  0.745941  0.250202  1
  Br  Br17  1  0.504150  0.249888  0.995884  1
  Br  Br18  1  0.247359  0.993195  0.503961  1
  Br  Br19  1  0.508176  0.506282  0.756095  1
  Br  Br20  1  0.995990  0.992193  0.745963  1
  Br  Br21  1  0.745813  0.995799  0.991700  1
  Br  Br22  1  0.504094  0.754034  0.508063  1
  Br  Br23  1  0.756444  0.510412  0.503859  1
  Br  Br24  1  0.995785  0.504371  0.250173  1
  Br  Br25  1  0.992009  0.746137  0.995971  1
  Br  Br26  1  0.249936  0.753806  0.745953  1
  Br  Br27  1  0.747876  0.249843  0.756040  1
