# generated using pymatgen
data_Nd3(MnC3)2
_symmetry_space_group_name_H-M   'P 1'
_cell_length_a   8.26282800
_cell_length_b   8.26282790
_cell_length_c   5.17047800
_cell_angle_alpha   90.00000000
_cell_angle_beta   90.00000000
_cell_angle_gamma   119.99998437
_symmetry_Int_Tables_number   1
_chemical_formula_structural   Nd3(MnC3)2
_chemical_formula_sum   'Nd6 Mn4 C12'
_cell_volume   305.71645482
_cell_formula_units_Z   2
loop_
 _symmetry_equiv_pos_site_id
 _symmetry_equiv_pos_as_xyz
  1  'x, y, z'
loop_
 _atom_site_type_symbol
 _atom_site_label
 _atom_site_symmetry_multiplicity
 _atom_site_fract_x
 _atom_site_fract_y
 _atom_site_fract_z
 _atom_site_occupancy
  Nd  Nd0  1  0.613784  0.686580  0.750000  1
  Nd  Nd1  1  0.927204  0.613784  0.250000  1
  Nd  Nd2  1  0.686580  0.072796  0.250000  1
  Nd  Nd3  1  0.313420  0.927204  0.750000  1
  Nd  Nd4  1  0.072796  0.386216  0.750000  1
  Nd  Nd5  1  0.386216  0.313420  0.250000  1
  Mn  Mn6  1  0.000000  0.000000  0.500000  1
  Mn  Mn7  1  0.000000  0.000000  0.000000  1
  Mn  Mn8  1  0.666667  0.333333  0.750000  1
  Mn  Mn9  1  0.333333  0.666667  0.250000  1
  C  C10  1  0.956568  0.770343  0.750000  1
  C  C11  1  0.186225  0.956568  0.250000  1
  C  C12  1  0.770343  0.813775  0.250000  1
  C  C13  1  0.229657  0.186225  0.750000  1
  C  C14  1  0.813775  0.043432  0.750000  1
  C  C15  1  0.043432  0.229657  0.250000  1
  C  C16  1  0.858455  0.579309  0.750000  1
  C  C17  1  0.279145  0.858455  0.250000  1
  C  C18  1  0.579309  0.720855  0.250000  1
  C  C19  1  0.420691  0.279145  0.750000  1
  C  C20  1  0.141545  0.420691  0.250000  1
  C  C21  1  0.720855  0.141545  0.750000  1
