# generated using pymatgen
data_NdY7Cu2(Si6Pd)2
_symmetry_space_group_name_H-M   'P 1'
_cell_length_a   8.09713800
_cell_length_b   8.09713732
_cell_length_c   8.22105400
_cell_angle_alpha   90.00000000
_cell_angle_beta   90.00000000
_cell_angle_gamma   119.99999460
_symmetry_Int_Tables_number   1
_chemical_formula_structural   NdY7Cu2(Si6Pd)2
_chemical_formula_sum   'Nd1 Y7 Cu2 Si12 Pd2'
_cell_volume   466.78963272
_cell_formula_units_Z   1
loop_
 _symmetry_equiv_pos_site_id
 _symmetry_equiv_pos_as_xyz
  1  'x, y, z'
loop_
 _atom_site_type_symbol
 _atom_site_label
 _atom_site_symmetry_multiplicity
 _atom_site_fract_x
 _atom_site_fract_y
 _atom_site_fract_z
 _atom_site_occupancy
  Nd  Nd0  1  0.000000  0.000000  0.248654  1
  Y  Y1  1  0.499261  0.500739  0.750291  1
  Y  Y2  1  0.500775  0.499225  0.249687  1
  Y  Y3  1  0.001479  0.500739  0.750291  1
  Y  Y4  1  0.998449  0.499225  0.249687  1
  Y  Y5  1  0.499261  0.998521  0.750291  1
  Y  Y6  1  0.500775  0.001551  0.249687  1
  Y  Y7  1  0.000000  0.000000  0.750458  1
  Cu  Cu8  1  0.666667  0.333333  0.998316  1
  Cu  Cu9  1  0.333333  0.666667  0.002152  1
  Si  Si10  1  0.830441  0.169559  0.997058  1
  Si  Si11  1  0.169592  0.830408  0.997787  1
  Si  Si12  1  0.339118  0.169559  0.997058  1
  Si  Si13  1  0.166394  0.833606  0.502212  1
  Si  Si14  1  0.660815  0.830408  0.997787  1
  Si  Si15  1  0.833624  0.166376  0.503346  1
  Si  Si16  1  0.830441  0.660882  0.997058  1
  Si  Si17  1  0.667211  0.833606  0.502212  1
  Si  Si18  1  0.169592  0.339185  0.997787  1
  Si  Si19  1  0.332752  0.166376  0.503346  1
  Si  Si20  1  0.166394  0.332789  0.502212  1
  Si  Si21  1  0.833624  0.667248  0.503346  1
  Pd  Pd22  1  0.333333  0.666667  0.497813  1
  Pd  Pd23  1  0.666667  0.333333  0.501463  1
