# generated using pymatgen
data_ErAg(AuO2)4
_symmetry_space_group_name_H-M   'P 1'
_cell_length_a   6.65725340
_cell_length_b   6.65725294
_cell_length_c   6.65725343
_cell_angle_alpha   125.56659294
_cell_angle_beta   125.56660053
_cell_angle_gamma   80.60164171
_symmetry_Int_Tables_number   1
_chemical_formula_structural   ErAg(AuO2)4
_chemical_formula_sum   'Er1 Ag1 Au4 O8'
_cell_volume   188.27239598
_cell_formula_units_Z   1
loop_
 _symmetry_equiv_pos_site_id
 _symmetry_equiv_pos_as_xyz
  1  'x, y, z'
loop_
 _atom_site_type_symbol
 _atom_site_label
 _atom_site_symmetry_multiplicity
 _atom_site_fract_x
 _atom_site_fract_y
 _atom_site_fract_z
 _atom_site_occupancy
  Er  Er0  1  0.000000  0.000000  0.000000  1
  Ag  Ag1  1  0.750000  0.250000  0.500000  1
  Au  Au2  1  0.374174  0.638789  0.761737  1
  Au  Au3  1  0.361211  0.122949  0.735386  1
  Au  Au4  1  0.877051  0.612437  0.238263  1
  Au  Au5  1  0.387563  0.625826  0.264614  1
  O  O6  1  0.056439  0.392982  0.053105  1
  O  O7  1  0.742675  0.272516  0.109250  1
  O  O8  1  0.163266  0.633424  0.890750  1
  O  O9  1  0.339876  0.003334  0.946895  1
  O  O10  1  0.727484  0.836734  0.470158  1
  O  O11  1  0.996666  0.943561  0.336543  1
  O  O12  1  0.366576  0.257325  0.529842  1
  O  O13  1  0.607018  0.660124  0.663457  1
