# generated using pymatgen
data_YbScB4Ru5
_symmetry_space_group_name_H-M   'P 1'
_cell_length_a   3.00407800
_cell_length_b   8.58566792
_cell_length_c   10.17129260
_cell_angle_alpha   90.12852917
_cell_angle_beta   90.00000000
_cell_angle_gamma   90.00000000
_symmetry_Int_Tables_number   1
_chemical_formula_structural   YbScB4Ru5
_chemical_formula_sum   'Yb2 Sc2 B8 Ru10'
_cell_volume   262.33748270
_cell_formula_units_Z   2
loop_
 _symmetry_equiv_pos_site_id
 _symmetry_equiv_pos_as_xyz
  1  'x, y, z'
loop_
 _atom_site_type_symbol
 _atom_site_label
 _atom_site_symmetry_multiplicity
 _atom_site_fract_x
 _atom_site_fract_y
 _atom_site_fract_z
 _atom_site_occupancy
  Yb  Yb0  1  0.500000  0.842134  0.181398  1
  Yb  Yb1  1  0.500000  0.157866  0.818602  1
  Sc  Sc2  1  0.500000  0.656603  0.681875  1
  Sc  Sc3  1  0.500000  0.343397  0.318125  1
  B  B4  1  0.500000  0.964580  0.589412  1
  B  B5  1  0.500000  0.035420  0.410588  1
  B  B6  1  0.500000  0.852049  0.899522  1
  B  B7  1  0.500000  0.147951  0.100478  1
  B  B8  1  0.500000  0.646789  0.398703  1
  B  B9  1  0.500000  0.353211  0.601297  1
  B  B10  1  0.500000  0.465759  0.910631  1
  B  B11  1  0.500000  0.534241  0.089369  1
  Ru  Ru12  1  0.000000  0.656846  0.953113  1
  Ru  Ru13  1  0.000000  0.343154  0.046887  1
  Ru  Ru14  1  0.000000  0.841506  0.454556  1
  Ru  Ru15  1  0.000000  0.158494  0.545444  1
  Ru  Ru16  1  0.000000  0.000000  0.000000  1
  Ru  Ru17  1  0.000000  0.409707  0.759552  1
  Ru  Ru18  1  0.000000  0.590293  0.240448  1
  Ru  Ru19  1  0.000000  0.500000  0.500000  1
  Ru  Ru20  1  0.000000  0.898231  0.738302  1
  Ru  Ru21  1  0.000000  0.101769  0.261698  1
