# generated using pymatgen
data_Nd2Ho5Sn23Ru6
_symmetry_space_group_name_H-M   'P 1'
_cell_length_a   9.87548308
_cell_length_b   9.87548235
_cell_length_c   10.10698554
_cell_angle_alpha   89.90607478
_cell_angle_beta   90.09392713
_cell_angle_gamma   119.80872223
_symmetry_Int_Tables_number   1
_chemical_formula_structural   Nd2Ho5Sn23Ru6
_chemical_formula_sum   'Nd2 Ho5 Sn23 Ru6'
_cell_volume   855.26759470
_cell_formula_units_Z   1
loop_
 _symmetry_equiv_pos_site_id
 _symmetry_equiv_pos_as_xyz
  1  'x, y, z'
loop_
 _atom_site_type_symbol
 _atom_site_label
 _atom_site_symmetry_multiplicity
 _atom_site_fract_x
 _atom_site_fract_y
 _atom_site_fract_z
 _atom_site_occupancy
  Nd  Nd0  1  0.999881  0.000119  0.000213  1
  Nd  Nd1  1  0.517109  0.482891  0.695978  1
  Ho  Ho2  1  0.515225  0.030286  0.697409  1
  Ho  Ho3  1  0.969714  0.484775  0.697409  1
  Ho  Ho4  1  0.030079  0.515094  0.302483  1
  Ho  Ho5  1  0.484906  0.969921  0.302483  1
  Ho  Ho6  1  0.484829  0.515171  0.302578  1
  Sn  Sn7  1  0.666580  0.333420  0.177858  1
  Sn  Sn8  1  0.668871  0.331129  0.873900  1
  Sn  Sn9  1  0.333333  0.666667  0.128859  1
  Sn  Sn10  1  0.348977  0.349335  0.000594  1
  Sn  Sn11  1  0.000105  0.650290  0.999974  1
  Sn  Sn12  1  0.650316  0.000479  0.000400  1
  Sn  Sn13  1  0.650665  0.651023  0.000594  1
  Sn  Sn14  1  0.332903  0.667097  0.822824  1
  Sn  Sn15  1  0.439311  0.218682  0.460920  1
  Sn  Sn16  1  0.219943  0.780057  0.537663  1
  Sn  Sn17  1  0.217588  0.439393  0.536352  1
  Sn  Sn18  1  0.560607  0.782412  0.536352  1
  Sn  Sn19  1  0.118921  0.881079  0.274471  1
  Sn  Sn20  1  0.781318  0.560689  0.460920  1
  Sn  Sn21  1  0.779891  0.220109  0.462247  1
  Sn  Sn22  1  0.349710  0.999895  0.999974  1
  Sn  Sn23  1  0.118878  0.237639  0.274679  1
  Sn  Sn24  1  0.762361  0.881122  0.274679  1
  Sn  Sn25  1  0.235502  0.116883  0.725474  1
  Sn  Sn26  1  0.883117  0.764498  0.725474  1
  Sn  Sn27  1  0.880925  0.119075  0.725429  1
  Sn  Sn28  1  0.999823  0.000177  0.499771  1
  Sn  Sn29  1  0.999521  0.349684  0.000400  1
  Ru  Ru30  1  0.170777  0.829223  0.797232  1
  Ru  Ru31  1  0.167797  0.339972  0.797772  1
  Ru  Ru32  1  0.660028  0.832203  0.797772  1
  Ru  Ru33  1  0.341007  0.170039  0.202828  1
  Ru  Ru34  1  0.829961  0.658993  0.202828  1
  Ru  Ru35  1  0.829523  0.170477  0.203204  1
