# generated using pymatgen
data_TmHf(NiP)2
_symmetry_space_group_name_H-M   'P 1'
_cell_length_a   3.83116200
_cell_length_b   3.83116233
_cell_length_c   14.60937900
_cell_angle_alpha   90.00000000
_cell_angle_beta   90.00000000
_cell_angle_gamma   119.99999714
_symmetry_Int_Tables_number   1
_chemical_formula_structural   TmHf(NiP)2
_chemical_formula_sum   'Tm2 Hf2 Ni4 P4'
_cell_volume   185.70494584
_cell_formula_units_Z   2
loop_
 _symmetry_equiv_pos_site_id
 _symmetry_equiv_pos_as_xyz
  1  'x, y, z'
loop_
 _atom_site_type_symbol
 _atom_site_label
 _atom_site_symmetry_multiplicity
 _atom_site_fract_x
 _atom_site_fract_y
 _atom_site_fract_z
 _atom_site_occupancy
  Tm  Tm0  1  0.000000  0.000000  0.500000  1
  Tm  Tm1  1  0.000000  0.000000  0.000000  1
  Hf  Hf2  1  0.000000  0.000000  0.250000  1
  Hf  Hf3  1  0.000000  0.000000  0.750000  1
  Ni  Ni4  1  0.333333  0.666667  0.354971  1
  Ni  Ni5  1  0.666667  0.333333  0.645029  1
  Ni  Ni6  1  0.666667  0.333333  0.854971  1
  Ni  Ni7  1  0.333333  0.666667  0.145029  1
  P  P8  1  0.333333  0.666667  0.875748  1
  P  P9  1  0.666667  0.333333  0.124252  1
  P  P10  1  0.666667  0.333333  0.375748  1
  P  P11  1  0.333333  0.666667  0.624252  1
