# generated using pymatgen
data_Nd2Eu6Pd24Pb
_symmetry_space_group_name_H-M   'P 1'
_cell_length_a   8.59679509
_cell_length_b   8.59679509
_cell_length_c   8.59679509
_cell_angle_alpha   89.98826938
_cell_angle_beta   89.98826938
_cell_angle_gamma   89.98826938
_symmetry_Int_Tables_number   1
_chemical_formula_structural   Nd2Eu6Pd24Pb
_chemical_formula_sum   'Nd2 Eu6 Pd24 Pb1'
_cell_volume   635.34511961
_cell_formula_units_Z   1
loop_
 _symmetry_equiv_pos_site_id
 _symmetry_equiv_pos_as_xyz
  1  'x, y, z'
loop_
 _atom_site_type_symbol
 _atom_site_label
 _atom_site_symmetry_multiplicity
 _atom_site_fract_x
 _atom_site_fract_y
 _atom_site_fract_z
 _atom_site_occupancy
  Nd  Nd0  1  0.252085  0.252085  0.252085  1
  Nd  Nd1  1  0.747915  0.747915  0.747915  1
  Eu  Eu2  1  0.750475  0.750475  0.249448  1
  Eu  Eu3  1  0.750475  0.249448  0.750475  1
  Eu  Eu4  1  0.249525  0.249525  0.750552  1
  Eu  Eu5  1  0.249525  0.750552  0.249525  1
  Eu  Eu6  1  0.249448  0.750475  0.750475  1
  Eu  Eu7  1  0.750552  0.249525  0.249525  1
  Pd  Pd8  1  0.271196  0.500139  0.000358  1
  Pd  Pd9  1  0.728804  0.499861  0.999642  1
  Pd  Pd10  1  0.000358  0.271196  0.500139  1
  Pd  Pd11  1  0.500139  0.271196  0.000358  1
  Pd  Pd12  1  0.999642  0.728804  0.499861  1
  Pd  Pd13  1  0.499861  0.728804  0.999642  1
  Pd  Pd14  1  0.500139  0.000358  0.271196  1
  Pd  Pd15  1  0.271196  0.000358  0.500139  1
  Pd  Pd16  1  0.499861  0.999642  0.728804  1
  Pd  Pd17  1  0.728804  0.999642  0.499861  1
  Pd  Pd18  1  0.000358  0.500139  0.271196  1
  Pd  Pd19  1  0.999642  0.499861  0.728804  1
  Pd  Pd20  1  0.256565  0.499968  0.499968  1
  Pd  Pd21  1  0.743435  0.500032  0.500032  1
  Pd  Pd22  1  0.499968  0.256565  0.499968  1
  Pd  Pd23  1  0.500032  0.743435  0.500032  1
  Pd  Pd24  1  0.499968  0.499968  0.256565  1
  Pd  Pd25  1  0.500032  0.500032  0.743435  1
  Pd  Pd26  1  0.327544  0.000737  0.000737  1
  Pd  Pd27  1  0.672456  0.999263  0.999263  1
  Pd  Pd28  1  0.000737  0.327544  0.000737  1
  Pd  Pd29  1  0.999263  0.672456  0.999263  1
  Pd  Pd30  1  0.000737  0.000737  0.327544  1
  Pd  Pd31  1  0.999263  0.999263  0.672456  1
  Pb  Pb32  1  0.000000  0.000000  0.000000  1
