# generated using pymatgen
data_Er2B6Ir8Rh
_symmetry_space_group_name_H-M   'P 1'
_cell_length_a   5.62621868
_cell_length_b   5.63573106
_cell_length_c   8.64688600
_cell_angle_alpha   90.00000000
_cell_angle_beta   90.00000000
_cell_angle_gamma   120.05594462
_symmetry_Int_Tables_number   1
_chemical_formula_structural   Er2B6Ir8Rh
_chemical_formula_sum   'Er2 B6 Ir8 Rh1'
_cell_volume   237.30786424
_cell_formula_units_Z   1
loop_
 _symmetry_equiv_pos_site_id
 _symmetry_equiv_pos_as_xyz
  1  'x, y, z'
loop_
 _atom_site_type_symbol
 _atom_site_label
 _atom_site_symmetry_multiplicity
 _atom_site_fract_x
 _atom_site_fract_y
 _atom_site_fract_z
 _atom_site_occupancy
  Er  Er0  1  0.000000  0.000000  0.701757  1
  Er  Er1  1  0.000000  0.000000  0.299387  1
  B  B2  1  0.666115  0.333057  0.999810  1
  B  B3  1  0.333885  0.666943  0.999810  1
  B  B4  1  0.666489  0.333244  0.667672  1
  B  B5  1  0.333511  0.666756  0.667672  1
  B  B6  1  0.333671  0.666836  0.332066  1
  B  B7  1  0.666329  0.333164  0.332066  1
  Ir  Ir8  1  0.500000  0.500000  0.836007  1
  Ir  Ir9  1  0.500000  0.000000  0.836007  1
  Ir  Ir10  1  0.000000  0.500000  0.836093  1
  Ir  Ir11  1  0.500000  0.500000  0.164320  1
  Ir  Ir12  1  0.500000  0.000000  0.164320  1
  Ir  Ir13  1  0.500000  0.500000  0.499800  1
  Ir  Ir14  1  0.500000  0.000000  0.499800  1
  Ir  Ir15  1  0.000000  0.500000  0.499018  1
  Rh  Rh16  1  0.000000  0.500000  0.164393  1
