# generated using pymatgen
data_Tb9Dy(SnBi)4
_symmetry_space_group_name_H-M   'P 1'
_cell_length_a   8.20768600
_cell_length_b   8.25118400
_cell_length_c   15.69965700
_cell_angle_alpha   90.00000000
_cell_angle_beta   90.00000000
_cell_angle_gamma   90.00000000
_symmetry_Int_Tables_number   1
_chemical_formula_structural   Tb9Dy(SnBi)4
_chemical_formula_sum   'Tb18 Dy2 Sn8 Bi8'
_cell_volume   1063.22987115
_cell_formula_units_Z   2
loop_
 _symmetry_equiv_pos_site_id
 _symmetry_equiv_pos_as_xyz
  1  'x, y, z'
loop_
 _atom_site_type_symbol
 _atom_site_label
 _atom_site_symmetry_multiplicity
 _atom_site_fract_x
 _atom_site_fract_y
 _atom_site_fract_z
 _atom_site_occupancy
  Tb  Tb0  1  0.386210  0.838247  0.876599  1
  Tb  Tb1  1  0.886210  0.661753  0.623401  1
  Tb  Tb2  1  0.613769  0.161779  0.376630  1
  Tb  Tb3  1  0.113769  0.338221  0.123370  1
  Tb  Tb4  1  0.613769  0.161779  0.123370  1
  Tb  Tb5  1  0.113769  0.338221  0.376630  1
  Tb  Tb6  1  0.386210  0.838247  0.623401  1
  Tb  Tb7  1  0.886210  0.661753  0.876599  1
  Tb  Tb8  1  0.552861  0.328083  0.889881  1
  Tb  Tb9  1  0.052861  0.171917  0.610119  1
  Tb  Tb10  1  0.447171  0.671945  0.389888  1
  Tb  Tb11  1  0.947171  0.828055  0.110112  1
  Tb  Tb12  1  0.447171  0.671945  0.110112  1
  Tb  Tb13  1  0.947171  0.828055  0.389888  1
  Tb  Tb14  1  0.552861  0.328083  0.610119  1
  Tb  Tb15  1  0.052861  0.171917  0.889881  1
  Tb  Tb16  1  0.782533  0.501967  0.250000  1
  Tb  Tb17  1  0.282533  0.998033  0.250000  1
  Dy  Dy18  1  0.217570  0.498031  0.750000  1
  Dy  Dy19  1  0.717570  0.001969  0.750000  1
  Sn  Sn20  1  0.582637  0.626243  0.750000  1
  Sn  Sn21  1  0.082637  0.873757  0.750000  1
  Sn  Sn22  1  0.417178  0.373862  0.250000  1
  Sn  Sn23  1  0.917178  0.126138  0.250000  1
  Sn  Sn24  1  0.356350  0.143869  0.750000  1
  Sn  Sn25  1  0.856350  0.356131  0.750000  1
  Sn  Sn26  1  0.643793  0.856297  0.250000  1
  Sn  Sn27  1  0.143793  0.643703  0.250000  1
  Bi  Bi28  1  0.270341  0.020766  0.044167  1
  Bi  Bi29  1  0.770341  0.479234  0.455833  1
  Bi  Bi30  1  0.729618  0.979250  0.544303  1
  Bi  Bi31  1  0.229618  0.520750  0.955697  1
  Bi  Bi32  1  0.729618  0.979250  0.955697  1
  Bi  Bi33  1  0.229618  0.520750  0.544303  1
  Bi  Bi34  1  0.270341  0.020766  0.455833  1
  Bi  Bi35  1  0.770341  0.479234  0.044167  1
