# generated using pymatgen
data_Hf6ZrPt9Au
_symmetry_space_group_name_H-M   'P 1'
_cell_length_a   8.18968580
_cell_length_b   8.18968674
_cell_length_c   9.68955619
_cell_angle_alpha   90.04446182
_cell_angle_beta   90.04446121
_cell_angle_gamma   107.32805928
_symmetry_Int_Tables_number   1
_chemical_formula_structural   Hf6ZrPt9Au
_chemical_formula_sum   'Hf12 Zr2 Pt18 Au2'
_cell_volume   620.39218934
_cell_formula_units_Z   2
loop_
 _symmetry_equiv_pos_site_id
 _symmetry_equiv_pos_as_xyz
  1  'x, y, z'
loop_
 _atom_site_type_symbol
 _atom_site_label
 _atom_site_symmetry_multiplicity
 _atom_site_fract_x
 _atom_site_fract_y
 _atom_site_fract_z
 _atom_site_occupancy
  Hf  Hf0  1  0.809058  0.190942  0.500000  1
  Hf  Hf1  1  0.190942  0.809058  0.500000  1
  Hf  Hf2  1  0.000000  0.000000  0.000000  1
  Hf  Hf3  1  0.500000  0.500000  0.500000  1
  Hf  Hf4  1  0.001187  0.502555  0.251228  1
  Hf  Hf5  1  0.998813  0.497445  0.748772  1
  Hf  Hf6  1  0.497445  0.998813  0.748772  1
  Hf  Hf7  1  0.502555  0.001187  0.251228  1
  Hf  Hf8  1  0.310712  0.310712  0.191283  1
  Hf  Hf9  1  0.689288  0.689288  0.808717  1
  Hf  Hf10  1  0.175305  0.175305  0.675668  1
  Hf  Hf11  1  0.824695  0.824695  0.324332  1
  Zr  Zr12  1  0.697433  0.302567  0.000000  1
  Zr  Zr13  1  0.302567  0.697433  0.000000  1
  Pt  Pt14  1  0.853025  0.143206  0.209778  1
  Pt  Pt15  1  0.146975  0.856794  0.790222  1
  Pt  Pt16  1  0.649268  0.357221  0.707290  1
  Pt  Pt17  1  0.642779  0.350732  0.292710  1
  Pt  Pt18  1  0.350732  0.642779  0.292710  1
  Pt  Pt19  1  0.357221  0.649268  0.707290  1
  Pt  Pt20  1  0.856794  0.146975  0.790222  1
  Pt  Pt21  1  0.143206  0.853025  0.209778  1
  Pt  Pt22  1  0.935621  0.645135  0.996942  1
  Pt  Pt23  1  0.064379  0.354865  0.003058  1
  Pt  Pt24  1  0.562917  0.854982  0.498352  1
  Pt  Pt25  1  0.145018  0.437083  0.501648  1
  Pt  Pt26  1  0.437083  0.145018  0.501648  1
  Pt  Pt27  1  0.854982  0.562917  0.498352  1
  Pt  Pt28  1  0.354865  0.064379  0.003058  1
  Pt  Pt29  1  0.645135  0.935621  0.996942  1
  Pt  Pt30  1  0.106888  0.106888  0.394336  1
  Pt  Pt31  1  0.893112  0.893112  0.605664  1
  Au  Au32  1  0.390802  0.390802  0.890695  1
  Au  Au33  1  0.609198  0.609198  0.109305  1
