# generated using pymatgen
data_ThMnOs2C
_symmetry_space_group_name_H-M   'P 1'
_cell_length_a   3.92735200
_cell_length_b   5.84843893
_cell_length_c   7.39426400
_cell_angle_alpha   90.00000000
_cell_angle_beta   90.00000000
_cell_angle_gamma   70.38118673
_symmetry_Int_Tables_number   1
_chemical_formula_structural   ThMnOs2C
_chemical_formula_sum   'Th2 Mn2 Os4 C2'
_cell_volume   159.97839105
_cell_formula_units_Z   2
loop_
 _symmetry_equiv_pos_site_id
 _symmetry_equiv_pos_as_xyz
  1  'x, y, z'
loop_
 _atom_site_type_symbol
 _atom_site_label
 _atom_site_symmetry_multiplicity
 _atom_site_fract_x
 _atom_site_fract_y
 _atom_site_fract_z
 _atom_site_occupancy
  Th  Th0  1  0.957936  0.084128  0.250001  1
  Th  Th1  1  0.042065  0.915873  0.750000  1
  Mn  Mn2  1  0.225851  0.548300  0.250001  1
  Mn  Mn3  1  0.774150  0.451699  0.750000  1
  Os  Os4  1  0.670334  0.659331  0.058138  1
  Os  Os5  1  0.670334  0.659331  0.441862  1
  Os  Os6  1  0.329667  0.340669  0.558138  1
  Os  Os7  1  0.329667  0.340669  0.941863  1
  C  C8  1  0.500001  0.000000  0.000000  1
  C  C9  1  0.500001  0.000000  0.500000  1
