# generated using pymatgen
data_Ba6Y2(MoO6)3
_symmetry_space_group_name_H-M   'P 1'
_cell_length_a   5.97338239
_cell_length_b   5.97338226
_cell_length_c   14.95471500
_cell_angle_alpha   90.00000000
_cell_angle_beta   78.47966796
_cell_angle_gamma   120.00001690
_symmetry_Int_Tables_number   1
_chemical_formula_structural   Ba6Y2(MoO6)3
_chemical_formula_sum   'Ba6 Y2 Mo3 O18'
_cell_volume   449.65830604
_cell_formula_units_Z   1
loop_
 _symmetry_equiv_pos_site_id
 _symmetry_equiv_pos_as_xyz
  1  'x, y, z'
loop_
 _atom_site_type_symbol
 _atom_site_label
 _atom_site_symmetry_multiplicity
 _atom_site_fract_x
 _atom_site_fract_y
 _atom_site_fract_z
 _atom_site_occupancy
  Ba  Ba0  1  0.272516  0.636289  0.091349  1
  Ba  Ba1  1  0.823982  0.911940  0.263898  1
  Ba  Ba2  1  0.375235  0.187570  0.437217  1
  Ba  Ba3  1  0.624771  0.812442  0.562783  1
  Ba  Ba4  1  0.176014  0.088065  0.736105  1
  Ba  Ba5  1  0.727482  0.363702  0.908650  1
  Y  Y6  1  0.550623  0.275300  0.174035  1
  Y  Y7  1  0.449374  0.724697  0.825965  1
  Mo  Mo8  1  0.000000  0.000001  0.000001  1
  Mo  Mo9  1  0.102375  0.551112  0.346366  1
  Mo  Mo10  1  0.897617  0.448895  0.653634  1
  O  O11  1  0.258861  0.129414  0.076997  1
  O  O12  1  0.793527  0.129414  0.076998  1
  O  O13  1  0.793509  0.664063  0.077017  1
  O  O14  1  0.317641  0.427185  0.255158  1
  O  O15  1  0.854507  0.427241  0.255128  1
  O  O16  1  0.317625  0.890395  0.255137  1
  O  O17  1  0.902958  0.215084  0.408945  1
  O  O18  1  0.903088  0.687787  0.408919  1
  O  O19  1  0.375907  0.687942  0.408857  1
  O  O20  1  0.096909  0.312209  0.591080  1
  O  O21  1  0.624099  0.312056  0.591143  1
  O  O22  1  0.097042  0.784913  0.591055  1
  O  O23  1  0.682374  0.109600  0.744864  1
  O  O24  1  0.145489  0.572751  0.744873  1
  O  O25  1  0.682359  0.572813  0.744843  1
  O  O26  1  0.206495  0.335940  0.922982  1
  O  O27  1  0.206477  0.870587  0.922999  1
  O  O28  1  0.741140  0.870587  0.923001  1
