# generated using pymatgen
data_CeNdInPd2
_symmetry_space_group_name_H-M   'P 1'
_cell_length_a   7.85067100
_cell_length_b   7.82315400
_cell_length_c   3.83857600
_cell_angle_alpha   90.00000000
_cell_angle_beta   90.00000000
_cell_angle_gamma   90.00000000
_symmetry_Int_Tables_number   1
_chemical_formula_structural   CeNdInPd2
_chemical_formula_sum   'Ce2 Nd2 In2 Pd4'
_cell_volume   235.75385381
_cell_formula_units_Z   2
loop_
 _symmetry_equiv_pos_site_id
 _symmetry_equiv_pos_as_xyz
  1  'x, y, z'
loop_
 _atom_site_type_symbol
 _atom_site_label
 _atom_site_symmetry_multiplicity
 _atom_site_fract_x
 _atom_site_fract_y
 _atom_site_fract_z
 _atom_site_occupancy
  Ce  Ce0  1  0.174689  0.327107  0.500000  1
  Ce  Ce1  1  0.674689  0.172893  0.500000  1
  Nd  Nd2  1  0.325183  0.825101  0.500000  1
  Nd  Nd3  1  0.825183  0.674899  0.500000  1
  In  In4  1  0.001588  0.001176  0.000000  1
  In  In5  1  0.501588  0.498824  0.000000  1
  Pd  Pd6  1  0.371040  0.138501  0.000000  1
  Pd  Pd7  1  0.871040  0.361499  0.000000  1
  Pd  Pd8  1  0.127500  0.617332  0.000000  1
  Pd  Pd9  1  0.627500  0.882668  0.000000  1
