# generated using pymatgen
data_CaPr3Y3CoI12
_symmetry_space_group_name_H-M   'P 1'
_cell_length_a   9.85781536
_cell_length_b   9.98154987
_cell_length_c   9.92229882
_cell_angle_alpha   106.59378753
_cell_angle_beta   107.17393164
_cell_angle_gamma   106.97261454
_symmetry_Int_Tables_number   1
_chemical_formula_structural   CaPr3Y3CoI12
_chemical_formula_sum   'Ca1 Pr3 Y3 Co1 I12'
_cell_volume   814.98186086
_cell_formula_units_Z   1
loop_
 _symmetry_equiv_pos_site_id
 _symmetry_equiv_pos_as_xyz
  1  'x, y, z'
loop_
 _atom_site_type_symbol
 _atom_site_label
 _atom_site_symmetry_multiplicity
 _atom_site_fract_x
 _atom_site_fract_y
 _atom_site_fract_z
 _atom_site_occupancy
  Ca  Ca0  1  0.499760  0.500472  0.499228  1
  Pr  Pr1  1  0.290033  0.024500  0.094533  1
  Pr  Pr2  1  0.900420  0.695374  0.976523  1
  Pr  Pr3  1  0.710493  0.975248  0.905601  1
  Y  Y4  1  0.974396  0.904893  0.702775  1
  Y  Y5  1  0.026832  0.099261  0.298000  1
  Y  Y6  1  0.097527  0.295095  0.024252  1
  Co  Co7  1  0.000456  0.999986  0.000720  1
  I  I8  1  0.531951  0.614853  0.840865  1
  I  I9  1  0.456490  0.384620  0.152479  1
  I  I10  1  0.311058  0.923987  0.766914  1
  I  I11  1  0.377510  0.157009  0.463323  1
  I  I12  1  0.931901  0.787849  0.330219  1
  I  I13  1  0.689281  0.076670  0.233584  1
  I  I14  1  0.071452  0.221525  0.682333  1
  I  I15  1  0.779560  0.319833  0.927744  1
  I  I16  1  0.230215  0.674518  0.074322  1
  I  I17  1  0.850357  0.548214  0.615906  1
  I  I18  1  0.148015  0.451904  0.373670  1
  I  I19  1  0.622292  0.844188  0.537008  1
