# generated using pymatgen
data_Nd3Cd3IrAu2
_symmetry_space_group_name_H-M   'P 1'
_cell_length_a   7.96761000
_cell_length_b   7.96760979
_cell_length_c   3.94168000
_cell_angle_alpha   90.00000000
_cell_angle_beta   90.00000000
_cell_angle_gamma   119.99999258
_symmetry_Int_Tables_number   1
_chemical_formula_structural   Nd3Cd3IrAu2
_chemical_formula_sum   'Nd3 Cd3 Ir1 Au2'
_cell_volume   216.70461108
_cell_formula_units_Z   1
loop_
 _symmetry_equiv_pos_site_id
 _symmetry_equiv_pos_as_xyz
  1  'x, y, z'
loop_
 _atom_site_type_symbol
 _atom_site_label
 _atom_site_symmetry_multiplicity
 _atom_site_fract_x
 _atom_site_fract_y
 _atom_site_fract_z
 _atom_site_occupancy
  Nd  Nd0  1  0.580205  0.977966  0.000000  1
  Nd  Nd1  1  0.022034  0.602239  0.000000  1
  Nd  Nd2  1  0.397761  0.419795  0.000000  1
  Cd  Cd3  1  0.260576  0.000076  0.500000  1
  Cd  Cd4  1  0.999924  0.260499  0.500000  1
  Cd  Cd5  1  0.739501  0.739424  0.500000  1
  Ir  Ir6  1  0.333333  0.666667  0.500000  1
  Au  Au7  1  0.666667  0.333333  0.500000  1
  Au  Au8  1  0.000000  0.000000  0.000000  1
