# generated using pymatgen
data_Lu5In4CuAu
_symmetry_space_group_name_H-M   'P 1'
_cell_length_a   3.58695800
_cell_length_b   8.02917851
_cell_length_c   17.93738630
_cell_angle_alpha   90.32802573
_cell_angle_beta   90.00000000
_cell_angle_gamma   90.00000000
_symmetry_Int_Tables_number   1
_chemical_formula_structural   Lu5In4CuAu
_chemical_formula_sum   'Lu10 In8 Cu2 Au2'
_cell_volume   516.59410828
_cell_formula_units_Z   2
loop_
 _symmetry_equiv_pos_site_id
 _symmetry_equiv_pos_as_xyz
  1  'x, y, z'
loop_
 _atom_site_type_symbol
 _atom_site_label
 _atom_site_symmetry_multiplicity
 _atom_site_fract_x
 _atom_site_fract_y
 _atom_site_fract_z
 _atom_site_occupancy
  Lu  Lu0  1  0.000000  0.877808  0.080423  1
  Lu  Lu1  1  0.000000  0.752832  0.284480  1
  Lu  Lu2  1  0.000000  0.732112  0.777293  1
  Lu  Lu3  1  0.000000  0.384241  0.417440  1
  Lu  Lu4  1  0.000000  0.122192  0.919577  1
  Lu  Lu5  1  0.000000  0.247168  0.715520  1
  Lu  Lu6  1  0.000000  0.500000  0.000000  1
  Lu  Lu7  1  0.000000  0.267888  0.222707  1
  Lu  Lu8  1  0.000000  0.615759  0.582560  1
  Lu  Lu9  1  0.000000  0.000000  0.500000  1
  In  In10  1  0.500000  0.210010  0.067379  1
  In  In11  1  0.500000  0.423427  0.849732  1
  In  In12  1  0.500000  0.576573  0.150268  1
  In  In13  1  0.500000  0.082191  0.354660  1
  In  In14  1  0.500000  0.917809  0.645340  1
  In  In15  1  0.500000  0.789990  0.932621  1
  In  In16  1  0.500000  0.706632  0.433855  1
  In  In17  1  0.500000  0.293368  0.566145  1
  Cu  Cu18  1  0.500000  0.525093  0.695628  1
  Cu  Cu19  1  0.500000  0.474907  0.304372  1
  Au  Au20  1  0.500000  0.971439  0.198535  1
  Au  Au21  1  0.500000  0.028561  0.801465  1
