# generated using pymatgen
data_Yb2Fe2PdN3
_symmetry_space_group_name_H-M   'P 1'
_cell_length_a   6.16877872
_cell_length_b   6.16877925
_cell_length_c   6.25734983
_cell_angle_alpha   89.94001397
_cell_angle_beta   89.94001534
_cell_angle_gamma   116.37473768
_symmetry_Int_Tables_number   1
_chemical_formula_structural   Yb2Fe2PdN3
_chemical_formula_sum   'Yb4 Fe4 Pd2 N6'
_cell_volume   213.32967823
_cell_formula_units_Z   2
loop_
 _symmetry_equiv_pos_site_id
 _symmetry_equiv_pos_as_xyz
  1  'x, y, z'
loop_
 _atom_site_type_symbol
 _atom_site_label
 _atom_site_symmetry_multiplicity
 _atom_site_fract_x
 _atom_site_fract_y
 _atom_site_fract_z
 _atom_site_occupancy
  Yb  Yb0  1  0.828862  0.679359  0.896938  1
  Yb  Yb1  1  0.320641  0.171138  0.603062  1
  Yb  Yb2  1  0.171138  0.320641  0.103062  1
  Yb  Yb3  1  0.679359  0.828862  0.396938  1
  Fe  Fe4  1  0.569955  0.175440  0.100057  1
  Fe  Fe5  1  0.430045  0.824560  0.899943  1
  Fe  Fe6  1  0.824560  0.430045  0.399943  1
  Fe  Fe7  1  0.175440  0.569955  0.600057  1
  Pd  Pd8  1  0.815078  0.184922  0.750000  1
  Pd  Pd9  1  0.184922  0.815078  0.250000  1
  N  N10  1  0.427214  0.572786  0.750000  1
  N  N11  1  0.572786  0.427214  0.250000  1
  N  N12  1  0.989324  0.727068  0.534001  1
  N  N13  1  0.727068  0.989324  0.034001  1
  N  N14  1  0.010676  0.272932  0.465999  1
  N  N15  1  0.272932  0.010676  0.965999  1
