# generated using pymatgen
data_Y11Er4Th(CdPt)4
_symmetry_space_group_name_H-M   'P 1'
_cell_length_a   9.67552472
_cell_length_b   9.69006766
_cell_length_c   9.69006845
_cell_angle_alpha   60.33511490
_cell_angle_beta   60.40676556
_cell_angle_gamma   60.40676093
_symmetry_Int_Tables_number   1
_chemical_formula_structural   Y11Er4Th(CdPt)4
_chemical_formula_sum   'Y11 Er4 Th1 Cd4 Pt4'
_cell_volume   647.97370826
_cell_formula_units_Z   1
loop_
 _symmetry_equiv_pos_site_id
 _symmetry_equiv_pos_as_xyz
  1  'x, y, z'
loop_
 _atom_site_type_symbol
 _atom_site_label
 _atom_site_symmetry_multiplicity
 _atom_site_fract_x
 _atom_site_fract_y
 _atom_site_fract_z
 _atom_site_occupancy
  Y  Y0  1  0.192063  0.809876  0.809876  1
  Y  Y1  1  0.189274  0.812202  0.189957  1
  Y  Y2  1  0.810355  0.191844  0.810296  1
  Y  Y3  1  0.189274  0.189957  0.812202  1
  Y  Y4  1  0.810355  0.810296  0.191844  1
  Y  Y5  1  0.936609  0.565702  0.565702  1
  Y  Y6  1  0.563315  0.937436  0.937436  1
  Y  Y7  1  0.566462  0.936894  0.565025  1
  Y  Y8  1  0.937793  0.562060  0.938255  1
  Y  Y9  1  0.566462  0.565025  0.936894  1
  Y  Y10  1  0.937793  0.938255  0.562060  1
  Er  Er11  1  0.353455  0.352756  0.941100  1
  Er  Er12  1  0.353455  0.941100  0.352756  1
  Er  Er13  1  0.939622  0.353486  0.353486  1
  Er  Er14  1  0.812477  0.189582  0.189582  1
  Th  Th15  1  0.348982  0.348587  0.348587  1
  Cd  Cd16  1  0.581097  0.581346  0.581346  1
  Cd  Cd17  1  0.582205  0.582519  0.253572  1
  Cd  Cd18  1  0.582205  0.253572  0.582519  1
  Cd  Cd19  1  0.253540  0.582376  0.582376  1
  Pt  Pt20  1  0.142351  0.146020  0.146020  1
  Pt  Pt21  1  0.140503  0.140187  0.567845  1
  Pt  Pt22  1  0.140503  0.567845  0.140187  1
  Pt  Pt23  1  0.569846  0.141077  0.141077  1
