# generated using pymatgen
data_Dy2Y3Lu3(CdNi)2
_symmetry_space_group_name_H-M   'P 1'
_cell_length_a   9.47356442
_cell_length_b   9.47356418
_cell_length_c   9.47356500
_cell_angle_alpha   59.99999365
_cell_angle_beta   59.99999450
_cell_angle_gamma   59.99999145
_symmetry_Int_Tables_number   1
_chemical_formula_structural   Dy2Y3Lu3(CdNi)2
_chemical_formula_sum   'Dy4 Y6 Lu6 Cd4 Ni4'
_cell_volume   601.20860645
_cell_formula_units_Z   2
loop_
 _symmetry_equiv_pos_site_id
 _symmetry_equiv_pos_as_xyz
  1  'x, y, z'
loop_
 _atom_site_type_symbol
 _atom_site_label
 _atom_site_symmetry_multiplicity
 _atom_site_fract_x
 _atom_site_fract_y
 _atom_site_fract_z
 _atom_site_occupancy
  Dy  Dy0  1  0.599425  0.599425  0.599425  1
  Dy  Dy1  1  0.599425  0.599425  0.201725  1
  Dy  Dy2  1  0.599425  0.201725  0.599425  1
  Dy  Dy3  1  0.201725  0.599425  0.599425  1
  Y  Y4  1  0.187853  0.812147  0.812147  1
  Y  Y5  1  0.812147  0.187853  0.187853  1
  Y  Y6  1  0.812147  0.187853  0.812147  1
  Y  Y7  1  0.187853  0.812147  0.187853  1
  Y  Y8  1  0.812147  0.812147  0.187853  1
  Y  Y9  1  0.187853  0.187853  0.812147  1
  Lu  Lu10  1  0.064134  0.435866  0.435866  1
  Lu  Lu11  1  0.435866  0.064134  0.064134  1
  Lu  Lu12  1  0.435866  0.064134  0.435866  1
  Lu  Lu13  1  0.064134  0.435866  0.064134  1
  Lu  Lu14  1  0.435866  0.435866  0.064134  1
  Lu  Lu15  1  0.064134  0.064134  0.435866  1
  Cd  Cd16  1  0.831102  0.831102  0.831102  1
  Cd  Cd17  1  0.831102  0.831102  0.506693  1
  Cd  Cd18  1  0.831102  0.506693  0.831102  1
  Cd  Cd19  1  0.506693  0.831102  0.831102  1
  Ni  Ni20  1  0.391259  0.391259  0.391259  1
  Ni  Ni21  1  0.391259  0.391259  0.826224  1
  Ni  Ni22  1  0.391259  0.826224  0.391259  1
  Ni  Ni23  1  0.826224  0.391259  0.391259  1
