# generated using pymatgen
data_Tm7CoI12
_symmetry_space_group_name_H-M   'P 1'
_cell_length_a   9.64467624
_cell_length_b   9.64467681
_cell_length_c   9.64467625
_cell_angle_alpha   106.86479286
_cell_angle_beta   106.86479960
_cell_angle_gamma   106.86479803
_symmetry_Int_Tables_number   1
_chemical_formula_structural   Tm7CoI12
_chemical_formula_sum   'Tm7 Co1 I12'
_cell_volume   749.89010865
_cell_formula_units_Z   1
loop_
 _symmetry_equiv_pos_site_id
 _symmetry_equiv_pos_as_xyz
  1  'x, y, z'
loop_
 _atom_site_type_symbol
 _atom_site_label
 _atom_site_symmetry_multiplicity
 _atom_site_fract_x
 _atom_site_fract_y
 _atom_site_fract_z
 _atom_site_occupancy
  Tm  Tm0  1  0.500000  0.500000  0.500000  1
  Tm  Tm1  1  0.021638  0.090566  0.284428  1
  Tm  Tm2  1  0.090566  0.284428  0.021638  1
  Tm  Tm3  1  0.284428  0.021638  0.090566  1
  Tm  Tm4  1  0.978362  0.909434  0.715572  1
  Tm  Tm5  1  0.909434  0.715572  0.978362  1
  Tm  Tm6  1  0.715572  0.978362  0.909434  1
  Co  Co7  1  0.000000  0.000000  0.000000  1
  I  I8  1  0.161554  0.464627  0.387497  1
  I  I9  1  0.464627  0.387497  0.161554  1
  I  I10  1  0.387497  0.161554  0.464627  1
  I  I11  1  0.838446  0.535373  0.612503  1
  I  I12  1  0.535373  0.612503  0.838446  1
  I  I13  1  0.612503  0.838446  0.535373  1
  I  I14  1  0.676885  0.071687  0.224864  1
  I  I15  1  0.071687  0.224864  0.676885  1
  I  I16  1  0.224864  0.676885  0.071687  1
  I  I17  1  0.323115  0.928313  0.775136  1
  I  I18  1  0.928313  0.775136  0.323115  1
  I  I19  1  0.775136  0.323115  0.928313  1
