# generated using pymatgen
data_Tb9Lu7(ScBi3)4
_symmetry_space_group_name_H-M   'P 1'
_cell_length_a   8.09760336
_cell_length_b   9.34400073
_cell_length_c   11.96891296
_cell_angle_alpha   90.02311528
_cell_angle_beta   89.92225995
_cell_angle_gamma   90.03907596
_symmetry_Int_Tables_number   1
_chemical_formula_structural   Tb9Lu7(ScBi3)4
_chemical_formula_sum   'Tb9 Lu7 Sc4 Bi12'
_cell_volume   905.61485294
_cell_formula_units_Z   1
loop_
 _symmetry_equiv_pos_site_id
 _symmetry_equiv_pos_as_xyz
  1  'x, y, z'
loop_
 _atom_site_type_symbol
 _atom_site_label
 _atom_site_symmetry_multiplicity
 _atom_site_fract_x
 _atom_site_fract_y
 _atom_site_fract_z
 _atom_site_occupancy
  Tb  Tb0  1  0.355697  0.250481  0.284523  1
  Tb  Tb1  1  0.645933  0.750242  0.715679  1
  Tb  Tb2  1  0.146442  0.751788  0.783784  1
  Tb  Tb3  1  0.853203  0.251309  0.216653  1
  Tb  Tb4  1  0.184373  0.250430  0.779959  1
  Tb  Tb5  1  0.816294  0.750019  0.219786  1
  Tb  Tb6  1  0.315479  0.750570  0.280157  1
  Tb  Tb7  1  0.684566  0.250597  0.719190  1
  Tb  Tb8  1  0.193251  0.062891  0.058855  1
  Lu  Lu9  1  0.806590  0.932028  0.941651  1
  Lu  Lu10  1  0.306033  0.932585  0.557952  1
  Lu  Lu11  1  0.803905  0.566662  0.940921  1
  Lu  Lu12  1  0.694163  0.067885  0.441860  1
  Lu  Lu13  1  0.194851  0.430925  0.059052  1
  Lu  Lu14  1  0.694542  0.432654  0.442175  1
  Lu  Lu15  1  0.305473  0.567659  0.558200  1
  Sc  Sc16  1  0.022112  0.250201  0.512333  1
  Sc  Sc17  1  0.977419  0.750808  0.488341  1
  Sc  Sc18  1  0.476984  0.750726  0.012245  1
  Sc  Sc19  1  0.524036  0.250368  0.987680  1
  Bi  Bi20  1  0.399342  0.250141  0.543596  1
  Bi  Bi21  1  0.600234  0.750130  0.456374  1
  Bi  Bi22  1  0.098394  0.743738  0.042303  1
  Bi  Bi23  1  0.899228  0.250678  0.956424  1
  Bi  Bi24  1  0.065228  0.004899  0.333056  1
  Bi  Bi25  1  0.933960  0.996049  0.666757  1
  Bi  Bi26  1  0.434926  0.996348  0.832172  1
  Bi  Bi27  1  0.934432  0.505268  0.667440  1
  Bi  Bi28  1  0.567244  0.004581  0.167258  1
  Bi  Bi29  1  0.065844  0.495966  0.333527  1
  Bi  Bi30  1  0.565576  0.496404  0.167296  1
  Bi  Bi31  1  0.434244  0.504972  0.832803  1
