# generated using pymatgen
data_LiSm8(Si4Au)3
_symmetry_space_group_name_H-M   'P 1'
_cell_length_a   11.07732890
_cell_length_b   9.41204580
_cell_length_c   8.26587800
_cell_angle_alpha   77.30128263
_cell_angle_beta   56.00805857
_cell_angle_gamma   46.71442918
_symmetry_Int_Tables_number   1
_chemical_formula_structural   LiSm8(Si4Au)3
_chemical_formula_sum   'Li1 Sm8 Si12 Au3'
_cell_volume   500.69404323
_cell_formula_units_Z   1
loop_
 _symmetry_equiv_pos_site_id
 _symmetry_equiv_pos_as_xyz
  1  'x, y, z'
loop_
 _atom_site_type_symbol
 _atom_site_label
 _atom_site_symmetry_multiplicity
 _atom_site_fract_x
 _atom_site_fract_y
 _atom_site_fract_z
 _atom_site_occupancy
  Li  Li0  1  0.832939  0.167061  0.832939  1
  Sm  Sm1  1  0.123388  0.123911  0.375210  1
  Sm  Sm2  1  0.877034  0.875874  0.124337  1
  Sm  Sm3  1  0.124337  0.122757  0.877034  1
  Sm  Sm4  1  0.375210  0.377493  0.123388  1
  Sm  Sm5  1  0.620348  0.620624  0.379841  1
  Sm  Sm6  1  0.379841  0.379188  0.620348  1
  Sm  Sm7  1  0.627385  0.627204  0.872439  1
  Sm  Sm8  1  0.872439  0.872972  0.627385  1
  Si  Si9  1  0.336419  0.663075  0.826530  1
  Si  Si10  1  0.163008  0.836878  0.668632  1
  Si  Si11  1  0.826530  0.173974  0.336419  1
  Si  Si12  1  0.668632  0.331480  0.163008  1
  Si  Si13  1  0.916816  0.588854  0.418917  1
  Si  Si14  1  0.075086  0.418364  0.589305  1
  Si  Si15  1  0.418917  0.075413  0.916816  1
  Si  Si16  1  0.914062  0.585938  0.914062  1
  Si  Si17  1  0.667880  0.332120  0.667880  1
  Si  Si18  1  0.337485  0.662515  0.337485  1
  Si  Si19  1  0.586082  0.913918  0.586082  1
  Si  Si20  1  0.589305  0.917246  0.075086  1
  Au  Au21  1  0.082631  0.417369  0.082631  1
  Au  Au22  1  0.167146  0.832854  0.167146  1
  Au  Au23  1  0.417078  0.082922  0.417078  1
