# generated using pymatgen
data_La13TbRh5Au
_symmetry_space_group_name_H-M   'P 1'
_cell_length_a   10.27112000
_cell_length_b   10.24074506
_cell_length_c   6.58140789
_cell_angle_alpha   90.17149367
_cell_angle_beta   90.00000000
_cell_angle_gamma   120.09817245
_symmetry_Int_Tables_number   1
_chemical_formula_structural   La13TbRh5Au
_chemical_formula_sum   'La13 Tb1 Rh5 Au1'
_cell_volume   598.91573180
_cell_formula_units_Z   1
loop_
 _symmetry_equiv_pos_site_id
 _symmetry_equiv_pos_as_xyz
  1  'x, y, z'
loop_
 _atom_site_type_symbol
 _atom_site_label
 _atom_site_symmetry_multiplicity
 _atom_site_fract_x
 _atom_site_fract_y
 _atom_site_fract_z
 _atom_site_occupancy
  La  La0  1  0.337553  0.675108  0.070295  1
  La  La1  1  0.876575  0.753151  0.783025  1
  La  La2  1  0.260087  0.118587  0.783045  1
  La  La3  1  0.858501  0.118587  0.783045  1
  La  La4  1  0.125303  0.250606  0.301660  1
  La  La5  1  0.751517  0.876073  0.283152  1
  La  La6  1  0.124555  0.876073  0.283152  1
  La  La7  1  0.458042  0.916084  0.588606  1
  La  La8  1  0.066587  0.543732  0.592575  1
  La  La9  1  0.477145  0.543732  0.592575  1
  La  La10  1  0.539715  0.079428  0.101760  1
  La  La11  1  0.918907  0.461602  0.094903  1
  La  La12  1  0.542696  0.461602  0.094903  1
  Tb  Tb13  1  0.665345  0.330688  0.557837  1
  Rh  Rh14  1  0.623813  0.808350  0.831102  1
  Rh  Rh15  1  0.184538  0.808350  0.831102  1
  Rh  Rh16  1  0.811699  0.623400  0.337070  1
  Rh  Rh17  1  0.375520  0.190593  0.333437  1
  Rh  Rh18  1  0.815072  0.190593  0.333437  1
  Au  Au19  1  0.186830  0.373660  0.838370  1
