# generated using pymatgen
data_Er3TmGa4(RuPt)2
_symmetry_space_group_name_H-M   'P 1'
_cell_length_a   4.31535400
_cell_length_b   6.82906174
_cell_length_c   7.77854684
_cell_angle_alpha   89.94678346
_cell_angle_beta   90.00000000
_cell_angle_gamma   90.00000000
_symmetry_Int_Tables_number   1
_chemical_formula_structural   Er3TmGa4(RuPt)2
_chemical_formula_sum   'Er3 Tm1 Ga4 Ru2 Pt2'
_cell_volume   229.23226762
_cell_formula_units_Z   1
loop_
 _symmetry_equiv_pos_site_id
 _symmetry_equiv_pos_as_xyz
  1  'x, y, z'
loop_
 _atom_site_type_symbol
 _atom_site_label
 _atom_site_symmetry_multiplicity
 _atom_site_fract_x
 _atom_site_fract_y
 _atom_site_fract_z
 _atom_site_occupancy
  Er  Er0  1  0.250000  0.974713  0.314843  1
  Er  Er1  1  0.250000  0.474692  0.184852  1
  Er  Er2  1  0.750000  0.019312  0.693810  1
  Tm  Tm3  1  0.750000  0.519489  0.806349  1
  Ga  Ga4  1  0.250000  0.344283  0.573017  1
  Ga  Ga5  1  0.250000  0.843960  0.926985  1
  Ga  Ga6  1  0.750000  0.663225  0.434980  1
  Ga  Ga7  1  0.750000  0.163575  0.065044  1
  Ru  Ru8  1  0.250000  0.230832  0.891134  1
  Ru  Ru9  1  0.250000  0.729973  0.608945  1
  Pt  Pt10  1  0.750000  0.768029  0.109560  1
  Pt  Pt11  1  0.750000  0.267919  0.390481  1
