# generated using pymatgen
data_Yb4AlGa3O10
_symmetry_space_group_name_H-M   'P 1'
_cell_length_a   5.28768000
_cell_length_b   5.48911635
_cell_length_c   15.61415057
_cell_angle_alpha   69.18012866
_cell_angle_beta   90.00000000
_cell_angle_gamma   90.00000000
_symmetry_Int_Tables_number   1
_chemical_formula_structural   Yb4AlGa3O10
_chemical_formula_sum   'Yb8 Al2 Ga6 O20'
_cell_volume   423.60331546
_cell_formula_units_Z   2
loop_
 _symmetry_equiv_pos_site_id
 _symmetry_equiv_pos_as_xyz
  1  'x, y, z'
loop_
 _atom_site_type_symbol
 _atom_site_label
 _atom_site_symmetry_multiplicity
 _atom_site_fract_x
 _atom_site_fract_y
 _atom_site_fract_z
 _atom_site_occupancy
  Yb  Yb0  1  0.013176  0.630739  0.894670  1
  Yb  Yb1  1  0.513176  0.369261  0.605330  1
  Yb  Yb2  1  0.989633  0.080463  0.394986  1
  Yb  Yb3  1  0.489633  0.919537  0.105014  1
  Yb  Yb4  1  0.986824  0.369261  0.105330  1
  Yb  Yb5  1  0.486824  0.630739  0.394670  1
  Yb  Yb6  1  0.010367  0.919537  0.605014  1
  Yb  Yb7  1  0.510367  0.080463  0.894986  1
  Al  Al8  1  0.500000  0.000000  0.500000  1
  Al  Al9  1  0.000000  0.000000  0.000000  1
  Ga  Ga10  1  0.550450  0.683789  0.748031  1
  Ga  Ga11  1  0.050450  0.316211  0.751969  1
  Ga  Ga12  1  0.449550  0.316211  0.251969  1
  Ga  Ga13  1  0.949550  0.683789  0.248031  1
  Ga  Ga14  1  0.500000  0.500000  0.000000  1
  Ga  Ga15  1  0.000000  0.500000  0.500000  1
  O  O16  1  0.242422  0.737096  0.012706  1
  O  O17  1  0.742422  0.262904  0.487294  1
  O  O18  1  0.749920  0.746793  0.513125  1
  O  O19  1  0.249920  0.253207  0.986875  1
  O  O20  1  0.757578  0.262904  0.987294  1
  O  O21  1  0.257578  0.737096  0.512706  1
  O  O22  1  0.250080  0.253207  0.486875  1
  O  O23  1  0.750080  0.746793  0.013125  1
  O  O24  1  0.909062  0.636137  0.750257  1
  O  O25  1  0.409062  0.363863  0.749743  1
  O  O26  1  0.090938  0.363863  0.249743  1
  O  O27  1  0.590938  0.636137  0.250257  1
  O  O28  1  0.466808  0.715149  0.857676  1
  O  O29  1  0.966808  0.284851  0.642324  1
  O  O30  1  0.524942  0.070969  0.364319  1
  O  O31  1  0.024942  0.929031  0.135681  1
  O  O32  1  0.533192  0.284851  0.142324  1
  O  O33  1  0.033192  0.715149  0.357676  1
  O  O34  1  0.475058  0.929031  0.635681  1
  O  O35  1  0.975058  0.070969  0.864319  1
