# generated using pymatgen
data_Ho2LuMg3Si2Ag
_symmetry_space_group_name_H-M   'P 1'
_cell_length_a   7.22457700
_cell_length_b   7.19779836
_cell_length_c   4.29642800
_cell_angle_alpha   90.00000000
_cell_angle_beta   90.00000000
_cell_angle_gamma   120.12314150
_symmetry_Int_Tables_number   1
_chemical_formula_structural   Ho2LuMg3Si2Ag
_chemical_formula_sum   'Ho2 Lu1 Mg3 Si2 Ag1'
_cell_volume   193.24578731
_cell_formula_units_Z   1
loop_
 _symmetry_equiv_pos_site_id
 _symmetry_equiv_pos_as_xyz
  1  'x, y, z'
loop_
 _atom_site_type_symbol
 _atom_site_label
 _atom_site_symmetry_multiplicity
 _atom_site_fract_x
 _atom_site_fract_y
 _atom_site_fract_z
 _atom_site_occupancy
  Ho  Ho0  1  0.001073  0.577837  0.000000  1
  Ho  Ho1  1  0.423235  0.422163  0.000000  1
  Lu  Lu2  1  0.577579  0.000000  0.000000  1
  Mg  Mg3  1  0.249676  0.000000  0.500000  1
  Mg  Mg4  1  0.999140  0.247921  0.500000  1
  Mg  Mg5  1  0.751219  0.752079  0.500000  1
  Si  Si6  1  0.334606  0.668574  0.500000  1
  Si  Si7  1  0.666034  0.331426  0.500000  1
  Ag  Ag8  1  0.997439  0.000000  0.000000  1
