# generated using pymatgen
data_La3Pr3Nd2(CdRu)2
_symmetry_space_group_name_H-M   'P 1'
_cell_length_a   10.01962615
_cell_length_b   10.05551884
_cell_length_c   10.06098283
_cell_angle_alpha   59.27247788
_cell_angle_beta   59.85353565
_cell_angle_gamma   59.84706291
_symmetry_Int_Tables_number   1
_chemical_formula_structural   La3Pr3Nd2(CdRu)2
_chemical_formula_sum   'La6 Pr6 Nd4 Cd4 Ru4'
_cell_volume   711.14938063
_cell_formula_units_Z   2
loop_
 _symmetry_equiv_pos_site_id
 _symmetry_equiv_pos_as_xyz
  1  'x, y, z'
loop_
 _atom_site_type_symbol
 _atom_site_label
 _atom_site_symmetry_multiplicity
 _atom_site_fract_x
 _atom_site_fract_y
 _atom_site_fract_z
 _atom_site_occupancy
  La  La0  1  0.345620  0.344910  0.344984  1
  La  La1  1  0.345804  0.343800  0.962318  1
  La  La2  1  0.345780  0.962375  0.343804  1
  La  La3  1  0.961193  0.345953  0.345981  1
  La  La4  1  0.813425  0.187336  0.187348  1
  La  La5  1  0.188743  0.813698  0.813726  1
  Pr  Pr6  1  0.933878  0.565486  0.565504  1
  Pr  Pr7  1  0.564626  0.937637  0.937606  1
  Pr  Pr8  1  0.562649  0.936904  0.563237  1
  Pr  Pr9  1  0.940287  0.561790  0.940034  1
  Pr  Pr10  1  0.562617  0.563204  0.936993  1
  Pr  Pr11  1  0.940316  0.940061  0.561757  1
  Nd  Nd12  1  0.190797  0.809299  0.190189  1
  Nd  Nd13  1  0.809844  0.192075  0.810561  1
  Nd  Nd14  1  0.190784  0.190220  0.809265  1
  Nd  Nd15  1  0.809828  0.810573  0.192044  1
  Cd  Cd16  1  0.581037  0.578146  0.578144  1
  Cd  Cd17  1  0.577986  0.580978  0.261170  1
  Cd  Cd18  1  0.577993  0.261168  0.580967  1
  Cd  Cd19  1  0.261575  0.578104  0.578103  1
  Ru  Ru20  1  0.128398  0.142365  0.142314  1
  Ru  Ru21  1  0.141179  0.126398  0.586279  1
  Ru  Ru22  1  0.141184  0.586262  0.126411  1
  Ru  Ru23  1  0.584458  0.141258  0.141262  1
