# generated using pymatgen
data_Er2Tm3In4PtRh
_symmetry_space_group_name_H-M   'P 1'
_cell_length_a   3.58845000
_cell_length_b   8.06940443
_cell_length_c   18.07703448
_cell_angle_alpha   90.02285313
_cell_angle_beta   90.00000000
_cell_angle_gamma   90.00000000
_symmetry_Int_Tables_number   1
_chemical_formula_structural   Er2Tm3In4PtRh
_chemical_formula_sum   'Er4 Tm6 In8 Pt2 Rh2'
_cell_volume   523.45039733
_cell_formula_units_Z   2
loop_
 _symmetry_equiv_pos_site_id
 _symmetry_equiv_pos_as_xyz
  1  'x, y, z'
loop_
 _atom_site_type_symbol
 _atom_site_label
 _atom_site_symmetry_multiplicity
 _atom_site_fract_x
 _atom_site_fract_y
 _atom_site_fract_z
 _atom_site_occupancy
  Er  Er0  1  0.000000  0.251808  0.720563  1
  Er  Er1  1  0.000000  0.748192  0.279437  1
  Er  Er2  1  0.000000  0.000000  0.000000  1
  Er  Er3  1  0.000000  0.500000  0.500000  1
  Tm  Tm4  1  0.000000  0.115263  0.412372  1
  Tm  Tm5  1  0.000000  0.884737  0.587628  1
  Tm  Tm6  1  0.000000  0.383213  0.913418  1
  Tm  Tm7  1  0.000000  0.616787  0.086582  1
  Tm  Tm8  1  0.000000  0.239117  0.221586  1
  Tm  Tm9  1  0.000000  0.760883  0.778414  1
  In  In10  1  0.500000  0.422239  0.351511  1
  In  In11  1  0.500000  0.577761  0.648489  1
  In  In12  1  0.500000  0.073029  0.850320  1
  In  In13  1  0.500000  0.926971  0.149680  1
  In  In14  1  0.500000  0.292500  0.066084  1
  In  In15  1  0.500000  0.707500  0.933916  1
  In  In16  1  0.500000  0.206068  0.567428  1
  In  In17  1  0.500000  0.793932  0.432572  1
  Pt  Pt18  1  0.500000  0.478728  0.803785  1
  Pt  Pt19  1  0.500000  0.521272  0.196215  1
  Rh  Rh20  1  0.500000  0.023019  0.304706  1
  Rh  Rh21  1  0.500000  0.976981  0.695294  1
