# generated using pymatgen
data_DyHo5Al24Os5Pt3
_symmetry_space_group_name_H-M   'P 1'
_cell_length_a   8.80674722
_cell_length_b   8.82680014
_cell_length_c   9.54365163
_cell_angle_alpha   90.13533330
_cell_angle_beta   89.72094502
_cell_angle_gamma   119.50578846
_symmetry_Int_Tables_number   1
_chemical_formula_structural   DyHo5Al24Os5Pt3
_chemical_formula_sum   'Dy1 Ho5 Al24 Os5 Pt3'
_cell_volume   645.65452609
_cell_formula_units_Z   1
loop_
 _symmetry_equiv_pos_site_id
 _symmetry_equiv_pos_as_xyz
  1  'x, y, z'
loop_
 _atom_site_type_symbol
 _atom_site_label
 _atom_site_symmetry_multiplicity
 _atom_site_fract_x
 _atom_site_fract_y
 _atom_site_fract_z
 _atom_site_occupancy
  Dy  Dy0  1  0.188115  0.383467  0.250480  1
  Ho  Ho1  1  0.811737  0.615664  0.749326  1
  Ho  Ho2  1  0.612342  0.813626  0.252083  1
  Ho  Ho3  1  0.387632  0.186427  0.747943  1
  Ho  Ho4  1  0.195501  0.808761  0.251402  1
  Ho  Ho5  1  0.804553  0.191345  0.748583  1
  Al  Al6  1  0.335160  0.671243  0.030783  1
  Al  Al7  1  0.664927  0.328939  0.968935  1
  Al  Al8  1  0.669380  0.331542  0.529224  1
  Al  Al9  1  0.330572  0.668565  0.471014  1
  Al  Al10  1  0.158247  0.325693  0.575021  1
  Al  Al11  1  0.841741  0.674382  0.425239  1
  Al  Al12  1  0.673400  0.840634  0.575566  1
  Al  Al13  1  0.836625  0.676015  0.077932  1
  Al  Al14  1  0.326688  0.159332  0.424597  1
  Al  Al15  1  0.163428  0.324044  0.921807  1
  Al  Al16  1  0.163728  0.834872  0.576313  1
  Al  Al17  1  0.325843  0.158907  0.076235  1
  Al  Al18  1  0.836092  0.165136  0.423892  1
  Al  Al19  1  0.674295  0.841062  0.923578  1
  Al  Al20  1  0.831549  0.159441  0.077715  1
  Al  Al21  1  0.168310  0.840561  0.922124  1
  Al  Al22  1  0.560725  0.125274  0.249876  1
  Al  Al23  1  0.439302  0.874759  0.750148  1
  Al  Al24  1  0.873868  0.437999  0.252692  1
  Al  Al25  1  0.126085  0.562129  0.747399  1
  Al  Al26  1  0.562776  0.436732  0.249767  1
  Al  Al27  1  0.437508  0.563375  0.750229  1
  Al  Al28  1  0.998156  0.002384  0.250213  1
  Al  Al29  1  0.001470  0.996962  0.749788  1
  Os  Os30  1  0.500041  0.000085  0.999981  1
  Os  Os31  1  0.500010  0.000066  0.500036  1
  Os  Os32  1  0.999880  0.500092  0.500210  1
  Os  Os33  1  0.000016  0.000057  0.999993  1
  Os  Os34  1  0.000009  0.000060  0.500004  1
  Pt  Pt35  1  0.999919  0.500118  0.999878  1
  Pt  Pt36  1  0.500214  0.500138  0.999876  1
  Pt  Pt37  1  0.500160  0.500112  0.500117  1
