# generated using pymatgen
data_Tm9Hf11Si16
_symmetry_space_group_name_H-M   'P 1'
_cell_length_a   7.27114720
_cell_length_b   7.27072752
_cell_length_c   13.36419980
_cell_angle_alpha   89.82909859
_cell_angle_beta   90.10174355
_cell_angle_gamma   89.96773716
_symmetry_Int_Tables_number   1
_chemical_formula_structural   Tm9Hf11Si16
_chemical_formula_sum   'Tm9 Hf11 Si16'
_cell_volume   706.51449907
_cell_formula_units_Z   1
loop_
 _symmetry_equiv_pos_site_id
 _symmetry_equiv_pos_as_xyz
  1  'x, y, z'
loop_
 _atom_site_type_symbol
 _atom_site_label
 _atom_site_symmetry_multiplicity
 _atom_site_fract_x
 _atom_site_fract_y
 _atom_site_fract_z
 _atom_site_occupancy
  Tm  Tm0  1  0.494132  0.154166  0.535223  1
  Tm  Tm1  1  0.504757  0.846643  0.034733  1
  Tm  Tm2  1  0.653226  0.003914  0.288194  1
  Tm  Tm3  1  0.345125  0.992593  0.783823  1
  Tm  Tm4  1  0.850236  0.504890  0.961767  1
  Tm  Tm5  1  0.152968  0.496303  0.466460  1
  Tm  Tm6  1  0.004904  0.652826  0.714980  1
  Tm  Tm7  1  0.997330  0.347162  0.214726  1
  Tm  Tm8  1  0.503967  0.353500  0.125336  1
  Hf  Hf9  1  0.675906  0.323754  0.749025  1
  Hf  Hf10  1  0.321680  0.677184  0.251404  1
  Hf  Hf11  1  0.823117  0.824528  0.500525  1
  Hf  Hf12  1  0.176581  0.173631  0.998539  1
  Hf  Hf13  1  0.501565  0.646953  0.625592  1
  Hf  Hf14  1  0.852402  0.001370  0.872770  1
  Hf  Hf15  1  0.146003  0.998460  0.376656  1
  Hf  Hf16  1  0.645865  0.504929  0.376901  1
  Hf  Hf17  1  0.351438  0.497059  0.873574  1
  Hf  Hf18  1  0.000774  0.851621  0.124873  1
  Hf  Hf19  1  0.996505  0.147359  0.625024  1
  Si  Si20  1  0.806974  0.140294  0.062684  1
  Si  Si21  1  0.203829  0.858583  0.567951  1
  Si  Si22  1  0.640316  0.703942  0.817395  1
  Si  Si23  1  0.357073  0.294936  0.322515  1
  Si  Si24  1  0.858062  0.205683  0.432508  1
  Si  Si25  1  0.140289  0.795178  0.931911  1
  Si  Si26  1  0.706991  0.650285  0.187136  1
  Si  Si27  1  0.295779  0.357244  0.682323  1
  Si  Si28  1  0.548458  0.200285  0.931111  1
  Si  Si29  1  0.448251  0.796484  0.436392  1
  Si  Si30  1  0.703504  0.949926  0.684697  1
  Si  Si31  1  0.293275  0.044396  0.187094  1
  Si  Si32  1  0.795782  0.451373  0.564735  1
  Si  Si33  1  0.201878  0.552880  0.062477  1
  Si  Si34  1  0.950838  0.705282  0.315379  1
  Si  Si35  1  0.050219  0.294385  0.813569  1
