# generated using pymatgen
data_PrSmPPt8
_symmetry_space_group_name_H-M   'P 1'
_cell_length_a   9.18405301
_cell_length_b   9.18044506
_cell_length_c   4.31326800
_cell_angle_alpha   90.00000000
_cell_angle_beta   90.00000000
_cell_angle_gamma   145.57138895
_symmetry_Int_Tables_number   1
_chemical_formula_structural   PrSmPPt8
_chemical_formula_sum   'Pr1 Sm1 P1 Pt8'
_cell_volume   205.60998584
_cell_formula_units_Z   1
loop_
 _symmetry_equiv_pos_site_id
 _symmetry_equiv_pos_as_xyz
  1  'x, y, z'
loop_
 _atom_site_type_symbol
 _atom_site_label
 _atom_site_symmetry_multiplicity
 _atom_site_fract_x
 _atom_site_fract_y
 _atom_site_fract_z
 _atom_site_occupancy
  Pr  Pr0  1  0.373152  0.619199  0.500000  1
  Sm  Sm1  1  0.621525  0.373386  0.500000  1
  P  P2  1  0.223998  0.223710  0.000000  1
  Pt  Pt3  1  0.110212  0.890367  0.000000  1
  Pt  Pt4  1  0.890245  0.110321  0.000000  1
  Pt  Pt5  1  0.488643  0.984545  0.000000  1
  Pt  Pt6  1  0.982299  0.489362  0.000000  1
  Pt  Pt7  1  0.193913  0.793167  0.500000  1
  Pt  Pt8  1  0.791214  0.195688  0.500000  1
  Pt  Pt9  1  0.004163  0.003117  0.500000  1
  Pt  Pt10  1  0.634234  0.630737  0.000000  1
