# generated using pymatgen
data_Tb(Y2Co)2
_symmetry_space_group_name_H-M   'P 1'
_cell_length_a   6.35437121
_cell_length_b   6.97929315
_cell_length_c   8.59893399
_cell_angle_alpha   96.33370483
_cell_angle_beta   111.68391530
_cell_angle_gamma   89.99999991
_symmetry_Int_Tables_number   1
_chemical_formula_structural   Tb(Y2Co)2
_chemical_formula_sum   'Tb2 Y8 Co4'
_cell_volume   351.86208738
_cell_formula_units_Z   2
loop_
 _symmetry_equiv_pos_site_id
 _symmetry_equiv_pos_as_xyz
  1  'x, y, z'
loop_
 _atom_site_type_symbol
 _atom_site_label
 _atom_site_symmetry_multiplicity
 _atom_site_fract_x
 _atom_site_fract_y
 _atom_site_fract_z
 _atom_site_occupancy
  Tb  Tb0  1  0.428646  0.750000  0.000000  1
  Tb  Tb1  1  0.571354  0.250000  0.000000  1
  Y  Y2  1  0.983020  0.910940  0.188133  1
  Y  Y3  1  0.794888  0.589060  0.811867  1
  Y  Y4  1  0.016980  0.089060  0.811867  1
  Y  Y5  1  0.205112  0.410940  0.188133  1
  Y  Y6  1  0.650592  0.816984  0.433459  1
  Y  Y7  1  0.217133  0.683016  0.566541  1
  Y  Y8  1  0.349408  0.183016  0.566541  1
  Y  Y9  1  0.782867  0.316984  0.433459  1
  Co  Co10  1  0.820757  0.570206  0.218153  1
  Co  Co11  1  0.602604  0.929794  0.781847  1
  Co  Co12  1  0.179243  0.429794  0.781847  1
  Co  Co13  1  0.397396  0.070206  0.218153  1
