# generated using pymatgen
data_Tm17Lu3(Ir2Rh)4
_symmetry_space_group_name_H-M   'P 1'
_cell_length_a   10.71505500
_cell_length_b   10.71505500
_cell_length_c   6.30768000
_cell_angle_alpha   90.00000000
_cell_angle_beta   90.00000000
_cell_angle_gamma   90.00000000
_symmetry_Int_Tables_number   1
_chemical_formula_structural   Tm17Lu3(Ir2Rh)4
_chemical_formula_sum   'Tm17 Lu3 Ir8 Rh4'
_cell_volume   724.19990227
_cell_formula_units_Z   1
loop_
 _symmetry_equiv_pos_site_id
 _symmetry_equiv_pos_as_xyz
  1  'x, y, z'
loop_
 _atom_site_type_symbol
 _atom_site_label
 _atom_site_symmetry_multiplicity
 _atom_site_fract_x
 _atom_site_fract_y
 _atom_site_fract_z
 _atom_site_occupancy
  Tm  Tm0  1  0.290440  0.088192  0.378039  1
  Tm  Tm1  1  0.290443  0.911781  0.878016  1
  Tm  Tm2  1  0.709557  0.088219  0.878016  1
  Tm  Tm3  1  0.709560  0.911808  0.378039  1
  Tm  Tm4  1  0.588224  0.790483  0.878033  1
  Tm  Tm5  1  0.588256  0.209413  0.377973  1
  Tm  Tm6  1  0.411744  0.790587  0.377973  1
  Tm  Tm7  1  0.411776  0.209517  0.878033  1
  Tm  Tm8  1  0.209413  0.411744  0.622027  1
  Tm  Tm9  1  0.209517  0.588224  0.121967  1
  Tm  Tm10  1  0.790483  0.411776  0.121967  1
  Tm  Tm11  1  0.790587  0.588256  0.622027  1
  Tm  Tm12  1  0.911781  0.709557  0.121984  1
  Tm  Tm13  1  0.911808  0.290440  0.621961  1
  Tm  Tm14  1  0.088192  0.709560  0.621961  1
  Tm  Tm15  1  0.088219  0.290443  0.121984  1
  Tm  Tm16  1  0.500000  0.500000  0.500000  1
  Lu  Lu17  1  0.000000  0.000000  0.500000  1
  Lu  Lu18  1  0.000000  0.000000  0.000000  1
  Lu  Lu19  1  0.500000  0.500000  0.000000  1
  Ir  Ir20  1  0.846397  0.153595  0.250009  1
  Ir  Ir21  1  0.846405  0.846397  0.749991  1
  Ir  Ir22  1  0.153595  0.153603  0.749991  1
  Ir  Ir23  1  0.153603  0.846405  0.250009  1
  Ir  Ir24  1  0.653830  0.346172  0.750327  1
  Ir  Ir25  1  0.653828  0.653830  0.249673  1
  Ir  Ir26  1  0.346172  0.346170  0.249673  1
  Ir  Ir27  1  0.346170  0.653828  0.750327  1
  Rh  Rh28  1  0.500000  0.000000  0.122874  1
  Rh  Rh29  1  0.500000  0.000000  0.622888  1
  Rh  Rh30  1  0.000000  0.500000  0.877126  1
  Rh  Rh31  1  0.000000  0.500000  0.377112  1
