# generated using pymatgen
data_Tb2Y5Sn23Os6
_symmetry_space_group_name_H-M   'P 1'
_cell_length_a   9.86932532
_cell_length_b   9.86932581
_cell_length_c   10.13558708
_cell_angle_alpha   90.01257129
_cell_angle_beta   89.98743147
_cell_angle_gamma   120.02624792
_symmetry_Int_Tables_number   1
_chemical_formula_structural   Tb2Y5Sn23Os6
_chemical_formula_sum   'Tb2 Y5 Sn23 Os6'
_cell_volume   854.75086750
_cell_formula_units_Z   1
loop_
 _symmetry_equiv_pos_site_id
 _symmetry_equiv_pos_as_xyz
  1  'x, y, z'
loop_
 _atom_site_type_symbol
 _atom_site_label
 _atom_site_symmetry_multiplicity
 _atom_site_fract_x
 _atom_site_fract_y
 _atom_site_fract_z
 _atom_site_occupancy
  Tb  Tb0  1  0.031324  0.515692  0.302434  1
  Tb  Tb1  1  0.484308  0.968676  0.302434  1
  Y  Y2  1  0.999998  0.000002  0.999998  1
  Y  Y3  1  0.484318  0.515682  0.302504  1
  Y  Y4  1  0.968603  0.484317  0.697466  1
  Y  Y5  1  0.515683  0.031397  0.697466  1
  Y  Y6  1  0.515649  0.484351  0.697503  1
  Sn  Sn7  1  0.999979  0.000021  0.500017  1
  Sn  Sn8  1  0.117389  0.882611  0.275417  1
  Sn  Sn9  1  0.765359  0.882637  0.275430  1
  Sn  Sn10  1  0.117363  0.234641  0.275430  1
  Sn  Sn11  1  0.882640  0.117360  0.724635  1
  Sn  Sn12  1  0.234608  0.117266  0.724607  1
  Sn  Sn13  1  0.882734  0.765392  0.724607  1
  Sn  Sn14  1  0.349577  0.999940  0.000010  1
  Sn  Sn15  1  0.650307  0.650359  0.000022  1
  Sn  Sn16  1  0.000117  0.349678  0.999976  1
  Sn  Sn17  1  0.349641  0.349693  0.000022  1
  Sn  Sn18  1  0.000060  0.650423  0.000010  1
  Sn  Sn19  1  0.650322  0.999883  0.999976  1
  Sn  Sn20  1  0.780469  0.560894  0.462175  1
  Sn  Sn21  1  0.780471  0.219529  0.462323  1
  Sn  Sn22  1  0.439106  0.219531  0.462175  1
  Sn  Sn23  1  0.219439  0.439117  0.537882  1
  Sn  Sn24  1  0.219521  0.780479  0.537891  1
  Sn  Sn25  1  0.560883  0.780561  0.537882  1
  Sn  Sn26  1  0.666657  0.333343  0.175345  1
  Sn  Sn27  1  0.333319  0.666681  0.824497  1
  Sn  Sn28  1  0.666677  0.333323  0.872098  1
  Sn  Sn29  1  0.333361  0.666639  0.127873  1
  Os  Os30  1  0.170006  0.829994  0.798080  1
  Os  Os31  1  0.660053  0.829888  0.798011  1
  Os  Os32  1  0.170112  0.339947  0.798011  1
  Os  Os33  1  0.829958  0.170042  0.201935  1
  Os  Os34  1  0.340012  0.170022  0.201927  1
  Os  Os35  1  0.829978  0.659988  0.201927  1
