# generated using pymatgen
data_Mn2Nb8FeSi14Ni5
_symmetry_space_group_name_H-M   'P 1'
_cell_length_a   9.27509751
_cell_length_b   9.27085412
_cell_length_c   9.29876371
_cell_angle_alpha   94.19791198
_cell_angle_beta   94.18580795
_cell_angle_gamma   148.48995046
_symmetry_Int_Tables_number   1
_chemical_formula_structural   Mn2Nb8FeSi14Ni5
_chemical_formula_sum   'Mn2 Nb8 Fe1 Si14 Ni5'
_cell_volume   402.47247825
_cell_formula_units_Z   1
loop_
 _symmetry_equiv_pos_site_id
 _symmetry_equiv_pos_as_xyz
  1  'x, y, z'
loop_
 _atom_site_type_symbol
 _atom_site_label
 _atom_site_symmetry_multiplicity
 _atom_site_fract_x
 _atom_site_fract_y
 _atom_site_fract_z
 _atom_site_occupancy
  Mn  Mn0  1  0.902388  0.096507  0.499334  1
  Mn  Mn1  1  0.900839  0.403261  0.805734  1
  Nb  Nb2  1  0.131516  0.133190  0.268060  1
  Nb  Nb3  1  0.866863  0.869197  0.731733  1
  Nb  Nb4  1  0.865887  0.135390  0.998697  1
  Nb  Nb5  1  0.131894  0.865223  0.999247  1
  Nb  Nb6  1  0.498259  0.689307  0.191470  1
  Nb  Nb7  1  0.498131  0.305627  0.810006  1
  Nb  Nb8  1  0.311471  0.502629  0.809265  1
  Nb  Nb9  1  0.694605  0.502473  0.190868  1
  Fe  Fe10  1  0.597756  0.100283  0.197111  1
  Si  Si11  1  0.294110  0.293888  0.586699  1
  Si  Si12  1  0.706531  0.706310  0.413410  1
  Si  Si13  1  0.705064  0.289878  0.000997  1
  Si  Si14  1  0.295597  0.710741  0.000934  1
  Si  Si15  1  0.983168  0.278570  0.293553  1
  Si  Si16  1  0.990905  0.697464  0.707203  1
  Si  Si17  1  0.720810  0.016111  0.705151  1
  Si  Si18  1  0.302586  0.008279  0.292165  1
  Si  Si19  1  0.533884  0.940547  0.405904  1
  Si  Si20  1  0.522440  0.112825  0.596374  1
  Si  Si21  1  0.055407  0.463092  0.593516  1
  Si  Si22  1  0.890191  0.481373  0.403385  1
  Si  Si23  1  0.750726  0.750943  0.000289  1
  Si  Si24  1  0.249190  0.249665  0.000196  1
  Ni  Ni25  1  0.394344  0.892101  0.791922  1
  Ni  Ni26  1  0.106800  0.604383  0.207509  1
  Ni  Ni27  1  0.106284  0.895616  0.500124  1
  Ni  Ni28  1  0.393993  0.603396  0.499742  1
  Ni  Ni29  1  0.598361  0.401726  0.499398  1
