# generated using pymatgen
data_Tb2Ho4ReSb2
_symmetry_space_group_name_H-M   'P 1'
_cell_length_a   8.14216708
_cell_length_b   8.14025011
_cell_length_c   4.30806900
_cell_angle_alpha   90.00000000
_cell_angle_beta   90.00000000
_cell_angle_gamma   119.99220155
_symmetry_Int_Tables_number   1
_chemical_formula_structural   Tb2Ho4ReSb2
_chemical_formula_sum   'Tb2 Ho4 Re1 Sb2'
_cell_volume   247.30059626
_cell_formula_units_Z   1
loop_
 _symmetry_equiv_pos_site_id
 _symmetry_equiv_pos_as_xyz
  1  'x, y, z'
loop_
 _atom_site_type_symbol
 _atom_site_label
 _atom_site_symmetry_multiplicity
 _atom_site_fract_x
 _atom_site_fract_y
 _atom_site_fract_z
 _atom_site_occupancy
  Tb  Tb0  1  0.604881  0.000131  0.500000  1
  Tb  Tb1  1  0.395119  0.395250  0.500000  1
  Ho  Ho2  1  0.234990  0.999561  0.000000  1
  Ho  Ho3  1  0.765010  0.764570  0.000000  1
  Ho  Ho4  1  0.000000  0.235364  0.000000  1
  Ho  Ho5  1  0.000000  0.605463  0.500000  1
  Re  Re6  1  0.000000  0.999155  0.500000  1
  Sb  Sb7  1  0.332782  0.666645  0.000000  1
  Sb  Sb8  1  0.667218  0.333862  0.000000  1
