# generated using pymatgen
data_Nd2(Ga3Rh)3
_symmetry_space_group_name_H-M   'P 1'
_cell_length_a   7.63621528
_cell_length_b   7.63621562
_cell_length_c   9.66701600
_cell_angle_alpha   90.00000000
_cell_angle_beta   90.00000000
_cell_angle_gamma   119.43026403
_symmetry_Int_Tables_number   1
_chemical_formula_structural   Nd2(Ga3Rh)3
_chemical_formula_sum   'Nd4 Ga18 Rh6'
_cell_volume   490.95783661
_cell_formula_units_Z   2
loop_
 _symmetry_equiv_pos_site_id
 _symmetry_equiv_pos_as_xyz
  1  'x, y, z'
loop_
 _atom_site_type_symbol
 _atom_site_label
 _atom_site_symmetry_multiplicity
 _atom_site_fract_x
 _atom_site_fract_y
 _atom_site_fract_z
 _atom_site_occupancy
  Nd  Nd0  1  0.997308  0.669858  0.750000  1
  Nd  Nd1  1  0.002692  0.330142  0.250000  1
  Nd  Nd2  1  0.669858  0.997308  0.750000  1
  Nd  Nd3  1  0.330142  0.002692  0.250000  1
  Ga  Ga4  1  0.128965  0.128965  0.750000  1
  Ga  Ga5  1  0.871035  0.871035  0.250000  1
  Ga  Ga6  1  0.003265  0.335590  0.577725  1
  Ga  Ga7  1  0.996735  0.664410  0.422275  1
  Ga  Ga8  1  0.996735  0.664410  0.077725  1
  Ga  Ga9  1  0.335590  0.003265  0.922275  1
  Ga  Ga10  1  0.003265  0.335590  0.922275  1
  Ga  Ga11  1  0.664410  0.996735  0.077725  1
  Ga  Ga12  1  0.664410  0.996735  0.422275  1
  Ga  Ga13  1  0.335590  0.003265  0.577725  1
  Ga  Ga14  1  0.333695  0.333695  0.057258  1
  Ga  Ga15  1  0.666305  0.666305  0.942742  1
  Ga  Ga16  1  0.666305  0.666305  0.557258  1
  Ga  Ga17  1  0.333695  0.333695  0.442742  1
  Ga  Ga18  1  0.339707  0.546607  0.750000  1
  Ga  Ga19  1  0.660293  0.453393  0.250000  1
  Ga  Ga20  1  0.546607  0.339707  0.750000  1
  Ga  Ga21  1  0.453393  0.660293  0.250000  1
  Rh  Rh22  1  0.671238  0.328762  0.500000  1
  Rh  Rh23  1  0.328762  0.671238  0.500000  1
  Rh  Rh24  1  0.328762  0.671238  0.000000  1
  Rh  Rh25  1  0.671238  0.328762  0.000000  1
  Rh  Rh26  1  0.000000  0.000000  0.500000  1
  Rh  Rh27  1  0.000000  0.000000  0.000000  1
