# generated using pymatgen
data_Sr5Lu3(Al4Au3)4
_symmetry_space_group_name_H-M   'P 1'
_cell_length_a   13.85815900
_cell_length_b   13.85815947
_cell_length_c   4.32607600
_cell_angle_alpha   90.00000000
_cell_angle_beta   90.00000000
_cell_angle_gamma   120.00000126
_symmetry_Int_Tables_number   1
_chemical_formula_structural   Sr5Lu3(Al4Au3)4
_chemical_formula_sum   'Sr5 Lu3 Al16 Au12'
_cell_volume   719.50839495
_cell_formula_units_Z   1
loop_
 _symmetry_equiv_pos_site_id
 _symmetry_equiv_pos_as_xyz
  1  'x, y, z'
loop_
 _atom_site_type_symbol
 _atom_site_label
 _atom_site_symmetry_multiplicity
 _atom_site_fract_x
 _atom_site_fract_y
 _atom_site_fract_z
 _atom_site_occupancy
  Sr  Sr0  1  0.333333  0.666667  0.000000  1
  Sr  Sr1  1  0.666667  0.333333  0.000000  1
  Sr  Sr2  1  0.815443  0.000000  0.500000  1
  Sr  Sr3  1  0.000000  0.815443  0.500000  1
  Sr  Sr4  1  0.184557  0.184557  0.500000  1
  Lu  Lu5  1  0.437187  0.000000  0.000000  1
  Lu  Lu6  1  0.000000  0.437187  0.000000  1
  Lu  Lu7  1  0.562813  0.562813  0.000000  1
  Al  Al8  1  0.188858  0.382596  0.000000  1
  Al  Al9  1  0.617404  0.806263  0.000000  1
  Al  Al10  1  0.382596  0.188858  0.000000  1
  Al  Al11  1  0.193737  0.811142  0.000000  1
  Al  Al12  1  0.806263  0.617404  0.000000  1
  Al  Al13  1  0.811142  0.193737  0.000000  1
  Al  Al14  1  0.277870  0.000000  0.500000  1
  Al  Al15  1  0.000000  0.277870  0.500000  1
  Al  Al16  1  0.722130  0.722130  0.500000  1
  Al  Al17  1  0.361185  0.478278  0.500000  1
  Al  Al18  1  0.521722  0.882907  0.500000  1
  Al  Al19  1  0.478278  0.361185  0.500000  1
  Al  Al20  1  0.117093  0.638815  0.500000  1
  Al  Al21  1  0.882907  0.521722  0.500000  1
  Al  Al22  1  0.638815  0.117093  0.500000  1
  Al  Al23  1  0.000000  0.000000  0.000000  1
  Au  Au24  1  0.171054  0.478753  0.500000  1
  Au  Au25  1  0.521247  0.692302  0.500000  1
  Au  Au26  1  0.478753  0.171054  0.500000  1
  Au  Au27  1  0.307698  0.828946  0.500000  1
  Au  Au28  1  0.692302  0.521247  0.500000  1
  Au  Au29  1  0.828946  0.307698  0.500000  1
  Au  Au30  1  0.182576  0.000000  0.000000  1
  Au  Au31  1  0.000000  0.182576  0.000000  1
  Au  Au32  1  0.817424  0.817424  0.000000  1
  Au  Au33  1  0.637995  0.000000  0.000000  1
  Au  Au34  1  0.000000  0.637995  0.000000  1
  Au  Au35  1  0.362005  0.362005  0.000000  1
