# generated using pymatgen
data_HfFeI6
_symmetry_space_group_name_H-M   'P 1'
_cell_length_a   7.58017400
_cell_length_b   7.58017342
_cell_length_c   6.62596200
_cell_angle_alpha   90.00000000
_cell_angle_beta   90.00000000
_cell_angle_gamma   120.00001127
_symmetry_Int_Tables_number   1
_chemical_formula_structural   HfFeI6
_chemical_formula_sum   'Hf1 Fe1 I6'
_cell_volume   329.71434271
_cell_formula_units_Z   1
loop_
 _symmetry_equiv_pos_site_id
 _symmetry_equiv_pos_as_xyz
  1  'x, y, z'
loop_
 _atom_site_type_symbol
 _atom_site_label
 _atom_site_symmetry_multiplicity
 _atom_site_fract_x
 _atom_site_fract_y
 _atom_site_fract_z
 _atom_site_occupancy
  Hf  Hf0  1  0.000000  0.000000  0.500000  1
  Fe  Fe1  1  0.000000  0.000000  0.000000  1
  I  I2  1  0.304053  0.000000  0.246405  1
  I  I3  1  0.695947  0.000000  0.753595  1
  I  I4  1  0.000000  0.304053  0.246405  1
  I  I5  1  0.304053  0.304053  0.753595  1
  I  I6  1  0.000000  0.695947  0.753595  1
  I  I7  1  0.695947  0.695947  0.246405  1
