# generated using pymatgen
data_Pr3Zn6Ni7B2
_symmetry_space_group_name_H-M   'P 1'
_cell_length_a   5.24841600
_cell_length_b   5.24841616
_cell_length_c   11.22351400
_cell_angle_alpha   90.00000000
_cell_angle_beta   90.00000000
_cell_angle_gamma   119.97247219
_symmetry_Int_Tables_number   1
_chemical_formula_structural   Pr3Zn6Ni7B2
_chemical_formula_sum   'Pr3 Zn6 Ni7 B2'
_cell_volume   267.81592664
_cell_formula_units_Z   1
loop_
 _symmetry_equiv_pos_site_id
 _symmetry_equiv_pos_as_xyz
  1  'x, y, z'
loop_
 _atom_site_type_symbol
 _atom_site_label
 _atom_site_symmetry_multiplicity
 _atom_site_fract_x
 _atom_site_fract_y
 _atom_site_fract_z
 _atom_site_occupancy
  Pr  Pr0  1  0.000000  0.000000  0.000000  1
  Pr  Pr1  1  0.000000  0.000000  0.680823  1
  Pr  Pr2  1  0.000000  0.000000  0.319177  1
  Zn  Zn3  1  0.500000  0.000000  0.500000  1
  Zn  Zn4  1  0.000000  0.500000  0.500000  1
  Zn  Zn5  1  0.661094  0.338906  0.693833  1
  Zn  Zn6  1  0.338906  0.661094  0.693833  1
  Zn  Zn7  1  0.338906  0.661094  0.306167  1
  Zn  Zn8  1  0.661094  0.338906  0.306167  1
  Ni  Ni9  1  0.500000  0.500000  0.500000  1
  Ni  Ni10  1  0.500000  0.500000  0.879142  1
  Ni  Ni11  1  0.500000  0.000000  0.877314  1
  Ni  Ni12  1  0.000000  0.500000  0.877314  1
  Ni  Ni13  1  0.500000  0.500000  0.120858  1
  Ni  Ni14  1  0.500000  0.000000  0.122686  1
  Ni  Ni15  1  0.000000  0.500000  0.122686  1
  B  B16  1  0.667213  0.332787  0.000000  1
  B  B17  1  0.332787  0.667213  0.000000  1
