# generated using pymatgen
data_Th3Ga22Ag2Pd9
_symmetry_space_group_name_H-M   'P 1'
_cell_length_a   8.60115771
_cell_length_b   8.55054999
_cell_length_c   8.60115600
_cell_angle_alpha   89.51127576
_cell_angle_beta   90.17189111
_cell_angle_gamma   89.51128337
_symmetry_Int_Tables_number   1
_chemical_formula_structural   Th3Ga22Ag2Pd9
_chemical_formula_sum   'Th3 Ga22 Ag2 Pd9'
_cell_volume   632.51981732
_cell_formula_units_Z   1
loop_
 _symmetry_equiv_pos_site_id
 _symmetry_equiv_pos_as_xyz
  1  'x, y, z'
loop_
 _atom_site_type_symbol
 _atom_site_label
 _atom_site_symmetry_multiplicity
 _atom_site_fract_x
 _atom_site_fract_y
 _atom_site_fract_z
 _atom_site_occupancy
  Th  Th0  1  0.000000  0.500000  0.000000  1
  Th  Th1  1  0.500000  0.000000  0.000000  1
  Th  Th2  1  0.000000  0.000000  0.500000  1
  Ga  Ga3  1  0.990049  0.639549  0.645197  1
  Ga  Ga4  1  0.645197  0.639549  0.990049  1
  Ga  Ga5  1  0.643266  0.982849  0.643266  1
  Ga  Ga6  1  0.009951  0.360451  0.354803  1
  Ga  Ga7  1  0.354803  0.360451  0.009951  1
  Ga  Ga8  1  0.356734  0.017151  0.356734  1
  Ga  Ga9  1  0.498196  0.261631  0.732869  1
  Ga  Ga10  1  0.501804  0.738369  0.267131  1
  Ga  Ga11  1  0.267131  0.738369  0.501804  1
  Ga  Ga12  1  0.732869  0.261631  0.498196  1
  Ga  Ga13  1  0.839710  0.135868  0.839710  1
  Ga  Ga14  1  0.143606  0.834608  0.837449  1
  Ga  Ga15  1  0.837449  0.834608  0.143606  1
  Ga  Ga16  1  0.160290  0.864132  0.160290  1
  Ga  Ga17  1  0.856394  0.165392  0.162551  1
  Ga  Ga18  1  0.162551  0.165392  0.856394  1
  Ga  Ga19  1  0.729016  0.491479  0.729016  1
  Ga  Ga20  1  0.481221  0.726500  0.736562  1
  Ga  Ga21  1  0.736562  0.726500  0.481221  1
  Ga  Ga22  1  0.270984  0.508521  0.270984  1
  Ga  Ga23  1  0.518779  0.273500  0.263438  1
  Ga  Ga24  1  0.263438  0.273500  0.518779  1
  Ag  Ag25  1  0.738669  0.500000  0.261331  1
  Ag  Ag26  1  0.261331  0.500000  0.738669  1
  Pd  Pd27  1  0.839483  0.835142  0.839483  1
  Pd  Pd28  1  0.160517  0.164858  0.160517  1
  Pd  Pd29  1  0.661164  0.327210  0.987476  1
  Pd  Pd30  1  0.987476  0.327210  0.661164  1
  Pd  Pd31  1  0.334738  0.000000  0.665262  1
  Pd  Pd32  1  0.338836  0.672790  0.012524  1
  Pd  Pd33  1  0.012524  0.672790  0.338836  1
  Pd  Pd34  1  0.665262  0.000000  0.334738  1
  Pd  Pd35  1  0.500000  0.500000  0.500000  1
