# generated using pymatgen
data_Tm6NbFe7(Co5P6)2
_symmetry_space_group_name_H-M   'P 1'
_cell_length_a   3.68626600
_cell_length_b   10.54924500
_cell_length_c   12.13128100
_cell_angle_alpha   90.00000000
_cell_angle_beta   90.00000000
_cell_angle_gamma   90.00000000
_symmetry_Int_Tables_number   1
_chemical_formula_structural   Tm6NbFe7(Co5P6)2
_chemical_formula_sum   'Tm6 Nb1 Fe7 Co10 P12'
_cell_volume   471.75304470
_cell_formula_units_Z   1
loop_
 _symmetry_equiv_pos_site_id
 _symmetry_equiv_pos_as_xyz
  1  'x, y, z'
loop_
 _atom_site_type_symbol
 _atom_site_label
 _atom_site_symmetry_multiplicity
 _atom_site_fract_x
 _atom_site_fract_y
 _atom_site_fract_z
 _atom_site_occupancy
  Tm  Tm0  1  0.000000  0.500000  0.528300  1
  Tm  Tm1  1  0.500000  0.000000  0.476198  1
  Tm  Tm2  1  0.500000  0.822157  0.204443  1
  Tm  Tm3  1  0.500000  0.177843  0.204443  1
  Tm  Tm4  1  0.000000  0.679496  0.795751  1
  Tm  Tm5  1  0.000000  0.320504  0.795751  1
  Nb  Nb6  1  0.500000  0.500000  0.153951  1
  Fe  Fe7  1  0.000000  0.000000  0.842371  1
  Fe  Fe8  1  0.000000  0.500000  0.985352  1
  Fe  Fe9  1  0.500000  0.000000  0.008811  1
  Fe  Fe10  1  0.000000  0.165046  0.002217  1
  Fe  Fe11  1  0.000000  0.834954  0.002217  1
  Fe  Fe12  1  0.000000  0.201625  0.571494  1
  Fe  Fe13  1  0.000000  0.798375  0.571494  1
  Co  Co14  1  0.500000  0.500000  0.700457  1
  Co  Co15  1  0.000000  0.000000  0.298366  1
  Co  Co16  1  0.500000  0.329198  0.989893  1
  Co  Co17  1  0.500000  0.670802  0.989893  1
  Co  Co18  1  0.500000  0.294982  0.432045  1
  Co  Co19  1  0.500000  0.705018  0.432045  1
  Co  Co20  1  0.500000  0.880874  0.709491  1
  Co  Co21  1  0.500000  0.119126  0.709491  1
  Co  Co22  1  0.000000  0.623012  0.295612  1
  Co  Co23  1  0.000000  0.376988  0.295612  1
  P  P24  1  0.500000  0.500000  0.882785  1
  P  P25  1  0.000000  0.000000  0.114605  1
  P  P26  1  0.500000  0.500000  0.357706  1
  P  P27  1  0.000000  0.000000  0.654954  1
  P  P28  1  0.500000  0.307817  0.617541  1
  P  P29  1  0.500000  0.692183  0.617541  1
  P  P30  1  0.000000  0.188131  0.386425  1
  P  P31  1  0.000000  0.811869  0.386425  1
  P  P32  1  0.500000  0.848447  0.890526  1
  P  P33  1  0.500000  0.151553  0.890526  1
  P  P34  1  0.000000  0.661472  0.102634  1
  P  P35  1  0.000000  0.338528  0.102634  1
