# generated using pymatgen
data_Pu5PaF24
_symmetry_space_group_name_H-M   'P 1'
_cell_length_a   8.37942844
_cell_length_b   8.37942890
_cell_length_c   8.31320587
_cell_angle_alpha   63.44198404
_cell_angle_beta   63.44198365
_cell_angle_gamma   80.53576000
_symmetry_Int_Tables_number   1
_chemical_formula_structural   Pu5PaF24
_chemical_formula_sum   'Pu5 Pa1 F24'
_cell_volume   466.56641645
_cell_formula_units_Z   1
loop_
 _symmetry_equiv_pos_site_id
 _symmetry_equiv_pos_as_xyz
  1  'x, y, z'
loop_
 _atom_site_type_symbol
 _atom_site_label
 _atom_site_symmetry_multiplicity
 _atom_site_fract_x
 _atom_site_fract_y
 _atom_site_fract_z
 _atom_site_occupancy
  Pu  Pu0  1  0.626668  0.780162  0.668536  1
  Pu  Pu1  1  0.364595  0.229469  0.333721  1
  Pu  Pu2  1  0.219838  0.373332  0.831464  1
  Pu  Pu3  1  0.770531  0.635405  0.166279  1
  Pu  Pu4  1  0.206299  0.793701  0.250000  1
  Pa  Pa5  1  0.782121  0.217879  0.750000  1
  F  F6  1  0.315427  0.252770  0.611546  1
  F  F7  1  0.687551  0.733145  0.399125  1
  F  F8  1  0.747230  0.684573  0.888454  1
  F  F9  1  0.266855  0.312449  0.100875  1
  F  F10  1  0.821290  0.947114  0.950384  1
  F  F11  1  0.175406  0.067228  0.038248  1
  F  F12  1  0.052886  0.178710  0.549616  1
  F  F13  1  0.932772  0.824594  0.461752  1
  F  F14  1  0.404639  0.595361  0.750000  1
  F  F15  1  0.608491  0.391509  0.250000  1
  F  F16  1  0.504924  0.001322  0.491159  1
  F  F17  1  0.998678  0.495076  0.008841  1
  F  F18  1  0.507560  0.256381  0.779980  1
  F  F19  1  0.496118  0.738220  0.218464  1
  F  F20  1  0.743619  0.492440  0.720020  1
  F  F21  1  0.261780  0.503882  0.281536  1
  F  F22  1  0.404874  0.815286  0.927296  1
  F  F23  1  0.603207  0.185685  0.061754  1
  F  F24  1  0.184714  0.595126  0.572704  1
  F  F25  1  0.814315  0.396793  0.438246  1
  F  F26  1  0.728038  0.032381  0.653773  1
  F  F27  1  0.274845  0.972892  0.352350  1
  F  F28  1  0.967619  0.271962  0.846227  1
  F  F29  1  0.027108  0.725155  0.147650  1
