# generated using pymatgen
data_Lu13Zr3(ZnCo)4
_symmetry_space_group_name_H-M   'P 1'
_cell_length_a   9.08882276
_cell_length_b   9.12633368
_cell_length_c   9.12633300
_cell_angle_alpha   59.99999885
_cell_angle_beta   59.86337969
_cell_angle_gamma   59.86338102
_symmetry_Int_Tables_number   1
_chemical_formula_structural   Lu13Zr3(ZnCo)4
_chemical_formula_sum   'Lu13 Zr3 Zn4 Co4'
_cell_volume   534.17723258
_cell_formula_units_Z   1
loop_
 _symmetry_equiv_pos_site_id
 _symmetry_equiv_pos_as_xyz
  1  'x, y, z'
loop_
 _atom_site_type_symbol
 _atom_site_label
 _atom_site_symmetry_multiplicity
 _atom_site_fract_x
 _atom_site_fract_y
 _atom_site_fract_z
 _atom_site_occupancy
  Lu  Lu0  1  0.949546  0.350151  0.350151  1
  Lu  Lu1  1  0.806336  0.192273  0.192273  1
  Lu  Lu2  1  0.193166  0.807387  0.807387  1
  Lu  Lu3  1  0.193166  0.807387  0.192060  1
  Lu  Lu4  1  0.806336  0.192273  0.809118  1
  Lu  Lu5  1  0.193166  0.192060  0.807387  1
  Lu  Lu6  1  0.806336  0.809118  0.192273  1
  Lu  Lu7  1  0.941990  0.560822  0.560822  1
  Lu  Lu8  1  0.559079  0.940713  0.940713  1
  Lu  Lu9  1  0.559079  0.940713  0.559497  1
  Lu  Lu10  1  0.941990  0.560822  0.936366  1
  Lu  Lu11  1  0.559079  0.559497  0.940713  1
  Lu  Lu12  1  0.941990  0.936366  0.560822  1
  Zr  Zr13  1  0.349732  0.348420  0.348420  1
  Zr  Zr14  1  0.349732  0.348420  0.953428  1
  Zr  Zr15  1  0.349732  0.953428  0.348420  1
  Zn  Zn16  1  0.571517  0.580023  0.580023  1
  Zn  Zn17  1  0.571517  0.580023  0.268436  1
  Zn  Zn18  1  0.571517  0.268436  0.580023  1
  Zn  Zn19  1  0.269488  0.576838  0.576838  1
  Co  Co20  1  0.152112  0.142314  0.142314  1
  Co  Co21  1  0.152112  0.142314  0.563261  1
  Co  Co22  1  0.152112  0.563261  0.142314  1
  Co  Co23  1  0.559167  0.146945  0.146945  1
