# generated using pymatgen
data_Ho12ZnNi4Bi
_symmetry_space_group_name_H-M   'P 1'
_cell_length_a   8.33773338
_cell_length_b   8.33775657
_cell_length_c   8.33773376
_cell_angle_alpha   112.72396078
_cell_angle_beta   109.65210337
_cell_angle_gamma   106.10499669
_symmetry_Int_Tables_number   1
_chemical_formula_structural   Ho12ZnNi4Bi
_chemical_formula_sum   'Ho12 Zn1 Ni4 Bi1'
_cell_volume   444.70692961
_cell_formula_units_Z   1
loop_
 _symmetry_equiv_pos_site_id
 _symmetry_equiv_pos_as_xyz
  1  'x, y, z'
loop_
 _atom_site_type_symbol
 _atom_site_label
 _atom_site_symmetry_multiplicity
 _atom_site_fract_x
 _atom_site_fract_y
 _atom_site_fract_z
 _atom_site_occupancy
  Ho  Ho0  1  0.424275  0.224828  0.199443  1
  Ho  Ho1  1  0.575725  0.775172  0.800557  1
  Ho  Ho2  1  0.025385  0.224828  0.800554  1
  Ho  Ho3  1  0.974615  0.775172  0.199446  1
  Ho  Ho4  1  0.178755  0.287712  0.466469  1
  Ho  Ho5  1  0.821245  0.712288  0.533531  1
  Ho  Ho6  1  0.178757  0.712288  0.891045  1
  Ho  Ho7  1  0.821243  0.287712  0.108955  1
  Ho  Ho8  1  0.321761  0.632795  0.311034  1
  Ho  Ho9  1  0.678239  0.367205  0.688966  1
  Ho  Ho10  1  0.321765  0.010730  0.688966  1
  Ho  Ho11  1  0.678235  0.989270  0.311034  1
  Zn  Zn12  1  0.000000  0.000000  0.000000  1
  Ni  Ni13  1  0.350547  0.000000  0.350547  1
  Ni  Ni14  1  0.649453  0.000000  0.649453  1
  Ni  Ni15  1  0.123139  0.623143  0.500004  1
  Ni  Ni16  1  0.876861  0.376857  0.499996  1
  Bi  Bi17  1  0.500000  0.500000  0.000000  1
