# generated using pymatgen
data_Tb2ThPa2Ga15
_symmetry_space_group_name_H-M   'P 1'
_cell_length_a   12.45062824
_cell_length_b   12.45062826
_cell_length_c   12.45062800
_cell_angle_alpha   28.80602416
_cell_angle_beta   28.80602405
_cell_angle_gamma   28.80602565
_symmetry_Int_Tables_number   1
_chemical_formula_structural   Tb2ThPa2Ga15
_chemical_formula_sum   'Tb2 Th1 Pa2 Ga15'
_cell_volume   396.24380632
_cell_formula_units_Z   1
loop_
 _symmetry_equiv_pos_site_id
 _symmetry_equiv_pos_as_xyz
  1  'x, y, z'
loop_
 _atom_site_type_symbol
 _atom_site_label
 _atom_site_symmetry_multiplicity
 _atom_site_fract_x
 _atom_site_fract_y
 _atom_site_fract_z
 _atom_site_occupancy
  Tb  Tb0  1  0.400263  0.400263  0.400263  1
  Tb  Tb1  1  0.599737  0.599737  0.599737  1
  Th  Th2  1  0.000000  0.000000  0.000000  1
  Pa  Pa3  1  0.129789  0.129789  0.129789  1
  Pa  Pa4  1  0.870211  0.870211  0.870211  1
  Ga  Ga5  1  0.441665  0.879314  0.879314  1
  Ga  Ga6  1  0.879314  0.879314  0.441665  1
  Ga  Ga7  1  0.879314  0.441665  0.879314  1
  Ga  Ga8  1  0.120686  0.558335  0.120686  1
  Ga  Ga9  1  0.120686  0.120686  0.558335  1
  Ga  Ga10  1  0.558335  0.120686  0.120686  1
  Ga  Ga11  1  0.129702  0.635679  0.635679  1
  Ga  Ga12  1  0.635679  0.635679  0.129702  1
  Ga  Ga13  1  0.635679  0.129702  0.635679  1
  Ga  Ga14  1  0.364321  0.870298  0.364321  1
  Ga  Ga15  1  0.364321  0.364321  0.870298  1
  Ga  Ga16  1  0.870298  0.364321  0.364321  1
  Ga  Ga17  1  0.500000  0.500000  0.000000  1
  Ga  Ga18  1  0.500000  0.000000  0.500000  1
  Ga  Ga19  1  0.000000  0.500000  0.500000  1
