# generated using pymatgen
data_La3Er9Tc4
_symmetry_space_group_name_H-M   'P 1'
_cell_length_a   6.30474600
_cell_length_b   7.26416760
_cell_length_c   9.17575600
_cell_angle_alpha   90.00000000
_cell_angle_beta   90.00000000
_cell_angle_gamma   90.27487879
_symmetry_Int_Tables_number   1
_chemical_formula_structural   La3Er9Tc4
_chemical_formula_sum   'La3 Er9 Tc4'
_cell_volume   420.23315012
_cell_formula_units_Z   1
loop_
 _symmetry_equiv_pos_site_id
 _symmetry_equiv_pos_as_xyz
  1  'x, y, z'
loop_
 _atom_site_type_symbol
 _atom_site_label
 _atom_site_symmetry_multiplicity
 _atom_site_fract_x
 _atom_site_fract_y
 _atom_site_fract_z
 _atom_site_occupancy
  La  La0  1  0.124521  0.052931  0.250000  1
  La  La1  1  0.379182  0.544155  0.250000  1
  La  La2  1  0.627007  0.455843  0.750000  1
  Er  Er3  1  0.840597  0.683396  0.062693  1
  Er  Er4  1  0.662768  0.171632  0.061780  1
  Er  Er5  1  0.158330  0.321758  0.933171  1
  Er  Er6  1  0.335953  0.825427  0.567643  1
  Er  Er7  1  0.878549  0.959700  0.750000  1
  Er  Er8  1  0.158330  0.321758  0.566829  1
  Er  Er9  1  0.662768  0.171632  0.438220  1
  Er  Er10  1  0.335953  0.825427  0.932357  1
  Er  Er11  1  0.840597  0.683396  0.437307  1
  Tc  Tc12  1  0.523280  0.873100  0.250000  1
  Tc  Tc13  1  0.470545  0.120549  0.750000  1
  Tc  Tc14  1  0.033521  0.614921  0.750000  1
  Tc  Tc15  1  0.968098  0.374378  0.250000  1
