# generated using pymatgen
data_RbNaMnO2
_symmetry_space_group_name_H-M   'P 1'
_cell_length_a   7.01355485
_cell_length_b   7.05538500
_cell_length_c   7.01362668
_cell_angle_alpha   90.00006524
_cell_angle_beta   91.66656969
_cell_angle_gamma   90.00006277
_symmetry_Int_Tables_number   1
_chemical_formula_structural   RbNaMnO2
_chemical_formula_sum   'Rb4 Na4 Mn4 O8'
_cell_volume   346.91079544
_cell_formula_units_Z   4
loop_
 _symmetry_equiv_pos_site_id
 _symmetry_equiv_pos_as_xyz
  1  'x, y, z'
loop_
 _atom_site_type_symbol
 _atom_site_label
 _atom_site_symmetry_multiplicity
 _atom_site_fract_x
 _atom_site_fract_y
 _atom_site_fract_z
 _atom_site_occupancy
  Rb  Rb0  1  0.499987  0.999999  0.999992  1
  Rb  Rb1  1  0.999995  0.500000  0.499996  1
  Rb  Rb2  1  0.000003  0.249996  0.000002  1
  Rb  Rb3  1  0.000003  0.750005  0.000002  1
  Na  Na4  1  0.647328  0.250003  0.647330  1
  Na  Na5  1  0.352680  0.250002  0.352680  1
  Na  Na6  1  0.647329  0.749997  0.647330  1
  Na  Na7  1  0.352680  0.749998  0.352680  1
  Mn  Mn8  1  0.623942  0.499999  0.163629  1
  Mn  Mn9  1  0.163654  0.000000  0.623927  1
  Mn  Mn10  1  0.376055  0.500000  0.836368  1
  Mn  Mn11  1  0.836339  0.000000  0.376066  1
  O  O12  1  0.692551  0.749999  0.307452  1
  O  O13  1  0.692552  0.250002  0.307452  1
  O  O14  1  0.307450  0.249998  0.692551  1
  O  O15  1  0.307450  0.750004  0.692549  1
  O  O16  1  0.682601  0.500000  0.867827  1
  O  O17  1  0.317399  0.500000  0.132174  1
  O  O18  1  0.867828  0.000000  0.682600  1
  O  O19  1  0.132171  0.999999  0.317395  1
