# generated using pymatgen
data_La3Th(InPd2)2
_symmetry_space_group_name_H-M   'P 1'
_cell_length_a   3.90574000
_cell_length_b   7.99761029
_cell_length_c   7.99761029
_cell_angle_alpha   91.06173666
_cell_angle_beta   90.00000000
_cell_angle_gamma   90.00000000
_symmetry_Int_Tables_number   1
_chemical_formula_structural   La3Th(InPd2)2
_chemical_formula_sum   'La3 Th1 In2 Pd4'
_cell_volume   249.77515330
_cell_formula_units_Z   1
loop_
 _symmetry_equiv_pos_site_id
 _symmetry_equiv_pos_as_xyz
  1  'x, y, z'
loop_
 _atom_site_type_symbol
 _atom_site_label
 _atom_site_symmetry_multiplicity
 _atom_site_fract_x
 _atom_site_fract_y
 _atom_site_fract_z
 _atom_site_occupancy
  La  La0  1  0.500000  0.823363  0.323363  1
  La  La1  1  0.500000  0.325270  0.175856  1
  La  La2  1  0.500000  0.675856  0.825270  1
  Th  Th3  1  0.500000  0.173186  0.673186  1
  In  In4  1  0.000000  0.499136  0.502332  1
  In  In5  1  0.000000  0.002332  0.999136  1
  Pd  Pd6  1  0.000000  0.623388  0.123388  1
  Pd  Pd7  1  0.000000  0.363400  0.863400  1
  Pd  Pd8  1  0.000000  0.881938  0.632131  1
  Pd  Pd9  1  0.000000  0.132131  0.381938  1
