# generated using pymatgen
data_Ho4TcOsC4
_symmetry_space_group_name_H-M   'P 1'
_cell_length_a   5.08493300
_cell_length_b   6.50834751
_cell_length_c   9.79063147
_cell_angle_alpha   89.61960470
_cell_angle_beta   90.00000000
_cell_angle_gamma   90.00000000
_symmetry_Int_Tables_number   1
_chemical_formula_structural   Ho4TcOsC4
_chemical_formula_sum   'Ho8 Tc2 Os2 C8'
_cell_volume   324.00902024
_cell_formula_units_Z   2
loop_
 _symmetry_equiv_pos_site_id
 _symmetry_equiv_pos_as_xyz
  1  'x, y, z'
loop_
 _atom_site_type_symbol
 _atom_site_label
 _atom_site_symmetry_multiplicity
 _atom_site_fract_x
 _atom_site_fract_y
 _atom_site_fract_z
 _atom_site_occupancy
  Ho  Ho0  1  0.250000  0.680542  0.555636  1
  Ho  Ho1  1  0.750000  0.319458  0.444364  1
  Ho  Ho2  1  0.750000  0.820687  0.055797  1
  Ho  Ho3  1  0.250000  0.179313  0.944203  1
  Ho  Ho4  1  0.250000  0.530361  0.217052  1
  Ho  Ho5  1  0.750000  0.469639  0.782948  1
  Ho  Ho6  1  0.750000  0.971509  0.715321  1
  Ho  Ho7  1  0.250000  0.028491  0.284679  1
  Tc  Tc8  1  0.250000  0.722566  0.865909  1
  Tc  Tc9  1  0.750000  0.277434  0.134091  1
  Os  Os10  1  0.750000  0.776045  0.365477  1
  Os  Os11  1  0.250000  0.223955  0.634523  1
  C  C12  1  0.250000  0.456946  0.758398  1
  C  C13  1  0.750000  0.543054  0.241602  1
  C  C14  1  0.750000  0.041928  0.259119  1
  C  C15  1  0.250000  0.958072  0.740881  1
  C  C16  1  0.250000  0.823026  0.051863  1
  C  C17  1  0.750000  0.176974  0.948137  1
  C  C18  1  0.750000  0.675909  0.552001  1
  C  C19  1  0.250000  0.324091  0.447999  1
