# generated using pymatgen
data_Cs2Np(TeO4)3
_symmetry_space_group_name_H-M   'P 1'
_cell_length_a   7.70746334
_cell_length_b   7.70718969
_cell_length_c   7.70221661
_cell_angle_alpha   58.34451868
_cell_angle_beta   58.31506644
_cell_angle_gamma   58.47498899
_symmetry_Int_Tables_number   1
_chemical_formula_structural   Cs2Np(TeO4)3
_chemical_formula_sum   'Cs2 Np1 Te3 O12'
_cell_volume   311.51280891
_cell_formula_units_Z   1
loop_
 _symmetry_equiv_pos_site_id
 _symmetry_equiv_pos_as_xyz
  1  'x, y, z'
loop_
 _atom_site_type_symbol
 _atom_site_label
 _atom_site_symmetry_multiplicity
 _atom_site_fract_x
 _atom_site_fract_y
 _atom_site_fract_z
 _atom_site_occupancy
  Cs  Cs0  1  0.122731  0.122630  0.122395  1
  Cs  Cs1  1  0.877269  0.877370  0.877605  1
  Np  Np2  1  0.500000  0.500000  0.500000  1
  Te  Te3  1  0.000000  0.500000  0.500000  1
  Te  Te4  1  0.500000  0.500000  0.000000  1
  Te  Te5  1  0.500000  0.000000  0.500000  1
  O  O6  1  0.434287  0.822150  0.433265  1
  O  O7  1  0.812788  0.429459  0.819104  1
  O  O8  1  0.429341  0.812740  0.819156  1
  O  O9  1  0.822194  0.434164  0.433424  1
  O  O10  1  0.815858  0.815762  0.427645  1
  O  O11  1  0.435146  0.434989  0.826422  1
  O  O12  1  0.565713  0.177850  0.566735  1
  O  O13  1  0.187212  0.570541  0.180896  1
  O  O14  1  0.570659  0.187260  0.180844  1
  O  O15  1  0.177806  0.565836  0.566576  1
  O  O16  1  0.184142  0.184238  0.572355  1
  O  O17  1  0.564854  0.565011  0.173578  1
