# generated using pymatgen
data_Ba5SiBi2
_symmetry_space_group_name_H-M   'P 1'
_cell_length_a   14.39491800
_cell_length_b   10.58539800
_cell_length_c   9.14470400
_cell_angle_alpha   90.00000000
_cell_angle_beta   90.00000000
_cell_angle_gamma   90.00000000
_symmetry_Int_Tables_number   1
_chemical_formula_structural   Ba5SiBi2
_chemical_formula_sum   'Ba20 Si4 Bi8'
_cell_volume   1393.43283334
_cell_formula_units_Z   4
loop_
 _symmetry_equiv_pos_site_id
 _symmetry_equiv_pos_as_xyz
  1  'x, y, z'
loop_
 _atom_site_type_symbol
 _atom_site_label
 _atom_site_symmetry_multiplicity
 _atom_site_fract_x
 _atom_site_fract_y
 _atom_site_fract_z
 _atom_site_occupancy
  Ba  Ba0  1  0.075898  0.526506  0.820607  1
  Ba  Ba1  1  0.575898  0.973494  0.679393  1
  Ba  Ba2  1  0.924102  0.026506  0.179393  1
  Ba  Ba3  1  0.424102  0.473494  0.320607  1
  Ba  Ba4  1  0.924102  0.473494  0.179393  1
  Ba  Ba5  1  0.424102  0.026506  0.320607  1
  Ba  Ba6  1  0.075898  0.973494  0.820607  1
  Ba  Ba7  1  0.575898  0.526506  0.679393  1
  Ba  Ba8  1  0.000736  0.750000  0.440254  1
  Ba  Ba9  1  0.500736  0.750000  0.059746  1
  Ba  Ba10  1  0.999264  0.250000  0.559746  1
  Ba  Ba11  1  0.499264  0.250000  0.940254  1
  Ba  Ba12  1  0.213551  0.750000  0.167228  1
  Ba  Ba13  1  0.713551  0.750000  0.332772  1
  Ba  Ba14  1  0.786449  0.250000  0.832772  1
  Ba  Ba15  1  0.286449  0.250000  0.667228  1
  Ba  Ba16  1  0.301887  0.750000  0.645202  1
  Ba  Ba17  1  0.801887  0.750000  0.854798  1
  Ba  Ba18  1  0.698113  0.250000  0.354798  1
  Ba  Ba19  1  0.198113  0.250000  0.145202  1
  Si  Si20  1  0.490029  0.750000  0.442126  1
  Si  Si21  1  0.990029  0.750000  0.057874  1
  Si  Si22  1  0.509971  0.250000  0.557874  1
  Si  Si23  1  0.009971  0.250000  0.942126  1
  Bi  Bi24  1  0.331644  0.505501  0.938057  1
  Bi  Bi25  1  0.831644  0.994499  0.561943  1
  Bi  Bi26  1  0.668356  0.005501  0.061943  1
  Bi  Bi27  1  0.168356  0.494499  0.438057  1
  Bi  Bi28  1  0.668356  0.494499  0.061943  1
  Bi  Bi29  1  0.168356  0.005501  0.438057  1
  Bi  Bi30  1  0.331644  0.994499  0.938057  1
  Bi  Bi31  1  0.831644  0.505501  0.561943  1
