# generated using pymatgen
data_Tb8CoHg2Pt
_symmetry_space_group_name_H-M   'P 1'
_cell_length_a   9.59047778
_cell_length_b   9.59827230
_cell_length_c   9.59827254
_cell_angle_alpha   60.07369801
_cell_angle_beta   60.02685483
_cell_angle_gamma   60.02686055
_symmetry_Int_Tables_number   1
_chemical_formula_structural   Tb8CoHg2Pt
_chemical_formula_sum   'Tb16 Co2 Hg4 Pt2'
_cell_volume   625.35852876
_cell_formula_units_Z   2
loop_
 _symmetry_equiv_pos_site_id
 _symmetry_equiv_pos_as_xyz
  1  'x, y, z'
loop_
 _atom_site_type_symbol
 _atom_site_label
 _atom_site_symmetry_multiplicity
 _atom_site_fract_x
 _atom_site_fract_y
 _atom_site_fract_z
 _atom_site_occupancy
  Tb  Tb0  1  0.441121  0.438755  0.051963  1
  Tb  Tb1  1  0.589891  0.602569  0.602569  1
  Tb  Tb2  1  0.185082  0.814918  0.814918  1
  Tb  Tb3  1  0.068161  0.051963  0.438755  1
  Tb  Tb4  1  0.438501  0.061499  0.061499  1
  Tb  Tb5  1  0.812280  0.189268  0.812996  1
  Tb  Tb6  1  0.441121  0.051963  0.438755  1
  Tb  Tb7  1  0.598200  0.190641  0.612960  1
  Tb  Tb8  1  0.812280  0.812996  0.189268  1
  Tb  Tb9  1  0.204970  0.602569  0.602569  1
  Tb  Tb10  1  0.809543  0.190457  0.190457  1
  Tb  Tb11  1  0.058609  0.441391  0.441391  1
  Tb  Tb12  1  0.185457  0.812996  0.189268  1
  Tb  Tb13  1  0.598200  0.612960  0.190641  1
  Tb  Tb14  1  0.185457  0.189268  0.812996  1
  Tb  Tb15  1  0.068161  0.438755  0.051963  1
  Co  Co16  1  0.392200  0.824555  0.391045  1
  Co  Co17  1  0.392200  0.391045  0.824555  1
  Hg  Hg18  1  0.835563  0.833013  0.495861  1
  Hg  Hg19  1  0.837265  0.834350  0.834350  1
  Hg  Hg20  1  0.494034  0.834350  0.834350  1
  Hg  Hg21  1  0.835563  0.495861  0.833013  1
  Pt  Pt22  1  0.396522  0.391930  0.391930  1
  Pt  Pt23  1  0.819619  0.391930  0.391930  1
