# generated using pymatgen
data_Er10In5Hg3Pd4
_symmetry_space_group_name_H-M   'P 1'
_cell_length_a   3.61817400
_cell_length_b   7.97899300
_cell_length_c   18.20067120
_cell_angle_alpha   89.94313933
_cell_angle_beta   90.00000000
_cell_angle_gamma   90.00000000
_symmetry_Int_Tables_number   1
_chemical_formula_structural   Er10In5Hg3Pd4
_chemical_formula_sum   'Er10 In5 Hg3 Pd4'
_cell_volume   525.44192575
_cell_formula_units_Z   1
loop_
 _symmetry_equiv_pos_site_id
 _symmetry_equiv_pos_as_xyz
  1  'x, y, z'
loop_
 _atom_site_type_symbol
 _atom_site_label
 _atom_site_symmetry_multiplicity
 _atom_site_fract_x
 _atom_site_fract_y
 _atom_site_fract_z
 _atom_site_occupancy
  Er  Er0  1  0.000000  0.503171  0.497675  1
  Er  Er1  1  0.000000  0.999526  0.000167  1
  Er  Er2  1  0.000000  0.744859  0.283402  1
  Er  Er3  1  0.000000  0.255861  0.720283  1
  Er  Er4  1  0.000000  0.756660  0.782796  1
  Er  Er5  1  0.000000  0.244389  0.216337  1
  Er  Er6  1  0.000000  0.611001  0.084549  1
  Er  Er7  1  0.000000  0.390106  0.916611  1
  Er  Er8  1  0.000000  0.882702  0.584356  1
  Er  Er9  1  0.000000  0.109566  0.415243  1
  In  In10  1  0.500000  0.210085  0.567264  1
  In  In11  1  0.500000  0.576285  0.648983  1
  In  In12  1  0.500000  0.419911  0.350831  1
  In  In13  1  0.500000  0.920718  0.148663  1
  In  In14  1  0.500000  0.079497  0.851943  1
  Hg  Hg15  1  0.500000  0.714070  0.933217  1
  Hg  Hg16  1  0.500000  0.287337  0.066044  1
  Hg  Hg17  1  0.500000  0.788569  0.432821  1
  Pd  Pd18  1  0.500000  0.531534  0.197268  1
  Pd  Pd19  1  0.500000  0.470390  0.803267  1
  Pd  Pd20  1  0.500000  0.971294  0.696346  1
  Pd  Pd21  1  0.500000  0.032470  0.301936  1
