# generated using pymatgen
data_Er4InPt8Rh3
_symmetry_space_group_name_H-M   'P 1'
_cell_length_a   4.19745400
_cell_length_b   5.76355111
_cell_length_c   11.54688992
_cell_angle_alpha   87.25640725
_cell_angle_beta   90.00000000
_cell_angle_gamma   90.00000000
_symmetry_Int_Tables_number   1
_chemical_formula_structural   Er4InPt8Rh3
_chemical_formula_sum   'Er4 In1 Pt8 Rh3'
_cell_volume   279.02493912
_cell_formula_units_Z   1
loop_
 _symmetry_equiv_pos_site_id
 _symmetry_equiv_pos_as_xyz
  1  'x, y, z'
loop_
 _atom_site_type_symbol
 _atom_site_label
 _atom_site_symmetry_multiplicity
 _atom_site_fract_x
 _atom_site_fract_y
 _atom_site_fract_z
 _atom_site_occupancy
  Er  Er0  1  0.500000  0.754633  0.372063  1
  Er  Er1  1  0.500000  0.717659  0.865535  1
  Er  Er2  1  0.500000  0.281717  0.137420  1
  Er  Er3  1  0.500000  0.245829  0.625616  1
  In  In4  1  0.000000  0.000993  0.000223  1
  Pt  Pt5  1  0.000000  0.012175  0.250408  1
  Pt  Pt6  1  0.000000  0.987259  0.750029  1
  Pt  Pt7  1  0.000000  0.499843  0.000496  1
  Pt  Pt8  1  0.000000  0.499454  0.499056  1
  Pt  Pt9  1  0.000000  0.515710  0.250683  1
  Pt  Pt10  1  0.000000  0.483916  0.749748  1
  Pt  Pt11  1  0.500000  0.748063  0.621344  1
  Pt  Pt12  1  0.000000  0.000665  0.499236  1
  Rh  Rh13  1  0.500000  0.251877  0.378253  1
  Rh  Rh14  1  0.500000  0.227071  0.881234  1
  Rh  Rh15  1  0.500000  0.773136  0.118657  1
