# generated using pymatgen
data_Ho2Be4Ru5
_symmetry_space_group_name_H-M   'P 1'
_cell_length_a   3.20839600
_cell_length_b   8.92950995
_cell_length_c   10.34381200
_cell_angle_alpha   90.17351398
_cell_angle_beta   90.00000000
_cell_angle_gamma   90.00000000
_symmetry_Int_Tables_number   1
_chemical_formula_structural   Ho2Be4Ru5
_chemical_formula_sum   'Ho4 Be8 Ru10'
_cell_volume   296.34268994
_cell_formula_units_Z   2
loop_
 _symmetry_equiv_pos_site_id
 _symmetry_equiv_pos_as_xyz
  1  'x, y, z'
loop_
 _atom_site_type_symbol
 _atom_site_label
 _atom_site_symmetry_multiplicity
 _atom_site_fract_x
 _atom_site_fract_y
 _atom_site_fract_z
 _atom_site_occupancy
  Ho  Ho0  1  0.500000  0.832218  0.183323  1
  Ho  Ho1  1  0.500000  0.163000  0.818060  1
  Ho  Ho2  1  0.500000  0.667730  0.683299  1
  Ho  Ho3  1  0.500000  0.337208  0.318496  1
  Be  Be4  1  0.500000  0.964784  0.592364  1
  Be  Be5  1  0.500000  0.032359  0.406271  1
  Be  Be6  1  0.500000  0.842796  0.906187  1
  Be  Be7  1  0.500000  0.166156  0.093735  1
  Be  Be8  1  0.500000  0.657209  0.405043  1
  Be  Be9  1  0.500000  0.334379  0.593168  1
  Be  Be10  1  0.500000  0.468029  0.905787  1
  Be  Be11  1  0.500000  0.534162  0.092541  1
  Ru  Ru12  1  0.000000  0.658161  0.955255  1
  Ru  Ru13  1  0.000000  0.345385  0.043826  1
  Ru  Ru14  1  0.000000  0.841890  0.454330  1
  Ru  Ru15  1  0.000000  0.154234  0.544505  1
  Ru  Ru16  1  0.000000  0.001653  0.004189  1
  Ru  Ru17  1  0.000000  0.410718  0.751879  1
  Ru  Ru18  1  0.000000  0.587846  0.245310  1
  Ru  Ru19  1  0.000000  0.499922  0.504206  1
  Ru  Ru20  1  0.000000  0.911596  0.745864  1
  Ru  Ru21  1  0.000000  0.088564  0.252365  1
