# generated using pymatgen
data_Ho8Lu11Si16Ag
_symmetry_space_group_name_H-M   'P 1'
_cell_length_a   7.20202900
_cell_length_b   7.59307145
_cell_length_c   14.35586500
_cell_angle_alpha   90.00000000
_cell_angle_beta   90.00000000
_cell_angle_gamma   89.96455739
_symmetry_Int_Tables_number   1
_chemical_formula_structural   Ho8Lu11Si16Ag
_chemical_formula_sum   'Ho8 Lu11 Si16 Ag1'
_cell_volume   785.05780388
_cell_formula_units_Z   1
loop_
 _symmetry_equiv_pos_site_id
 _symmetry_equiv_pos_as_xyz
  1  'x, y, z'
loop_
 _atom_site_type_symbol
 _atom_site_label
 _atom_site_symmetry_multiplicity
 _atom_site_fract_x
 _atom_site_fract_y
 _atom_site_fract_z
 _atom_site_occupancy
  Ho  Ho0  1  0.016337  0.179907  0.096428  1
  Ho  Ho1  1  0.985099  0.808973  0.900143  1
  Ho  Ho2  1  0.478479  0.674850  0.900777  1
  Ho  Ho3  1  0.985099  0.808973  0.599857  1
  Ho  Ho4  1  0.514647  0.321980  0.095608  1
  Ho  Ho5  1  0.016337  0.179907  0.403572  1
  Ho  Ho6  1  0.514647  0.321980  0.404392  1
  Ho  Ho7  1  0.478479  0.674850  0.599223  1
  Lu  Lu8  1  0.839992  0.491082  0.250000  1
  Lu  Lu9  1  0.343773  0.011029  0.250000  1
  Lu  Lu10  1  0.652374  0.990416  0.750000  1
  Lu  Lu11  1  0.320012  0.184656  0.627197  1
  Lu  Lu12  1  0.675177  0.823233  0.376602  1
  Lu  Lu13  1  0.174101  0.681879  0.375462  1
  Lu  Lu14  1  0.675177  0.823233  0.123398  1
  Lu  Lu15  1  0.836689  0.325962  0.627137  1
  Lu  Lu16  1  0.320012  0.184656  0.872803  1
  Lu  Lu17  1  0.836689  0.325962  0.872863  1
  Lu  Lu18  1  0.174101  0.681879  0.124538  1
  Si  Si19  1  0.022702  0.084071  0.750000  1
  Si  Si20  1  0.972381  0.895964  0.250000  1
  Si  Si21  1  0.469874  0.611402  0.250000  1
  Si  Si22  1  0.531702  0.394546  0.750000  1
  Si  Si23  1  0.279033  0.872840  0.750000  1
  Si  Si24  1  0.720718  0.130625  0.250000  1
  Si  Si25  1  0.219393  0.371662  0.250000  1
  Si  Si26  1  0.770462  0.629627  0.750000  1
  Si  Si27  1  0.161276  0.462524  0.531185  1
  Si  Si28  1  0.845034  0.531876  0.462127  1
  Si  Si29  1  0.346684  0.969382  0.463978  1
  Si  Si30  1  0.845034  0.531876  0.037873  1
  Si  Si31  1  0.655409  0.031222  0.540904  1
  Si  Si32  1  0.161276  0.462524  0.968815  1
  Si  Si33  1  0.655409  0.031222  0.959096  1
  Si  Si34  1  0.346684  0.969382  0.036022  1
  Ag  Ag35  1  0.159704  0.523841  0.750000  1
