# generated using pymatgen
data_Gd5YH18
_symmetry_space_group_name_H-M   'P 1'
_cell_length_a   6.41464502
_cell_length_b   6.41463039
_cell_length_c   6.66737100
_cell_angle_alpha   90.00213264
_cell_angle_beta   90.00208534
_cell_angle_gamma   119.99041321
_symmetry_Int_Tables_number   1
_chemical_formula_structural   Gd5YH18
_chemical_formula_sum   'Gd5 Y1 H18'
_cell_volume   237.61369285
_cell_formula_units_Z   1
loop_
 _symmetry_equiv_pos_site_id
 _symmetry_equiv_pos_as_xyz
  1  'x, y, z'
loop_
 _atom_site_type_symbol
 _atom_site_label
 _atom_site_symmetry_multiplicity
 _atom_site_fract_x
 _atom_site_fract_y
 _atom_site_fract_z
 _atom_site_occupancy
  Gd  Gd0  1  0.669754  0.999731  0.249154  1
  Gd  Gd1  1  0.999731  0.669753  0.249154  1
  Gd  Gd2  1  0.330462  0.330461  0.249363  1
  Gd  Gd3  1  0.330157  0.000047  0.749242  1
  Gd  Gd4  1  0.000045  0.330154  0.749245  1
  Y  Y5  1  0.670186  0.670187  0.748977  1
  H  H6  1  0.695598  0.695599  0.090468  1
  H  H7  1  0.304121  0.000004  0.091210  1
  H  H8  1  0.000003  0.304121  0.091211  1
  H  H9  1  0.666663  0.333241  0.198903  1
  H  H10  1  0.333240  0.666660  0.198903  1
  H  H11  1  0.000079  0.000079  0.319384  1
  H  H12  1  0.354570  0.999993  0.406470  1
  H  H13  1  0.999995  0.354572  0.406470  1
  H  H14  1  0.645542  0.645542  0.407216  1
  H  H15  1  0.303675  0.303672  0.591055  1
  H  H16  1  0.696019  0.999548  0.591532  1
  H  H17  1  0.999550  0.696020  0.591534  1
  H  H18  1  0.666622  0.334661  0.699150  1
  H  H19  1  0.334662  0.666622  0.699149  1
  H  H20  1  0.998772  0.998773  0.819214  1
  H  H21  1  0.645333  0.999857  0.906436  1
  H  H22  1  0.355372  0.355372  0.905921  1
  H  H23  1  0.999856  0.645331  0.906437  1
