# generated using pymatgen
data_Y2Th2Ga12Ru
_symmetry_space_group_name_H-M   'P 1'
_cell_length_a   7.63223843
_cell_length_b   7.53422629
_cell_length_c   7.63223833
_cell_angle_alpha   109.37249579
_cell_angle_beta   110.18805943
_cell_angle_gamma   109.37251473
_symmetry_Int_Tables_number   1
_chemical_formula_structural   Y2Th2Ga12Ru
_chemical_formula_sum   'Y2 Th2 Ga12 Ru1'
_cell_volume   335.64729848
_cell_formula_units_Z   1
loop_
 _symmetry_equiv_pos_site_id
 _symmetry_equiv_pos_as_xyz
  1  'x, y, z'
loop_
 _atom_site_type_symbol
 _atom_site_label
 _atom_site_symmetry_multiplicity
 _atom_site_fract_x
 _atom_site_fract_y
 _atom_site_fract_z
 _atom_site_occupancy
  Y  Y0  1  0.000000  0.000000  0.500000  1
  Y  Y1  1  0.500000  0.000000  0.000000  1
  Th  Th2  1  0.000000  0.500000  0.000000  1
  Th  Th3  1  0.500000  0.500000  0.500000  1
  Ga  Ga4  1  0.750411  0.244836  0.494425  1
  Ga  Ga5  1  0.750000  0.500000  0.250000  1
  Ga  Ga6  1  0.494425  0.244836  0.750411  1
  Ga  Ga7  1  0.250000  0.500000  0.750000  1
  Ga  Ga8  1  0.249589  0.755164  0.505575  1
  Ga  Ga9  1  0.505575  0.755164  0.249589  1
  Ga  Ga10  1  0.710082  0.713561  0.003479  1
  Ga  Ga11  1  0.290728  0.000000  0.290728  1
  Ga  Ga12  1  0.996521  0.286439  0.289918  1
  Ga  Ga13  1  0.289918  0.286439  0.996521  1
  Ga  Ga14  1  0.709272  0.000000  0.709272  1
  Ga  Ga15  1  0.003479  0.713561  0.710082  1
  Ru  Ru16  1  0.000000  0.000000  0.000000  1
