# generated using pymatgen
data_Pr3Nd(Pd2O5)2
_symmetry_space_group_name_H-M   'P 1'
_cell_length_a   6.68970804
_cell_length_b   6.69161304
_cell_length_c   5.64201400
_cell_angle_alpha   90.00000000
_cell_angle_beta   90.00000000
_cell_angle_gamma   89.98701766
_symmetry_Int_Tables_number   1
_chemical_formula_structural   Pr3Nd(Pd2O5)2
_chemical_formula_sum   'Pr3 Nd1 Pd4 O10'
_cell_volume   252.56439813
_cell_formula_units_Z   1
loop_
 _symmetry_equiv_pos_site_id
 _symmetry_equiv_pos_as_xyz
  1  'x, y, z'
loop_
 _atom_site_type_symbol
 _atom_site_label
 _atom_site_symmetry_multiplicity
 _atom_site_fract_x
 _atom_site_fract_y
 _atom_site_fract_z
 _atom_site_occupancy
  Pr  Pr0  1  0.108013  0.260614  0.000000  1
  Pr  Pr1  1  0.891227  0.740131  0.000000  1
  Pr  Pr2  1  0.261020  0.892421  0.500000  1
  Nd  Nd3  1  0.740646  0.108410  0.500000  1
  Pd  Pd4  1  0.595162  0.306354  0.000000  1
  Pd  Pd5  1  0.405177  0.693318  0.000000  1
  Pd  Pd6  1  0.307563  0.404981  0.500000  1
  Pd  Pd7  1  0.692823  0.594862  0.500000  1
  O  O8  1  0.403456  0.196450  0.258882  1
  O  O9  1  0.597656  0.803952  0.741093  1
  O  O10  1  0.597656  0.803952  0.258907  1
  O  O11  1  0.196860  0.597450  0.758475  1
  O  O12  1  0.403456  0.196450  0.741118  1
  O  O13  1  0.802756  0.400885  0.242965  1
  O  O14  1  0.802756  0.400885  0.757035  1
  O  O15  1  0.196860  0.597450  0.241525  1
  O  O16  1  0.998457  0.000717  0.250748  1
  O  O17  1  0.998457  0.000717  0.749252  1
