# generated using pymatgen
data_Tb2Mn3Al20Co
_symmetry_space_group_name_H-M   'P 1'
_cell_length_a   6.79320147
_cell_length_b   6.80669381
_cell_length_c   9.01202126
_cell_angle_alpha   89.97749548
_cell_angle_beta   90.30657740
_cell_angle_gamma   97.27904432
_symmetry_Int_Tables_number   1
_chemical_formula_structural   Tb2Mn3Al20Co
_chemical_formula_sum   'Tb2 Mn3 Al20 Co1'
_cell_volume   413.34478035
_cell_formula_units_Z   1
loop_
 _symmetry_equiv_pos_site_id
 _symmetry_equiv_pos_as_xyz
  1  'x, y, z'
loop_
 _atom_site_type_symbol
 _atom_site_label
 _atom_site_symmetry_multiplicity
 _atom_site_fract_x
 _atom_site_fract_y
 _atom_site_fract_z
 _atom_site_occupancy
  Tb  Tb0  1  0.877323  0.128900  0.749829  1
  Tb  Tb1  1  0.122677  0.871100  0.250171  1
  Mn  Mn2  1  0.000000  0.500000  0.000000  1
  Mn  Mn3  1  0.500000  0.000000  0.500000  1
  Mn  Mn4  1  0.000000  0.500000  0.500000  1
  Al  Al5  1  0.413105  0.133997  0.749967  1
  Al  Al6  1  0.134648  0.412243  0.249769  1
  Al  Al7  1  0.586895  0.866003  0.250033  1
  Al  Al8  1  0.865352  0.587757  0.750231  1
  Al  Al9  1  0.523755  0.782158  0.748042  1
  Al  Al10  1  0.781186  0.522578  0.248974  1
  Al  Al11  1  0.476245  0.217842  0.251958  1
  Al  Al12  1  0.218814  0.477422  0.751026  1
  Al  Al13  1  0.841833  0.156853  0.403845  1
  Al  Al14  1  0.158167  0.843147  0.596155  1
  Al  Al15  1  0.843979  0.156949  0.097000  1
  Al  Al16  1  0.156021  0.843051  0.903000  1
  Al  Al17  1  0.625757  0.376251  0.954078  1
  Al  Al18  1  0.374243  0.623749  0.045922  1
  Al  Al19  1  0.625074  0.373928  0.545335  1
  Al  Al20  1  0.374926  0.626072  0.454665  1
  Al  Al21  1  0.772157  0.771672  0.000456  1
  Al  Al22  1  0.770642  0.771363  0.500136  1
  Al  Al23  1  0.227843  0.228327  0.999544  1
  Al  Al24  1  0.229358  0.228636  0.499864  1
  Co  Co25  1  0.500000  0.000000  0.000000  1
