# generated using pymatgen
data_K2PuScO6
_symmetry_space_group_name_H-M   'P 1'
_cell_length_a   5.88271736
_cell_length_b   5.88276773
_cell_length_c   5.88274300
_cell_angle_alpha   59.99958118
_cell_angle_beta   60.00042506
_cell_angle_gamma   59.99999845
_symmetry_Int_Tables_number   1
_chemical_formula_structural   K2PuScO6
_chemical_formula_sum   'K2 Pu1 Sc1 O6'
_cell_volume   143.95427862
_cell_formula_units_Z   1
loop_
 _symmetry_equiv_pos_site_id
 _symmetry_equiv_pos_as_xyz
  1  'x, y, z'
loop_
 _atom_site_type_symbol
 _atom_site_label
 _atom_site_symmetry_multiplicity
 _atom_site_fract_x
 _atom_site_fract_y
 _atom_site_fract_z
 _atom_site_occupancy
  K  K0  1  0.750000  0.750000  0.750000  1
  K  K1  1  0.250000  0.250000  0.250000  1
  Pu  Pu2  1  0.500000  0.500000  0.500000  1
  Sc  Sc3  1  0.000000  0.000000  0.000000  1
  O  O4  1  0.743099  0.256901  0.256901  1
  O  O5  1  0.256900  0.256900  0.743100  1
  O  O6  1  0.256901  0.743099  0.743099  1
  O  O7  1  0.256902  0.743098  0.256902  1
  O  O8  1  0.743098  0.256902  0.743098  1
  O  O9  1  0.743100  0.743100  0.256900  1
