# generated using pymatgen
data_Nb6V2Re3Si6Mo
_symmetry_space_group_name_H-M   'P 1'
_cell_length_a   7.64199350
_cell_length_b   7.64654246
_cell_length_c   7.64172326
_cell_angle_alpha   126.74318938
_cell_angle_beta   128.25097246
_cell_angle_gamma   77.43547258
_symmetry_Int_Tables_number   1
_chemical_formula_structural   Nb6V2Re3Si6Mo
_chemical_formula_sum   'Nb6 V2 Re3 Si6 Mo1'
_cell_volume   272.59000512
_cell_formula_units_Z   1
loop_
 _symmetry_equiv_pos_site_id
 _symmetry_equiv_pos_as_xyz
  1  'x, y, z'
loop_
 _atom_site_type_symbol
 _atom_site_label
 _atom_site_symmetry_multiplicity
 _atom_site_fract_x
 _atom_site_fract_y
 _atom_site_fract_z
 _atom_site_occupancy
  Nb  Nb0  1  0.551777  0.093188  0.040409  1
  Nb  Nb1  1  0.446545  0.491533  0.544780  1
  Nb  Nb2  1  0.946843  0.491545  0.044887  1
  Nb  Nb3  1  0.052737  0.093076  0.541394  1
  Nb  Nb4  1  0.751661  0.909577  0.658267  1
  Nb  Nb5  1  0.251284  0.909483  0.158008  1
  V  V6  1  0.500283  0.240363  0.740032  1
  V  V7  1  0.999189  0.239560  0.240324  1
  Re  Re8  1  0.871055  0.496747  0.625462  1
  Re  Re9  1  0.627408  0.752383  0.124895  1
  Re  Re10  1  0.371856  0.497314  0.125660  1
  Si  Si11  1  0.748835  0.493063  0.243920  1
  Si  Si12  1  0.249031  0.492999  0.744270  1
  Si  Si13  1  0.334257  0.828381  0.494236  1
  Si  Si14  1  0.667970  0.164078  0.495947  1
  Si  Si15  1  0.832561  0.827357  0.994680  1
  Si  Si16  1  0.168394  0.167113  0.998799  1
  Mo  Mo17  1  0.128315  0.754440  0.626227  1
