# generated using pymatgen
data_Er8Cd2IrRh
_symmetry_space_group_name_H-M   'P 1'
_cell_length_a   9.53126193
_cell_length_b   9.53057474
_cell_length_c   9.50460721
_cell_angle_alpha   60.09927580
_cell_angle_beta   60.11625299
_cell_angle_gamma   60.21315707
_symmetry_Int_Tables_number   1
_chemical_formula_structural   Er8Cd2IrRh
_chemical_formula_sum   'Er16 Cd4 Ir2 Rh2'
_cell_volume   612.47893754
_cell_formula_units_Z   2
loop_
 _symmetry_equiv_pos_site_id
 _symmetry_equiv_pos_as_xyz
  1  'x, y, z'
loop_
 _atom_site_type_symbol
 _atom_site_label
 _atom_site_symmetry_multiplicity
 _atom_site_fract_x
 _atom_site_fract_y
 _atom_site_fract_z
 _atom_site_occupancy
  Er  Er0  1  0.599481  0.599382  0.599444  1
  Er  Er1  1  0.599447  0.599465  0.201558  1
  Er  Er2  1  0.600095  0.200923  0.599446  1
  Er  Er3  1  0.200847  0.600175  0.599410  1
  Er  Er4  1  0.060458  0.439584  0.438967  1
  Er  Er5  1  0.439688  0.060453  0.061086  1
  Er  Er6  1  0.439649  0.060488  0.438845  1
  Er  Er7  1  0.060429  0.439628  0.061149  1
  Er  Er8  1  0.439243  0.439139  0.060919  1
  Er  Er9  1  0.060755  0.060593  0.439375  1
  Er  Er10  1  0.187130  0.813539  0.812402  1
  Er  Er11  1  0.813471  0.187232  0.186843  1
  Er  Er12  1  0.813542  0.187201  0.812354  1
  Er  Er13  1  0.187097  0.813484  0.186996  1
  Er  Er14  1  0.812370  0.812376  0.187604  1
  Er  Er15  1  0.186155  0.186220  0.813755  1
  Cd  Cd16  1  0.831329  0.831301  0.831184  1
  Cd  Cd17  1  0.831340  0.831317  0.506169  1
  Cd  Cd18  1  0.831385  0.506111  0.831264  1
  Cd  Cd19  1  0.506109  0.831374  0.831269  1
  Ir  Ir20  1  0.392344  0.822985  0.392309  1
  Ir  Ir21  1  0.822997  0.392339  0.392328  1
  Rh  Rh22  1  0.392316  0.392344  0.392195  1
  Rh  Rh23  1  0.392323  0.392344  0.823127  1
