# generated using pymatgen
data_DyTmSi2NiRu
_symmetry_space_group_name_H-M   'P 1'
_cell_length_a   4.20973000
_cell_length_b   6.86996683
_cell_length_c   7.14573074
_cell_angle_alpha   91.59937716
_cell_angle_beta   90.00000000
_cell_angle_gamma   90.00000000
_symmetry_Int_Tables_number   1
_chemical_formula_structural   DyTmSi2NiRu
_chemical_formula_sum   'Dy2 Tm2 Si4 Ni2 Ru2'
_cell_volume   206.57906334
_cell_formula_units_Z   2
loop_
 _symmetry_equiv_pos_site_id
 _symmetry_equiv_pos_as_xyz
  1  'x, y, z'
loop_
 _atom_site_type_symbol
 _atom_site_label
 _atom_site_symmetry_multiplicity
 _atom_site_fract_x
 _atom_site_fract_y
 _atom_site_fract_z
 _atom_site_occupancy
  Dy  Dy0  1  0.250000  0.991859  0.799029  1
  Dy  Dy1  1  0.750000  0.008141  0.200971  1
  Tm  Tm2  1  0.250000  0.489682  0.684440  1
  Tm  Tm3  1  0.750000  0.510318  0.315560  1
  Si  Si4  1  0.250000  0.300917  0.100226  1
  Si  Si5  1  0.750000  0.699083  0.899774  1
  Si  Si6  1  0.250000  0.800670  0.399900  1
  Si  Si7  1  0.750000  0.199330  0.600100  1
  Ni  Ni8  1  0.750000  0.832466  0.574624  1
  Ni  Ni9  1  0.250000  0.167534  0.425376  1
  Ru  Ru10  1  0.750000  0.344808  0.930135  1
  Ru  Ru11  1  0.250000  0.655192  0.069865  1
