# generated using pymatgen
data_Mn3Cr17Fe(WC3)2
_symmetry_space_group_name_H-M   'P 1'
_cell_length_a   7.50096100
_cell_length_b   7.50096136
_cell_length_c   7.50096158
_cell_angle_alpha   60.06079595
_cell_angle_beta   60.06079586
_cell_angle_gamma   60.06079370
_symmetry_Int_Tables_number   1
_chemical_formula_structural   Mn3Cr17Fe(WC3)2
_chemical_formula_sum   'Mn3 Cr17 Fe1 W2 C6'
_cell_volume   298.83658104
_cell_formula_units_Z   1
loop_
 _symmetry_equiv_pos_site_id
 _symmetry_equiv_pos_as_xyz
  1  'x, y, z'
loop_
 _atom_site_type_symbol
 _atom_site_label
 _atom_site_symmetry_multiplicity
 _atom_site_fract_x
 _atom_site_fract_y
 _atom_site_fract_z
 _atom_site_occupancy
  Mn  Mn0  1  0.616525  0.616525  0.149513  1
  Mn  Mn1  1  0.616525  0.149512  0.616525  1
  Mn  Mn2  1  0.149513  0.616525  0.616525  1
  Cr  Cr3  1  0.616681  0.616681  0.616681  1
  Cr  Cr4  1  0.385954  0.385954  0.843606  1
  Cr  Cr5  1  0.385954  0.843606  0.385954  1
  Cr  Cr6  1  0.843606  0.385954  0.385954  1
  Cr  Cr7  1  0.385740  0.385740  0.385740  1
  Cr  Cr8  1  0.998764  0.998764  0.335688  1
  Cr  Cr9  1  0.665595  0.000556  0.334332  1
  Cr  Cr10  1  0.000556  0.665595  0.334332  1
  Cr  Cr11  1  0.665595  0.334332  0.000556  1
  Cr  Cr12  1  0.998764  0.335688  0.998764  1
  Cr  Cr13  1  0.000556  0.334332  0.665595  1
  Cr  Cr14  1  0.334332  0.665595  0.000556  1
  Cr  Cr15  1  0.334332  0.000556  0.665595  1
  Cr  Cr16  1  0.335688  0.998764  0.998764  1
  Cr  Cr17  1  0.999430  0.999430  0.664660  1
  Cr  Cr18  1  0.999430  0.664660  0.999430  1
  Cr  Cr19  1  0.664660  0.999430  0.999430  1
  Fe  Fe20  1  0.999417  0.999417  0.999417  1
  W  W21  1  0.750993  0.750993  0.750993  1
  W  W22  1  0.250376  0.250376  0.250376  1
  C  C23  1  0.724378  0.724378  0.274087  1
  C  C24  1  0.277456  0.723258  0.277456  1
  C  C25  1  0.723258  0.277456  0.277456  1
  C  C26  1  0.277456  0.277456  0.723258  1
  C  C27  1  0.724378  0.274087  0.724378  1
  C  C28  1  0.274087  0.724378  0.724378  1
