# generated using pymatgen
data_Y6MnAl24ZnRu6
_symmetry_space_group_name_H-M   'P 1'
_cell_length_a   8.82874461
_cell_length_b   8.82874343
_cell_length_c   9.52109899
_cell_angle_alpha   89.94475616
_cell_angle_beta   90.05524256
_cell_angle_gamma   119.77859389
_symmetry_Int_Tables_number   1
_chemical_formula_structural   Y6MnAl24ZnRu6
_chemical_formula_sum   'Y6 Mn1 Al24 Zn1 Ru6'
_cell_volume   644.13945608
_cell_formula_units_Z   1
loop_
 _symmetry_equiv_pos_site_id
 _symmetry_equiv_pos_as_xyz
  1  'x, y, z'
loop_
 _atom_site_type_symbol
 _atom_site_label
 _atom_site_symmetry_multiplicity
 _atom_site_fract_x
 _atom_site_fract_y
 _atom_site_fract_z
 _atom_site_occupancy
  Y  Y0  1  0.192645  0.385041  0.247317  1
  Y  Y1  1  0.807355  0.614959  0.752683  1
  Y  Y2  1  0.614959  0.807355  0.247317  1
  Y  Y3  1  0.385041  0.192645  0.752683  1
  Y  Y4  1  0.193912  0.806088  0.254030  1
  Y  Y5  1  0.806088  0.193912  0.745970  1
  Mn  Mn6  1  0.000000  0.000000  0.500000  1
  Al  Al7  1  0.328437  0.671563  0.020588  1
  Al  Al8  1  0.671563  0.328437  0.979412  1
  Al  Al9  1  0.666429  0.333571  0.514517  1
  Al  Al10  1  0.333571  0.666429  0.485483  1
  Al  Al11  1  0.160047  0.319174  0.575181  1
  Al  Al12  1  0.839953  0.680826  0.424819  1
  Al  Al13  1  0.680826  0.839953  0.575181  1
  Al  Al14  1  0.849045  0.678135  0.080877  1
  Al  Al15  1  0.319174  0.160047  0.424819  1
  Al  Al16  1  0.150955  0.321865  0.919123  1
  Al  Al17  1  0.159831  0.840169  0.577278  1
  Al  Al18  1  0.321865  0.150955  0.080877  1
  Al  Al19  1  0.840169  0.159831  0.422722  1
  Al  Al20  1  0.678135  0.849045  0.919123  1
  Al  Al21  1  0.837200  0.162800  0.076413  1
  Al  Al22  1  0.162800  0.837200  0.923587  1
  Al  Al23  1  0.561751  0.121815  0.249094  1
  Al  Al24  1  0.438249  0.878185  0.750906  1
  Al  Al25  1  0.878185  0.438249  0.249094  1
  Al  Al26  1  0.121815  0.561751  0.750906  1
  Al  Al27  1  0.563809  0.436191  0.255575  1
  Al  Al28  1  0.436191  0.563809  0.744425  1
  Al  Al29  1  0.999235  0.000765  0.255239  1
  Al  Al30  1  0.000765  0.999235  0.744761  1
  Zn  Zn31  1  0.500000  0.500000  0.000000  1
  Ru  Ru32  1  0.500000  0.000000  0.000000  1
  Ru  Ru33  1  0.000000  0.500000  0.000000  1
  Ru  Ru34  1  0.500000  0.000000  0.500000  1
  Ru  Ru35  1  0.000000  0.500000  0.500000  1
  Ru  Ru36  1  0.500000  0.500000  0.500000  1
  Ru  Ru37  1  0.000000  0.000000  0.000000  1
