# generated using pymatgen
data_Dy3Mn8CoP6
_symmetry_space_group_name_H-M   'P 1'
_cell_length_a   3.63781500
_cell_length_b   10.87515700
_cell_length_c   12.64378300
_cell_angle_alpha   90.00000000
_cell_angle_beta   90.00000000
_cell_angle_gamma   90.00000000
_symmetry_Int_Tables_number   1
_chemical_formula_structural   Dy3Mn8CoP6
_chemical_formula_sum   'Dy6 Mn16 Co2 P12'
_cell_volume   500.21093140
_cell_formula_units_Z   2
loop_
 _symmetry_equiv_pos_site_id
 _symmetry_equiv_pos_as_xyz
  1  'x, y, z'
loop_
 _atom_site_type_symbol
 _atom_site_label
 _atom_site_symmetry_multiplicity
 _atom_site_fract_x
 _atom_site_fract_y
 _atom_site_fract_z
 _atom_site_occupancy
  Dy  Dy0  1  0.000000  0.500000  0.531581  1
  Dy  Dy1  1  0.500000  0.000000  0.468419  1
  Dy  Dy2  1  0.500000  0.822847  0.206720  1
  Dy  Dy3  1  0.500000  0.177153  0.206720  1
  Dy  Dy4  1  0.000000  0.677153  0.793280  1
  Dy  Dy5  1  0.000000  0.322847  0.793280  1
  Mn  Mn6  1  0.000000  0.500000  0.992353  1
  Mn  Mn7  1  0.500000  0.000000  0.007647  1
  Mn  Mn8  1  0.500000  0.298344  0.432241  1
  Mn  Mn9  1  0.500000  0.701656  0.432241  1
  Mn  Mn10  1  0.000000  0.201656  0.567759  1
  Mn  Mn11  1  0.000000  0.798344  0.567759  1
  Mn  Mn12  1  0.500000  0.881373  0.702966  1
  Mn  Mn13  1  0.500000  0.118627  0.702966  1
  Mn  Mn14  1  0.000000  0.618627  0.297034  1
  Mn  Mn15  1  0.000000  0.381373  0.297034  1
  Mn  Mn16  1  0.500000  0.332941  0.997083  1
  Mn  Mn17  1  0.500000  0.667059  0.997083  1
  Mn  Mn18  1  0.000000  0.167059  0.002917  1
  Mn  Mn19  1  0.000000  0.832941  0.002917  1
  Mn  Mn20  1  0.500000  0.500000  0.165521  1
  Mn  Mn21  1  0.000000  0.000000  0.834479  1
  Co  Co22  1  0.500000  0.500000  0.705222  1
  Co  Co23  1  0.000000  0.000000  0.294778  1
  P  P24  1  0.500000  0.317797  0.618539  1
  P  P25  1  0.500000  0.682203  0.618539  1
  P  P26  1  0.000000  0.182203  0.381461  1
  P  P27  1  0.000000  0.817797  0.381461  1
  P  P28  1  0.500000  0.500000  0.880785  1
  P  P29  1  0.000000  0.000000  0.119215  1
  P  P30  1  0.500000  0.845315  0.885392  1
  P  P31  1  0.500000  0.154685  0.885392  1
  P  P32  1  0.000000  0.654685  0.114608  1
  P  P33  1  0.000000  0.345315  0.114608  1
  P  P34  1  0.500000  0.500000  0.358487  1
  P  P35  1  0.000000  0.000000  0.641513  1
