# generated using pymatgen
data_YbCe2(InIr)3
_symmetry_space_group_name_H-M   'P 1'
_cell_length_a   7.41228900
_cell_length_b   7.67554811
_cell_length_c   3.98743000
_cell_angle_alpha   90.00000000
_cell_angle_beta   90.00000000
_cell_angle_gamma   118.87175375
_symmetry_Int_Tables_number   1
_chemical_formula_structural   YbCe2(InIr)3
_chemical_formula_sum   'Yb1 Ce2 In3 Ir3'
_cell_volume   198.66048417
_cell_formula_units_Z   1
loop_
 _symmetry_equiv_pos_site_id
 _symmetry_equiv_pos_as_xyz
  1  'x, y, z'
loop_
 _atom_site_type_symbol
 _atom_site_label
 _atom_site_symmetry_multiplicity
 _atom_site_fract_x
 _atom_site_fract_y
 _atom_site_fract_z
 _atom_site_occupancy
  Yb  Yb0  1  0.595200  0.000000  0.500001  1
  Ce  Ce1  1  0.414044  0.412784  0.500001  1
  Ce  Ce2  1  0.001259  0.587216  0.500001  1
  In  In3  1  0.269700  0.000000  0.000000  1
  In  In4  1  0.987735  0.240929  0.000000  1
  In  In5  1  0.746806  0.759070  0.000000  1
  Ir  Ir6  1  0.669097  0.362592  0.000000  1
  Ir  Ir7  1  0.306504  0.637407  0.000000  1
  Ir  Ir8  1  0.009655  0.000000  0.500001  1
