# generated using pymatgen
data_RbTl(CO3)2
_symmetry_space_group_name_H-M   'P 1'
_cell_length_a   7.27431333
_cell_length_b   7.27431297
_cell_length_c   7.27431300
_cell_angle_alpha   42.81661726
_cell_angle_beta   42.81662037
_cell_angle_gamma   42.81661412
_symmetry_Int_Tables_number   1
_chemical_formula_structural   RbTl(CO3)2
_chemical_formula_sum   'Rb1 Tl1 C2 O6'
_cell_volume   161.10540423
_cell_formula_units_Z   1
loop_
 _symmetry_equiv_pos_site_id
 _symmetry_equiv_pos_as_xyz
  1  'x, y, z'
loop_
 _atom_site_type_symbol
 _atom_site_label
 _atom_site_symmetry_multiplicity
 _atom_site_fract_x
 _atom_site_fract_y
 _atom_site_fract_z
 _atom_site_occupancy
  Rb  Rb0  1  0.000000  0.000000  0.000000  1
  Tl  Tl1  1  0.500000  0.500000  0.500000  1
  C  C2  1  0.229451  0.229451  0.229451  1
  C  C3  1  0.770549  0.770549  0.770549  1
  O  O4  1  0.743048  0.536954  0.025264  1
  O  O5  1  0.463045  0.974734  0.256952  1
  O  O6  1  0.974736  0.256952  0.463044  1
  O  O7  1  0.025265  0.743048  0.536953  1
  O  O8  1  0.536953  0.025264  0.743049  1
  O  O9  1  0.256951  0.463046  0.974735  1
