# generated using pymatgen
data_Na2H6PtRh
_symmetry_space_group_name_H-M   'P 1'
_cell_length_a   5.07266700
_cell_length_b   5.07269411
_cell_length_c   5.07266500
_cell_angle_alpha   120.00000737
_cell_angle_beta   89.99977410
_cell_angle_gamma   120.00066543
_symmetry_Int_Tables_number   1
_chemical_formula_structural   Na2H6PtRh
_chemical_formula_sum   'Na2 H6 Pt1 Rh1'
_cell_volume   92.29807695
_cell_formula_units_Z   1
loop_
 _symmetry_equiv_pos_site_id
 _symmetry_equiv_pos_as_xyz
  1  'x, y, z'
loop_
 _atom_site_type_symbol
 _atom_site_label
 _atom_site_symmetry_multiplicity
 _atom_site_fract_x
 _atom_site_fract_y
 _atom_site_fract_z
 _atom_site_occupancy
  Na  Na0  1  0.750000  0.499999  0.250001  1
  Na  Na1  1  0.249997  0.499997  0.749998  1
  H  H2  1  0.250067  0.999999  0.250067  1
  H  H3  1  0.250066  0.500131  0.250066  1
  H  H4  1  0.749932  0.999999  0.250066  1
  H  H5  1  0.749932  0.499866  0.749932  1
  H  H6  1  0.250066  0.000001  0.749934  1
  H  H7  1  0.749933  0.000000  0.749933  1
  Pt  Pt8  1  0.000000  0.999999  0.999999  1
  Rh  Rh9  1  0.500002  0.000002  0.500004  1
