# generated using pymatgen
data_DyCoAs3Rh4
_symmetry_space_group_name_H-M   'P 1'
_cell_length_a   3.91882000
_cell_length_b   11.24228600
_cell_length_c   12.85131300
_cell_angle_alpha   90.00000000
_cell_angle_beta   90.00000000
_cell_angle_gamma   90.00000000
_symmetry_Int_Tables_number   1
_chemical_formula_structural   DyCoAs3Rh4
_chemical_formula_sum   'Dy4 Co4 As12 Rh16'
_cell_volume   566.18380979
_cell_formula_units_Z   4
loop_
 _symmetry_equiv_pos_site_id
 _symmetry_equiv_pos_as_xyz
  1  'x, y, z'
loop_
 _atom_site_type_symbol
 _atom_site_label
 _atom_site_symmetry_multiplicity
 _atom_site_fract_x
 _atom_site_fract_y
 _atom_site_fract_z
 _atom_site_occupancy
  Dy  Dy0  1  0.250000  0.583165  0.707166  1
  Dy  Dy1  1  0.250000  0.916835  0.207166  1
  Dy  Dy2  1  0.750000  0.416835  0.292834  1
  Dy  Dy3  1  0.750000  0.083165  0.792834  1
  Co  Co4  1  0.250000  0.466313  0.932601  1
  Co  Co5  1  0.250000  0.033687  0.432601  1
  Co  Co6  1  0.750000  0.533687  0.067399  1
  Co  Co7  1  0.750000  0.966313  0.567399  1
  As  As8  1  0.250000  0.419964  0.106561  1
  As  As9  1  0.250000  0.080036  0.606561  1
  As  As10  1  0.750000  0.580036  0.893439  1
  As  As11  1  0.750000  0.919964  0.393439  1
  As  As12  1  0.250000  0.271985  0.872510  1
  As  As13  1  0.250000  0.228015  0.372510  1
  As  As14  1  0.750000  0.728015  0.127490  1
  As  As15  1  0.750000  0.771985  0.627490  1
  As  As16  1  0.250000  0.600015  0.388383  1
  As  As17  1  0.250000  0.899985  0.888383  1
  As  As18  1  0.750000  0.399985  0.611617  1
  As  As19  1  0.750000  0.100015  0.111617  1
  Rh  Rh20  1  0.250000  0.712109  0.988510  1
  Rh  Rh21  1  0.250000  0.787891  0.488510  1
  Rh  Rh22  1  0.750000  0.287891  0.011490  1
  Rh  Rh23  1  0.750000  0.212109  0.511490  1
  Rh  Rh24  1  0.250000  0.407759  0.479073  1
  Rh  Rh25  1  0.250000  0.092241  0.979073  1
  Rh  Rh26  1  0.750000  0.592241  0.520927  1
  Rh  Rh27  1  0.750000  0.907759  0.020927  1
  Rh  Rh28  1  0.250000  0.222527  0.178415  1
  Rh  Rh29  1  0.250000  0.277473  0.678415  1
  Rh  Rh30  1  0.750000  0.777473  0.821585  1
  Rh  Rh31  1  0.750000  0.722527  0.321585  1
  Rh  Rh32  1  0.250000  0.888766  0.697257  1
  Rh  Rh33  1  0.250000  0.611234  0.197257  1
  Rh  Rh34  1  0.750000  0.111234  0.302743  1
  Rh  Rh35  1  0.750000  0.388766  0.802743  1
