# generated using pymatgen
data_YbDy9(PtPb3)2
_symmetry_space_group_name_H-M   'P 1'
_cell_length_a   9.23885100
_cell_length_b   9.23885154
_cell_length_c   6.84977900
_cell_angle_alpha   90.00000000
_cell_angle_beta   90.00000000
_cell_angle_gamma   120.00000166
_symmetry_Int_Tables_number   1
_chemical_formula_structural   YbDy9(PtPb3)2
_chemical_formula_sum   'Yb1 Dy9 Pt2 Pb6'
_cell_volume   506.34104733
_cell_formula_units_Z   1
loop_
 _symmetry_equiv_pos_site_id
 _symmetry_equiv_pos_as_xyz
  1  'x, y, z'
loop_
 _atom_site_type_symbol
 _atom_site_label
 _atom_site_symmetry_multiplicity
 _atom_site_fract_x
 _atom_site_fract_y
 _atom_site_fract_z
 _atom_site_occupancy
  Yb  Yb0  1  0.333333  0.666667  0.000000  1
  Dy  Dy1  1  0.244966  0.000388  0.250037  1
  Dy  Dy2  1  0.755422  0.000388  0.749963  1
  Dy  Dy3  1  0.999612  0.244578  0.250037  1
  Dy  Dy4  1  0.999612  0.755034  0.749963  1
  Dy  Dy5  1  0.755422  0.755034  0.250037  1
  Dy  Dy6  1  0.244966  0.244578  0.749963  1
  Dy  Dy7  1  0.666667  0.333333  0.000000  1
  Dy  Dy8  1  0.666667  0.333333  0.500000  1
  Dy  Dy9  1  0.333333  0.666667  0.500000  1
  Pt  Pt10  1  0.000000  0.000000  0.000000  1
  Pt  Pt11  1  0.000000  0.000000  0.500000  1
  Pb  Pb12  1  0.600401  0.000428  0.250858  1
  Pb  Pb13  1  0.400027  0.000428  0.749142  1
  Pb  Pb14  1  0.999572  0.599973  0.250858  1
  Pb  Pb15  1  0.999572  0.399599  0.749142  1
  Pb  Pb16  1  0.400027  0.399599  0.250858  1
  Pb  Pb17  1  0.600401  0.599973  0.749142  1
