# generated using pymatgen
data_Zr4Ti2SiMo2P3
_symmetry_space_group_name_H-M   'P 1'
_cell_length_a   3.54762800
_cell_length_b   6.84394938
_cell_length_c   8.19755548
_cell_angle_alpha   89.85611420
_cell_angle_beta   90.00000000
_cell_angle_gamma   90.00000000
_symmetry_Int_Tables_number   1
_chemical_formula_structural   Zr4Ti2SiMo2P3
_chemical_formula_sum   'Zr4 Ti2 Si1 Mo2 P3'
_cell_volume   199.03426888
_cell_formula_units_Z   1
loop_
 _symmetry_equiv_pos_site_id
 _symmetry_equiv_pos_as_xyz
  1  'x, y, z'
loop_
 _atom_site_type_symbol
 _atom_site_label
 _atom_site_symmetry_multiplicity
 _atom_site_fract_x
 _atom_site_fract_y
 _atom_site_fract_z
 _atom_site_occupancy
  Zr  Zr0  1  0.250000  0.039319  0.331382  1
  Zr  Zr1  1  0.250000  0.540803  0.168075  1
  Zr  Zr2  1  0.750000  0.966646  0.666262  1
  Zr  Zr3  1  0.750000  0.459311  0.829422  1
  Ti  Ti4  1  0.250000  0.133371  0.941120  1
  Ti  Ti5  1  0.250000  0.628715  0.556876  1
  Si  Si6  1  0.250000  0.759343  0.861924  1
  Mo  Mo7  1  0.750000  0.868088  0.063873  1
  Mo  Mo8  1  0.750000  0.363107  0.439436  1
  P  P9  1  0.250000  0.259747  0.641008  1
  P  P10  1  0.750000  0.739226  0.363181  1
  P  P11  1  0.750000  0.242323  0.137441  1
