# generated using pymatgen
data_Y3HoOs5Ru3
_symmetry_space_group_name_H-M   'P 1'
_cell_length_a   5.33076256
_cell_length_b   5.19472636
_cell_length_c   9.01405923
_cell_angle_alpha   90.00798226
_cell_angle_beta   90.01779630
_cell_angle_gamma   119.33342060
_symmetry_Int_Tables_number   1
_chemical_formula_structural   Y3HoOs5Ru3
_chemical_formula_sum   'Y3 Ho1 Os5 Ru3'
_cell_volume   217.61113038
_cell_formula_units_Z   1
loop_
 _symmetry_equiv_pos_site_id
 _symmetry_equiv_pos_as_xyz
  1  'x, y, z'
loop_
 _atom_site_type_symbol
 _atom_site_label
 _atom_site_symmetry_multiplicity
 _atom_site_fract_x
 _atom_site_fract_y
 _atom_site_fract_z
 _atom_site_occupancy
  Y  Y0  1  0.668351  0.334746  0.566359  1
  Y  Y1  1  0.330591  0.665018  0.433596  1
  Y  Y2  1  0.330716  0.665141  0.066049  1
  Ho  Ho3  1  0.668665  0.334917  0.933778  1
  Os  Os4  1  0.170797  0.338608  0.750525  1
  Os  Os5  1  0.172302  0.830476  0.750544  1
  Os  Os6  1  0.658431  0.829178  0.750649  1
  Os  Os7  1  0.834270  0.663580  0.249605  1
  Os  Os8  1  0.833130  0.171123  0.249591  1
  Ru  Ru9  1  0.991641  0.996321  0.499356  1
  Ru  Ru10  1  0.991069  0.995962  0.000325  1
  Ru  Ru11  1  0.350036  0.174929  0.249623  1
