# generated using pymatgen
data_Sr2NpO5
_symmetry_space_group_name_H-M   'P 1'
_cell_length_a   5.69740400
_cell_length_b   8.14387845
_cell_length_c   11.98000569
_cell_angle_alpha   71.41223874
_cell_angle_beta   90.00000000
_cell_angle_gamma   90.00000000
_symmetry_Int_Tables_number   1
_chemical_formula_structural   Sr2NpO5
_chemical_formula_sum   'Sr8 Np4 O20'
_cell_volume   526.86428712
_cell_formula_units_Z   4
loop_
 _symmetry_equiv_pos_site_id
 _symmetry_equiv_pos_as_xyz
  1  'x, y, z'
loop_
 _atom_site_type_symbol
 _atom_site_label
 _atom_site_symmetry_multiplicity
 _atom_site_fract_x
 _atom_site_fract_y
 _atom_site_fract_z
 _atom_site_occupancy
  Sr  Sr0  1  0.932585  0.156412  0.680801  1
  Sr  Sr1  1  0.432585  0.843588  0.819199  1
  Sr  Sr2  1  0.067415  0.843588  0.319199  1
  Sr  Sr3  1  0.567415  0.156412  0.180801  1
  Sr  Sr4  1  0.500131  0.340129  0.861986  1
  Sr  Sr5  1  0.000131  0.659871  0.638014  1
  Sr  Sr6  1  0.499869  0.659871  0.138014  1
  Sr  Sr7  1  0.999869  0.340129  0.361986  1
  Np  Np8  1  0.000000  0.000000  0.000000  1
  Np  Np9  1  0.500000  0.000000  0.500000  1
  Np  Np10  1  0.000000  0.500000  0.000000  1
  Np  Np11  1  0.500000  0.500000  0.500000  1
  O  O12  1  0.650219  0.250865  0.501106  1
  O  O13  1  0.150219  0.749135  0.998894  1
  O  O14  1  0.349781  0.749135  0.498894  1
  O  O15  1  0.849781  0.250865  0.001106  1
  O  O16  1  0.756317  0.018211  0.379138  1
  O  O17  1  0.256317  0.981789  0.120862  1
  O  O18  1  0.243683  0.981789  0.620862  1
  O  O19  1  0.743683  0.018211  0.879138  1
  O  O20  1  0.795893  0.603980  0.425108  1
  O  O21  1  0.295893  0.396020  0.074892  1
  O  O22  1  0.204107  0.396020  0.574892  1
  O  O23  1  0.704107  0.603980  0.925108  1
  O  O24  1  0.668961  0.446172  0.663667  1
  O  O25  1  0.168961  0.553828  0.836333  1
  O  O26  1  0.331039  0.553828  0.336333  1
  O  O27  1  0.831039  0.446172  0.163667  1
  O  O28  1  0.710195  0.892524  0.639888  1
  O  O29  1  0.210195  0.107476  0.860112  1
  O  O30  1  0.289805  0.107476  0.360112  1
  O  O31  1  0.789805  0.892524  0.139888  1
