# generated using pymatgen
data_Sr2PrB18
_symmetry_space_group_name_H-M   'P 1'
_cell_length_a   4.17578900
_cell_length_b   4.17578900
_cell_length_c   12.54472800
_cell_angle_alpha   90.00000000
_cell_angle_beta   90.00000000
_cell_angle_gamma   90.00000000
_symmetry_Int_Tables_number   1
_chemical_formula_structural   Sr2PrB18
_chemical_formula_sum   'Sr2 Pr1 B18'
_cell_volume   218.74510385
_cell_formula_units_Z   1
loop_
 _symmetry_equiv_pos_site_id
 _symmetry_equiv_pos_as_xyz
  1  'x, y, z'
loop_
 _atom_site_type_symbol
 _atom_site_label
 _atom_site_symmetry_multiplicity
 _atom_site_fract_x
 _atom_site_fract_y
 _atom_site_fract_z
 _atom_site_occupancy
  Sr  Sr0  1  0.000000  0.000000  0.333465  1
  Sr  Sr1  1  0.000000  0.000000  0.666535  1
  Pr  Pr2  1  0.000000  0.000000  0.000000  1
  B  B3  1  0.201475  0.500000  0.165279  1
  B  B4  1  0.202511  0.500000  0.500000  1
  B  B5  1  0.201475  0.500000  0.834721  1
  B  B6  1  0.500000  0.500000  0.265079  1
  B  B7  1  0.500000  0.500000  0.599381  1
  B  B8  1  0.500000  0.500000  0.933763  1
  B  B9  1  0.500000  0.201475  0.165279  1
  B  B10  1  0.500000  0.202511  0.500000  1
  B  B11  1  0.500000  0.201475  0.834721  1
  B  B12  1  0.500000  0.500000  0.066237  1
  B  B13  1  0.500000  0.500000  0.400619  1
  B  B14  1  0.500000  0.500000  0.734921  1
  B  B15  1  0.500000  0.798525  0.165279  1
  B  B16  1  0.500000  0.797489  0.500000  1
  B  B17  1  0.500000  0.798525  0.834721  1
  B  B18  1  0.798525  0.500000  0.165279  1
  B  B19  1  0.797489  0.500000  0.500000  1
  B  B20  1  0.798525  0.500000  0.834721  1
