# generated using pymatgen
data_Ce12Si8Tc7Os
_symmetry_space_group_name_H-M   'P 1'
_cell_length_a   5.59158772
_cell_length_b   7.93784205
_cell_length_c   13.33933100
_cell_angle_alpha   90.22284823
_cell_angle_beta   89.78495893
_cell_angle_gamma   90.00854997
_symmetry_Int_Tables_number   1
_chemical_formula_structural   Ce12Si8Tc7Os
_chemical_formula_sum   'Ce12 Si8 Tc7 Os1'
_cell_volume   592.05942249
_cell_formula_units_Z   1
loop_
 _symmetry_equiv_pos_site_id
 _symmetry_equiv_pos_as_xyz
  1  'x, y, z'
loop_
 _atom_site_type_symbol
 _atom_site_label
 _atom_site_symmetry_multiplicity
 _atom_site_fract_x
 _atom_site_fract_y
 _atom_site_fract_z
 _atom_site_occupancy
  Ce  Ce0  1  0.122765  0.269412  0.750305  1
  Ce  Ce1  1  0.877256  0.730957  0.249994  1
  Ce  Ce2  1  0.120318  0.230628  0.249914  1
  Ce  Ce3  1  0.878508  0.767559  0.750582  1
  Ce  Ce4  1  0.660968  0.410416  0.596555  1
  Ce  Ce5  1  0.338449  0.588541  0.097059  1
  Ce  Ce6  1  0.660783  0.089869  0.399462  1
  Ce  Ce7  1  0.340034  0.910700  0.903649  1
  Ce  Ce8  1  0.337375  0.589346  0.402793  1
  Ce  Ce9  1  0.661798  0.410347  0.903126  1
  Ce  Ce10  1  0.342766  0.908896  0.596736  1
  Ce  Ce11  1  0.661074  0.089301  0.097324  1
  Si  Si12  1  0.108342  0.249594  0.500632  1
  Si  Si13  1  0.889738  0.750161  0.000053  1
  Si  Si14  1  0.890539  0.752549  0.500931  1
  Si  Si15  1  0.109870  0.249786  0.999970  1
  Si  Si16  1  0.631946  0.114889  0.749058  1
  Si  Si17  1  0.368475  0.883924  0.249951  1
  Si  Si18  1  0.629707  0.384292  0.249825  1
  Si  Si19  1  0.369927  0.615907  0.750001  1
  Tc  Tc20  1  0.152948  0.971225  0.090407  1
  Tc  Tc21  1  0.844801  0.470289  0.410501  1
  Tc  Tc22  1  0.154525  0.528629  0.909886  1
  Tc  Tc23  1  0.153359  0.972472  0.410280  1
  Tc  Tc24  1  0.847065  0.028767  0.908993  1
  Tc  Tc25  1  0.153130  0.530179  0.589765  1
  Tc  Tc26  1  0.845997  0.471428  0.090413  1
  Os  Os27  1  0.847539  0.029934  0.591836  1
