# generated using pymatgen
data_Ac5Pb3N
_symmetry_space_group_name_H-M   'P 1'
_cell_length_a   10.06425376
_cell_length_b   10.06423984
_cell_length_c   10.06423964
_cell_angle_alpha   125.80615098
_cell_angle_beta   125.80620752
_cell_angle_gamma   80.20699740
_symmetry_Int_Tables_number   1
_chemical_formula_structural   Ac5Pb3N
_chemical_formula_sum   'Ac10 Pb6 N2'
_cell_volume   647.09620342
_cell_formula_units_Z   2
loop_
 _symmetry_equiv_pos_site_id
 _symmetry_equiv_pos_as_xyz
  1  'x, y, z'
loop_
 _atom_site_type_symbol
 _atom_site_label
 _atom_site_symmetry_multiplicity
 _atom_site_fract_x
 _atom_site_fract_y
 _atom_site_fract_z
 _atom_site_occupancy
  Ac  Ac0  1  0.997772  0.199651  0.500000  1
  Ac  Ac1  1  0.800348  0.300349  0.798120  1
  Ac  Ac2  1  0.497772  0.997773  0.798122  1
  Ac  Ac3  1  0.502228  0.002227  0.201878  1
  Ac  Ac4  1  0.002228  0.800349  0.500000  1
  Ac  Ac5  1  0.500000  0.500000  0.000000  1
  Ac  Ac6  1  0.199652  0.699651  0.201880  1
  Ac  Ac7  1  0.699650  0.497772  0.500000  1
  Ac  Ac8  1  0.300350  0.502228  0.500000  1
  Ac  Ac9  1  0.000000  0.000000  0.000000  1
  Pb  Pb10  1  0.857177  0.357177  0.214354  1
  Pb  Pb11  1  0.142823  0.642823  0.785646  1
  Pb  Pb12  1  0.357177  0.142823  0.500000  1
  Pb  Pb13  1  0.750000  0.750000  0.000000  1
  Pb  Pb14  1  0.642823  0.857177  0.500000  1
  Pb  Pb15  1  0.250000  0.250000  0.000000  1
  N  N16  1  0.750000  0.250000  0.500000  1
  N  N17  1  0.250000  0.750000  0.500000  1
