# generated using pymatgen
data_V12Zn3Ga4NiN4
_symmetry_space_group_name_H-M   'P 1'
_cell_length_a   6.57455443
_cell_length_b   6.57455443
_cell_length_c   6.57455443
_cell_angle_alpha   90.08277788
_cell_angle_beta   90.08277788
_cell_angle_gamma   90.08277788
_symmetry_Int_Tables_number   1
_chemical_formula_structural   V12Zn3Ga4NiN4
_chemical_formula_sum   'V12 Zn3 Ga4 Ni1 N4'
_cell_volume   284.18268628
_cell_formula_units_Z   1
loop_
 _symmetry_equiv_pos_site_id
 _symmetry_equiv_pos_as_xyz
  1  'x, y, z'
loop_
 _atom_site_type_symbol
 _atom_site_label
 _atom_site_symmetry_multiplicity
 _atom_site_fract_x
 _atom_site_fract_y
 _atom_site_fract_z
 _atom_site_occupancy
  V  V0  1  0.788001  0.958052  0.375209  1
  V  V1  1  0.711142  0.037682  0.874262  1
  V  V2  1  0.211207  0.460287  0.124753  1
  V  V3  1  0.290833  0.540259  0.625860  1
  V  V4  1  0.958052  0.375209  0.788001  1
  V  V5  1  0.037682  0.874262  0.711142  1
  V  V6  1  0.460287  0.124753  0.211207  1
  V  V7  1  0.540259  0.625860  0.290833  1
  V  V8  1  0.375209  0.788001  0.958052  1
  V  V9  1  0.874262  0.711142  0.037682  1
  V  V10  1  0.124753  0.211207  0.460287  1
  V  V11  1  0.625860  0.290833  0.540259  1
  Zn  Zn12  1  0.179640  0.819887  0.322228  1
  Zn  Zn13  1  0.322228  0.179640  0.819887  1
  Zn  Zn14  1  0.819887  0.322228  0.179640  1
  Ga  Ga15  1  0.574815  0.434825  0.922103  1
  Ga  Ga16  1  0.434825  0.922103  0.574815  1
  Ga  Ga17  1  0.922103  0.574815  0.434825  1
  Ga  Ga18  1  0.071946  0.071946  0.071946  1
  Ni  Ni19  1  0.679654  0.679654  0.679654  1
  N  N20  1  0.874553  0.123394  0.622801  1
  N  N21  1  0.622801  0.874553  0.123394  1
  N  N22  1  0.123394  0.622801  0.874553  1
  N  N23  1  0.376607  0.376607  0.376607  1
