# generated using pymatgen
data_La8Zn7InRh8
_symmetry_space_group_name_H-M   'P 1'
_cell_length_a   4.07046400
_cell_length_b   7.53817579
_cell_length_c   16.71486069
_cell_angle_alpha   89.94800889
_cell_angle_beta   90.00000000
_cell_angle_gamma   90.00000000
_symmetry_Int_Tables_number   1
_chemical_formula_structural   La8Zn7InRh8
_chemical_formula_sum   'La8 Zn7 In1 Rh8'
_cell_volume   512.87645444
_cell_formula_units_Z   1
loop_
 _symmetry_equiv_pos_site_id
 _symmetry_equiv_pos_as_xyz
  1  'x, y, z'
loop_
 _atom_site_type_symbol
 _atom_site_label
 _atom_site_symmetry_multiplicity
 _atom_site_fract_x
 _atom_site_fract_y
 _atom_site_fract_z
 _atom_site_occupancy
  La  La0  1  0.750000  0.327525  0.441963  1
  La  La1  1  0.250000  0.047732  0.716740  1
  La  La2  1  0.250000  0.547976  0.781470  1
  La  La3  1  0.250000  0.672557  0.560354  1
  La  La4  1  0.750000  0.819001  0.056629  1
  La  La5  1  0.250000  0.173649  0.937879  1
  La  La6  1  0.750000  0.459851  0.219402  1
  La  La7  1  0.750000  0.945508  0.289198  1
  Zn  Zn8  1  0.250000  0.999597  0.443026  1
  Zn  Zn9  1  0.750000  0.872219  0.849886  1
  Zn  Zn10  1  0.750000  0.001903  0.559850  1
  Zn  Zn11  1  0.250000  0.500032  0.058339  1
  Zn  Zn12  1  0.750000  0.371579  0.649425  1
  Zn  Zn13  1  0.750000  0.502145  0.937102  1
  Zn  Zn14  1  0.250000  0.623828  0.353369  1
  In  In15  1  0.250000  0.122610  0.150911  1
  Rh  Rh16  1  0.750000  0.254263  0.813072  1
  Rh  Rh17  1  0.250000  0.246299  0.315485  1
  Rh  Rh18  1  0.250000  0.740923  0.932442  1
  Rh  Rh19  1  0.250000  0.242448  0.566005  1
  Rh  Rh20  1  0.250000  0.744231  0.184917  1
  Rh  Rh21  1  0.750000  0.758599  0.436290  1
  Rh  Rh22  1  0.750000  0.269519  0.061378  1
  Rh  Rh23  1  0.750000  0.756008  0.684865  1
