# generated using pymatgen
data_NaTiVO4
_symmetry_space_group_name_H-M   'P 1'
_cell_length_a   3.00017000
_cell_length_b   9.31001900
_cell_length_c   10.86015400
_cell_angle_alpha   90.00000000
_cell_angle_beta   90.00000000
_cell_angle_gamma   90.00000000
_symmetry_Int_Tables_number   1
_chemical_formula_structural   NaTiVO4
_chemical_formula_sum   'Na4 Ti4 V4 O16'
_cell_volume   303.34190865
_cell_formula_units_Z   4
loop_
 _symmetry_equiv_pos_site_id
 _symmetry_equiv_pos_as_xyz
  1  'x, y, z'
loop_
 _atom_site_type_symbol
 _atom_site_label
 _atom_site_symmetry_multiplicity
 _atom_site_fract_x
 _atom_site_fract_y
 _atom_site_fract_z
 _atom_site_occupancy
  Na  Na0  1  0.500000  0.253754  0.899420  1
  Na  Na1  1  0.500000  0.753754  0.100580  1
  Na  Na2  1  0.000000  0.742704  0.596037  1
  Na  Na3  1  0.000000  0.242704  0.403963  1
  Ti  Ti4  1  0.000000  0.562397  0.364213  1
  Ti  Ti5  1  0.000000  0.062397  0.635787  1
  Ti  Ti6  1  0.000000  0.583367  0.855992  1
  Ti  Ti7  1  0.000000  0.083367  0.144008  1
  V  V8  1  0.500000  0.432721  0.140473  1
  V  V9  1  0.500000  0.932721  0.859527  1
  V  V10  1  0.500000  0.420621  0.648426  1
  V  V11  1  0.500000  0.920621  0.351574  1
  O  O12  1  0.500000  0.200194  0.601524  1
  O  O13  1  0.500000  0.700194  0.398476  1
  O  O14  1  0.000000  0.788030  0.901872  1
  O  O15  1  0.000000  0.288030  0.098128  1
  O  O16  1  0.500000  0.118713  0.262765  1
  O  O17  1  0.500000  0.618713  0.737235  1
  O  O18  1  0.000000  0.891403  0.229010  1
  O  O19  1  0.000000  0.391403  0.770990  1
  O  O20  1  0.500000  0.424621  0.327910  1
  O  O21  1  0.500000  0.924621  0.672090  1
  O  O22  1  0.000000  0.574105  0.183767  1
  O  O23  1  0.000000  0.074105  0.816233  1
  O  O24  1  0.500000  0.025152  0.034938  1
  O  O25  1  0.500000  0.525152  0.965062  1
  O  O26  1  0.000000  0.982218  0.469081  1
  O  O27  1  0.000000  0.482218  0.530919  1
