# generated using pymatgen
data_HfSc3Si6Ir7
_symmetry_space_group_name_H-M   'P 1'
_cell_length_a   6.99352140
_cell_length_b   6.97621139
_cell_length_c   6.99352168
_cell_angle_alpha   109.42109075
_cell_angle_beta   109.52130553
_cell_angle_gamma   109.42108749
_symmetry_Int_Tables_number   1
_chemical_formula_structural   HfSc3Si6Ir7
_chemical_formula_sum   'Hf1 Sc3 Si6 Ir7'
_cell_volume   262.81968732
_cell_formula_units_Z   1
loop_
 _symmetry_equiv_pos_site_id
 _symmetry_equiv_pos_as_xyz
  1  'x, y, z'
loop_
 _atom_site_type_symbol
 _atom_site_label
 _atom_site_symmetry_multiplicity
 _atom_site_fract_x
 _atom_site_fract_y
 _atom_site_fract_z
 _atom_site_occupancy
  Hf  Hf0  1  0.000000  0.500000  0.000000  1
  Sc  Sc1  1  0.000000  0.000000  0.500000  1
  Sc  Sc2  1  0.500000  0.000000  0.000000  1
  Sc  Sc3  1  0.500000  0.500000  0.500000  1
  Si  Si4  1  0.681636  0.684082  0.000000  1
  Si  Si5  1  0.318364  0.002445  0.318364  1
  Si  Si6  1  0.000000  0.315918  0.318364  1
  Si  Si7  1  0.318364  0.315918  0.000000  1
  Si  Si8  1  0.681636  0.997555  0.681636  1
  Si  Si9  1  0.000000  0.684082  0.681636  1
  Ir  Ir10  1  0.750841  0.250841  0.501683  1
  Ir  Ir11  1  0.750841  0.500000  0.249159  1
  Ir  Ir12  1  0.501683  0.250841  0.750841  1
  Ir  Ir13  1  0.249159  0.500000  0.750841  1
  Ir  Ir14  1  0.249159  0.749159  0.498317  1
  Ir  Ir15  1  0.498317  0.749159  0.249159  1
  Ir  Ir16  1  0.000000  0.000000  0.000000  1
