# generated using pymatgen
data_Sc12Mn3Si12Rh
_symmetry_space_group_name_H-M   'P 1'
_cell_length_a   3.95957400
_cell_length_b   10.30929303
_cell_length_c   11.75425100
_cell_angle_alpha   89.93800960
_cell_angle_beta   90.00000000
_cell_angle_gamma   90.00000000
_symmetry_Int_Tables_number   1
_chemical_formula_structural   Sc12Mn3Si12Rh
_chemical_formula_sum   'Sc12 Mn3 Si12 Rh1'
_cell_volume   479.81304843
_cell_formula_units_Z   1
loop_
 _symmetry_equiv_pos_site_id
 _symmetry_equiv_pos_as_xyz
  1  'x, y, z'
loop_
 _atom_site_type_symbol
 _atom_site_label
 _atom_site_symmetry_multiplicity
 _atom_site_fract_x
 _atom_site_fract_y
 _atom_site_fract_z
 _atom_site_occupancy
  Sc  Sc0  1  0.250000  0.878295  0.020892  1
  Sc  Sc1  1  0.250000  0.621017  0.521421  1
  Sc  Sc2  1  0.750000  0.123266  0.980413  1
  Sc  Sc3  1  0.750000  0.378606  0.479714  1
  Sc  Sc4  1  0.250000  0.923194  0.602684  1
  Sc  Sc5  1  0.250000  0.577252  0.102836  1
  Sc  Sc6  1  0.750000  0.076550  0.397797  1
  Sc  Sc7  1  0.750000  0.422963  0.896694  1
  Sc  Sc8  1  0.250000  0.658795  0.798246  1
  Sc  Sc9  1  0.250000  0.837934  0.298647  1
  Sc  Sc10  1  0.750000  0.339026  0.201151  1
  Sc  Sc11  1  0.750000  0.162522  0.701160  1
  Mn  Mn12  1  0.250000  0.388079  0.677221  1
  Mn  Mn13  1  0.250000  0.112773  0.177310  1
  Mn  Mn14  1  0.750000  0.613342  0.322447  1
  Si  Si15  1  0.250000  0.017556  0.823328  1
  Si  Si16  1  0.250000  0.484110  0.323586  1
  Si  Si17  1  0.750000  0.983234  0.176595  1
  Si  Si18  1  0.750000  0.515232  0.677165  1
  Si  Si19  1  0.250000  0.252988  0.841605  1
  Si  Si20  1  0.250000  0.246802  0.342541  1
  Si  Si21  1  0.750000  0.746739  0.157617  1
  Si  Si22  1  0.750000  0.751737  0.656564  1
  Si  Si23  1  0.250000  0.195197  0.544896  1
  Si  Si24  1  0.250000  0.305311  0.044359  1
  Si  Si25  1  0.750000  0.804444  0.455184  1
  Si  Si26  1  0.750000  0.694473  0.956061  1
  Rh  Rh27  1  0.750000  0.888562  0.821865  1
