# generated using pymatgen
data_Rb4PrUSe6
_symmetry_space_group_name_H-M   'P 1'
_cell_length_a   7.79782076
_cell_length_b   7.79782043
_cell_length_c   8.39640656
_cell_angle_alpha   80.94229778
_cell_angle_beta   80.94230062
_cell_angle_gamma   119.93540249
_symmetry_Int_Tables_number   1
_chemical_formula_structural   Rb4PrUSe6
_chemical_formula_sum   'Rb4 Pr1 U1 Se6'
_cell_volume   419.98055514
_cell_formula_units_Z   1
loop_
 _symmetry_equiv_pos_site_id
 _symmetry_equiv_pos_as_xyz
  1  'x, y, z'
loop_
 _atom_site_type_symbol
 _atom_site_label
 _atom_site_symmetry_multiplicity
 _atom_site_fract_x
 _atom_site_fract_y
 _atom_site_fract_z
 _atom_site_occupancy
  Rb  Rb0  1  0.500010  0.499990  0.000000  1
  Rb  Rb1  1  0.655511  0.344489  0.500000  1
  Rb  Rb2  1  0.345103  0.654897  0.500000  1
  Rb  Rb3  1  0.999488  0.000512  0.500000  1
  Pr  Pr4  1  0.832284  0.167716  0.000000  1
  U  U5  1  0.167545  0.832455  0.000000  1
  Se  Se6  1  0.821035  0.799623  0.199385  1
  Se  Se7  1  0.200377  0.178965  0.800615  1
  Se  Se8  1  0.409196  0.040903  0.201853  1
  Se  Se9  1  0.546687  0.936332  0.797263  1
  Se  Se10  1  0.959097  0.590804  0.798147  1
  Se  Se11  1  0.063668  0.453313  0.202737  1
