# generated using pymatgen
data_Pu11S16
_symmetry_space_group_name_H-M   'P 1'
_cell_length_a   8.28355000
_cell_length_b   8.28355000
_cell_length_c   8.29282300
_cell_angle_alpha   90.00000000
_cell_angle_beta   90.00000000
_cell_angle_gamma   90.00000000
_symmetry_Int_Tables_number   1
_chemical_formula_structural   Pu11S16
_chemical_formula_sum   'Pu11 S16'
_cell_volume   569.03029935
_cell_formula_units_Z   1
loop_
 _symmetry_equiv_pos_site_id
 _symmetry_equiv_pos_as_xyz
  1  'x, y, z'
loop_
 _atom_site_type_symbol
 _atom_site_label
 _atom_site_symmetry_multiplicity
 _atom_site_fract_x
 _atom_site_fract_y
 _atom_site_fract_z
 _atom_site_occupancy
  Pu  Pu0  1  0.000000  0.000000  0.500000  1
  Pu  Pu1  1  0.254610  0.623111  0.363430  1
  Pu  Pu2  1  0.000000  0.500000  0.746899  1
  Pu  Pu3  1  0.376889  0.254610  0.636570  1
  Pu  Pu4  1  0.745390  0.376889  0.363430  1
  Pu  Pu5  1  0.131705  0.256223  0.121312  1
  Pu  Pu6  1  0.743777  0.131705  0.878688  1
  Pu  Pu7  1  0.500000  0.000000  0.253101  1
  Pu  Pu8  1  0.868295  0.743777  0.121312  1
  Pu  Pu9  1  0.256223  0.868295  0.878688  1
  Pu  Pu10  1  0.623111  0.745390  0.636570  1
  S  S11  1  0.578632  0.681645  0.312640  1
  S  S12  1  0.170360  0.578090  0.045191  1
  S  S13  1  0.929999  0.676388  0.447358  1
  S  S14  1  0.070001  0.323612  0.447358  1
  S  S15  1  0.421368  0.318355  0.312640  1
  S  S16  1  0.318355  0.578632  0.687360  1
  S  S17  1  0.829640  0.421910  0.045191  1
  S  S18  1  0.073060  0.174396  0.800354  1
  S  S19  1  0.681645  0.421368  0.687360  1
  S  S20  1  0.676388  0.070001  0.552642  1
  S  S21  1  0.421910  0.170360  0.954809  1
  S  S22  1  0.578090  0.829640  0.954809  1
  S  S23  1  0.926940  0.825604  0.800354  1
  S  S24  1  0.825604  0.073060  0.199646  1
  S  S25  1  0.323612  0.929999  0.552642  1
  S  S26  1  0.174396  0.926940  0.199646  1
