# generated using pymatgen
data_Ho10In8Ni3Rh
_symmetry_space_group_name_H-M   'P 1'
_cell_length_a   3.59561300
_cell_length_b   8.02811909
_cell_length_c   17.98569330
_cell_angle_alpha   89.93871684
_cell_angle_beta   90.00000000
_cell_angle_gamma   90.00000000
_symmetry_Int_Tables_number   1
_chemical_formula_structural   Ho10In8Ni3Rh
_chemical_formula_sum   'Ho10 In8 Ni3 Rh1'
_cell_volume   519.17489399
_cell_formula_units_Z   1
loop_
 _symmetry_equiv_pos_site_id
 _symmetry_equiv_pos_as_xyz
  1  'x, y, z'
loop_
 _atom_site_type_symbol
 _atom_site_label
 _atom_site_symmetry_multiplicity
 _atom_site_fract_x
 _atom_site_fract_y
 _atom_site_fract_z
 _atom_site_occupancy
  Ho  Ho0  1  0.000000  0.499814  0.501368  1
  Ho  Ho1  1  0.000000  0.000084  0.998975  1
  Ho  Ho2  1  0.000000  0.745442  0.279464  1
  Ho  Ho3  1  0.000000  0.255072  0.721340  1
  Ho  Ho4  1  0.000000  0.754830  0.777854  1
  Ho  Ho5  1  0.000000  0.247427  0.222553  1
  Ho  Ho6  1  0.000000  0.617131  0.086767  1
  Ho  Ho7  1  0.000000  0.383229  0.909864  1
  Ho  Ho8  1  0.000000  0.884058  0.589271  1
  Ho  Ho9  1  0.000000  0.115338  0.411163  1
  In  In10  1  0.500000  0.705349  0.929895  1
  In  In11  1  0.500000  0.292532  0.067729  1
  In  In12  1  0.500000  0.793787  0.432880  1
  In  In13  1  0.500000  0.205093  0.568746  1
  In  In14  1  0.500000  0.572947  0.652209  1
  In  In15  1  0.500000  0.427999  0.351441  1
  In  In16  1  0.500000  0.927703  0.151868  1
  In  In17  1  0.500000  0.072553  0.846878  1
  Ni  Ni18  1  0.500000  0.477720  0.803212  1
  Ni  Ni19  1  0.500000  0.977718  0.695726  1
  Ni  Ni20  1  0.500000  0.020241  0.304990  1
  Rh  Rh21  1  0.500000  0.523935  0.195802  1
