# generated using pymatgen
data_Ti9Nb3Al8(PtN)4
_symmetry_space_group_name_H-M   'P 1'
_cell_length_a   8.23744193
_cell_length_b   8.22338573
_cell_length_c   8.22352205
_cell_angle_alpha   60.11276325
_cell_angle_beta   59.94290049
_cell_angle_gamma   60.04280719
_symmetry_Int_Tables_number   1
_chemical_formula_structural   Ti9Nb3Al8(PtN)4
_chemical_formula_sum   'Ti9 Nb3 Al8 Pt4 N4'
_cell_volume   394.19124841
_cell_formula_units_Z   1
loop_
 _symmetry_equiv_pos_site_id
 _symmetry_equiv_pos_as_xyz
  1  'x, y, z'
loop_
 _atom_site_type_symbol
 _atom_site_label
 _atom_site_symmetry_multiplicity
 _atom_site_fract_x
 _atom_site_fract_y
 _atom_site_fract_z
 _atom_site_occupancy
  Ti  Ti0  1  0.068483  0.068476  0.431519  1
  Ti  Ti1  1  0.068521  0.431156  0.067680  1
  Ti  Ti2  1  0.431155  0.068520  0.432644  1
  Ti  Ti3  1  0.180929  0.818956  0.182749  1
  Ti  Ti4  1  0.180335  0.819800  0.817353  1
  Ti  Ti5  1  0.819799  0.180329  0.182519  1
  Ti  Ti6  1  0.818957  0.180929  0.817366  1
  Ti  Ti7  1  0.431774  0.431774  0.068228  1
  Ti  Ti8  1  0.181432  0.181426  0.818570  1
  Nb  Nb9  1  0.817718  0.817721  0.182283  1
  Nb  Nb10  1  0.068152  0.431404  0.432628  1
  Nb  Nb11  1  0.431404  0.068144  0.067821  1
  Al  Al12  1  0.415337  0.754630  0.415703  1
  Al  Al13  1  0.835773  0.833625  0.496454  1
  Al  Al14  1  0.494110  0.836216  0.835944  1
  Al  Al15  1  0.833624  0.835772  0.834147  1
  Al  Al16  1  0.754625  0.415339  0.414334  1
  Al  Al17  1  0.415999  0.414647  0.415649  1
  Al  Al18  1  0.414650  0.416000  0.753700  1
  Al  Al19  1  0.836214  0.494115  0.833728  1
  Pt  Pt20  1  0.626124  0.125384  0.622393  1
  Pt  Pt21  1  0.625151  0.621271  0.124523  1
  Pt  Pt22  1  0.125385  0.626127  0.626091  1
  Pt  Pt23  1  0.621268  0.625158  0.629052  1
  N  N24  1  0.133097  0.624846  0.117174  1
  N  N25  1  0.126494  0.118657  0.628790  1
  N  N26  1  0.624834  0.133096  0.124897  1
  N  N27  1  0.118657  0.126481  0.126060  1
