# generated using pymatgen
data_Sr5Pa3NO11
_symmetry_space_group_name_H-M   'P 1'
_cell_length_a   6.09870640
_cell_length_b   6.27411858
_cell_length_c   8.72146450
_cell_angle_alpha   89.62222662
_cell_angle_beta   89.43360573
_cell_angle_gamma   90.06534976
_symmetry_Int_Tables_number   1
_chemical_formula_structural   Sr5Pa3NO11
_chemical_formula_sum   'Sr5 Pa3 N1 O11'
_cell_volume   333.69437833
_cell_formula_units_Z   1
loop_
 _symmetry_equiv_pos_site_id
 _symmetry_equiv_pos_as_xyz
  1  'x, y, z'
loop_
 _atom_site_type_symbol
 _atom_site_label
 _atom_site_symmetry_multiplicity
 _atom_site_fract_x
 _atom_site_fract_y
 _atom_site_fract_z
 _atom_site_occupancy
  Sr  Sr0  1  0.998187  0.999507  0.996787  1
  Sr  Sr1  1  0.983364  0.446176  0.240437  1
  Sr  Sr2  1  0.510059  0.956267  0.244883  1
  Sr  Sr3  1  0.487758  0.041158  0.754442  1
  Sr  Sr4  1  0.015076  0.548530  0.758875  1
  Pa  Pa5  1  0.501424  0.500972  0.499578  1
  Pa  Pa6  1  0.500985  0.500323  0.000954  1
  Pa  Pa7  1  0.997707  0.999004  0.503576  1
  N  N8  1  0.892446  0.952958  0.717567  1
  O  O9  1  0.781199  0.700712  0.428356  1
  O  O10  1  0.787271  0.673374  0.055185  1
  O  O11  1  0.698971  0.218358  0.436409  1
  O  O12  1  0.672106  0.215846  0.062571  1
  O  O13  1  0.609076  0.454824  0.740520  1
  O  O14  1  0.386863  0.545218  0.259949  1
  O  O15  1  0.331435  0.786643  0.945273  1
  O  O16  1  0.303647  0.782927  0.558156  1
  O  O17  1  0.211721  0.328102  0.953072  1
  O  O18  1  0.219936  0.300657  0.563721  1
  O  O19  1  0.110769  0.048444  0.279689  1
