# generated using pymatgen
data_Na8Hf3PtBr24
_symmetry_space_group_name_H-M   'P 1'
_cell_length_a   7.14009800
_cell_length_b   7.14009728
_cell_length_c   26.59843100
_cell_angle_alpha   90.00000000
_cell_angle_beta   90.00000000
_cell_angle_gamma   119.99999407
_symmetry_Int_Tables_number   1
_chemical_formula_structural   Na8Hf3PtBr24
_chemical_formula_sum   'Na8 Hf3 Pt1 Br24'
_cell_volume   1174.34304004
_cell_formula_units_Z   1
loop_
 _symmetry_equiv_pos_site_id
 _symmetry_equiv_pos_as_xyz
  1  'x, y, z'
loop_
 _atom_site_type_symbol
 _atom_site_label
 _atom_site_symmetry_multiplicity
 _atom_site_fract_x
 _atom_site_fract_y
 _atom_site_fract_z
 _atom_site_occupancy
  Na  Na0  1  0.000000  0.000000  0.250102  1
  Na  Na1  1  0.000000  0.000000  0.749898  1
  Na  Na2  1  0.333333  0.666667  0.000355  1
  Na  Na3  1  0.333333  0.666667  0.499622  1
  Na  Na4  1  0.333333  0.666667  0.250128  1
  Na  Na5  1  0.666667  0.333333  0.749872  1
  Na  Na6  1  0.666667  0.333333  0.999645  1
  Na  Na7  1  0.666667  0.333333  0.500378  1
  Hf  Hf8  1  0.000000  0.000000  0.500000  1
  Hf  Hf9  1  0.333333  0.666667  0.749811  1
  Hf  Hf10  1  0.666667  0.333333  0.250189  1
  Pt  Pt11  1  0.000000  0.000000  0.000000  1
  Br  Br12  1  0.369270  0.035546  0.308291  1
  Br  Br13  1  0.334112  0.964426  0.808049  1
  Br  Br14  1  0.999391  0.284251  0.055667  1
  Br  Br15  1  0.000440  0.297715  0.558159  1
  Br  Br16  1  0.964454  0.333725  0.308291  1
  Br  Br17  1  0.035574  0.369685  0.808049  1
  Br  Br18  1  0.369685  0.334112  0.191951  1
  Br  Br19  1  0.333725  0.369270  0.691709  1
  Br  Br20  1  0.297715  0.297275  0.441841  1
  Br  Br21  1  0.284251  0.284861  0.944333  1
  Br  Br22  1  0.702725  0.000440  0.441841  1
  Br  Br23  1  0.284861  0.000609  0.055667  1
  Br  Br24  1  0.297275  0.999560  0.558159  1
  Br  Br25  1  0.715749  0.715139  0.055667  1
  Br  Br26  1  0.702285  0.702725  0.558159  1
  Br  Br27  1  0.666275  0.630730  0.308291  1
  Br  Br28  1  0.630315  0.665888  0.808049  1
  Br  Br29  1  0.964426  0.630315  0.191951  1
  Br  Br30  1  0.035546  0.666275  0.691709  1
  Br  Br31  1  0.999560  0.702285  0.441841  1
  Br  Br32  1  0.000609  0.715749  0.944333  1
  Br  Br33  1  0.715139  0.999391  0.944333  1
  Br  Br34  1  0.665888  0.035574  0.191951  1
  Br  Br35  1  0.630730  0.964454  0.691709  1
