# generated using pymatgen
data_PrNdDy6(CdPt)2
_symmetry_space_group_name_H-M   'P 1'
_cell_length_a   9.78334472
_cell_length_b   9.75627787
_cell_length_c   9.76155482
_cell_angle_alpha   60.16567101
_cell_angle_beta   59.89042105
_cell_angle_gamma   59.94391216
_symmetry_Int_Tables_number   1
_chemical_formula_structural   PrNdDy6(CdPt)2
_chemical_formula_sum   'Pr2 Nd2 Dy12 Cd4 Pt4'
_cell_volume   658.82472089
_cell_formula_units_Z   2
loop_
 _symmetry_equiv_pos_site_id
 _symmetry_equiv_pos_as_xyz
  1  'x, y, z'
loop_
 _atom_site_type_symbol
 _atom_site_label
 _atom_site_symmetry_multiplicity
 _atom_site_fract_x
 _atom_site_fract_y
 _atom_site_fract_z
 _atom_site_occupancy
  Pr  Pr0  1  0.565366  0.934634  0.565366  1
  Pr  Pr1  1  0.934634  0.565366  0.934634  1
  Nd  Nd2  1  0.564500  0.564500  0.935500  1
  Nd  Nd3  1  0.935500  0.935500  0.564500  1
  Dy  Dy4  1  0.351647  0.350620  0.350342  1
  Dy  Dy5  1  0.350620  0.351647  0.947391  1
  Dy  Dy6  1  0.350342  0.947391  0.351647  1
  Dy  Dy7  1  0.947391  0.350342  0.350620  1
  Dy  Dy8  1  0.811208  0.188792  0.188792  1
  Dy  Dy9  1  0.188792  0.811208  0.811208  1
  Dy  Dy10  1  0.189336  0.810664  0.189336  1
  Dy  Dy11  1  0.810664  0.189336  0.810664  1
  Dy  Dy12  1  0.189240  0.189240  0.810760  1
  Dy  Dy13  1  0.810760  0.810760  0.189240  1
  Dy  Dy14  1  0.942054  0.557946  0.557946  1
  Dy  Dy15  1  0.557946  0.942054  0.942054  1
  Cd  Cd16  1  0.583232  0.578525  0.579133  1
  Cd  Cd17  1  0.578525  0.583232  0.259111  1
  Cd  Cd18  1  0.579133  0.259111  0.583232  1
  Cd  Cd19  1  0.259111  0.579133  0.578525  1
  Pt  Pt20  1  0.145411  0.141399  0.141954  1
  Pt  Pt21  1  0.141399  0.145411  0.571234  1
  Pt  Pt22  1  0.141954  0.571234  0.145411  1
  Pt  Pt23  1  0.571234  0.141954  0.141399  1
