# generated using pymatgen
data_Lu9MgZn3CuSb2
_symmetry_space_group_name_H-M   'P 1'
_cell_length_a   8.36625033
_cell_length_b   8.36625067
_cell_length_c   8.40252962
_cell_angle_alpha   125.21141619
_cell_angle_beta   124.92023079
_cell_angle_gamma   81.14043309
_symmetry_Int_Tables_number   1
_chemical_formula_structural   Lu9MgZn3CuSb2
_chemical_formula_sum   'Lu9 Mg1 Zn3 Cu1 Sb2'
_cell_volume   380.15266556
_cell_formula_units_Z   1
loop_
 _symmetry_equiv_pos_site_id
 _symmetry_equiv_pos_as_xyz
  1  'x, y, z'
loop_
 _atom_site_type_symbol
 _atom_site_label
 _atom_site_symmetry_multiplicity
 _atom_site_fract_x
 _atom_site_fract_y
 _atom_site_fract_z
 _atom_site_occupancy
  Lu  Lu0  1  0.498757  0.497117  0.995874  1
  Lu  Lu1  1  0.800736  0.295568  0.808129  1
  Lu  Lu2  1  0.195934  0.712497  0.193403  1
  Lu  Lu3  1  0.480906  0.997469  0.193403  1
  Lu  Lu4  1  0.297337  0.474219  0.489498  1
  Lu  Lu5  1  0.015279  0.192160  0.489498  1
  Lu  Lu6  1  0.512561  0.007393  0.808129  1
  Lu  Lu7  1  0.704725  0.517485  0.508456  1
  Lu  Lu8  1  0.990971  0.803732  0.508456  1
  Mg  Mg9  1  0.000364  0.000409  0.000773  1
  Zn  Zn10  1  0.137725  0.636210  0.773935  1
  Zn  Zn11  1  0.861918  0.364356  0.226273  1
  Zn  Zn12  1  0.631692  0.864033  0.495725  1
  Cu  Cu13  1  0.374973  0.133595  0.508568  1
  Sb  Sb14  1  0.249455  0.253275  0.999940  1
  Sb  Sb15  1  0.746665  0.750485  0.999940  1
