# generated using pymatgen
data_Zn22Fe3
_symmetry_space_group_name_H-M   'P 1'
_cell_length_a   7.70156631
_cell_length_b   7.70156707
_cell_length_c   7.72324744
_cell_angle_alpha   72.19469582
_cell_angle_beta   72.19469105
_cell_angle_gamma   58.22665162
_symmetry_Int_Tables_number   1
_chemical_formula_structural   Zn22Fe3
_chemical_formula_sum   'Zn22 Fe3'
_cell_volume   364.81308020
_cell_formula_units_Z   1
loop_
 _symmetry_equiv_pos_site_id
 _symmetry_equiv_pos_as_xyz
  1  'x, y, z'
loop_
 _atom_site_type_symbol
 _atom_site_label
 _atom_site_symmetry_multiplicity
 _atom_site_fract_x
 _atom_site_fract_y
 _atom_site_fract_z
 _atom_site_occupancy
  Zn  Zn0  1  0.342516  0.743469  0.311860  1
  Zn  Zn1  1  0.657484  0.256531  0.688140  1
  Zn  Zn2  1  0.256531  0.657484  0.688140  1
  Zn  Zn3  1  0.743469  0.342516  0.311860  1
  Zn  Zn4  1  0.676589  0.323411  0.000000  1
  Zn  Zn5  1  0.323411  0.676589  0.000000  1
  Zn  Zn6  1  0.830337  0.830337  0.783244  1
  Zn  Zn7  1  0.169663  0.169663  0.216756  1
  Zn  Zn8  1  0.978232  0.978232  0.176212  1
  Zn  Zn9  1  0.021768  0.021768  0.823788  1
  Zn  Zn10  1  0.351910  0.351910  0.273864  1
  Zn  Zn11  1  0.648090  0.648090  0.726136  1
  Zn  Zn12  1  0.685651  0.685651  0.375897  1
  Zn  Zn13  1  0.314349  0.314349  0.624103  1
  Zn  Zn14  1  0.662693  0.024194  0.464799  1
  Zn  Zn15  1  0.337307  0.975806  0.535201  1
  Zn  Zn16  1  0.975806  0.337307  0.535201  1
  Zn  Zn17  1  0.024194  0.662693  0.464799  1
  Zn  Zn18  1  0.617497  0.999025  0.098689  1
  Zn  Zn19  1  0.382503  0.000975  0.901311  1
  Zn  Zn20  1  0.000975  0.382503  0.901311  1
  Zn  Zn21  1  0.999025  0.617497  0.098689  1
  Fe  Fe22  1  0.656494  0.656494  0.056225  1
  Fe  Fe23  1  0.343506  0.343506  0.943775  1
  Fe  Fe24  1  0.000000  0.000000  0.500000  1
