# generated using pymatgen
data_Er2Si7Pt12
_symmetry_space_group_name_H-M   'P 1'
_cell_length_a   9.97101100
_cell_length_b   9.97100953
_cell_length_c   3.92436300
_cell_angle_alpha   90.00000000
_cell_angle_beta   90.00000000
_cell_angle_gamma   119.99999491
_symmetry_Int_Tables_number   1
_chemical_formula_structural   Er2Si7Pt12
_chemical_formula_sum   'Er2 Si7 Pt12'
_cell_volume   337.89218967
_cell_formula_units_Z   1
loop_
 _symmetry_equiv_pos_site_id
 _symmetry_equiv_pos_as_xyz
  1  'x, y, z'
loop_
 _atom_site_type_symbol
 _atom_site_label
 _atom_site_symmetry_multiplicity
 _atom_site_fract_x
 _atom_site_fract_y
 _atom_site_fract_z
 _atom_site_occupancy
  Er  Er0  1  0.333333  0.666667  0.748885  1
  Er  Er1  1  0.666667  0.333333  0.251115  1
  Si  Si2  1  0.000000  0.000000  0.500000  1
  Si  Si3  1  0.405500  0.288490  0.749064  1
  Si  Si4  1  0.711510  0.117010  0.749064  1
  Si  Si5  1  0.882990  0.594500  0.749064  1
  Si  Si6  1  0.594500  0.711510  0.250936  1
  Si  Si7  1  0.288490  0.882990  0.250936  1
  Si  Si8  1  0.117010  0.405500  0.250936  1
  Pt  Pt9  1  0.454893  0.075328  0.750245  1
  Pt  Pt10  1  0.924672  0.379565  0.750245  1
  Pt  Pt11  1  0.620435  0.545107  0.750245  1
  Pt  Pt12  1  0.545107  0.924672  0.249755  1
  Pt  Pt13  1  0.075328  0.620435  0.249755  1
  Pt  Pt14  1  0.379565  0.454893  0.249755  1
  Pt  Pt15  1  0.147378  0.260494  0.754950  1
  Pt  Pt16  1  0.739506  0.886886  0.754950  1
  Pt  Pt17  1  0.113114  0.852622  0.754950  1
  Pt  Pt18  1  0.852622  0.739506  0.245050  1
  Pt  Pt19  1  0.260494  0.113114  0.245050  1
  Pt  Pt20  1  0.886886  0.147378  0.245050  1
