# generated using pymatgen
data_Zr5Ta(SiRu)6
_symmetry_space_group_name_H-M   'P 1'
_cell_length_a   7.61299052
_cell_length_b   7.61235329
_cell_length_c   7.61299041
_cell_angle_alpha   127.83152735
_cell_angle_beta   121.47356210
_cell_angle_gamma   82.21785946
_symmetry_Int_Tables_number   1
_chemical_formula_structural   Zr5Ta(SiRu)6
_chemical_formula_sum   'Zr5 Ta1 Si6 Ru6'
_cell_volume   285.79201382
_cell_formula_units_Z   1
loop_
 _symmetry_equiv_pos_site_id
 _symmetry_equiv_pos_as_xyz
  1  'x, y, z'
loop_
 _atom_site_type_symbol
 _atom_site_label
 _atom_site_symmetry_multiplicity
 _atom_site_fract_x
 _atom_site_fract_y
 _atom_site_fract_z
 _atom_site_occupancy
  Zr  Zr0  1  0.946834  0.906741  0.459908  1
  Zr  Zr1  1  0.050238  0.501625  0.951387  1
  Zr  Zr2  1  0.530290  0.511166  0.480875  1
  Zr  Zr3  1  0.470420  0.947163  0.976743  1
  Zr  Zr4  1  0.746833  0.078303  0.831471  1
  Ta  Ta5  1  0.251464  0.083951  0.332487  1
  Si  Si6  1  0.728565  0.486257  0.257692  1
  Si  Si7  1  0.278280  0.505441  0.727160  1
  Si  Si8  1  0.666261  0.171851  0.508471  1
  Si  Si9  1  0.322791  0.839532  0.495087  1
  Si  Si10  1  0.163380  0.171851  0.005591  1
  Si  Si11  1  0.844445  0.839532  0.016741  1
  Ru  Ru12  1  0.477185  0.748954  0.226069  1
  Ru  Ru13  1  0.022884  0.748953  0.771769  1
  Ru  Ru14  1  0.901499  0.257034  0.403897  1
  Ru  Ru15  1  0.094439  0.501206  0.350151  1
  Ru  Ru16  1  0.353137  0.257034  0.855535  1
  Ru  Ru17  1  0.651055  0.501206  0.906767  1
