# generated using pymatgen
data_Cs3Ho(TaS4)2
_symmetry_space_group_name_H-M   'P 1'
_cell_length_a   9.74456254
_cell_length_b   10.91743310
_cell_length_c   11.53554413
_cell_angle_alpha   107.84200748
_cell_angle_beta   103.60823318
_cell_angle_gamma   113.28384320
_symmetry_Int_Tables_number   1
_chemical_formula_structural   Cs3Ho(TaS4)2
_chemical_formula_sum   'Cs6 Ho2 Ta4 S16'
_cell_volume   979.87083306
_cell_formula_units_Z   2
loop_
 _symmetry_equiv_pos_site_id
 _symmetry_equiv_pos_as_xyz
  1  'x, y, z'
loop_
 _atom_site_type_symbol
 _atom_site_label
 _atom_site_symmetry_multiplicity
 _atom_site_fract_x
 _atom_site_fract_y
 _atom_site_fract_z
 _atom_site_occupancy
  Cs  Cs0  1  0.000002  0.500005  0.000005  1
  Cs  Cs1  1  0.500001  0.500007  0.000003  1
  Cs  Cs2  1  0.266805  0.016852  0.033780  1
  Cs  Cs3  1  0.484545  0.734507  0.468991  1
  Cs  Cs4  1  0.515458  0.265500  0.531014  1
  Cs  Cs5  1  0.733198  0.983158  0.966220  1
  Ho  Ho6  1  0.001365  0.251378  0.502909  1
  Ho  Ho7  1  0.998644  0.748634  0.497106  1
  Ta  Ta8  1  0.767348  0.357321  0.267016  1
  Ta  Ta9  1  0.999598  0.909685  0.266936  1
  Ta  Ta10  1  0.000408  0.090318  0.733058  1
  Ta  Ta11  1  0.232642  0.642669  0.732987  1
  S  S12  1  0.656666  0.274511  0.043493  1
  S  S13  1  0.886693  0.768904  0.043425  1
  S  S14  1  0.107872  0.158127  0.311067  1
  S  S15  1  0.703214  0.153005  0.311126  1
  S  S16  1  0.042321  0.508906  0.353726  1
  S  S17  1  0.811443  0.844974  0.353767  1
  S  S18  1  0.191607  0.861311  0.366911  1
  S  S19  1  0.675390  0.505746  0.367015  1
  S  S20  1  0.324604  0.494248  0.632989  1
  S  S21  1  0.808395  0.138685  0.633082  1
  S  S22  1  0.188560  0.155018  0.646222  1
  S  S23  1  0.957675  0.491088  0.646271  1
  S  S24  1  0.296777  0.846981  0.688877  1
  S  S25  1  0.892133  0.841868  0.688925  1
  S  S26  1  0.113305  0.231090  0.956566  1
  S  S27  1  0.343326  0.725498  0.956510  1
