# generated using pymatgen
data_BaLi2ErSi4
_symmetry_space_group_name_H-M   'P 1'
_cell_length_a   3.86677300
_cell_length_b   8.05927684
_cell_length_c   10.78793862
_cell_angle_alpha   89.60643156
_cell_angle_beta   90.00000000
_cell_angle_gamma   90.00000000
_symmetry_Int_Tables_number   1
_chemical_formula_structural   BaLi2ErSi4
_chemical_formula_sum   'Ba2 Li4 Er2 Si8'
_cell_volume   336.18085126
_cell_formula_units_Z   2
loop_
 _symmetry_equiv_pos_site_id
 _symmetry_equiv_pos_as_xyz
  1  'x, y, z'
loop_
 _atom_site_type_symbol
 _atom_site_label
 _atom_site_symmetry_multiplicity
 _atom_site_fract_x
 _atom_site_fract_y
 _atom_site_fract_z
 _atom_site_occupancy
  Ba  Ba0  1  0.250000  0.639950  0.634838  1
  Ba  Ba1  1  0.750000  0.360050  0.365162  1
  Li  Li2  1  0.250000  0.003376  0.385478  1
  Li  Li3  1  0.750000  0.996624  0.614522  1
  Li  Li4  1  0.250000  0.490099  0.103908  1
  Li  Li5  1  0.750000  0.509901  0.896092  1
  Er  Er6  1  0.250000  0.120291  0.870028  1
  Er  Er7  1  0.750000  0.879709  0.129972  1
  Si  Si8  1  0.750000  0.254882  0.054375  1
  Si  Si9  1  0.250000  0.745118  0.945625  1
  Si  Si10  1  0.750000  0.790333  0.407757  1
  Si  Si11  1  0.250000  0.209667  0.592243  1
  Si  Si12  1  0.750000  0.848112  0.839221  1
  Si  Si13  1  0.250000  0.151888  0.160779  1
  Si  Si14  1  0.750000  0.311947  0.696885  1
  Si  Si15  1  0.250000  0.688053  0.303115  1
