# generated using pymatgen
data_DyEr7Re(B8Os)3
_symmetry_space_group_name_H-M   'P 1'
_cell_length_a   3.64368000
_cell_length_b   9.11351710
_cell_length_c   11.49401900
_cell_angle_alpha   90.08693313
_cell_angle_beta   90.00000000
_cell_angle_gamma   90.00000000
_symmetry_Int_Tables_number   1
_chemical_formula_structural   DyEr7Re(B8Os)3
_chemical_formula_sum   'Dy1 Er7 Re1 B24 Os3'
_cell_volume   381.67846103
_cell_formula_units_Z   1
loop_
 _symmetry_equiv_pos_site_id
 _symmetry_equiv_pos_as_xyz
  1  'x, y, z'
loop_
 _atom_site_type_symbol
 _atom_site_label
 _atom_site_symmetry_multiplicity
 _atom_site_fract_x
 _atom_site_fract_y
 _atom_site_fract_z
 _atom_site_occupancy
  Dy  Dy0  1  0.000000  0.322159  0.414878  1
  Er  Er1  1  0.000000  0.680309  0.588133  1
  Er  Er2  1  0.000000  0.822403  0.083570  1
  Er  Er3  1  0.000000  0.176517  0.913242  1
  Er  Er4  1  0.000000  0.943350  0.371931  1
  Er  Er5  1  0.000000  0.055639  0.627748  1
  Er  Er6  1  0.000000  0.443145  0.127693  1
  Er  Er7  1  0.000000  0.556406  0.872827  1
  Re  Re8  1  0.000000  0.862457  0.821378  1
  B  B9  1  0.500000  0.554010  0.433400  1
  B  B10  1  0.500000  0.446430  0.567019  1
  B  B11  1  0.500000  0.053592  0.067030  1
  B  B12  1  0.500000  0.947198  0.933459  1
  B  B13  1  0.500000  0.748755  0.419701  1
  B  B14  1  0.500000  0.251300  0.580494  1
  B  B15  1  0.500000  0.248429  0.080418  1
  B  B16  1  0.500000  0.751224  0.919563  1
  B  B17  1  0.500000  0.790878  0.265837  1
  B  B18  1  0.500000  0.208763  0.733492  1
  B  B19  1  0.500000  0.291166  0.233912  1
  B  B20  1  0.500000  0.708071  0.765836  1
  B  B21  1  0.500000  0.631038  0.185109  1
  B  B22  1  0.500000  0.368592  0.814475  1
  B  B23  1  0.500000  0.131350  0.314814  1
  B  B24  1  0.500000  0.868762  0.685330  1
  B  B25  1  0.500000  0.982844  0.212640  1
  B  B26  1  0.500000  0.018172  0.787296  1
  B  B27  1  0.500000  0.482958  0.287571  1
  B  B28  1  0.500000  0.517379  0.712716  1
  B  B29  1  0.500000  0.605245  0.029802  1
  B  B30  1  0.500000  0.393339  0.970797  1
  B  B31  1  0.500000  0.106100  0.470305  1
  B  B32  1  0.500000  0.893970  0.528823  1
  Os  Os33  1  0.000000  0.637659  0.321328  1
  Os  Os34  1  0.000000  0.362646  0.678320  1
  Os  Os35  1  0.000000  0.137740  0.179110  1
