# generated using pymatgen
data_Dy5Sc3P12(IrRh3)4
_symmetry_space_group_name_H-M   'P 1'
_cell_length_a   12.88216900
_cell_length_b   12.88216959
_cell_length_c   3.93368100
_cell_angle_alpha   90.00000000
_cell_angle_beta   90.00000000
_cell_angle_gamma   120.00000106
_symmetry_Int_Tables_number   1
_chemical_formula_structural   Dy5Sc3P12(IrRh3)4
_chemical_formula_sum   'Dy5 Sc3 P12 Ir4 Rh12'
_cell_volume   565.33746821
_cell_formula_units_Z   1
loop_
 _symmetry_equiv_pos_site_id
 _symmetry_equiv_pos_as_xyz
  1  'x, y, z'
loop_
 _atom_site_type_symbol
 _atom_site_label
 _atom_site_symmetry_multiplicity
 _atom_site_fract_x
 _atom_site_fract_y
 _atom_site_fract_z
 _atom_site_occupancy
  Dy  Dy0  1  0.333333  0.666667  0.500000  1
  Dy  Dy1  1  0.666667  0.333333  0.500000  1
  Dy  Dy2  1  0.000000  0.810920  0.000000  1
  Dy  Dy3  1  0.189080  0.189080  0.000000  1
  Dy  Dy4  1  0.810920  0.000000  0.000000  1
  Sc  Sc5  1  0.000000  0.444021  0.500000  1
  Sc  Sc6  1  0.555979  0.555979  0.500000  1
  Sc  Sc7  1  0.444021  0.000000  0.500000  1
  P  P8  1  0.000000  0.644980  0.500000  1
  P  P9  1  0.355020  0.355020  0.500000  1
  P  P10  1  0.644980  0.000000  0.500000  1
  P  P11  1  0.516953  0.687024  0.000000  1
  P  P12  1  0.312976  0.829928  0.000000  1
  P  P13  1  0.170072  0.483047  0.000000  1
  P  P14  1  0.483047  0.170072  0.000000  1
  P  P15  1  0.687024  0.516953  0.000000  1
  P  P16  1  0.829928  0.312976  0.000000  1
  P  P17  1  0.000000  0.177427  0.500000  1
  P  P18  1  0.822573  0.822573  0.500000  1
  P  P19  1  0.177427  0.000000  0.500000  1
  Ir  Ir20  1  0.000000  0.277782  0.000000  1
  Ir  Ir21  1  0.722218  0.722218  0.000000  1
  Ir  Ir22  1  0.277782  0.000000  0.000000  1
  Ir  Ir23  1  0.000000  0.000000  0.500000  1
  Rh  Rh24  1  0.513040  0.870208  0.000000  1
  Rh  Rh25  1  0.129792  0.642834  0.000000  1
  Rh  Rh26  1  0.357166  0.486960  0.000000  1
  Rh  Rh27  1  0.486960  0.357166  0.000000  1
  Rh  Rh28  1  0.870208  0.513040  0.000000  1
  Rh  Rh29  1  0.642834  0.129792  0.000000  1
  Rh  Rh30  1  0.625680  0.804575  0.500000  1
  Rh  Rh31  1  0.195425  0.821105  0.500000  1
  Rh  Rh32  1  0.178895  0.374320  0.500000  1
  Rh  Rh33  1  0.374320  0.178895  0.500000  1
  Rh  Rh34  1  0.804575  0.625680  0.500000  1
  Rh  Rh35  1  0.821105  0.195425  0.500000  1
