# generated using pymatgen
data_Tb2DyLu9Os4
_symmetry_space_group_name_H-M   'P 1'
_cell_length_a   6.20247300
_cell_length_b   7.36566260
_cell_length_c   8.81972400
_cell_angle_alpha   90.00000000
_cell_angle_beta   90.00000000
_cell_angle_gamma   89.77737888
_symmetry_Int_Tables_number   1
_chemical_formula_structural   Tb2DyLu9Os4
_chemical_formula_sum   'Tb2 Dy1 Lu9 Os4'
_cell_volume   402.92890172
_cell_formula_units_Z   1
loop_
 _symmetry_equiv_pos_site_id
 _symmetry_equiv_pos_as_xyz
  1  'x, y, z'
loop_
 _atom_site_type_symbol
 _atom_site_label
 _atom_site_symmetry_multiplicity
 _atom_site_fract_x
 _atom_site_fract_y
 _atom_site_fract_z
 _atom_site_occupancy
  Tb  Tb0  1  0.872758  0.537754  0.250000  1
  Tb  Tb1  1  0.126601  0.462598  0.750000  1
  Dy  Dy2  1  0.372162  0.960423  0.750000  1
  Lu  Lu3  1  0.338804  0.676077  0.063104  1
  Lu  Lu4  1  0.165664  0.172534  0.436776  1
  Lu  Lu5  1  0.661528  0.323457  0.562100  1
  Lu  Lu6  1  0.834912  0.828586  0.938335  1
  Lu  Lu7  1  0.661528  0.323457  0.937900  1
  Lu  Lu8  1  0.834912  0.828586  0.561665  1
  Lu  Lu9  1  0.338804  0.676077  0.436896  1
  Lu  Lu10  1  0.165664  0.172534  0.063224  1
  Lu  Lu11  1  0.627260  0.038928  0.250000  1
  Os  Os12  1  0.039618  0.882314  0.250000  1
  Os  Os13  1  0.456775  0.379338  0.250000  1
  Os  Os14  1  0.957768  0.118228  0.750000  1
  Os  Os15  1  0.545239  0.619105  0.750000  1
