# generated using pymatgen
data_LiDy5P12(Ir5Ru)3
_symmetry_space_group_name_H-M   'P 1'
_cell_length_a   12.68933491
_cell_length_b   12.72836310
_cell_length_c   3.96438300
_cell_angle_alpha   90.00000000
_cell_angle_beta   90.00000000
_cell_angle_gamma   120.34511855
_symmetry_Int_Tables_number   1
_chemical_formula_structural   LiDy5P12(Ir5Ru)3
_chemical_formula_sum   'Li1 Dy5 P12 Ir15 Ru3'
_cell_volume   552.58208662
_cell_formula_units_Z   1
loop_
 _symmetry_equiv_pos_site_id
 _symmetry_equiv_pos_as_xyz
  1  'x, y, z'
loop_
 _atom_site_type_symbol
 _atom_site_label
 _atom_site_symmetry_multiplicity
 _atom_site_fract_x
 _atom_site_fract_y
 _atom_site_fract_z
 _atom_site_occupancy
  Li  Li0  1  0.000398  0.443824  0.500000  1
  Dy  Dy1  1  0.332329  0.666258  0.500000  1
  Dy  Dy2  1  0.669183  0.333429  0.500000  1
  Dy  Dy3  1  0.999193  0.811317  0.000000  1
  Dy  Dy4  1  0.188030  0.185421  0.000000  1
  Dy  Dy5  1  0.809165  0.995936  0.000000  1
  P  P6  1  0.000317  0.633283  0.500000  1
  P  P7  1  0.363614  0.363253  0.500000  1
  P  P8  1  0.635612  0.995101  0.500000  1
  P  P9  1  0.516329  0.690876  0.000000  1
  P  P10  1  0.311351  0.830082  0.000000  1
  P  P11  1  0.169431  0.484056  0.000000  1
  P  P12  1  0.486242  0.173034  0.000000  1
  P  P13  1  0.689568  0.518537  0.000000  1
  P  P14  1  0.831770  0.315137  0.000000  1
  P  P15  1  0.999070  0.178627  0.500000  1
  P  P16  1  0.818274  0.822867  0.500000  1
  P  P17  1  0.177561  0.001108  0.500000  1
  Ir  Ir18  1  0.508171  0.871465  0.000000  1
  Ir  Ir19  1  0.132430  0.642642  0.000000  1
  Ir  Ir20  1  0.361690  0.492748  0.000000  1
  Ir  Ir21  1  0.492716  0.361492  0.000000  1
  Ir  Ir22  1  0.868476  0.511034  0.000000  1
  Ir  Ir23  1  0.639996  0.132071  0.000000  1
  Ir  Ir24  1  0.000069  0.281280  0.000000  1
  Ir  Ir25  1  0.710216  0.712211  0.000000  1
  Ir  Ir26  1  0.289233  0.003384  0.000000  1
  Ir  Ir27  1  0.195416  0.824754  0.500000  1
  Ir  Ir28  1  0.183011  0.374883  0.500000  1
  Ir  Ir29  1  0.377139  0.181896  0.500000  1
  Ir  Ir30  1  0.805126  0.628777  0.500000  1
  Ir  Ir31  1  0.816846  0.191354  0.500000  1
  Ir  Ir32  1  0.999623  0.001502  0.500000  1
  Ru  Ru33  1  0.545870  0.544453  0.500000  1
  Ru  Ru34  1  0.456278  0.001173  0.500000  1
  Ru  Ru35  1  0.620257  0.800733  0.500000  1
