# generated using pymatgen
data_Nd2Ga8CoNi
_symmetry_space_group_name_H-M   'P 1'
_cell_length_a   4.20604586
_cell_length_b   6.49367200
_cell_length_c   8.15670498
_cell_angle_alpha   90.00000000
_cell_angle_beta   104.94119271
_cell_angle_gamma   90.00000000
_symmetry_Int_Tables_number   1
_chemical_formula_structural   Nd2Ga8CoNi
_chemical_formula_sum   'Nd2 Ga8 Co1 Ni1'
_cell_volume   215.24946358
_cell_formula_units_Z   1
loop_
 _symmetry_equiv_pos_site_id
 _symmetry_equiv_pos_as_xyz
  1  'x, y, z'
loop_
 _atom_site_type_symbol
 _atom_site_label
 _atom_site_symmetry_multiplicity
 _atom_site_fract_x
 _atom_site_fract_y
 _atom_site_fract_z
 _atom_site_occupancy
  Nd  Nd0  1  0.884140  0.750000  0.768278  1
  Nd  Nd1  1  0.116505  0.250000  0.233011  1
  Ga  Ga2  1  0.499690  0.498200  0.999380  1
  Ga  Ga3  1  0.499690  0.001800  0.999380  1
  Ga  Ga4  1  0.075202  0.750000  0.150405  1
  Ga  Ga5  1  0.925446  0.250000  0.850890  1
  Ga  Ga6  1  0.688872  0.554055  0.377746  1
  Ga  Ga7  1  0.311170  0.449748  0.622340  1
  Ga  Ga8  1  0.688872  0.945945  0.377746  1
  Ga  Ga9  1  0.311170  0.050252  0.622340  1
  Co  Co10  1  0.222442  0.750000  0.444883  1
  Ni  Ni11  1  0.776800  0.250000  0.553601  1
