# generated using pymatgen
data_Th(NbCl3)6
_symmetry_space_group_name_H-M   'P 1'
_cell_length_a   10.32399232
_cell_length_b   10.32399229
_cell_length_c   10.32399290
_cell_angle_alpha   55.83675352
_cell_angle_beta   55.83675390
_cell_angle_gamma   55.83675209
_symmetry_Int_Tables_number   1
_chemical_formula_structural   Th(NbCl3)6
_chemical_formula_sum   'Th1 Nb6 Cl18'
_cell_volume   702.98523471
_cell_formula_units_Z   1
loop_
 _symmetry_equiv_pos_site_id
 _symmetry_equiv_pos_as_xyz
  1  'x, y, z'
loop_
 _atom_site_type_symbol
 _atom_site_label
 _atom_site_symmetry_multiplicity
 _atom_site_fract_x
 _atom_site_fract_y
 _atom_site_fract_z
 _atom_site_occupancy
  Th  Th0  1  0.000000  0.000000  0.000000  1
  Nb  Nb1  1  0.411821  0.305303  0.645690  1
  Nb  Nb2  1  0.354310  0.588179  0.694697  1
  Nb  Nb3  1  0.694697  0.354310  0.588179  1
  Nb  Nb4  1  0.305303  0.645690  0.411821  1
  Nb  Nb5  1  0.645690  0.411821  0.305303  1
  Nb  Nb6  1  0.588179  0.694697  0.354310  1
  Cl  Cl7  1  0.568150  0.165414  0.441929  1
  Cl  Cl8  1  0.226682  0.371134  0.904425  1
  Cl  Cl9  1  0.904425  0.226682  0.371134  1
  Cl  Cl10  1  0.371134  0.904425  0.226682  1
  Cl  Cl11  1  0.773318  0.628866  0.095575  1
  Cl  Cl12  1  0.095575  0.773318  0.628866  1
  Cl  Cl13  1  0.701995  0.959198  0.159605  1
  Cl  Cl14  1  0.959198  0.159605  0.701995  1
  Cl  Cl15  1  0.159605  0.701995  0.959198  1
  Cl  Cl16  1  0.298005  0.040802  0.840395  1
  Cl  Cl17  1  0.040802  0.840395  0.298005  1
  Cl  Cl18  1  0.840395  0.298005  0.040802  1
  Cl  Cl19  1  0.558071  0.431850  0.834586  1
  Cl  Cl20  1  0.165414  0.441929  0.568150  1
  Cl  Cl21  1  0.441929  0.568150  0.165414  1
  Cl  Cl22  1  0.431850  0.834586  0.558071  1
  Cl  Cl23  1  0.834586  0.558071  0.431850  1
  Cl  Cl24  1  0.628866  0.095575  0.773318  1
