# generated using pymatgen
data_Ca5Nd3(OsC2)4
_symmetry_space_group_name_H-M   'P 1'
_cell_length_a   5.22518400
_cell_length_b   6.50921120
_cell_length_c   10.54180134
_cell_angle_alpha   89.97116055
_cell_angle_beta   90.00000000
_cell_angle_gamma   90.00000000
_symmetry_Int_Tables_number   1
_chemical_formula_structural   Ca5Nd3(OsC2)4
_chemical_formula_sum   'Ca5 Nd3 Os4 C8'
_cell_volume   358.54586988
_cell_formula_units_Z   1
loop_
 _symmetry_equiv_pos_site_id
 _symmetry_equiv_pos_as_xyz
  1  'x, y, z'
loop_
 _atom_site_type_symbol
 _atom_site_label
 _atom_site_symmetry_multiplicity
 _atom_site_fract_x
 _atom_site_fract_y
 _atom_site_fract_z
 _atom_site_occupancy
  Ca  Ca0  1  0.250000  0.196070  0.947968  1
  Ca  Ca1  1  0.250000  0.533565  0.220169  1
  Ca  Ca2  1  0.750000  0.464091  0.780276  1
  Ca  Ca3  1  0.750000  0.967816  0.725213  1
  Ca  Ca4  1  0.250000  0.033125  0.275085  1
  Nd  Nd5  1  0.250000  0.696460  0.551476  1
  Nd  Nd6  1  0.750000  0.303673  0.446083  1
  Nd  Nd7  1  0.750000  0.807256  0.052430  1
  Os  Os8  1  0.250000  0.730276  0.851482  1
  Os  Os9  1  0.750000  0.271543  0.147018  1
  Os  Os10  1  0.750000  0.771679  0.350660  1
  Os  Os11  1  0.250000  0.230203  0.652105  1
  C  C12  1  0.250000  0.471711  0.756403  1
  C  C13  1  0.750000  0.531730  0.243327  1
  C  C14  1  0.750000  0.031221  0.255375  1
  C  C15  1  0.250000  0.967523  0.741630  1
  C  C16  1  0.250000  0.790147  0.025522  1
  C  C17  1  0.750000  0.201879  0.975750  1
  C  C18  1  0.750000  0.702391  0.524998  1
  C  C19  1  0.250000  0.297641  0.477028  1
