# generated using pymatgen
data_Nd2Ho4MgCo17P12
_symmetry_space_group_name_H-M   'P 1'
_cell_length_a   3.73701600
_cell_length_b   10.61537500
_cell_length_c   12.28551100
_cell_angle_alpha   90.00000000
_cell_angle_beta   90.00000000
_cell_angle_gamma   90.00000000
_symmetry_Int_Tables_number   1
_chemical_formula_structural   Nd2Ho4MgCo17P12
_chemical_formula_sum   'Nd2 Ho4 Mg1 Co17 P12'
_cell_volume   487.36408641
_cell_formula_units_Z   1
loop_
 _symmetry_equiv_pos_site_id
 _symmetry_equiv_pos_as_xyz
  1  'x, y, z'
loop_
 _atom_site_type_symbol
 _atom_site_label
 _atom_site_symmetry_multiplicity
 _atom_site_fract_x
 _atom_site_fract_y
 _atom_site_fract_z
 _atom_site_occupancy
  Nd  Nd0  1  0.000000  0.500000  0.525910  1
  Nd  Nd1  1  0.500000  0.000000  0.477658  1
  Ho  Ho2  1  0.500000  0.821814  0.206000  1
  Ho  Ho3  1  0.500000  0.178186  0.206000  1
  Ho  Ho4  1  0.000000  0.682468  0.795751  1
  Ho  Ho5  1  0.000000  0.317532  0.795751  1
  Mg  Mg6  1  0.500000  0.500000  0.150740  1
  Co  Co7  1  0.000000  0.500000  0.986349  1
  Co  Co8  1  0.500000  0.000000  0.011174  1
  Co  Co9  1  0.500000  0.295167  0.431397  1
  Co  Co10  1  0.500000  0.704833  0.431397  1
  Co  Co11  1  0.000000  0.203162  0.571999  1
  Co  Co12  1  0.000000  0.796838  0.571999  1
  Co  Co13  1  0.500000  0.880219  0.711355  1
  Co  Co14  1  0.500000  0.119781  0.711355  1
  Co  Co15  1  0.000000  0.622892  0.290359  1
  Co  Co16  1  0.000000  0.377108  0.290359  1
  Co  Co17  1  0.500000  0.329067  0.993207  1
  Co  Co18  1  0.500000  0.670933  0.993207  1
  Co  Co19  1  0.000000  0.163447  0.001609  1
  Co  Co20  1  0.000000  0.836553  0.001609  1
  Co  Co21  1  0.000000  0.000000  0.841287  1
  Co  Co22  1  0.500000  0.500000  0.707956  1
  Co  Co23  1  0.000000  0.000000  0.292700  1
  P  P24  1  0.500000  0.306665  0.618939  1
  P  P25  1  0.500000  0.693335  0.618939  1
  P  P26  1  0.000000  0.192241  0.384094  1
  P  P27  1  0.000000  0.807759  0.384094  1
  P  P28  1  0.500000  0.500000  0.884662  1
  P  P29  1  0.000000  0.000000  0.115015  1
  P  P30  1  0.500000  0.848598  0.890980  1
  P  P31  1  0.500000  0.151402  0.890980  1
  P  P32  1  0.000000  0.663360  0.102984  1
  P  P33  1  0.000000  0.336640  0.102984  1
  P  P34  1  0.500000  0.500000  0.349801  1
  P  P35  1  0.000000  0.000000  0.659403  1
