# generated using pymatgen
data_Pr9Y(Ir2Ru)2
_symmetry_space_group_name_H-M   'P 1'
_cell_length_a   11.26525200
_cell_length_b   11.26525200
_cell_length_c   6.65069200
_cell_angle_alpha   90.00000000
_cell_angle_beta   90.00000000
_cell_angle_gamma   90.00000000
_symmetry_Int_Tables_number   1
_chemical_formula_structural   Pr9Y(Ir2Ru)2
_chemical_formula_sum   'Pr18 Y2 Ir8 Ru4'
_cell_volume   844.01207133
_cell_formula_units_Z   2
loop_
 _symmetry_equiv_pos_site_id
 _symmetry_equiv_pos_as_xyz
  1  'x, y, z'
loop_
 _atom_site_type_symbol
 _atom_site_label
 _atom_site_symmetry_multiplicity
 _atom_site_fract_x
 _atom_site_fract_y
 _atom_site_fract_z
 _atom_site_occupancy
  Pr  Pr0  1  0.294615  0.087288  0.382563  1
  Pr  Pr1  1  0.294615  0.912712  0.882563  1
  Pr  Pr2  1  0.705385  0.087288  0.882563  1
  Pr  Pr3  1  0.705385  0.912712  0.382563  1
  Pr  Pr4  1  0.587158  0.790077  0.881390  1
  Pr  Pr5  1  0.587158  0.209923  0.381390  1
  Pr  Pr6  1  0.412842  0.790077  0.381390  1
  Pr  Pr7  1  0.412842  0.209923  0.881390  1
  Pr  Pr8  1  0.209923  0.412842  0.618610  1
  Pr  Pr9  1  0.209923  0.587158  0.118610  1
  Pr  Pr10  1  0.790077  0.412842  0.118610  1
  Pr  Pr11  1  0.790077  0.587158  0.618610  1
  Pr  Pr12  1  0.912712  0.705385  0.117437  1
  Pr  Pr13  1  0.912712  0.294615  0.617437  1
  Pr  Pr14  1  0.087288  0.705385  0.617437  1
  Pr  Pr15  1  0.087288  0.294615  0.117437  1
  Pr  Pr16  1  0.000000  0.000000  0.500000  1
  Pr  Pr17  1  0.000000  0.000000  0.000000  1
  Y  Y18  1  0.500000  0.500000  0.000000  1
  Y  Y19  1  0.500000  0.500000  0.500000  1
  Ir  Ir20  1  0.846908  0.153092  0.250000  1
  Ir  Ir21  1  0.846908  0.846908  0.750000  1
  Ir  Ir22  1  0.153092  0.153092  0.750000  1
  Ir  Ir23  1  0.153092  0.846908  0.250000  1
  Ir  Ir24  1  0.647823  0.352177  0.750000  1
  Ir  Ir25  1  0.647823  0.647823  0.250000  1
  Ir  Ir26  1  0.352177  0.352177  0.250000  1
  Ir  Ir27  1  0.352177  0.647823  0.750000  1
  Ru  Ru28  1  0.500000  0.000000  0.118864  1
  Ru  Ru29  1  0.500000  0.000000  0.618864  1
  Ru  Ru30  1  0.000000  0.500000  0.881136  1
  Ru  Ru31  1  0.000000  0.500000  0.381136  1
