# generated using pymatgen
data_BaTh11(GePd)12
_symmetry_space_group_name_H-M   'P 1'
_cell_length_a   4.44583200
_cell_length_b   7.64871609
_cell_length_c   23.15585900
_cell_angle_alpha   90.06608475
_cell_angle_beta   90.00000000
_cell_angle_gamma   90.00000000
_symmetry_Int_Tables_number   1
_chemical_formula_structural   BaTh11(GePd)12
_chemical_formula_sum   'Ba1 Th11 Ge12 Pd12'
_cell_volume   787.41230205
_cell_formula_units_Z   1
loop_
 _symmetry_equiv_pos_site_id
 _symmetry_equiv_pos_as_xyz
  1  'x, y, z'
loop_
 _atom_site_type_symbol
 _atom_site_label
 _atom_site_symmetry_multiplicity
 _atom_site_fract_x
 _atom_site_fract_y
 _atom_site_fract_z
 _atom_site_occupancy
  Ba  Ba0  1  0.250000  0.748805  0.499990  1
  Th  Th1  1  0.250000  0.755261  0.331201  1
  Th  Th2  1  0.750000  0.252352  0.668632  1
  Th  Th3  1  0.750000  0.249924  0.164917  1
  Th  Th4  1  0.250000  0.749184  0.834195  1
  Th  Th5  1  0.250000  0.750563  0.165684  1
  Th  Th6  1  0.750000  0.251007  0.834958  1
  Th  Th7  1  0.750000  0.246434  0.331443  1
  Th  Th8  1  0.250000  0.745399  0.668745  1
  Th  Th9  1  0.250000  0.750622  0.999911  1
  Th  Th10  1  0.750000  0.250178  0.999936  1
  Th  Th11  1  0.750000  0.249729  0.500087  1
  Ge  Ge12  1  0.250000  0.084138  0.078824  1
  Ge  Ge13  1  0.750000  0.916281  0.919352  1
  Ge  Ge14  1  0.750000  0.581528  0.402802  1
  Ge  Ge15  1  0.250000  0.410743  0.585199  1
  Ge  Ge16  1  0.250000  0.085821  0.244384  1
  Ge  Ge17  1  0.750000  0.916960  0.755548  1
  Ge  Ge18  1  0.750000  0.582890  0.244582  1
  Ge  Ge19  1  0.250000  0.414348  0.755955  1
  Ge  Ge20  1  0.250000  0.088683  0.415975  1
  Ge  Ge21  1  0.750000  0.918043  0.596904  1
  Ge  Ge22  1  0.750000  0.584393  0.080539  1
  Ge  Ge23  1  0.250000  0.416477  0.921517  1
  Pd  Pd24  1  0.250000  0.418679  0.249795  1
  Pd  Pd25  1  0.750000  0.582486  0.749542  1
  Pd  Pd26  1  0.750000  0.917397  0.250025  1
  Pd  Pd27  1  0.250000  0.081368  0.750387  1
  Pd  Pd28  1  0.250000  0.416580  0.413352  1
  Pd  Pd29  1  0.750000  0.575865  0.591757  1
  Pd  Pd30  1  0.750000  0.917914  0.085152  1
  Pd  Pd31  1  0.250000  0.082261  0.915065  1
  Pd  Pd32  1  0.250000  0.418481  0.084526  1
  Pd  Pd33  1  0.750000  0.582673  0.914871  1
  Pd  Pd34  1  0.750000  0.923715  0.408284  1
  Pd  Pd35  1  0.250000  0.082820  0.585962  1
