# generated using pymatgen
data_Y2Al2CoNi5B2
_symmetry_space_group_name_H-M   'P 1'
_cell_length_a   5.19556500
_cell_length_b   5.20159408
_cell_length_c   6.78368400
_cell_angle_alpha   90.00000000
_cell_angle_beta   90.00000000
_cell_angle_gamma   119.96165890
_symmetry_Int_Tables_number   1
_chemical_formula_structural   Y2Al2CoNi5B2
_chemical_formula_sum   'Y2 Al2 Co1 Ni5 B2'
_cell_volume   158.83022143
_cell_formula_units_Z   1
loop_
 _symmetry_equiv_pos_site_id
 _symmetry_equiv_pos_as_xyz
  1  'x, y, z'
loop_
 _atom_site_type_symbol
 _atom_site_label
 _atom_site_symmetry_multiplicity
 _atom_site_fract_x
 _atom_site_fract_y
 _atom_site_fract_z
 _atom_site_occupancy
  Y  Y0  1  0.000000  0.000000  0.503145  1
  Y  Y1  1  0.000000  0.000000  0.010745  1
  Al  Al2  1  0.335626  0.671252  0.998675  1
  Al  Al3  1  0.664374  0.328748  0.998675  1
  Co  Co4  1  0.500000  0.000000  0.297608  1
  Ni  Ni5  1  0.500000  0.500000  0.294357  1
  Ni  Ni6  1  0.000000  0.500000  0.294357  1
  Ni  Ni7  1  0.500000  0.000000  0.700250  1
  Ni  Ni8  1  0.500000  0.500000  0.703954  1
  Ni  Ni9  1  0.000000  0.500000  0.703954  1
  B  B10  1  0.664531  0.329061  0.497140  1
  B  B11  1  0.335469  0.670939  0.497140  1
