# generated using pymatgen
data_TbDyHo2(Al8Pt3)3
_symmetry_space_group_name_H-M   'P 1'
_cell_length_a   7.53039128
_cell_length_b   7.55075939
_cell_length_c   13.16932703
_cell_angle_alpha   84.56904597
_cell_angle_beta   79.10418427
_cell_angle_gamma   59.97607521
_symmetry_Int_Tables_number   1
_chemical_formula_structural   TbDyHo2(Al8Pt3)3
_chemical_formula_sum   'Tb1 Dy1 Ho2 Al24 Pt9'
_cell_volume   636.64446915
_cell_formula_units_Z   1
loop_
 _symmetry_equiv_pos_site_id
 _symmetry_equiv_pos_as_xyz
  1  'x, y, z'
loop_
 _atom_site_type_symbol
 _atom_site_label
 _atom_site_symmetry_multiplicity
 _atom_site_fract_x
 _atom_site_fract_y
 _atom_site_fract_z
 _atom_site_occupancy
  Tb  Tb0  1  0.393370  0.168434  0.807926  1
  Dy  Dy1  1  0.265942  0.501505  0.192360  1
  Ho  Ho2  1  0.606611  0.831511  0.192187  1
  Ho  Ho3  1  0.734117  0.498531  0.807511  1
  Al  Al4  1  0.684503  0.833550  0.944418  1
  Al  Al5  1  0.315617  0.166163  0.055622  1
  Al  Al6  1  0.146824  0.832387  0.561347  1
  Al  Al7  1  0.853175  0.167619  0.438671  1
  Al  Al8  1  0.479688  0.166842  0.558684  1
  Al  Al9  1  0.520328  0.833143  0.441284  1
  Al  Al10  1  0.217224  0.165173  0.329929  1
  Al  Al11  1  0.782885  0.834597  0.670103  1
  Al  Al12  1  0.437919  0.506241  0.670140  1
  Al  Al13  1  0.562196  0.493899  0.329876  1
  Al  Al14  1  0.109540  0.160101  0.669323  1
  Al  Al15  1  0.890187  0.840012  0.330699  1
  Al  Al16  1  0.353373  0.499106  0.944465  1
  Al  Al17  1  0.646819  0.501025  0.055425  1
  Al  Al18  1  0.014927  0.167939  0.952963  1
  Al  Al19  1  0.984827  0.832199  0.047001  1
  Al  Al20  1  0.186736  0.498946  0.441279  1
  Al  Al21  1  0.813236  0.501057  0.558776  1
  Al  Al22  1  0.734411  0.163741  0.183360  1
  Al  Al23  1  0.265713  0.835969  0.816639  1
  Al  Al24  1  0.061649  0.631551  0.815417  1
  Al  Al25  1  0.938056  0.368614  0.184583  1
  Al  Al26  1  0.855033  0.041737  0.815989  1
  Al  Al27  1  0.145114  0.958413  0.184015  1
  Pt  Pt28  1  0.119902  0.492000  0.638881  1
  Pt  Pt29  1  0.879847  0.508134  0.361114  1
  Pt  Pt30  1  0.657133  0.171285  0.999950  1
  Pt  Pt31  1  0.342941  0.828670  0.000051  1
  Pt  Pt32  1  0.537921  0.166580  0.361140  1
  Pt  Pt33  1  0.462194  0.833170  0.638872  1
  Pt  Pt34  1  0.778824  0.175207  0.637354  1
  Pt  Pt35  1  0.221269  0.824920  0.362653  1
  Pt  Pt36  1  0.999951  0.500027  0.999994  1
