# generated using pymatgen
data_US2Cl3
_symmetry_space_group_name_H-M   'P 1'
_cell_length_a   8.42653606
_cell_length_b   6.96670758
_cell_length_c   15.32950456
_cell_angle_alpha   64.42681625
_cell_angle_beta   90.01264960
_cell_angle_gamma   90.01131364
_symmetry_Int_Tables_number   1
_chemical_formula_structural   US2Cl3
_chemical_formula_sum   'U4 S8 Cl12'
_cell_volume   811.76065038
_cell_formula_units_Z   4
loop_
 _symmetry_equiv_pos_site_id
 _symmetry_equiv_pos_as_xyz
  1  'x, y, z'
loop_
 _atom_site_type_symbol
 _atom_site_label
 _atom_site_symmetry_multiplicity
 _atom_site_fract_x
 _atom_site_fract_y
 _atom_site_fract_z
 _atom_site_occupancy
  U  U0  1  0.624701  0.737605  0.983368  1
  U  U1  1  0.124625  0.262451  0.516599  1
  U  U2  1  0.375299  0.262395  0.016632  1
  U  U3  1  0.875375  0.737549  0.483401  1
  S  S4  1  0.701876  0.325277  0.046619  1
  S  S5  1  0.298124  0.674723  0.953381  1
  S  S6  1  0.798126  0.325217  0.546599  1
  S  S7  1  0.201874  0.674783  0.453401  1
  S  S8  1  0.047345  0.652876  0.355746  1
  S  S9  1  0.547413  0.347132  0.144268  1
  S  S10  1  0.952655  0.347124  0.644254  1
  S  S11  1  0.452587  0.652868  0.855732  1
  Cl  Cl12  1  0.669295  0.772950  0.360262  1
  Cl  Cl13  1  0.830715  0.772890  0.860252  1
  Cl  Cl14  1  0.169285  0.227110  0.139748  1
  Cl  Cl15  1  0.330705  0.227050  0.639738  1
  Cl  Cl16  1  0.929433  0.149931  0.386872  1
  Cl  Cl17  1  0.429416  0.850059  0.113143  1
  Cl  Cl18  1  0.070567  0.850069  0.613128  1
  Cl  Cl19  1  0.570584  0.149941  0.886857  1
  Cl  Cl20  1  0.664287  0.774063  0.589278  1
  Cl  Cl21  1  0.164188  0.225908  0.910699  1
  Cl  Cl22  1  0.335713  0.225937  0.410722  1
  Cl  Cl23  1  0.835812  0.774092  0.089301  1
