# generated using pymatgen
data_Lu2SiB2IrRh4
_symmetry_space_group_name_H-M   'P 1'
_cell_length_a   9.28587600
_cell_length_b   9.28587600
_cell_length_c   3.21831600
_cell_angle_alpha   90.00000000
_cell_angle_beta   90.00000000
_cell_angle_gamma   90.00000000
_symmetry_Int_Tables_number   1
_chemical_formula_structural   Lu2SiB2IrRh4
_chemical_formula_sum   'Lu4 Si2 B4 Ir2 Rh8'
_cell_volume   277.50732064
_cell_formula_units_Z   2
loop_
 _symmetry_equiv_pos_site_id
 _symmetry_equiv_pos_as_xyz
  1  'x, y, z'
loop_
 _atom_site_type_symbol
 _atom_site_label
 _atom_site_symmetry_multiplicity
 _atom_site_fract_x
 _atom_site_fract_y
 _atom_site_fract_z
 _atom_site_occupancy
  Lu  Lu0  1  0.176497  0.676497  0.000000  1
  Lu  Lu1  1  0.676497  0.823503  0.000000  1
  Lu  Lu2  1  0.323503  0.176497  0.000000  1
  Lu  Lu3  1  0.823503  0.323503  0.000000  1
  Si  Si4  1  0.000000  0.000000  0.000000  1
  Si  Si5  1  0.500000  0.500000  0.000000  1
  B  B6  1  0.379151  0.879151  0.000000  1
  B  B7  1  0.879151  0.620849  0.000000  1
  B  B8  1  0.120849  0.379151  0.000000  1
  B  B9  1  0.620849  0.120849  0.000000  1
  Ir  Ir10  1  0.000000  0.500000  0.500000  1
  Ir  Ir11  1  0.500000  0.000000  0.500000  1
  Rh  Rh12  1  0.286717  0.430493  0.500000  1
  Rh  Rh13  1  0.713284  0.569507  0.500000  1
  Rh  Rh14  1  0.569507  0.286717  0.500000  1
  Rh  Rh15  1  0.430493  0.713284  0.500000  1
  Rh  Rh16  1  0.930493  0.786716  0.500000  1
  Rh  Rh17  1  0.786716  0.069507  0.500000  1
  Rh  Rh18  1  0.213283  0.930493  0.500000  1
  Rh  Rh19  1  0.069507  0.213283  0.500000  1
