# generated using pymatgen
data_Ca7Sn2HgN2
_symmetry_space_group_name_H-M   'P 1'
_cell_length_a   12.32447904
_cell_length_b   12.32447898
_cell_length_c   4.89026300
_cell_angle_alpha   90.00000000
_cell_angle_beta   90.00000000
_cell_angle_gamma   156.81014512
_symmetry_Int_Tables_number   1
_chemical_formula_structural   Ca7Sn2HgN2
_chemical_formula_sum   'Ca7 Sn2 Hg1 N2'
_cell_volume   292.49744661
_cell_formula_units_Z   1
loop_
 _symmetry_equiv_pos_site_id
 _symmetry_equiv_pos_as_xyz
  1  'x, y, z'
loop_
 _atom_site_type_symbol
 _atom_site_label
 _atom_site_symmetry_multiplicity
 _atom_site_fract_x
 _atom_site_fract_y
 _atom_site_fract_z
 _atom_site_occupancy
  Ca  Ca0  1  0.903189  0.096810  0.000000  1
  Ca  Ca1  1  0.697032  0.302967  0.000000  1
  Ca  Ca2  1  0.500782  0.499218  0.000000  1
  Ca  Ca3  1  0.300881  0.699118  0.000000  1
  Ca  Ca4  1  0.099585  0.900414  0.000000  1
  Ca  Ca5  1  0.599564  0.400436  0.500001  1
  Ca  Ca6  1  0.401861  0.598139  0.500001  1
  Sn  Sn7  1  0.000000  0.000000  0.500001  1
  Sn  Sn8  1  0.203150  0.796849  0.500001  1
  Hg  Hg9  1  0.796338  0.203661  0.500001  1
  N  N10  1  0.601563  0.398436  0.000000  1
  N  N11  1  0.396050  0.603949  0.000000  1
