# generated using pymatgen
data_Tb3Ga4Co6Ni3B2
_symmetry_space_group_name_H-M   'P 1'
_cell_length_a   5.20087300
_cell_length_b   5.20087140
_cell_length_c   10.46423800
_cell_angle_alpha   90.00000000
_cell_angle_beta   90.00000000
_cell_angle_gamma   120.00001656
_symmetry_Int_Tables_number   1
_chemical_formula_structural   Tb3Ga4Co6Ni3B2
_chemical_formula_sum   'Tb3 Ga4 Co6 Ni3 B2'
_cell_volume   245.12665104
_cell_formula_units_Z   1
loop_
 _symmetry_equiv_pos_site_id
 _symmetry_equiv_pos_as_xyz
  1  'x, y, z'
loop_
 _atom_site_type_symbol
 _atom_site_label
 _atom_site_symmetry_multiplicity
 _atom_site_fract_x
 _atom_site_fract_y
 _atom_site_fract_z
 _atom_site_occupancy
  Tb  Tb0  1  0.000000  0.000000  0.677285  1
  Tb  Tb1  1  0.000000  0.000000  0.322715  1
  Tb  Tb2  1  0.000000  0.000000  0.000000  1
  Ga  Ga3  1  0.666667  0.333333  0.685900  1
  Ga  Ga4  1  0.333333  0.666667  0.685900  1
  Ga  Ga5  1  0.333333  0.666667  0.314100  1
  Ga  Ga6  1  0.666667  0.333333  0.314100  1
  Co  Co7  1  0.500000  0.500000  0.870901  1
  Co  Co8  1  0.500000  0.000000  0.870901  1
  Co  Co9  1  0.000000  0.500000  0.870901  1
  Co  Co10  1  0.500000  0.500000  0.129099  1
  Co  Co11  1  0.500000  0.000000  0.129099  1
  Co  Co12  1  0.000000  0.500000  0.129099  1
  Ni  Ni13  1  0.500000  0.500000  0.500000  1
  Ni  Ni14  1  0.500000  0.000000  0.500000  1
  Ni  Ni15  1  0.000000  0.500000  0.500000  1
  B  B16  1  0.666667  0.333333  0.000000  1
  B  B17  1  0.333333  0.666667  0.000000  1
