# generated using pymatgen
data_YHo15In6FePt
_symmetry_space_group_name_H-M   'P 1'
_cell_length_a   10.37316618
_cell_length_b   10.38519849
_cell_length_c   7.01941707
_cell_angle_alpha   90.02345364
_cell_angle_beta   90.00493195
_cell_angle_gamma   119.95698501
_symmetry_Int_Tables_number   1
_chemical_formula_structural   YHo15In6FePt
_chemical_formula_sum   'Y1 Ho15 In6 Fe1 Pt1'
_cell_volume   655.15767927
_cell_formula_units_Z   1
loop_
 _symmetry_equiv_pos_site_id
 _symmetry_equiv_pos_as_xyz
  1  'x, y, z'
loop_
 _atom_site_type_symbol
 _atom_site_label
 _atom_site_symmetry_multiplicity
 _atom_site_fract_x
 _atom_site_fract_y
 _atom_site_fract_z
 _atom_site_occupancy
  Y  Y0  1  0.536329  0.072589  0.505391  1
  Ho  Ho1  1  0.925644  0.462725  0.505326  1
  Ho  Ho2  1  0.537065  0.462716  0.505366  1
  Ho  Ho3  1  0.469277  0.938572  0.006974  1
  Ho  Ho4  1  0.060839  0.530638  0.007411  1
  Ho  Ho5  1  0.469735  0.530677  0.007375  1
  Ho  Ho6  1  0.175298  0.350645  0.711716  1
  Ho  Ho7  1  0.649628  0.824320  0.711562  1
  Ho  Ho8  1  0.174613  0.824305  0.711591  1
  Ho  Ho9  1  0.822462  0.644933  0.215578  1
  Ho  Ho10  1  0.355909  0.178386  0.214287  1
  Ho  Ho11  1  0.822520  0.178387  0.214376  1
  Ho  Ho12  1  0.666889  0.333762  0.895042  1
  Ho  Ho13  1  0.332907  0.665900  0.383401  1
  Ho  Ho14  1  0.000130  0.000328  0.491946  1
  Ho  Ho15  1  0.999881  0.999793  0.992459  1
  In  In16  1  0.836434  0.672990  0.755278  1
  In  In17  1  0.326330  0.163043  0.755046  1
  In  In18  1  0.836618  0.162646  0.755253  1
  In  In19  1  0.163326  0.326101  0.251795  1
  In  In20  1  0.674030  0.837591  0.251434  1
  In  In21  1  0.163278  0.837475  0.251287  1
  Fe  Fe22  1  0.667497  0.334825  0.277661  1
  Pt  Pt23  1  0.333362  0.666652  0.780484  1
