# generated using pymatgen
data_V10B4AsSe
_symmetry_space_group_name_H-M   'P 1'
_cell_length_a   6.79732356
_cell_length_b   6.79732431
_cell_length_c   6.79732450
_cell_angle_alpha   129.48223321
_cell_angle_beta   129.48223572
_cell_angle_gamma   74.23587299
_symmetry_Int_Tables_number   1
_chemical_formula_structural   V10B4AsSe
_chemical_formula_sum   'V10 B4 As1 Se1'
_cell_volume   182.39418292
_cell_formula_units_Z   1
loop_
 _symmetry_equiv_pos_site_id
 _symmetry_equiv_pos_as_xyz
  1  'x, y, z'
loop_
 _atom_site_type_symbol
 _atom_site_label
 _atom_site_symmetry_multiplicity
 _atom_site_fract_x
 _atom_site_fract_y
 _atom_site_fract_z
 _atom_site_occupancy
  V  V0  1  0.532122  0.696512  0.500385  1
  V  V1  1  0.031737  0.532122  0.835610  1
  V  V2  1  0.696512  0.196127  0.164390  1
  V  V3  1  0.967878  0.468263  0.164390  1
  V  V4  1  0.196127  0.031737  0.499615  1
  V  V5  1  0.468263  0.303873  0.500385  1
  V  V6  1  0.803488  0.967878  0.499615  1
  V  V7  1  0.303873  0.803488  0.835610  1
  V  V8  1  0.001032  0.001032  0.000000  1
  V  V9  1  0.498968  0.498968  0.000000  1
  B  B10  1  0.615435  0.115435  0.730870  1
  B  B11  1  0.115435  0.384565  0.500000  1
  B  B12  1  0.884565  0.615435  0.500000  1
  B  B13  1  0.384565  0.884565  0.269130  1
  As  As14  1  0.250000  0.250000  0.000000  1
  Se  Se15  1  0.750000  0.750000  0.000000  1
