# generated using pymatgen
data_Y5Th2Sn23Ru6
_symmetry_space_group_name_H-M   'P 1'
_cell_length_a   9.89313867
_cell_length_b   9.89256473
_cell_length_c   10.15512741
_cell_angle_alpha   89.99999796
_cell_angle_beta   90.14234501
_cell_angle_gamma   119.99808482
_symmetry_Int_Tables_number   1
_chemical_formula_structural   Y5Th2Sn23Ru6
_chemical_formula_sum   'Y5 Th2 Sn23 Ru6'
_cell_volume   860.72734254
_cell_formula_units_Z   1
loop_
 _symmetry_equiv_pos_site_id
 _symmetry_equiv_pos_as_xyz
  1  'x, y, z'
loop_
 _atom_site_type_symbol
 _atom_site_label
 _atom_site_symmetry_multiplicity
 _atom_site_fract_x
 _atom_site_fract_y
 _atom_site_fract_z
 _atom_site_occupancy
  Y  Y0  1  0.482393  0.965051  0.304506  1
  Y  Y1  1  0.482393  0.517342  0.304506  1
  Y  Y2  1  0.966094  0.483047  0.694896  1
  Y  Y3  1  0.517170  0.033543  0.696039  1
  Y  Y4  1  0.517170  0.483627  0.696039  1
  Th  Th5  1  0.999771  0.999885  0.998049  1
  Th  Th6  1  0.033114  0.516557  0.303505  1
  Sn  Sn7  1  0.998540  0.999270  0.500402  1
  Sn  Sn8  1  0.120177  0.885534  0.275872  1
  Sn  Sn9  1  0.763580  0.881791  0.275585  1
  Sn  Sn10  1  0.120177  0.234643  0.275872  1
  Sn  Sn11  1  0.880952  0.118158  0.724358  1
  Sn  Sn12  1  0.237649  0.118824  0.724102  1
  Sn  Sn13  1  0.880952  0.762793  0.724358  1
  Sn  Sn14  1  0.351027  0.000447  0.999701  1
  Sn  Sn15  1  0.649358  0.649130  0.000399  1
  Sn  Sn16  1  0.999528  0.350216  0.997507  1
  Sn  Sn17  1  0.351027  0.350580  0.999701  1
  Sn  Sn18  1  0.999528  0.649312  0.997507  1
  Sn  Sn19  1  0.649358  0.000228  0.000399  1
  Sn  Sn20  1  0.775756  0.561114  0.461509  1
  Sn  Sn21  1  0.775756  0.214643  0.461509  1
  Sn  Sn22  1  0.438559  0.219280  0.458593  1
  Sn  Sn23  1  0.219875  0.437973  0.543637  1
  Sn  Sn24  1  0.219875  0.781901  0.543637  1
  Sn  Sn25  1  0.561093  0.780546  0.541554  1
  Sn  Sn26  1  0.663640  0.331819  0.179043  1
  Sn  Sn27  1  0.333500  0.666750  0.819500  1
  Sn  Sn28  1  0.666782  0.333390  0.875128  1
  Sn  Sn29  1  0.339329  0.669665  0.120952  1
  Ru  Ru30  1  0.168333  0.832043  0.800768  1
  Ru  Ru31  1  0.663083  0.831542  0.800567  1
  Ru  Ru32  1  0.168333  0.336291  0.800768  1
  Ru  Ru33  1  0.833581  0.171981  0.200291  1
  Ru  Ru34  1  0.338968  0.169484  0.198952  1
  Ru  Ru35  1  0.833581  0.661600  0.200291  1
