# generated using pymatgen
data_Tm14Lu6SnBi11
_symmetry_space_group_name_H-M   'P 1'
_cell_length_a   8.13368702
_cell_length_b   9.40879040
_cell_length_c   11.85804602
_cell_angle_alpha   89.96875072
_cell_angle_beta   89.81519066
_cell_angle_gamma   89.95488629
_symmetry_Int_Tables_number   1
_chemical_formula_structural   Tm14Lu6SnBi11
_chemical_formula_sum   'Tm14 Lu6 Sn1 Bi11'
_cell_volume   907.46926366
_cell_formula_units_Z   1
loop_
 _symmetry_equiv_pos_site_id
 _symmetry_equiv_pos_as_xyz
  1  'x, y, z'
loop_
 _atom_site_type_symbol
 _atom_site_label
 _atom_site_symmetry_multiplicity
 _atom_site_fract_x
 _atom_site_fract_y
 _atom_site_fract_z
 _atom_site_occupancy
  Tm  Tm0  1  0.524878  0.250225  0.988504  1
  Tm  Tm1  1  0.352733  0.250063  0.287164  1
  Tm  Tm2  1  0.647671  0.750430  0.717509  1
  Tm  Tm3  1  0.146952  0.749872  0.782803  1
  Tm  Tm4  1  0.854322  0.250872  0.216235  1
  Tm  Tm5  1  0.191560  0.250139  0.779171  1
  Tm  Tm6  1  0.811014  0.749810  0.217321  1
  Tm  Tm7  1  0.312215  0.750252  0.282569  1
  Tm  Tm8  1  0.683585  0.249990  0.715109  1
  Tm  Tm9  1  0.808393  0.565846  0.941299  1
  Tm  Tm10  1  0.690104  0.068655  0.442254  1
  Tm  Tm11  1  0.191572  0.434301  0.059153  1
  Tm  Tm12  1  0.688936  0.431397  0.442411  1
  Tm  Tm13  1  0.307260  0.560944  0.559303  1
  Lu  Lu14  1  0.029933  0.250455  0.510390  1
  Lu  Lu15  1  0.977428  0.749717  0.489263  1
  Lu  Lu16  1  0.477047  0.749956  0.011320  1
  Lu  Lu17  1  0.193582  0.067416  0.059921  1
  Lu  Lu18  1  0.806461  0.932464  0.940704  1
  Lu  Lu19  1  0.306427  0.937710  0.559373  1
  Sn  Sn20  1  0.404359  0.248016  0.542495  1
  Bi  Bi21  1  0.595304  0.750473  0.457722  1
  Bi  Bi22  1  0.096462  0.752392  0.043095  1
  Bi  Bi23  1  0.906262  0.247577  0.955024  1
  Bi  Bi24  1  0.063280  0.002912  0.324964  1
  Bi  Bi25  1  0.935262  0.996930  0.674061  1
  Bi  Bi26  1  0.434894  0.995286  0.826075  1
  Bi  Bi27  1  0.934665  0.503104  0.674125  1
  Bi  Bi28  1  0.564200  0.004395  0.174722  1
  Bi  Bi29  1  0.064044  0.497578  0.325100  1
  Bi  Bi30  1  0.564577  0.495809  0.174742  1
  Bi  Bi31  1  0.434618  0.505014  0.826098  1
