# generated using pymatgen
data_CeDy(LuIr)3
_symmetry_space_group_name_H-M   'P 1'
_cell_length_a   10.63635400
_cell_length_b   10.65767100
_cell_length_c   6.19723400
_cell_angle_alpha   90.00000000
_cell_angle_beta   90.00000000
_cell_angle_gamma   90.00000000
_symmetry_Int_Tables_number   1
_chemical_formula_structural   CeDy(LuIr)3
_chemical_formula_sum   'Ce4 Dy4 Lu12 Ir12'
_cell_volume   702.51077141
_cell_formula_units_Z   4
loop_
 _symmetry_equiv_pos_site_id
 _symmetry_equiv_pos_as_xyz
  1  'x, y, z'
loop_
 _atom_site_type_symbol
 _atom_site_label
 _atom_site_symmetry_multiplicity
 _atom_site_fract_x
 _atom_site_fract_y
 _atom_site_fract_z
 _atom_site_occupancy
  Ce  Ce0  1  0.000000  0.000000  0.497868  1
  Ce  Ce1  1  0.000000  0.000000  0.997868  1
  Ce  Ce2  1  0.500000  0.500000  0.997790  1
  Ce  Ce3  1  0.500000  0.500000  0.497790  1
  Dy  Dy4  1  0.909523  0.709363  0.132942  1
  Dy  Dy5  1  0.909523  0.290637  0.632942  1
  Dy  Dy6  1  0.090477  0.709363  0.632942  1
  Dy  Dy7  1  0.090477  0.290637  0.132942  1
  Lu  Lu8  1  0.294540  0.086493  0.368765  1
  Lu  Lu9  1  0.294540  0.913507  0.868765  1
  Lu  Lu10  1  0.705460  0.086493  0.868765  1
  Lu  Lu11  1  0.705460  0.913507  0.368765  1
  Lu  Lu12  1  0.587419  0.792866  0.869321  1
  Lu  Lu13  1  0.587419  0.207134  0.369321  1
  Lu  Lu14  1  0.412581  0.792866  0.369321  1
  Lu  Lu15  1  0.412581  0.207134  0.869321  1
  Lu  Lu16  1  0.207454  0.411601  0.632029  1
  Lu  Lu17  1  0.207454  0.588399  0.132029  1
  Lu  Lu18  1  0.792546  0.411601  0.132029  1
  Lu  Lu19  1  0.792546  0.588399  0.632029  1
  Ir  Ir20  1  0.840100  0.154603  0.245631  1
  Ir  Ir21  1  0.840100  0.845397  0.745631  1
  Ir  Ir22  1  0.159900  0.154603  0.745631  1
  Ir  Ir23  1  0.159900  0.845397  0.245631  1
  Ir  Ir24  1  0.653413  0.343966  0.752797  1
  Ir  Ir25  1  0.653413  0.656034  0.252797  1
  Ir  Ir26  1  0.346587  0.343966  0.252797  1
  Ir  Ir27  1  0.346587  0.656034  0.752797  1
  Ir  Ir28  1  0.500000  0.000000  0.118185  1
  Ir  Ir29  1  0.500000  0.000000  0.618185  1
  Ir  Ir30  1  0.000000  0.500000  0.883185  1
  Ir  Ir31  1  0.000000  0.500000  0.383185  1
