# generated using pymatgen
data_Tb3Lu5Hf9Si16Mo3
_symmetry_space_group_name_H-M   'P 1'
_cell_length_a   7.16630796
_cell_length_b   7.16446406
_cell_length_c   13.09127121
_cell_angle_alpha   90.06650985
_cell_angle_beta   90.10783862
_cell_angle_gamma   90.09880767
_symmetry_Int_Tables_number   1
_chemical_formula_structural   Tb3Lu5Hf9Si16Mo3
_chemical_formula_sum   'Tb3 Lu5 Hf9 Si16 Mo3'
_cell_volume   672.13929529
_cell_formula_units_Z   1
loop_
 _symmetry_equiv_pos_site_id
 _symmetry_equiv_pos_as_xyz
  1  'x, y, z'
loop_
 _atom_site_type_symbol
 _atom_site_label
 _atom_site_symmetry_multiplicity
 _atom_site_fract_x
 _atom_site_fract_y
 _atom_site_fract_z
 _atom_site_occupancy
  Tb  Tb0  1  0.497345  0.153463  0.532267  1
  Tb  Tb1  1  0.344327  0.994810  0.785784  1
  Tb  Tb2  1  0.655043  0.001663  0.284209  1
  Lu  Lu3  1  0.999362  0.345748  0.214979  1
  Lu  Lu4  1  0.003664  0.655029  0.715095  1
  Lu  Lu5  1  0.153391  0.500818  0.463770  1
  Lu  Lu6  1  0.498700  0.846371  0.036028  1
  Lu  Lu7  1  0.847183  0.501159  0.968255  1
  Hf  Hf8  1  0.677214  0.324485  0.750371  1
  Hf  Hf9  1  0.144578  0.992890  0.373253  1
  Hf  Hf10  1  0.856597  0.003955  0.877541  1
  Hf  Hf11  1  0.506091  0.647652  0.621735  1
  Hf  Hf12  1  0.353459  0.495337  0.878895  1
  Hf  Hf13  1  0.492642  0.355183  0.125552  1
  Hf  Hf14  1  0.646003  0.506164  0.373188  1
  Hf  Hf15  1  0.996812  0.144427  0.623182  1
  Hf  Hf16  1  0.005510  0.855164  0.125600  1
  Si  Si17  1  0.355996  0.298907  0.317222  1
  Si  Si18  1  0.643353  0.703376  0.818710  1
  Si  Si19  1  0.201623  0.856803  0.566238  1
  Si  Si20  1  0.139484  0.793304  0.933961  1
  Si  Si21  1  0.796182  0.141999  0.068594  1
  Si  Si22  1  0.862726  0.206777  0.431938  1
  Si  Si23  1  0.293263  0.362655  0.682593  1
  Si  Si24  1  0.704259  0.640133  0.180496  1
  Si  Si25  1  0.295164  0.052478  0.183340  1
  Si  Si26  1  0.706841  0.945279  0.682719  1
  Si  Si27  1  0.445742  0.793478  0.432255  1
  Si  Si28  1  0.201605  0.551264  0.067702  1
  Si  Si29  1  0.549766  0.202106  0.936903  1
  Si  Si30  1  0.800584  0.453826  0.563827  1
  Si  Si31  1  0.051760  0.298518  0.818189  1
  Si  Si32  1  0.949643  0.701121  0.315252  1
  Mo  Mo33  1  0.176277  0.176562  0.001957  1
  Mo  Mo34  1  0.825779  0.821588  0.498806  1
  Mo  Mo35  1  0.322033  0.675506  0.249594  1
