# generated using pymatgen
data_Na2NbH7
_symmetry_space_group_name_H-M   'P 1'
_cell_length_a   6.21030306
_cell_length_b   6.33649343
_cell_length_c   6.44195773
_cell_angle_alpha   29.82486423
_cell_angle_beta   129.81431018
_cell_angle_gamma   119.76289612
_symmetry_Int_Tables_number   1
_chemical_formula_structural   Na2NbH7
_chemical_formula_sum   'Na2 Nb1 H7'
_cell_volume   95.67899128
_cell_formula_units_Z   1
loop_
 _symmetry_equiv_pos_site_id
 _symmetry_equiv_pos_as_xyz
  1  'x, y, z'
loop_
 _atom_site_type_symbol
 _atom_site_label
 _atom_site_symmetry_multiplicity
 _atom_site_fract_x
 _atom_site_fract_y
 _atom_site_fract_z
 _atom_site_occupancy
  Na  Na0  1  0.999896  0.172327  0.136037  1
  Na  Na1  1  0.365923  0.761281  0.270441  1
  Nb  Nb2  1  0.663522  0.439801  0.232131  1
  H  H3  1  0.031394  0.384838  0.593228  1
  H  H4  1  0.844808  0.871342  0.780370  1
  H  H5  1  0.655814  0.297170  0.053612  1
  H  H6  1  0.660197  0.108727  0.736890  1
  H  H7  1  0.454288  0.968268  0.479142  1
  H  H8  1  0.338021  0.602281  0.040952  1
  H  H9  1  0.721915  0.675276  0.326626  1
