# generated using pymatgen
data_CsEu2Nb3O10
_symmetry_space_group_name_H-M   'P 1'
_cell_length_a   4.00424000
_cell_length_b   4.00424000
_cell_length_c   15.52186800
_cell_angle_alpha   90.00000000
_cell_angle_beta   90.00000000
_cell_angle_gamma   90.00000000
_symmetry_Int_Tables_number   1
_chemical_formula_structural   CsEu2Nb3O10
_chemical_formula_sum   'Cs1 Eu2 Nb3 O10'
_cell_volume   248.87666881
_cell_formula_units_Z   1
loop_
 _symmetry_equiv_pos_site_id
 _symmetry_equiv_pos_as_xyz
  1  'x, y, z'
loop_
 _atom_site_type_symbol
 _atom_site_label
 _atom_site_symmetry_multiplicity
 _atom_site_fract_x
 _atom_site_fract_y
 _atom_site_fract_z
 _atom_site_occupancy
  Cs  Cs0  1  0.500000  0.500000  0.500000  1
  Eu  Eu1  1  0.500000  0.500000  0.852695  1
  Eu  Eu2  1  0.500000  0.500000  0.147305  1
  Nb  Nb3  1  0.000000  0.000000  0.000000  1
  Nb  Nb4  1  0.000000  0.000000  0.280605  1
  Nb  Nb5  1  0.000000  0.000000  0.719395  1
  O  O6  1  0.000000  0.000000  0.603652  1
  O  O7  1  0.000000  0.000000  0.396348  1
  O  O8  1  0.500000  0.000000  0.746939  1
  O  O9  1  0.000000  0.500000  0.746939  1
  O  O10  1  0.500000  0.000000  0.253061  1
  O  O11  1  0.000000  0.500000  0.253061  1
  O  O12  1  0.000000  0.500000  0.000000  1
  O  O13  1  0.500000  0.000000  0.000000  1
  O  O14  1  0.000000  0.000000  0.128332  1
  O  O15  1  0.000000  0.000000  0.871668  1
