# generated using pymatgen
data_Ho6Fe4CoNi13P12
_symmetry_space_group_name_H-M   'P 1'
_cell_length_a   3.73734800
_cell_length_b   10.49223343
_cell_length_c   12.26232000
_cell_angle_alpha   89.92090668
_cell_angle_beta   90.00000000
_cell_angle_gamma   90.00000000
_symmetry_Int_Tables_number   1
_chemical_formula_structural   Ho6Fe4CoNi13P12
_chemical_formula_sum   'Ho6 Fe4 Co1 Ni13 P12'
_cell_volume   480.84346111
_cell_formula_units_Z   1
loop_
 _symmetry_equiv_pos_site_id
 _symmetry_equiv_pos_as_xyz
  1  'x, y, z'
loop_
 _atom_site_type_symbol
 _atom_site_label
 _atom_site_symmetry_multiplicity
 _atom_site_fract_x
 _atom_site_fract_y
 _atom_site_fract_z
 _atom_site_occupancy
  Ho  Ho0  1  0.000000  0.500522  0.520918  1
  Ho  Ho1  1  0.500000  0.999336  0.479192  1
  Ho  Ho2  1  0.500000  0.816797  0.205711  1
  Ho  Ho3  1  0.500000  0.181872  0.206212  1
  Ho  Ho4  1  0.000000  0.683868  0.794139  1
  Ho  Ho5  1  0.000000  0.317246  0.793462  1
  Fe  Fe6  1  0.000000  0.500400  0.986027  1
  Fe  Fe7  1  0.500000  0.001019  0.014303  1
  Fe  Fe8  1  0.500000  0.499712  0.154641  1
  Fe  Fe9  1  0.000000  0.001260  0.846496  1
  Co  Co10  1  0.000000  0.831559  0.006712  1
  Ni  Ni11  1  0.500000  0.301155  0.428621  1
  Ni  Ni12  1  0.500000  0.698600  0.428834  1
  Ni  Ni13  1  0.000000  0.198287  0.570955  1
  Ni  Ni14  1  0.000000  0.801657  0.571419  1
  Ni  Ni15  1  0.500000  0.879576  0.712692  1
  Ni  Ni16  1  0.500000  0.119924  0.710745  1
  Ni  Ni17  1  0.000000  0.620240  0.287954  1
  Ni  Ni18  1  0.000000  0.379819  0.289440  1
  Ni  Ni19  1  0.500000  0.331013  0.992214  1
  Ni  Ni20  1  0.500000  0.667833  0.992160  1
  Ni  Ni21  1  0.000000  0.169679  0.008172  1
  Ni  Ni22  1  0.500000  0.499805  0.701807  1
  Ni  Ni23  1  0.000000  0.999811  0.297372  1
  P  P24  1  0.500000  0.314062  0.614574  1
  P  P25  1  0.500000  0.686170  0.615141  1
  P  P26  1  0.000000  0.185369  0.384898  1
  P  P27  1  0.000000  0.813708  0.384769  1
  P  P28  1  0.500000  0.499622  0.879988  1
  P  P29  1  0.000000  0.997730  0.118130  1
  P  P30  1  0.500000  0.850189  0.895054  1
  P  P31  1  0.500000  0.149075  0.891474  1
  P  P32  1  0.000000  0.651636  0.106422  1
  P  P33  1  0.000000  0.351558  0.108738  1
  P  P34  1  0.500000  0.500232  0.343384  1
  P  P35  1  0.000000  0.999659  0.657232  1
