# generated using pymatgen
data_Rb7NbTl3P5
_symmetry_space_group_name_H-M   'P 1'
_cell_length_a   8.50945215
_cell_length_b   9.42302257
_cell_length_c   14.25220000
_cell_angle_alpha   85.70278802
_cell_angle_beta   85.04344230
_cell_angle_gamma   86.73594776
_symmetry_Int_Tables_number   1
_chemical_formula_structural   Rb7NbTl3P5
_chemical_formula_sum   'Rb14 Nb2 Tl6 P10'
_cell_volume   1133.86936319
_cell_formula_units_Z   2
loop_
 _symmetry_equiv_pos_site_id
 _symmetry_equiv_pos_as_xyz
  1  'x, y, z'
loop_
 _atom_site_type_symbol
 _atom_site_label
 _atom_site_symmetry_multiplicity
 _atom_site_fract_x
 _atom_site_fract_y
 _atom_site_fract_z
 _atom_site_occupancy
  Rb  Rb0  1  0.841967  0.349522  0.660908  1
  Rb  Rb1  1  0.823067  0.800858  0.138505  1
  Rb  Rb2  1  0.237719  0.011537  0.470366  1
  Rb  Rb3  1  0.269494  0.254966  0.252159  1
  Rb  Rb4  1  0.734268  0.501307  0.973722  1
  Rb  Rb5  1  0.265732  0.498693  0.026278  1
  Rb  Rb6  1  0.674157  0.082040  0.888304  1
  Rb  Rb7  1  0.762281  0.988463  0.529634  1
  Rb  Rb8  1  0.730506  0.745034  0.747841  1
  Rb  Rb9  1  0.339867  0.346785  0.596630  1
  Rb  Rb10  1  0.158033  0.650478  0.339092  1
  Rb  Rb11  1  0.176933  0.199142  0.861495  1
  Rb  Rb12  1  0.325843  0.917960  0.111696  1
  Rb  Rb13  1  0.660133  0.653215  0.403370  1
  Nb  Nb14  1  0.353406  0.605295  0.774226  1
  Nb  Nb15  1  0.646594  0.394705  0.225774  1
  Tl  Tl16  1  0.052659  0.820950  0.877046  1
  Tl  Tl17  1  0.947341  0.179050  0.122954  1
  Tl  Tl18  1  0.368979  0.962588  0.701387  1
  Tl  Tl19  1  0.086557  0.717652  0.614901  1
  Tl  Tl20  1  0.913443  0.282348  0.385099  1
  Tl  Tl21  1  0.631021  0.037412  0.298613  1
  P  P22  1  0.922308  0.451134  0.208945  1
  P  P23  1  0.614511  0.202277  0.122540  1
  P  P24  1  0.077692  0.548866  0.791055  1
  P  P25  1  0.582057  0.299296  0.388678  1
  P  P26  1  0.417943  0.700704  0.611322  1
  P  P27  1  0.021406  0.004252  0.699724  1
  P  P28  1  0.510798  0.400031  0.810241  1
  P  P29  1  0.489202  0.599969  0.189759  1
  P  P30  1  0.385489  0.797723  0.877460  1
  P  P31  1  0.978594  0.995748  0.300276  1
