# generated using pymatgen
data_YFeCo(PRh)3
_symmetry_space_group_name_H-M   'P 1'
_cell_length_a   3.80449400
_cell_length_b   10.64665400
_cell_length_c   12.28083800
_cell_angle_alpha   90.00000000
_cell_angle_beta   90.00000000
_cell_angle_gamma   90.00000000
_symmetry_Int_Tables_number   1
_chemical_formula_structural   YFeCo(PRh)3
_chemical_formula_sum   'Y4 Fe4 Co4 P12 Rh12'
_cell_volume   497.43695521
_cell_formula_units_Z   4
loop_
 _symmetry_equiv_pos_site_id
 _symmetry_equiv_pos_as_xyz
  1  'x, y, z'
loop_
 _atom_site_type_symbol
 _atom_site_label
 _atom_site_symmetry_multiplicity
 _atom_site_fract_x
 _atom_site_fract_y
 _atom_site_fract_z
 _atom_site_occupancy
  Y  Y0  1  0.250000  0.918418  0.209133  1
  Y  Y1  1  0.750000  0.081582  0.790867  1
  Y  Y2  1  0.750000  0.418418  0.290867  1
  Y  Y3  1  0.250000  0.581582  0.709133  1
  Fe  Fe4  1  0.250000  0.618820  0.194858  1
  Fe  Fe5  1  0.750000  0.381180  0.805142  1
  Fe  Fe6  1  0.750000  0.118820  0.305142  1
  Fe  Fe7  1  0.250000  0.881180  0.694858  1
  Co  Co8  1  0.250000  0.037522  0.434259  1
  Co  Co9  1  0.750000  0.962478  0.565741  1
  Co  Co10  1  0.750000  0.537522  0.065741  1
  Co  Co11  1  0.250000  0.462478  0.934259  1
  P  P12  1  0.250000  0.065869  0.611345  1
  P  P13  1  0.750000  0.934131  0.388655  1
  P  P14  1  0.750000  0.565869  0.888655  1
  P  P15  1  0.250000  0.434131  0.111345  1
  P  P16  1  0.250000  0.225254  0.368655  1
  P  P17  1  0.750000  0.774746  0.631345  1
  P  P18  1  0.750000  0.725254  0.131345  1
  P  P19  1  0.250000  0.274746  0.868655  1
  P  P20  1  0.250000  0.899367  0.879191  1
  P  P21  1  0.750000  0.100633  0.120809  1
  P  P22  1  0.750000  0.399367  0.620809  1
  P  P23  1  0.250000  0.600633  0.379191  1
  Rh  Rh24  1  0.250000  0.783969  0.489453  1
  Rh  Rh25  1  0.750000  0.216031  0.510547  1
  Rh  Rh26  1  0.750000  0.283969  0.010547  1
  Rh  Rh27  1  0.250000  0.716031  0.989453  1
  Rh  Rh28  1  0.250000  0.091666  0.978645  1
  Rh  Rh29  1  0.750000  0.908334  0.021355  1
  Rh  Rh30  1  0.750000  0.591666  0.521355  1
  Rh  Rh31  1  0.250000  0.408334  0.478645  1
  Rh  Rh32  1  0.250000  0.272510  0.678106  1
  Rh  Rh33  1  0.750000  0.727490  0.321894  1
  Rh  Rh34  1  0.750000  0.772510  0.821894  1
  Rh  Rh35  1  0.250000  0.227490  0.178106  1
