# generated using pymatgen
data_Ho4Er12Zn3InRh4
_symmetry_space_group_name_H-M   'P 1'
_cell_length_a   9.46387497
_cell_length_b   9.45470412
_cell_length_c   9.47522275
_cell_angle_alpha   59.85213921
_cell_angle_beta   59.83341554
_cell_angle_gamma   59.82809141
_symmetry_Int_Tables_number   1
_chemical_formula_structural   Ho4Er12Zn3InRh4
_chemical_formula_sum   'Ho4 Er12 Zn3 In1 Rh4'
_cell_volume   597.29716864
_cell_formula_units_Z   1
loop_
 _symmetry_equiv_pos_site_id
 _symmetry_equiv_pos_as_xyz
  1  'x, y, z'
loop_
 _atom_site_type_symbol
 _atom_site_label
 _atom_site_symmetry_multiplicity
 _atom_site_fract_x
 _atom_site_fract_y
 _atom_site_fract_z
 _atom_site_occupancy
  Ho  Ho0  1  0.190508  0.190532  0.810144  1
  Ho  Ho1  1  0.436583  0.062795  0.062567  1
  Ho  Ho2  1  0.433501  0.059912  0.433671  1
  Ho  Ho3  1  0.062518  0.436689  0.063099  1
  Er  Er4  1  0.647307  0.056975  0.646600  1
  Er  Er5  1  0.192169  0.809070  0.809400  1
  Er  Er6  1  0.062232  0.063001  0.436555  1
  Er  Er7  1  0.810108  0.190363  0.190625  1
  Er  Er8  1  0.809751  0.809040  0.192113  1
  Er  Er9  1  0.646799  0.646509  0.057817  1
  Er  Er10  1  0.648150  0.648189  0.648138  1
  Er  Er11  1  0.059238  0.434396  0.434009  1
  Er  Er12  1  0.057391  0.647122  0.646529  1
  Er  Er13  1  0.809286  0.192137  0.809171  1
  Er  Er14  1  0.434048  0.434651  0.059515  1
  Er  Er15  1  0.190457  0.809904  0.190676  1
  Zn  Zn16  1  0.421658  0.742481  0.421994  1
  Zn  Zn17  1  0.421763  0.421767  0.743057  1
  Zn  Zn18  1  0.743155  0.421558  0.421823  1
  In  In19  1  0.422785  0.422950  0.422233  1
  Rh  Rh20  1  0.856334  0.430150  0.856649  1
  Rh  Rh21  1  0.856961  0.856581  0.429823  1
  Rh  Rh22  1  0.430139  0.856150  0.856850  1
  Rh  Rh23  1  0.857158  0.857079  0.856943  1
