# generated using pymatgen
data_CrCo3(TcP)4
_symmetry_space_group_name_H-M   'P 1'
_cell_length_a   3.76293300
_cell_length_b   5.73352856
_cell_length_c   6.69032831
_cell_angle_alpha   90.34222034
_cell_angle_beta   90.00000000
_cell_angle_gamma   90.00000000
_symmetry_Int_Tables_number   1
_chemical_formula_structural   CrCo3(TcP)4
_chemical_formula_sum   'Cr1 Co3 Tc4 P4'
_cell_volume   144.34048141
_cell_formula_units_Z   1
loop_
 _symmetry_equiv_pos_site_id
 _symmetry_equiv_pos_as_xyz
  1  'x, y, z'
loop_
 _atom_site_type_symbol
 _atom_site_label
 _atom_site_symmetry_multiplicity
 _atom_site_fract_x
 _atom_site_fract_y
 _atom_site_fract_z
 _atom_site_occupancy
  Cr  Cr0  1  0.250000  0.135010  0.435871  1
  Co  Co1  1  0.250000  0.640823  0.063817  1
  Co  Co2  1  0.750000  0.858826  0.570879  1
  Co  Co3  1  0.750000  0.363952  0.930137  1
  Tc  Tc4  1  0.250000  0.026822  0.826440  1
  Tc  Tc5  1  0.250000  0.527543  0.666486  1
  Tc  Tc6  1  0.750000  0.976278  0.176176  1
  Tc  Tc7  1  0.750000  0.470937  0.331896  1
  P  P8  1  0.250000  0.262393  0.115153  1
  P  P9  1  0.250000  0.754474  0.378862  1
  P  P10  1  0.750000  0.743077  0.883972  1
  P  P11  1  0.750000  0.239865  0.620310  1
