# generated using pymatgen
data_Zr4Al2Rh9Au
_symmetry_space_group_name_H-M   'P 1'
_cell_length_a   5.58447369
_cell_length_b   5.58447395
_cell_length_c   8.29278400
_cell_angle_alpha   89.99998389
_cell_angle_beta   89.99998290
_cell_angle_gamma   98.81696619
_symmetry_Int_Tables_number   1
_chemical_formula_structural   Zr4Al2Rh9Au
_chemical_formula_sum   'Zr4 Al2 Rh9 Au1'
_cell_volume   255.56552355
_cell_formula_units_Z   1
loop_
 _symmetry_equiv_pos_site_id
 _symmetry_equiv_pos_as_xyz
  1  'x, y, z'
loop_
 _atom_site_type_symbol
 _atom_site_label
 _atom_site_symmetry_multiplicity
 _atom_site_fract_x
 _atom_site_fract_y
 _atom_site_fract_z
 _atom_site_occupancy
  Zr  Zr0  1  0.774714  0.225267  0.506040  1
  Zr  Zr1  1  0.225268  0.774711  0.993960  1
  Zr  Zr2  1  0.225267  0.774714  0.506040  1
  Zr  Zr3  1  0.774711  0.225268  0.993960  1
  Al  Al4  1  0.500304  0.500304  0.749999  1
  Al  Al5  1  0.499709  0.499709  0.250001  1
  Rh  Rh6  1  0.715800  0.715800  0.997307  1
  Rh  Rh7  1  0.715802  0.715802  0.502689  1
  Rh  Rh8  1  0.284202  0.284202  0.997076  1
  Rh  Rh9  1  0.284203  0.284203  0.502923  1
  Rh  Rh10  1  0.499979  0.000061  0.750003  1
  Rh  Rh11  1  0.500024  0.999943  0.249999  1
  Rh  Rh12  1  0.999939  0.999939  0.750002  1
  Rh  Rh13  1  0.000061  0.499979  0.750003  1
  Rh  Rh14  1  0.999943  0.500024  0.249999  1
  Au  Au15  1  0.000075  0.000075  0.250000  1
