# generated using pymatgen
data_ZnIr4RuO12
_symmetry_space_group_name_H-M   'P 1'
_cell_length_a   4.55127291
_cell_length_b   4.55127291
_cell_length_c   9.52256100
_cell_angle_alpha   90.00000000
_cell_angle_beta   90.00000000
_cell_angle_gamma   90.45519271
_symmetry_Int_Tables_number   1
_chemical_formula_structural   ZnIr4RuO12
_chemical_formula_sum   'Zn1 Ir4 Ru1 O12'
_cell_volume   197.24491383
_cell_formula_units_Z   1
loop_
 _symmetry_equiv_pos_site_id
 _symmetry_equiv_pos_as_xyz
  1  'x, y, z'
loop_
 _atom_site_type_symbol
 _atom_site_label
 _atom_site_symmetry_multiplicity
 _atom_site_fract_x
 _atom_site_fract_y
 _atom_site_fract_z
 _atom_site_occupancy
  Zn  Zn0  1  0.500000  0.500000  0.500000  1
  Ir  Ir1  1  0.500000  0.500000  0.832458  1
  Ir  Ir2  1  0.000000  0.000000  0.332856  1
  Ir  Ir3  1  0.500000  0.500000  0.167542  1
  Ir  Ir4  1  0.000000  0.000000  0.667144  1
  Ru  Ru5  1  0.000000  0.000000  0.000000  1
  O  O6  1  0.697034  0.697034  0.671340  1
  O  O7  1  0.302966  0.302966  0.671340  1
  O  O8  1  0.697034  0.697034  0.328660  1
  O  O9  1  0.192324  0.807676  0.165030  1
  O  O10  1  0.807676  0.192324  0.165030  1
  O  O11  1  0.807676  0.192324  0.834970  1
  O  O12  1  0.306305  0.306305  0.000000  1
  O  O13  1  0.184424  0.815576  0.500000  1
  O  O14  1  0.815576  0.184424  0.500000  1
  O  O15  1  0.693695  0.693695  0.000000  1
  O  O16  1  0.302966  0.302966  0.328660  1
  O  O17  1  0.192324  0.807676  0.834970  1
