# generated using pymatgen
data_Hf8In4Co3Cu2Ni3
_symmetry_space_group_name_H-M   'P 1'
_cell_length_a   7.25100000
_cell_length_b   7.23072599
_cell_length_c   6.54083917
_cell_angle_alpha   89.97492977
_cell_angle_beta   90.00912008
_cell_angle_gamma   90.38824212
_symmetry_Int_Tables_number   1
_chemical_formula_structural   Hf8In4Co3Cu2Ni3
_chemical_formula_sum   'Hf8 In4 Co3 Cu2 Ni3'
_cell_volume   342.92824969
_cell_formula_units_Z   1
loop_
 _symmetry_equiv_pos_site_id
 _symmetry_equiv_pos_as_xyz
  1  'x, y, z'
loop_
 _atom_site_type_symbol
 _atom_site_label
 _atom_site_symmetry_multiplicity
 _atom_site_fract_x
 _atom_site_fract_y
 _atom_site_fract_z
 _atom_site_occupancy
  Hf  Hf0  1  0.154951  0.177515  0.997423  1
  Hf  Hf1  1  0.825764  0.849847  0.000565  1
  Hf  Hf2  1  0.670651  0.325142  0.502314  1
  Hf  Hf3  1  0.348493  0.645887  0.502455  1
  Hf  Hf4  1  0.672403  0.323139  0.997730  1
  Hf  Hf5  1  0.341689  0.652425  0.997944  1
  Hf  Hf6  1  0.817911  0.846408  0.499606  1
  Hf  Hf7  1  0.158000  0.184791  0.502470  1
  In  In8  1  0.491895  0.999163  0.249528  1
  In  In9  1  0.491304  0.000476  0.750402  1
  In  In10  1  0.997108  0.507509  0.249502  1
  In  In11  1  0.998672  0.508056  0.750499  1
  Co  Co12  1  0.878689  0.121928  0.747355  1
  Co  Co13  1  0.877915  0.122635  0.252739  1
  Co  Co14  1  0.377797  0.374028  0.755080  1
  Cu  Cu15  1  0.128631  0.872594  0.263632  1
  Cu  Cu16  1  0.128147  0.871893  0.736381  1
  Ni  Ni17  1  0.378406  0.370625  0.244233  1
  Ni  Ni18  1  0.632118  0.624192  0.756693  1
  Ni  Ni19  1  0.629455  0.621748  0.243450  1
