# generated using pymatgen
data_Y2Tm7ScBi6
_symmetry_space_group_name_H-M   'P 1'
_cell_length_a   8.13737500
_cell_length_b   9.41738700
_cell_length_c   11.91566500
_cell_angle_alpha   90.00000000
_cell_angle_beta   90.00000000
_cell_angle_gamma   90.00000000
_symmetry_Int_Tables_number   1
_chemical_formula_structural   Y2Tm7ScBi6
_chemical_formula_sum   'Y4 Tm14 Sc2 Bi12'
_cell_volume   913.13088648
_cell_formula_units_Z   2
loop_
 _symmetry_equiv_pos_site_id
 _symmetry_equiv_pos_as_xyz
  1  'x, y, z'
loop_
 _atom_site_type_symbol
 _atom_site_label
 _atom_site_symmetry_multiplicity
 _atom_site_fract_x
 _atom_site_fract_y
 _atom_site_fract_z
 _atom_site_occupancy
  Y  Y0  1  0.315086  0.250000  0.218004  1
  Y  Y1  1  0.815086  0.250000  0.281996  1
  Y  Y2  1  0.682423  0.750000  0.781463  1
  Y  Y3  1  0.182423  0.750000  0.718537  1
  Tm  Tm4  1  0.351987  0.750000  0.217925  1
  Tm  Tm5  1  0.851987  0.750000  0.282075  1
  Tm  Tm6  1  0.647666  0.250000  0.781583  1
  Tm  Tm7  1  0.147666  0.250000  0.718417  1
  Tm  Tm8  1  0.693325  0.566566  0.059695  1
  Tm  Tm9  1  0.193325  0.933434  0.440305  1
  Tm  Tm10  1  0.308538  0.064400  0.939153  1
  Tm  Tm11  1  0.808538  0.435600  0.560847  1
  Tm  Tm12  1  0.308538  0.435600  0.939153  1
  Tm  Tm13  1  0.808538  0.064400  0.560847  1
  Tm  Tm14  1  0.693325  0.933434  0.059695  1
  Tm  Tm15  1  0.193325  0.566566  0.440305  1
  Tm  Tm16  1  0.478256  0.250000  0.488158  1
  Tm  Tm17  1  0.978256  0.250000  0.011842  1
  Sc  Sc18  1  0.521001  0.750000  0.511821  1
  Sc  Sc19  1  0.021001  0.750000  0.988179  1
  Bi  Bi20  1  0.399316  0.750000  0.960615  1
  Bi  Bi21  1  0.899316  0.750000  0.539385  1
  Bi  Bi22  1  0.596492  0.250000  0.040129  1
  Bi  Bi23  1  0.096492  0.250000  0.459871  1
  Bi  Bi24  1  0.567042  0.991407  0.329190  1
  Bi  Bi25  1  0.067042  0.508593  0.170810  1
  Bi  Bi26  1  0.434982  0.497655  0.670758  1
  Bi  Bi27  1  0.934982  0.002345  0.829242  1
  Bi  Bi28  1  0.434982  0.002345  0.670758  1
  Bi  Bi29  1  0.934982  0.497655  0.829242  1
  Bi  Bi30  1  0.567042  0.508593  0.329190  1
  Bi  Bi31  1  0.067042  0.991407  0.170810  1
