# generated using pymatgen
data_MnBi6(SO8)2
_symmetry_space_group_name_H-M   'P 1'
_cell_length_a   5.81151536
_cell_length_b   8.19034834
_cell_length_c   9.16846901
_cell_angle_alpha   94.89053952
_cell_angle_beta   96.06239676
_cell_angle_gamma   106.52414080
_symmetry_Int_Tables_number   1
_chemical_formula_structural   MnBi6(SO8)2
_chemical_formula_sum   'Mn1 Bi6 S2 O16'
_cell_volume   412.98709765
_cell_formula_units_Z   1
loop_
 _symmetry_equiv_pos_site_id
 _symmetry_equiv_pos_as_xyz
  1  'x, y, z'
loop_
 _atom_site_type_symbol
 _atom_site_label
 _atom_site_symmetry_multiplicity
 _atom_site_fract_x
 _atom_site_fract_y
 _atom_site_fract_z
 _atom_site_occupancy
  Mn  Mn0  1  0.000000  0.500000  0.500000  1
  Bi  Bi1  1  0.689035  0.507806  0.795394  1
  Bi  Bi2  1  0.310965  0.492194  0.204606  1
  Bi  Bi3  1  0.642430  0.829850  0.529103  1
  Bi  Bi4  1  0.357570  0.170150  0.470897  1
  Bi  Bi5  1  0.302240  0.849872  0.817127  1
  Bi  Bi6  1  0.697760  0.150128  0.182873  1
  S  S7  1  0.137882  0.226518  0.844942  1
  S  S8  1  0.862118  0.773482  0.155058  1
  O  O9  1  0.990868  0.665332  0.692722  1
  O  O10  1  0.009132  0.334668  0.307278  1
  O  O11  1  0.510976  0.691865  0.723999  1
  O  O12  1  0.489024  0.308135  0.276001  1
  O  O13  1  0.014704  0.041409  0.789560  1
  O  O14  1  0.985296  0.958591  0.210440  1
  O  O15  1  0.673437  0.368316  0.582506  1
  O  O16  1  0.326563  0.631684  0.417494  1
  O  O17  1  0.364816  0.241964  0.946079  1
  O  O18  1  0.635184  0.758036  0.053921  1
  O  O19  1  0.416402  0.969790  0.627927  1
  O  O20  1  0.583598  0.030210  0.372073  1
  O  O21  1  0.209774  0.325225  0.716750  1
  O  O22  1  0.790226  0.674775  0.283250  1
  O  O23  1  0.973888  0.301724  0.924747  1
  O  O24  1  0.026112  0.698276  0.075253  1
