# generated using pymatgen
data_Rb14Ta2Tl5InP10
_symmetry_space_group_name_H-M   'P 1'
_cell_length_a   8.57830556
_cell_length_b   9.48177451
_cell_length_c   14.35048161
_cell_angle_alpha   86.11264399
_cell_angle_beta   83.06727577
_cell_angle_gamma   86.68452835
_symmetry_Int_Tables_number   1
_chemical_formula_structural   Rb14Ta2Tl5InP10
_chemical_formula_sum   'Rb14 Ta2 Tl5 In1 P10'
_cell_volume   1154.57956823
_cell_formula_units_Z   1
loop_
 _symmetry_equiv_pos_site_id
 _symmetry_equiv_pos_as_xyz
  1  'x, y, z'
loop_
 _atom_site_type_symbol
 _atom_site_label
 _atom_site_symmetry_multiplicity
 _atom_site_fract_x
 _atom_site_fract_y
 _atom_site_fract_z
 _atom_site_occupancy
  Rb  Rb0  1  0.824478  0.799675  0.137793  1
  Rb  Rb1  1  0.179404  0.199508  0.861668  1
  Rb  Rb2  1  0.270730  0.255569  0.250977  1
  Rb  Rb3  1  0.727542  0.746089  0.749019  1
  Rb  Rb4  1  0.740058  0.497043  0.972912  1
  Rb  Rb5  1  0.264997  0.502596  0.027140  1
  Rb  Rb6  1  0.664453  0.085943  0.885100  1
  Rb  Rb7  1  0.330600  0.915886  0.113180  1
  Rb  Rb8  1  0.655210  0.652282  0.402216  1
  Rb  Rb9  1  0.350561  0.343802  0.600253  1
  Rb  Rb10  1  0.759880  0.991031  0.532932  1
  Rb  Rb11  1  0.238805  0.011866  0.468902  1
  Rb  Rb12  1  0.849095  0.351551  0.660252  1
  Rb  Rb13  1  0.152435  0.647779  0.339966  1
  Ta  Ta14  1  0.648710  0.392709  0.224727  1
  Ta  Ta15  1  0.349154  0.608695  0.775157  1
  Tl  Tl16  1  0.907567  0.281942  0.384150  1
  Tl  Tl17  1  0.090729  0.715284  0.614955  1
  Tl  Tl18  1  0.955596  0.175260  0.122980  1
  Tl  Tl19  1  0.041919  0.824505  0.877227  1
  Tl  Tl20  1  0.633546  0.036474  0.299133  1
  In  In21  1  0.359594  0.954594  0.701866  1
  P  P22  1  0.491067  0.595277  0.189339  1
  P  P23  1  0.510799  0.409421  0.811037  1
  P  P24  1  0.922063  0.449824  0.208656  1
  P  P25  1  0.076731  0.549060  0.791559  1
  P  P26  1  0.576674  0.300650  0.386226  1
  P  P27  1  0.421091  0.703736  0.614230  1
  P  P28  1  0.623319  0.200061  0.122493  1
  P  P29  1  0.374030  0.804825  0.874727  1
  P  P30  1  0.979833  0.995711  0.300173  1
  P  P31  1  0.029328  0.001353  0.699057  1
