# generated using pymatgen
data_LaSiNO2
_symmetry_space_group_name_H-M   'P 1'
_cell_length_a   7.35642646
_cell_length_b   7.35642581
_cell_length_c   9.58462400
_cell_angle_alpha   90.00000000
_cell_angle_beta   90.00000000
_cell_angle_gamma   120.16503385
_symmetry_Int_Tables_number   1
_chemical_formula_structural   LaSiNO2
_chemical_formula_sum   'La6 Si6 N6 O12'
_cell_volume   448.45083464
_cell_formula_units_Z   6
loop_
 _symmetry_equiv_pos_site_id
 _symmetry_equiv_pos_as_xyz
  1  'x, y, z'
loop_
 _atom_site_type_symbol
 _atom_site_label
 _atom_site_symmetry_multiplicity
 _atom_site_fract_x
 _atom_site_fract_y
 _atom_site_fract_z
 _atom_site_occupancy
  La  La0  1  0.826125  0.173875  0.500000  1
  La  La1  1  0.173875  0.826125  0.000000  1
  La  La2  1  0.826125  0.173875  0.000000  1
  La  La3  1  0.173875  0.826125  0.500000  1
  La  La4  1  0.500000  0.500000  0.500000  1
  La  La5  1  0.500000  0.500000  0.000000  1
  Si  Si6  1  0.164325  0.402055  0.250000  1
  Si  Si7  1  0.597945  0.835675  0.750000  1
  Si  Si8  1  0.923563  0.923563  0.250000  1
  Si  Si9  1  0.835675  0.597945  0.750000  1
  Si  Si10  1  0.076437  0.076437  0.750000  1
  Si  Si11  1  0.402055  0.164325  0.250000  1
  N  N12  1  0.608617  0.608617  0.750000  1
  N  N13  1  0.836297  0.064042  0.750000  1
  N  N14  1  0.064042  0.836297  0.750000  1
  N  N15  1  0.935958  0.163703  0.250000  1
  N  N16  1  0.391383  0.391383  0.250000  1
  N  N17  1  0.163703  0.935958  0.250000  1
  O  O18  1  0.165468  0.519407  0.101350  1
  O  O19  1  0.480593  0.834532  0.898650  1
  O  O20  1  0.480593  0.834532  0.601350  1
  O  O21  1  0.519407  0.165468  0.101350  1
  O  O22  1  0.808756  0.808756  0.399934  1
  O  O23  1  0.834532  0.480593  0.898650  1
  O  O24  1  0.834532  0.480593  0.601350  1
  O  O25  1  0.191244  0.191244  0.600066  1
  O  O26  1  0.191244  0.191244  0.899934  1
  O  O27  1  0.808756  0.808756  0.100066  1
  O  O28  1  0.519407  0.165468  0.398650  1
  O  O29  1  0.165468  0.519407  0.398650  1
