# generated using pymatgen
data_Nb12Zn12CN3
_symmetry_space_group_name_H-M   'P 1'
_cell_length_a   8.33260573
_cell_length_b   8.31364560
_cell_length_c   8.31364700
_cell_angle_alpha   59.99999841
_cell_angle_beta   60.07523999
_cell_angle_gamma   60.07523835
_symmetry_Int_Tables_number   1
_chemical_formula_structural   Nb12Zn12CN3
_chemical_formula_sum   'Nb12 Zn12 C1 N3'
_cell_volume   407.70109606
_cell_formula_units_Z   1
loop_
 _symmetry_equiv_pos_site_id
 _symmetry_equiv_pos_as_xyz
  1  'x, y, z'
loop_
 _atom_site_type_symbol
 _atom_site_label
 _atom_site_symmetry_multiplicity
 _atom_site_fract_x
 _atom_site_fract_y
 _atom_site_fract_z
 _atom_site_occupancy
  Nb  Nb0  1  0.429597  0.431103  0.069650  1
  Nb  Nb1  1  0.071550  0.429557  0.069337  1
  Nb  Nb2  1  0.429597  0.069650  0.069650  1
  Nb  Nb3  1  0.071550  0.069337  0.429557  1
  Nb  Nb4  1  0.429597  0.069650  0.431103  1
  Nb  Nb5  1  0.071550  0.429557  0.429557  1
  Nb  Nb6  1  0.820403  0.818897  0.180350  1
  Nb  Nb7  1  0.178450  0.820443  0.180663  1
  Nb  Nb8  1  0.820403  0.180350  0.180350  1
  Nb  Nb9  1  0.178450  0.180663  0.820443  1
  Nb  Nb10  1  0.820403  0.180350  0.818897  1
  Nb  Nb11  1  0.178450  0.820443  0.820443  1
  Zn  Zn12  1  0.831996  0.832224  0.503558  1
  Zn  Zn13  1  0.831996  0.503558  0.832224  1
  Zn  Zn14  1  0.504203  0.831933  0.831933  1
  Zn  Zn15  1  0.831996  0.832224  0.832224  1
  Zn  Zn16  1  0.418004  0.417776  0.746442  1
  Zn  Zn17  1  0.418004  0.746442  0.417776  1
  Zn  Zn18  1  0.745797  0.418067  0.418067  1
  Zn  Zn19  1  0.418004  0.417776  0.417776  1
  Zn  Zn20  1  0.625000  0.625000  0.125000  1
  Zn  Zn21  1  0.625000  0.125000  0.625000  1
  Zn  Zn22  1  0.125000  0.625000  0.625000  1
  Zn  Zn23  1  0.625000  0.625000  0.625000  1
  C  C24  1  0.625000  0.125000  0.125000  1
  N  N25  1  0.125000  0.125000  0.625000  1
  N  N26  1  0.125000  0.625000  0.125000  1
  N  N27  1  0.125000  0.125000  0.125000  1
