# generated using pymatgen
data_DyErLu6(WO6)4
_symmetry_space_group_name_H-M   'P 1'
_cell_length_a   5.32359600
_cell_length_b   7.61045217
_cell_length_c   11.32928104
_cell_angle_alpha   75.17310504
_cell_angle_beta   90.00000000
_cell_angle_gamma   90.00000000
_symmetry_Int_Tables_number   1
_chemical_formula_structural   DyErLu6(WO6)4
_chemical_formula_sum   'Dy1 Er1 Lu6 W4 O24'
_cell_volume   443.72217762
_cell_formula_units_Z   1
loop_
 _symmetry_equiv_pos_site_id
 _symmetry_equiv_pos_as_xyz
  1  'x, y, z'
loop_
 _atom_site_type_symbol
 _atom_site_label
 _atom_site_symmetry_multiplicity
 _atom_site_fract_x
 _atom_site_fract_y
 _atom_site_fract_z
 _atom_site_occupancy
  Dy  Dy0  1  0.684981  0.500000  0.250000  1
  Er  Er1  1  0.315024  0.500000  0.750000  1
  Lu  Lu2  1  0.183322  0.204442  0.421510  1
  Lu  Lu3  1  0.183322  0.795558  0.078490  1
  Lu  Lu4  1  0.816891  0.795060  0.578819  1
  Lu  Lu5  1  0.816891  0.204940  0.921181  1
  Lu  Lu6  1  0.741413  0.000000  0.250000  1
  Lu  Lu7  1  0.258701  0.000000  0.750000  1
  W  W8  1  0.256361  0.275062  0.114363  1
  W  W9  1  0.256361  0.724938  0.385637  1
  W  W10  1  0.743601  0.724716  0.885019  1
  W  W11  1  0.743601  0.275284  0.614981  1
  O  O12  1  0.459239  0.204613  0.275266  1
  O  O13  1  0.459239  0.795387  0.224734  1
  O  O14  1  0.540280  0.794666  0.724629  1
  O  O15  1  0.540280  0.205334  0.775371  1
  O  O16  1  0.041976  0.057338  0.104273  1
  O  O17  1  0.041976  0.942662  0.395727  1
  O  O18  1  0.957780  0.942916  0.895176  1
  O  O19  1  0.957780  0.057084  0.604824  1
  O  O20  1  0.980249  0.285366  0.230558  1
  O  O21  1  0.980249  0.714634  0.269442  1
  O  O22  1  0.021019  0.713126  0.769607  1
  O  O23  1  0.021019  0.286874  0.730393  1
  O  O24  1  0.852979  0.364630  0.450592  1
  O  O25  1  0.852979  0.635370  0.049408  1
  O  O26  1  0.147769  0.635392  0.550404  1
  O  O27  1  0.147769  0.364608  0.949596  1
  O  O28  1  0.640701  0.512553  0.614515  1
  O  O29  1  0.640701  0.487447  0.885485  1
  O  O30  1  0.357144  0.487298  0.386359  1
  O  O31  1  0.357144  0.512702  0.113641  1
  O  O32  1  0.459148  0.153161  0.569388  1
  O  O33  1  0.459148  0.846839  0.930612  1
  O  O34  1  0.541481  0.846756  0.430841  1
  O  O35  1  0.541481  0.153244  0.069159  1
