# generated using pymatgen
data_Er4TmPt9
_symmetry_space_group_name_H-M   'P 1'
_cell_length_a   9.71157200
_cell_length_b   9.71157200
_cell_length_c   5.75209000
_cell_angle_alpha   90.00000000
_cell_angle_beta   90.00000000
_cell_angle_gamma   90.00000000
_symmetry_Int_Tables_number   1
_chemical_formula_structural   Er4TmPt9
_chemical_formula_sum   'Er8 Tm2 Pt18'
_cell_volume   542.50624417
_cell_formula_units_Z   2
loop_
 _symmetry_equiv_pos_site_id
 _symmetry_equiv_pos_as_xyz
  1  'x, y, z'
loop_
 _atom_site_type_symbol
 _atom_site_label
 _atom_site_symmetry_multiplicity
 _atom_site_fract_x
 _atom_site_fract_y
 _atom_site_fract_z
 _atom_site_occupancy
  Er  Er0  1  0.452363  0.808986  0.000000  1
  Er  Er1  1  0.547637  0.191014  0.000000  1
  Er  Er2  1  0.191014  0.547637  0.000000  1
  Er  Er3  1  0.808986  0.452363  0.000000  1
  Er  Er4  1  0.308986  0.047637  0.500000  1
  Er  Er5  1  0.691014  0.952363  0.500000  1
  Er  Er6  1  0.952363  0.691014  0.500000  1
  Er  Er7  1  0.047637  0.308986  0.500000  1
  Tm  Tm8  1  0.500000  0.500000  0.500000  1
  Tm  Tm9  1  0.000000  0.000000  0.000000  1
  Pt  Pt10  1  0.191630  0.808370  0.250796  1
  Pt  Pt11  1  0.808370  0.191630  0.749204  1
  Pt  Pt12  1  0.808370  0.191630  0.250796  1
  Pt  Pt13  1  0.191630  0.808370  0.749204  1
  Pt  Pt14  1  0.441384  0.782147  0.500000  1
  Pt  Pt15  1  0.558616  0.217853  0.500000  1
  Pt  Pt16  1  0.217853  0.558616  0.500000  1
  Pt  Pt17  1  0.782147  0.441384  0.500000  1
  Pt  Pt18  1  0.308370  0.308370  0.249204  1
  Pt  Pt19  1  0.691630  0.691630  0.750796  1
  Pt  Pt20  1  0.691630  0.691630  0.249204  1
  Pt  Pt21  1  0.308370  0.308370  0.750796  1
  Pt  Pt22  1  0.282147  0.058616  0.000000  1
  Pt  Pt23  1  0.717853  0.941384  0.000000  1
  Pt  Pt24  1  0.941384  0.717853  0.000000  1
  Pt  Pt25  1  0.058616  0.282147  0.000000  1
  Pt  Pt26  1  0.000000  0.000000  0.500000  1
  Pt  Pt27  1  0.500000  0.500000  0.000000  1
