# generated using pymatgen
data_PuThB12
_symmetry_space_group_name_H-M   'P 1'
_cell_length_a   4.11226200
_cell_length_b   4.11226701
_cell_length_c   8.21960701
_cell_angle_alpha   90.00612534
_cell_angle_beta   90.00000000
_cell_angle_gamma   90.00000000
_symmetry_Int_Tables_number   1
_chemical_formula_structural   PuThB12
_chemical_formula_sum   'Pu1 Th1 B12'
_cell_volume   138.99946648
_cell_formula_units_Z   1
loop_
 _symmetry_equiv_pos_site_id
 _symmetry_equiv_pos_as_xyz
  1  'x, y, z'
loop_
 _atom_site_type_symbol
 _atom_site_label
 _atom_site_symmetry_multiplicity
 _atom_site_fract_x
 _atom_site_fract_y
 _atom_site_fract_z
 _atom_site_occupancy
  Pu  Pu0  1  0.000000  0.000000  0.000000  1
  Th  Th1  1  0.000000  0.000000  0.500000  1
  B  B2  1  0.198008  0.499998  0.249571  1
  B  B3  1  0.198008  0.500002  0.750429  1
  B  B4  1  0.500000  0.500007  0.400836  1
  B  B5  1  0.500000  0.500008  0.901338  1
  B  B6  1  0.500000  0.198005  0.249568  1
  B  B7  1  0.500000  0.198009  0.750425  1
  B  B8  1  0.500000  0.499992  0.098662  1
  B  B9  1  0.500000  0.499993  0.599164  1
  B  B10  1  0.500000  0.801991  0.249575  1
  B  B11  1  0.500000  0.801995  0.750432  1
  B  B12  1  0.801992  0.499998  0.249571  1
  B  B13  1  0.801992  0.500002  0.750429  1
