# generated using pymatgen
data_HoFeCo3P3Ru
_symmetry_space_group_name_H-M   'P 1'
_cell_length_a   3.69452900
_cell_length_b   10.29616300
_cell_length_c   11.78051500
_cell_angle_alpha   90.00000000
_cell_angle_beta   90.00000000
_cell_angle_gamma   90.00000000
_symmetry_Int_Tables_number   1
_chemical_formula_structural   HoFeCo3P3Ru
_chemical_formula_sum   'Ho4 Fe4 Co12 P12 Ru4'
_cell_volume   448.12457982
_cell_formula_units_Z   4
loop_
 _symmetry_equiv_pos_site_id
 _symmetry_equiv_pos_as_xyz
  1  'x, y, z'
loop_
 _atom_site_type_symbol
 _atom_site_label
 _atom_site_symmetry_multiplicity
 _atom_site_fract_x
 _atom_site_fract_y
 _atom_site_fract_z
 _atom_site_occupancy
  Ho  Ho0  1  0.250000  0.583283  0.704619  1
  Ho  Ho1  1  0.250000  0.916717  0.204619  1
  Ho  Ho2  1  0.750000  0.416717  0.295381  1
  Ho  Ho3  1  0.750000  0.083283  0.795381  1
  Fe  Fe4  1  0.250000  0.463410  0.932007  1
  Fe  Fe5  1  0.250000  0.036590  0.432007  1
  Fe  Fe6  1  0.750000  0.536590  0.067993  1
  Fe  Fe7  1  0.750000  0.963410  0.567993  1
  Co  Co8  1  0.250000  0.407758  0.488453  1
  Co  Co9  1  0.250000  0.092242  0.988453  1
  Co  Co10  1  0.750000  0.592242  0.511547  1
  Co  Co11  1  0.750000  0.907758  0.011547  1
  Co  Co12  1  0.250000  0.223705  0.174284  1
  Co  Co13  1  0.250000  0.276295  0.674284  1
  Co  Co14  1  0.750000  0.776295  0.825716  1
  Co  Co15  1  0.750000  0.723705  0.325716  1
  Co  Co16  1  0.250000  0.883342  0.703887  1
  Co  Co17  1  0.250000  0.616658  0.203887  1
  Co  Co18  1  0.750000  0.116658  0.296113  1
  Co  Co19  1  0.750000  0.383342  0.796113  1
  P  P20  1  0.250000  0.424491  0.112791  1
  P  P21  1  0.250000  0.075509  0.612791  1
  P  P22  1  0.750000  0.575509  0.887209  1
  P  P23  1  0.750000  0.924491  0.387209  1
  P  P24  1  0.250000  0.269850  0.864027  1
  P  P25  1  0.250000  0.230150  0.364027  1
  P  P26  1  0.750000  0.730150  0.135973  1
  P  P27  1  0.750000  0.769850  0.635973  1
  P  P28  1  0.250000  0.597209  0.390908  1
  P  P29  1  0.250000  0.902791  0.890908  1
  P  P30  1  0.750000  0.402791  0.609092  1
  P  P31  1  0.750000  0.097209  0.109092  1
  Ru  Ru32  1  0.250000  0.713012  0.991471  1
  Ru  Ru33  1  0.250000  0.786988  0.491471  1
  Ru  Ru34  1  0.750000  0.286988  0.008529  1
  Ru  Ru35  1  0.750000  0.213012  0.508529  1
