# generated using pymatgen
data_Na7V(SO4)6
_symmetry_space_group_name_H-M   'P 1'
_cell_length_a   8.69346325
_cell_length_b   8.69346253
_cell_length_c   8.69346323
_cell_angle_alpha   108.93252203
_cell_angle_beta   108.93251618
_cell_angle_gamma   108.93252482
_symmetry_Int_Tables_number   1
_chemical_formula_structural   Na7V(SO4)6
_chemical_formula_sum   'Na7 V1 S6 O24'
_cell_volume   515.61488580
_cell_formula_units_Z   1
loop_
 _symmetry_equiv_pos_site_id
 _symmetry_equiv_pos_as_xyz
  1  'x, y, z'
loop_
 _atom_site_type_symbol
 _atom_site_label
 _atom_site_symmetry_multiplicity
 _atom_site_fract_x
 _atom_site_fract_y
 _atom_site_fract_z
 _atom_site_occupancy
  Na  Na0  1  0.500000  0.500000  0.500000  1
  Na  Na1  1  0.838768  0.335122  0.674181  1
  Na  Na2  1  0.335122  0.674181  0.838768  1
  Na  Na3  1  0.674181  0.838768  0.335122  1
  Na  Na4  1  0.161232  0.664878  0.325819  1
  Na  Na5  1  0.664878  0.325819  0.161232  1
  Na  Na6  1  0.325819  0.161232  0.664878  1
  V  V7  1  0.000000  0.000000  0.000000  1
  S  S8  1  0.967470  0.741632  0.608893  1
  S  S9  1  0.741632  0.608893  0.967470  1
  S  S10  1  0.608893  0.967470  0.741632  1
  S  S11  1  0.032530  0.258368  0.391107  1
  S  S12  1  0.258368  0.391107  0.032530  1
  S  S13  1  0.391107  0.032530  0.258368  1
  O  O14  1  0.448034  0.903698  0.168877  1
  O  O15  1  0.903698  0.168877  0.448034  1
  O  O16  1  0.168877  0.448034  0.903698  1
  O  O17  1  0.551966  0.096302  0.831123  1
  O  O18  1  0.096302  0.831123  0.551966  1
  O  O19  1  0.831123  0.551966  0.096302  1
  O  O20  1  0.309894  0.978371  0.368601  1
  O  O21  1  0.978371  0.368601  0.309894  1
  O  O22  1  0.368601  0.309894  0.978371  1
  O  O23  1  0.690106  0.021629  0.631399  1
  O  O24  1  0.021629  0.631399  0.690106  1
  O  O25  1  0.631399  0.690106  0.021629  1
  O  O26  1  0.760442  0.976361  0.906953  1
  O  O27  1  0.976361  0.906953  0.760442  1
  O  O28  1  0.636766  0.460482  0.772032  1
  O  O29  1  0.772032  0.636766  0.460482  1
  O  O30  1  0.460482  0.772032  0.636766  1
  O  O31  1  0.363234  0.539518  0.227968  1
  O  O32  1  0.227968  0.363234  0.539518  1
  O  O33  1  0.539518  0.227968  0.363234  1
  O  O34  1  0.093047  0.239558  0.023639  1
  O  O35  1  0.023639  0.093047  0.239558  1
  O  O36  1  0.239558  0.023639  0.093047  1
  O  O37  1  0.906953  0.760442  0.976361  1
