# generated using pymatgen
data_La19Yb(InGa2)4
_symmetry_space_group_name_H-M   'P 1'
_cell_length_a   8.15142200
_cell_length_b   8.15142200
_cell_length_c   15.20335900
_cell_angle_alpha   90.00000000
_cell_angle_beta   90.00000000
_cell_angle_gamma   90.00000000
_symmetry_Int_Tables_number   1
_chemical_formula_structural   La19Yb(InGa2)4
_chemical_formula_sum   'La19 Yb1 In4 Ga8'
_cell_volume   1010.19753650
_cell_formula_units_Z   1
loop_
 _symmetry_equiv_pos_site_id
 _symmetry_equiv_pos_as_xyz
  1  'x, y, z'
loop_
 _atom_site_type_symbol
 _atom_site_label
 _atom_site_symmetry_multiplicity
 _atom_site_fract_x
 _atom_site_fract_y
 _atom_site_fract_z
 _atom_site_occupancy
  La  La0  1  0.828305  0.823038  0.893183  1
  La  La1  1  0.176512  0.164815  0.608039  1
  La  La2  1  0.835226  0.179444  0.393403  1
  La  La3  1  0.164774  0.820556  0.393403  1
  La  La4  1  0.320556  0.335226  0.393403  1
  La  La5  1  0.821707  0.163693  0.107807  1
  La  La6  1  0.323038  0.671695  0.893183  1
  La  La7  1  0.178293  0.836307  0.107807  1
  La  La8  1  0.000000  0.500000  0.218554  1
  La  La9  1  0.335185  0.676512  0.608039  1
  La  La10  1  0.663693  0.678293  0.107807  1
  La  La11  1  0.664815  0.323488  0.608039  1
  La  La12  1  0.000000  0.500000  0.724142  1
  La  La13  1  0.823488  0.835185  0.608039  1
  La  La14  1  0.676962  0.328305  0.893183  1
  La  La15  1  0.171695  0.176962  0.893183  1
  La  La16  1  0.500000  0.000000  0.278253  1
  La  La17  1  0.679444  0.664774  0.393403  1
  La  La18  1  0.336307  0.321707  0.107807  1
  Yb  Yb19  1  0.500000  0.000000  0.756947  1
  In  In20  1  0.000000  0.500000  0.000672  1
  In  In21  1  0.500000  0.000000  0.996457  1
  In  In22  1  0.500000  0.000000  0.498337  1
  In  In23  1  0.000000  0.500000  0.504784  1
  Ga  Ga24  1  0.618718  0.381740  0.250660  1
  Ga  Ga25  1  0.381282  0.618260  0.250660  1
  Ga  Ga26  1  0.118260  0.118718  0.250660  1
  Ga  Ga27  1  0.382087  0.382680  0.752371  1
  Ga  Ga28  1  0.117320  0.882087  0.752371  1
  Ga  Ga29  1  0.881740  0.881282  0.250660  1
  Ga  Ga30  1  0.617913  0.617320  0.752371  1
  Ga  Ga31  1  0.882680  0.117913  0.752371  1
