# generated using pymatgen
data_Tb5Nd8Er7Pb16
_symmetry_space_group_name_H-M   'P 1'
_cell_length_a   8.28642529
_cell_length_b   8.34180517
_cell_length_c   15.81143800
_cell_angle_alpha   90.00127754
_cell_angle_beta   90.05106987
_cell_angle_gamma   89.89074830
_symmetry_Int_Tables_number   1
_chemical_formula_structural   Tb5Nd8Er7Pb16
_chemical_formula_sum   'Tb5 Nd8 Er7 Pb16'
_cell_volume   1092.94339202
_cell_formula_units_Z   1
loop_
 _symmetry_equiv_pos_site_id
 _symmetry_equiv_pos_as_xyz
  1  'x, y, z'
loop_
 _atom_site_type_symbol
 _atom_site_label
 _atom_site_symmetry_multiplicity
 _atom_site_fract_x
 _atom_site_fract_y
 _atom_site_fract_z
 _atom_site_occupancy
  Tb  Tb0  1  0.630826  0.158810  0.622028  1
  Tb  Tb1  1  0.131078  0.341104  0.877884  1
  Tb  Tb2  1  0.368911  0.841238  0.121700  1
  Tb  Tb3  1  0.869067  0.659325  0.377896  1
  Tb  Tb4  1  0.367994  0.841204  0.378470  1
  Nd  Nd5  1  0.473102  0.676817  0.598590  1
  Nd  Nd6  1  0.973563  0.822670  0.901985  1
  Nd  Nd7  1  0.526471  0.322773  0.097502  1
  Nd  Nd8  1  0.026657  0.177681  0.402142  1
  Nd  Nd9  1  0.527821  0.323277  0.401798  1
  Nd  Nd10  1  0.027245  0.177197  0.097876  1
  Nd  Nd11  1  0.472504  0.676872  0.901775  1
  Nd  Nd12  1  0.972788  0.823290  0.598356  1
  Er  Er13  1  0.867846  0.658203  0.121891  1
  Er  Er14  1  0.632243  0.158300  0.877576  1
  Er  Er15  1  0.131536  0.341664  0.623050  1
  Er  Er16  1  0.798133  0.494767  0.750137  1
  Er  Er17  1  0.298204  0.005321  0.750057  1
  Er  Er18  1  0.201425  0.504973  0.249942  1
  Er  Er19  1  0.701940  0.994791  0.249623  1
  Pb  Pb20  1  0.708078  0.962263  0.456391  1
  Pb  Pb21  1  0.205849  0.539210  0.043575  1
  Pb  Pb22  1  0.294302  0.038809  0.955491  1
  Pb  Pb23  1  0.793820  0.461345  0.544476  1
  Pb  Pb24  1  0.290556  0.039869  0.544471  1
  Pb  Pb25  1  0.790984  0.460815  0.956371  1
  Pb  Pb26  1  0.708924  0.960821  0.042568  1
  Pb  Pb27  1  0.208398  0.537127  0.457589  1
  Pb  Pb28  1  0.436092  0.371642  0.750492  1
  Pb  Pb29  1  0.935774  0.127707  0.749971  1
  Pb  Pb30  1  0.564531  0.627206  0.249595  1
  Pb  Pb31  1  0.063602  0.872307  0.249036  1
  Pb  Pb32  1  0.661545  0.848828  0.750459  1
  Pb  Pb33  1  0.161767  0.650945  0.749785  1
  Pb  Pb34  1  0.338313  0.151669  0.249986  1
  Pb  Pb35  1  0.838109  0.349160  0.249465  1
