# generated using pymatgen
data_AcLa2(InRh)3
_symmetry_space_group_name_H-M   'P 1'
_cell_length_a   7.65608869
_cell_length_b   7.70185244
_cell_length_c   4.27263700
_cell_angle_alpha   90.00000000
_cell_angle_beta   90.00000000
_cell_angle_gamma   120.19793456
_symmetry_Int_Tables_number   1
_chemical_formula_structural   AcLa2(InRh)3
_chemical_formula_sum   'Ac1 La2 In3 Rh3'
_cell_volume   217.75047411
_cell_formula_units_Z   1
loop_
 _symmetry_equiv_pos_site_id
 _symmetry_equiv_pos_as_xyz
  1  'x, y, z'
loop_
 _atom_site_type_symbol
 _atom_site_label
 _atom_site_symmetry_multiplicity
 _atom_site_fract_x
 _atom_site_fract_y
 _atom_site_fract_z
 _atom_site_occupancy
  Ac  Ac0  1  0.000000  0.585741  0.500000  1
  La  La1  1  0.586339  0.999877  0.500000  1
  La  La2  1  0.413661  0.413538  0.500000  1
  In  In3  1  0.000000  0.237869  0.000000  1
  In  In4  1  0.249046  0.007042  0.000000  1
  In  In5  1  0.750954  0.757996  0.000000  1
  Rh  Rh6  1  0.000000  0.999318  0.500000  1
  Rh  Rh7  1  0.663009  0.330813  0.000000  1
  Rh  Rh8  1  0.336991  0.667805  0.000000  1
