# generated using pymatgen
data_Mn3Sn(Pt2O7)2
_symmetry_space_group_name_H-M   'P 1'
_cell_length_a   7.02032097
_cell_length_b   7.11232567
_cell_length_c   7.02032100
_cell_angle_alpha   60.42699838
_cell_angle_beta   59.99999512
_cell_angle_gamma   60.42699998
_symmetry_Int_Tables_number   1
_chemical_formula_structural   Mn3Sn(Pt2O7)2
_chemical_formula_sum   'Mn3 Sn1 Pt4 O14'
_cell_volume   249.45004663
_cell_formula_units_Z   1
loop_
 _symmetry_equiv_pos_site_id
 _symmetry_equiv_pos_as_xyz
  1  'x, y, z'
loop_
 _atom_site_type_symbol
 _atom_site_label
 _atom_site_symmetry_multiplicity
 _atom_site_fract_x
 _atom_site_fract_y
 _atom_site_fract_z
 _atom_site_occupancy
  Mn  Mn0  1  0.125000  0.125000  0.625000  1
  Mn  Mn1  1  0.625000  0.125000  0.125000  1
  Mn  Mn2  1  0.125000  0.125000  0.125000  1
  Sn  Sn3  1  0.125000  0.625000  0.125000  1
  Pt  Pt4  1  0.625000  0.625000  0.125000  1
  Pt  Pt5  1  0.625000  0.125000  0.625000  1
  Pt  Pt6  1  0.125000  0.625000  0.625000  1
  Pt  Pt7  1  0.625000  0.625000  0.625000  1
  O  O8  1  0.250369  0.248894  0.250369  1
  O  O9  1  0.999631  0.001106  0.999631  1
  O  O10  1  0.530821  0.967258  0.530821  1
  O  O11  1  0.278811  0.716306  0.278811  1
  O  O12  1  0.523928  0.533694  0.971189  1
  O  O13  1  0.971189  0.533694  0.523928  1
  O  O14  1  0.530821  0.967258  0.971101  1
  O  O15  1  0.971101  0.967258  0.530821  1
  O  O16  1  0.971189  0.533694  0.971189  1
  O  O17  1  0.719179  0.282742  0.278899  1
  O  O18  1  0.278811  0.716306  0.726072  1
  O  O19  1  0.719179  0.282742  0.719179  1
  O  O20  1  0.278899  0.282742  0.719179  1
  O  O21  1  0.726072  0.716306  0.278811  1
