# generated using pymatgen
data_Lu3MgGe6Ir7
_symmetry_space_group_name_H-M   'P 1'
_cell_length_a   7.25368835
_cell_length_b   7.14840617
_cell_length_c   7.14840709
_cell_angle_alpha   109.17095755
_cell_angle_beta   109.76984263
_cell_angle_gamma   109.76983716
_symmetry_Int_Tables_number   1
_chemical_formula_structural   Lu3MgGe6Ir7
_chemical_formula_sum   'Lu3 Mg1 Ge6 Ir7'
_cell_volume   284.27697124
_cell_formula_units_Z   1
loop_
 _symmetry_equiv_pos_site_id
 _symmetry_equiv_pos_as_xyz
  1  'x, y, z'
loop_
 _atom_site_type_symbol
 _atom_site_label
 _atom_site_symmetry_multiplicity
 _atom_site_fract_x
 _atom_site_fract_y
 _atom_site_fract_z
 _atom_site_occupancy
  Lu  Lu0  1  0.000000  0.000000  0.500000  1
  Lu  Lu1  1  0.000000  0.500000  0.000000  1
  Lu  Lu2  1  0.500000  0.500000  0.500000  1
  Mg  Mg3  1  0.500000  0.000000  0.000000  1
  Ge  Ge4  1  0.684050  0.688430  0.000000  1
  Ge  Ge5  1  0.315950  0.000000  0.311570  1
  Ge  Ge6  1  0.995620  0.311570  0.311570  1
  Ge  Ge7  1  0.315950  0.311570  0.000000  1
  Ge  Ge8  1  0.684050  0.000000  0.688430  1
  Ge  Ge9  1  0.004380  0.688430  0.688430  1
  Ir  Ir10  1  0.748045  0.248045  0.496090  1
  Ir  Ir11  1  0.748045  0.496090  0.248045  1
  Ir  Ir12  1  0.500000  0.248045  0.751955  1
  Ir  Ir13  1  0.251955  0.503910  0.751955  1
  Ir  Ir14  1  0.251955  0.751955  0.503910  1
  Ir  Ir15  1  0.500000  0.751955  0.248045  1
  Ir  Ir16  1  0.000000  0.000000  0.000000  1
