# generated using pymatgen
data_Rb2Bi(SbSe2)5
_symmetry_space_group_name_H-M   'P 1'
_cell_length_a   4.12372900
_cell_length_b   12.36595082
_cell_length_c   22.36372672
_cell_angle_alpha   90.26419076
_cell_angle_beta   90.00000000
_cell_angle_gamma   90.00000000
_symmetry_Int_Tables_number   1
_chemical_formula_structural   Rb2Bi(SbSe2)5
_chemical_formula_sum   'Rb4 Bi2 Sb10 Se20'
_cell_volume   1140.39995605
_cell_formula_units_Z   2
loop_
 _symmetry_equiv_pos_site_id
 _symmetry_equiv_pos_as_xyz
  1  'x, y, z'
loop_
 _atom_site_type_symbol
 _atom_site_label
 _atom_site_symmetry_multiplicity
 _atom_site_fract_x
 _atom_site_fract_y
 _atom_site_fract_z
 _atom_site_occupancy
  Rb  Rb0  1  0.250000  0.489909  0.212137  1
  Rb  Rb1  1  0.750000  0.510091  0.787863  1
  Rb  Rb2  1  0.750000  0.990334  0.289530  1
  Rb  Rb3  1  0.250000  0.009666  0.710470  1
  Bi  Bi4  1  0.750000  0.092555  0.071908  1
  Bi  Bi5  1  0.250000  0.907445  0.928092  1
  Sb  Sb6  1  0.250000  0.370038  0.026074  1
  Sb  Sb7  1  0.750000  0.629962  0.973926  1
  Sb  Sb8  1  0.750000  0.865376  0.476815  1
  Sb  Sb9  1  0.250000  0.134624  0.523185  1
  Sb  Sb10  1  0.250000  0.807657  0.127043  1
  Sb  Sb11  1  0.750000  0.192343  0.872957  1
  Sb  Sb12  1  0.750000  0.309655  0.375613  1
  Sb  Sb13  1  0.250000  0.690345  0.624387  1
  Sb  Sb14  1  0.250000  0.593484  0.428727  1
  Sb  Sb15  1  0.750000  0.406516  0.571273  1
  Se  Se16  1  0.250000  0.801615  0.389664  1
  Se  Se17  1  0.750000  0.198385  0.610336  1
  Se  Se18  1  0.750000  0.313524  0.111672  1
  Se  Se19  1  0.250000  0.686476  0.888328  1
  Se  Se20  1  0.250000  0.254073  0.300130  1
  Se  Se21  1  0.750000  0.745927  0.699870  1
  Se  Se22  1  0.750000  0.752792  0.201938  1
  Se  Se23  1  0.250000  0.247208  0.798062  1
  Se  Se24  1  0.250000  0.360029  0.480780  1
  Se  Se25  1  0.750000  0.639971  0.519220  1
  Se  Se26  1  0.750000  0.862342  0.020830  1
  Se  Se27  1  0.250000  0.137658  0.979170  1
  Se  Se28  1  0.250000  0.020064  0.159112  1
  Se  Se29  1  0.750000  0.979936  0.840888  1
  Se  Se30  1  0.750000  0.524191  0.344394  1
  Se  Se31  1  0.250000  0.475809  0.655606  1
  Se  Se32  1  0.250000  0.580792  0.062572  1
  Se  Se33  1  0.750000  0.419208  0.937428  1
  Se  Se34  1  0.750000  0.081451  0.437262  1
  Se  Se35  1  0.250000  0.918549  0.562738  1
