# generated using pymatgen
data_SmTm3Co5(Ni3B2)3
_symmetry_space_group_name_H-M   'P 1'
_cell_length_a   4.99218109
_cell_length_b   4.99218044
_cell_length_c   13.04540800
_cell_angle_alpha   90.00000000
_cell_angle_beta   90.00000000
_cell_angle_gamma   119.86142909
_symmetry_Int_Tables_number   1
_chemical_formula_structural   SmTm3Co5(Ni3B2)3
_chemical_formula_sum   'Sm1 Tm3 Co5 Ni9 B6'
_cell_volume   281.95099441
_cell_formula_units_Z   1
loop_
 _symmetry_equiv_pos_site_id
 _symmetry_equiv_pos_as_xyz
  1  'x, y, z'
loop_
 _atom_site_type_symbol
 _atom_site_label
 _atom_site_symmetry_multiplicity
 _atom_site_fract_x
 _atom_site_fract_y
 _atom_site_fract_z
 _atom_site_occupancy
  Sm  Sm0  1  0.000000  0.000000  0.001051  1
  Tm  Tm1  1  0.000000  0.000000  0.498442  1
  Tm  Tm2  1  0.000000  0.000000  0.737141  1
  Tm  Tm3  1  0.000000  0.000000  0.263984  1
  Co  Co4  1  0.500000  0.000000  0.616007  1
  Co  Co5  1  0.000000  0.500000  0.616007  1
  Co  Co6  1  0.500000  0.500000  0.383087  1
  Co  Co7  1  0.500000  0.000000  0.383585  1
  Co  Co8  1  0.000000  0.500000  0.383585  1
  Ni  Ni9  1  0.666257  0.333743  0.000278  1
  Ni  Ni10  1  0.333743  0.666257  0.000278  1
  Ni  Ni11  1  0.500000  0.500000  0.841943  1
  Ni  Ni12  1  0.500000  0.000000  0.842210  1
  Ni  Ni13  1  0.000000  0.500000  0.842210  1
  Ni  Ni14  1  0.500000  0.500000  0.158990  1
  Ni  Ni15  1  0.500000  0.000000  0.158499  1
  Ni  Ni16  1  0.000000  0.500000  0.158499  1
  Ni  Ni17  1  0.500000  0.500000  0.615609  1
  B  B18  1  0.669174  0.330826  0.498417  1
  B  B19  1  0.330826  0.669174  0.498417  1
  B  B20  1  0.669930  0.330070  0.730456  1
  B  B21  1  0.330070  0.669930  0.730456  1
  B  B22  1  0.332958  0.667042  0.270424  1
  B  B23  1  0.667042  0.332958  0.270424  1
