# generated using pymatgen
data_Zr2InB2Ru5
_symmetry_space_group_name_H-M   'P 1'
_cell_length_a   9.57293600
_cell_length_b   9.57293600
_cell_length_c   3.11351700
_cell_angle_alpha   90.00000000
_cell_angle_beta   90.00000000
_cell_angle_gamma   90.00000000
_symmetry_Int_Tables_number   1
_chemical_formula_structural   Zr2InB2Ru5
_chemical_formula_sum   'Zr4 In2 B4 Ru10'
_cell_volume   285.32613414
_cell_formula_units_Z   2
loop_
 _symmetry_equiv_pos_site_id
 _symmetry_equiv_pos_as_xyz
  1  'x, y, z'
loop_
 _atom_site_type_symbol
 _atom_site_label
 _atom_site_symmetry_multiplicity
 _atom_site_fract_x
 _atom_site_fract_y
 _atom_site_fract_z
 _atom_site_occupancy
  Zr  Zr0  1  0.674678  0.174678  0.000000  1
  Zr  Zr1  1  0.325322  0.825322  0.000000  1
  Zr  Zr2  1  0.174678  0.325322  0.000000  1
  Zr  Zr3  1  0.825322  0.674678  0.000000  1
  In  In4  1  0.000000  0.000000  0.000000  1
  In  In5  1  0.500000  0.500000  0.000000  1
  B  B6  1  0.122950  0.622950  0.000000  1
  B  B7  1  0.877050  0.377050  0.000000  1
  B  B8  1  0.622950  0.877050  0.000000  1
  B  B9  1  0.377050  0.122950  0.000000  1
  Ru  Ru10  1  0.223455  0.071919  0.500000  1
  Ru  Ru11  1  0.776545  0.928081  0.500000  1
  Ru  Ru12  1  0.071919  0.776545  0.500000  1
  Ru  Ru13  1  0.723455  0.428081  0.500000  1
  Ru  Ru14  1  0.928081  0.223455  0.500000  1
  Ru  Ru15  1  0.276545  0.571919  0.500000  1
  Ru  Ru16  1  0.571919  0.723455  0.500000  1
  Ru  Ru17  1  0.428081  0.276545  0.500000  1
  Ru  Ru18  1  0.500000  0.000000  0.500000  1
  Ru  Ru19  1  0.000000  0.500000  0.500000  1
