# generated using pymatgen
data_K2CeEuSe8
_symmetry_space_group_name_H-M   'P 1'
_cell_length_a   6.35958400
_cell_length_b   6.35958400
_cell_length_c   8.56992500
_cell_angle_alpha   90.00000000
_cell_angle_beta   90.00000000
_cell_angle_gamma   90.00000000
_symmetry_Int_Tables_number   1
_chemical_formula_structural   K2CeEuSe8
_chemical_formula_sum   'K2 Ce1 Eu1 Se8'
_cell_volume   346.60469183
_cell_formula_units_Z   1
loop_
 _symmetry_equiv_pos_site_id
 _symmetry_equiv_pos_as_xyz
  1  'x, y, z'
loop_
 _atom_site_type_symbol
 _atom_site_label
 _atom_site_symmetry_multiplicity
 _atom_site_fract_x
 _atom_site_fract_y
 _atom_site_fract_z
 _atom_site_occupancy
  K  K0  1  0.500000  0.500000  0.500000  1
  K  K1  1  0.000000  0.000000  0.500000  1
  Ce  Ce2  1  0.000000  0.000000  0.000000  1
  Eu  Eu3  1  0.500000  0.500000  0.000000  1
  Se  Se4  1  0.646741  0.877702  0.212897  1
  Se  Se5  1  0.122298  0.646741  0.212897  1
  Se  Se6  1  0.877702  0.353259  0.212897  1
  Se  Se7  1  0.646741  0.122298  0.787103  1
  Se  Se8  1  0.353259  0.877702  0.787103  1
  Se  Se9  1  0.353259  0.122298  0.212897  1
  Se  Se10  1  0.877702  0.646741  0.787103  1
  Se  Se11  1  0.122298  0.353259  0.787103  1
