# generated using pymatgen
data_Er3In3CuHgRh
_symmetry_space_group_name_H-M   'P 1'
_cell_length_a   7.71883800
_cell_length_b   7.71883854
_cell_length_c   3.86639600
_cell_angle_alpha   90.00000000
_cell_angle_beta   90.00000000
_cell_angle_gamma   119.99998910
_symmetry_Int_Tables_number   1
_chemical_formula_structural   Er3In3CuHgRh
_chemical_formula_sum   'Er3 In3 Cu1 Hg1 Rh1'
_cell_volume   199.49907906
_cell_formula_units_Z   1
loop_
 _symmetry_equiv_pos_site_id
 _symmetry_equiv_pos_as_xyz
  1  'x, y, z'
loop_
 _atom_site_type_symbol
 _atom_site_label
 _atom_site_symmetry_multiplicity
 _atom_site_fract_x
 _atom_site_fract_y
 _atom_site_fract_z
 _atom_site_occupancy
  Er  Er0  1  0.028457  0.605533  0.500000  1
  Er  Er1  1  0.394467  0.422924  0.500000  1
  Er  Er2  1  0.577076  0.971543  0.500000  1
  In  In3  1  0.748895  0.754325  0.000000  1
  In  In4  1  0.005429  0.251105  0.000000  1
  In  In5  1  0.245675  0.994571  0.000000  1
  Cu  Cu6  1  0.000000  0.000000  0.500000  1
  Hg  Hg7  1  0.666667  0.333333  0.000000  1
  Rh  Rh8  1  0.333333  0.666667  0.000000  1
