# generated using pymatgen
data_Li3Dy3Si2As
_symmetry_space_group_name_H-M   'P 1'
_cell_length_a   7.06615800
_cell_length_b   7.06615858
_cell_length_c   4.17860300
_cell_angle_alpha   90.00000000
_cell_angle_beta   90.00000000
_cell_angle_gamma   119.99999730
_symmetry_Int_Tables_number   1
_chemical_formula_structural   Li3Dy3Si2As
_chemical_formula_sum   'Li3 Dy3 Si2 As1'
_cell_volume   180.68765383
_cell_formula_units_Z   1
loop_
 _symmetry_equiv_pos_site_id
 _symmetry_equiv_pos_as_xyz
  1  'x, y, z'
loop_
 _atom_site_type_symbol
 _atom_site_label
 _atom_site_symmetry_multiplicity
 _atom_site_fract_x
 _atom_site_fract_y
 _atom_site_fract_z
 _atom_site_occupancy
  Li  Li0  1  0.765039  0.765039  0.500000  1
  Li  Li1  1  0.234961  0.000000  0.500000  1
  Li  Li2  1  0.000000  0.234961  0.500000  1
  Dy  Dy3  1  0.421214  0.421214  0.000000  1
  Dy  Dy4  1  0.578786  0.000000  0.000000  1
  Dy  Dy5  1  0.000000  0.578786  0.000000  1
  Si  Si6  1  0.666667  0.333333  0.500000  1
  Si  Si7  1  0.333333  0.666667  0.500000  1
  As  As8  1  0.000000  0.000000  0.000000  1
