# generated using pymatgen
data_Rb2AgRh3F12
_symmetry_space_group_name_H-M   'P 1'
_cell_length_a   7.45067900
_cell_length_b   7.52361626
_cell_length_c   10.49233200
_cell_angle_alpha   89.27202645
_cell_angle_beta   90.00000000
_cell_angle_gamma   90.00000000
_symmetry_Int_Tables_number   1
_chemical_formula_structural   Rb2AgRh3F12
_chemical_formula_sum   'Rb4 Ag2 Rh6 F24'
_cell_volume   588.11121122
_cell_formula_units_Z   2
loop_
 _symmetry_equiv_pos_site_id
 _symmetry_equiv_pos_as_xyz
  1  'x, y, z'
loop_
 _atom_site_type_symbol
 _atom_site_label
 _atom_site_symmetry_multiplicity
 _atom_site_fract_x
 _atom_site_fract_y
 _atom_site_fract_z
 _atom_site_occupancy
  Rb  Rb0  1  0.750000  0.993134  0.109055  1
  Rb  Rb1  1  0.250000  0.006866  0.890945  1
  Rb  Rb2  1  0.250000  0.469156  0.637135  1
  Rb  Rb3  1  0.750000  0.530844  0.362865  1
  Ag  Ag4  1  0.750000  0.222123  0.753608  1
  Ag  Ag5  1  0.250000  0.777877  0.246392  1
  Rh  Rh6  1  0.500000  0.000000  0.500000  1
  Rh  Rh7  1  0.000000  0.000000  0.500000  1
  Rh  Rh8  1  0.000000  0.500000  0.000000  1
  Rh  Rh9  1  0.500000  0.500000  0.000000  1
  Rh  Rh10  1  0.750000  0.706033  0.726080  1
  Rh  Rh11  1  0.250000  0.293967  0.273920  1
  F  F12  1  0.750000  0.104061  0.497720  1
  F  F13  1  0.250000  0.895939  0.502280  1
  F  F14  1  0.750000  0.483804  0.623056  1
  F  F15  1  0.250000  0.516196  0.376944  1
  F  F16  1  0.250000  0.467236  0.929463  1
  F  F17  1  0.750000  0.532764  0.070537  1
  F  F18  1  0.250000  0.077771  0.166855  1
  F  F19  1  0.750000  0.922229  0.833145  1
  F  F20  1  0.953316  0.853468  0.345770  1
  F  F21  1  0.453316  0.146532  0.654230  1
  F  F22  1  0.046684  0.146532  0.654230  1
  F  F23  1  0.546684  0.853468  0.345770  1
  F  F24  1  0.951969  0.782446  0.609394  1
  F  F25  1  0.451969  0.217554  0.390606  1
  F  F26  1  0.048031  0.217554  0.390606  1
  F  F27  1  0.548031  0.782446  0.609394  1
  F  F28  1  0.043785  0.745105  0.064162  1
  F  F29  1  0.543785  0.254895  0.935838  1
  F  F30  1  0.956215  0.254895  0.935838  1
  F  F31  1  0.456215  0.745105  0.064162  1
  F  F32  1  0.462192  0.385795  0.172905  1
  F  F33  1  0.962192  0.614205  0.827095  1
  F  F34  1  0.537808  0.614205  0.827095  1
  F  F35  1  0.037808  0.385795  0.172905  1
