# generated using pymatgen
data_Tb2YCo9(SiB2)2
_symmetry_space_group_name_H-M   'P 1'
_cell_length_a   5.11899500
_cell_length_b   5.11714236
_cell_length_c   9.33503100
_cell_angle_alpha   89.99998656
_cell_angle_beta   90.00007221
_cell_angle_gamma   119.99767657
_symmetry_Int_Tables_number   1
_chemical_formula_structural   Tb2YCo9(SiB2)2
_chemical_formula_sum   'Tb2 Y1 Co9 Si2 B4'
_cell_volume   211.77211241
_cell_formula_units_Z   1
loop_
 _symmetry_equiv_pos_site_id
 _symmetry_equiv_pos_as_xyz
  1  'x, y, z'
loop_
 _atom_site_type_symbol
 _atom_site_label
 _atom_site_symmetry_multiplicity
 _atom_site_fract_x
 _atom_site_fract_y
 _atom_site_fract_z
 _atom_site_occupancy
  Tb  Tb0  1  0.999995  0.000000  0.338782  1
  Tb  Tb1  1  0.999999  0.000000  0.661169  1
  Y  Y2  1  0.999988  0.000001  0.999994  1
  Co  Co3  1  0.499997  0.000000  0.499953  1
  Co  Co4  1  0.499997  0.500000  0.499960  1
  Co  Co5  1  0.999996  0.499999  0.499952  1
  Co  Co6  1  0.499992  0.000000  0.196156  1
  Co  Co7  1  0.499992  0.500000  0.196150  1
  Co  Co8  1  0.999992  0.500000  0.196165  1
  Co  Co9  1  0.499998  0.000000  0.803907  1
  Co  Co10  1  0.499997  0.500000  0.803904  1
  Co  Co11  1  0.999997  0.500000  0.803895  1
  Si  Si12  1  0.333353  0.666709  0.999997  1
  Si  Si13  1  0.666627  0.333290  0.999997  1
  B  B14  1  0.333364  0.666677  0.345672  1
  B  B15  1  0.666623  0.333323  0.345672  1
  B  B16  1  0.666640  0.333304  0.654338  1
  B  B17  1  0.333354  0.666696  0.654339  1
