# generated using pymatgen
data_CdTcSn4
_symmetry_space_group_name_H-M   'P 1'
_cell_length_a   7.52856833
_cell_length_b   7.52856847
_cell_length_c   7.52856851
_cell_angle_alpha   124.39862112
_cell_angle_beta   124.39862356
_cell_angle_gamma   82.53651157
_symmetry_Int_Tables_number   1
_chemical_formula_structural   CdTcSn4
_chemical_formula_sum   'Cd2 Tc2 Sn8'
_cell_volume   279.06998693
_cell_formula_units_Z   2
loop_
 _symmetry_equiv_pos_site_id
 _symmetry_equiv_pos_as_xyz
  1  'x, y, z'
loop_
 _atom_site_type_symbol
 _atom_site_label
 _atom_site_symmetry_multiplicity
 _atom_site_fract_x
 _atom_site_fract_y
 _atom_site_fract_z
 _atom_site_occupancy
  Cd  Cd0  1  0.500000  0.500000  0.000000  1
  Cd  Cd1  1  0.000000  0.000000  0.000000  1
  Tc  Tc2  1  0.750000  0.750000  0.000000  1
  Tc  Tc3  1  0.250000  0.250000  0.000000  1
  Sn  Sn4  1  0.701169  0.510213  0.500000  1
  Sn  Sn5  1  0.510213  0.010213  0.809044  1
  Sn  Sn6  1  0.201169  0.701169  0.190956  1
  Sn  Sn7  1  0.798831  0.298831  0.809044  1
  Sn  Sn8  1  0.489787  0.989787  0.190956  1
  Sn  Sn9  1  0.298831  0.489787  0.500000  1
  Sn  Sn10  1  0.989787  0.798831  0.500000  1
  Sn  Sn11  1  0.010213  0.201169  0.500000  1
