# generated using pymatgen
data_SrLa5SmOsI12
_symmetry_space_group_name_H-M   'P 1'
_cell_length_a   10.11802332
_cell_length_b   10.13865874
_cell_length_c   10.23850921
_cell_angle_alpha   106.25688330
_cell_angle_beta   106.73991535
_cell_angle_gamma   106.60118887
_symmetry_Int_Tables_number   1
_chemical_formula_structural   SrLa5SmOsI12
_chemical_formula_sum   'Sr1 La5 Sm1 Os1 I12'
_cell_volume   885.60046752
_cell_formula_units_Z   1
loop_
 _symmetry_equiv_pos_site_id
 _symmetry_equiv_pos_as_xyz
  1  'x, y, z'
loop_
 _atom_site_type_symbol
 _atom_site_label
 _atom_site_symmetry_multiplicity
 _atom_site_fract_x
 _atom_site_fract_y
 _atom_site_fract_z
 _atom_site_occupancy
  Sr  Sr0  1  0.499209  0.499482  0.500203  1
  La  La1  1  0.298862  0.024747  0.098128  1
  La  La2  1  0.096017  0.297190  0.023749  1
  La  La3  1  0.975260  0.899141  0.686516  1
  La  La4  1  0.701922  0.976259  0.905186  1
  La  La5  1  0.904079  0.703230  0.976877  1
  Sm  Sm6  1  0.025054  0.099738  0.305544  1
  Os  Os7  1  0.000665  0.000410  0.000536  1
  I  I8  1  0.541046  0.621061  0.850255  1
  I  I9  1  0.852760  0.542349  0.624243  1
  I  I10  1  0.622035  0.853158  0.544044  1
  I  I11  1  0.459263  0.378910  0.150135  1
  I  I12  1  0.142955  0.448894  0.375841  1
  I  I13  1  0.369320  0.145607  0.455398  1
  I  I14  1  0.074149  0.226495  0.677351  1
  I  I15  1  0.688234  0.075786  0.230663  1
  I  I16  1  0.228944  0.680326  0.075479  1
  I  I17  1  0.928155  0.781293  0.320049  1
  I  I18  1  0.320909  0.926135  0.775109  1
  I  I19  1  0.771161  0.319790  0.924695  1
