# generated using pymatgen
data_La2Nd3HoTa2O14
_symmetry_space_group_name_H-M   'P 1'
_cell_length_a   6.67373908
_cell_length_b   6.65511862
_cell_length_c   7.72836700
_cell_angle_alpha   90.00000000
_cell_angle_beta   90.00000000
_cell_angle_gamma   108.75996166
_symmetry_Int_Tables_number   1
_chemical_formula_structural   La2Nd3HoTa2O14
_chemical_formula_sum   'La2 Nd3 Ho1 Ta2 O14'
_cell_volume   325.01623712
_cell_formula_units_Z   1
loop_
 _symmetry_equiv_pos_site_id
 _symmetry_equiv_pos_as_xyz
  1  'x, y, z'
loop_
 _atom_site_type_symbol
 _atom_site_label
 _atom_site_symmetry_multiplicity
 _atom_site_fract_x
 _atom_site_fract_y
 _atom_site_fract_z
 _atom_site_occupancy
  La  La0  1  0.525322  0.519993  0.498668  1
  La  La1  1  0.525322  0.519993  0.001332  1
  Nd  Nd2  1  0.005596  0.463197  0.750000  1
  Nd  Nd3  1  0.533197  0.003284  0.750000  1
  Nd  Nd4  1  0.463459  0.002771  0.250000  1
  Ho  Ho5  1  0.003184  0.530527  0.250000  1
  Ta  Ta6  1  0.000348  0.000374  0.497724  1
  Ta  Ta7  1  0.000348  0.000374  0.002276  1
  O  O8  1  0.945897  0.057307  0.750000  1
  O  O9  1  0.059380  0.936323  0.250000  1
  O  O10  1  0.351871  0.635839  0.250000  1
  O  O11  1  0.643163  0.368268  0.750000  1
  O  O12  1  0.371042  0.632909  0.750000  1
  O  O13  1  0.646153  0.376514  0.250000  1
  O  O14  1  0.310039  0.071219  0.969640  1
  O  O15  1  0.680366  0.921457  0.472627  1
  O  O16  1  0.310039  0.071219  0.530360  1
  O  O17  1  0.680366  0.921457  0.027373  1
  O  O18  1  0.037572  0.301499  0.457625  1
  O  O19  1  0.934880  0.681989  0.976611  1
  O  O20  1  0.934880  0.681989  0.523389  1
  O  O21  1  0.037572  0.301499  0.042375  1
