# generated using pymatgen
data_Cs2TiMnSe4
_symmetry_space_group_name_H-M   'P 1'
_cell_length_a   14.98153121
_cell_length_b   13.32358967
_cell_length_c   8.08972024
_cell_angle_alpha   85.07274447
_cell_angle_beta   62.38074114
_cell_angle_gamma   32.54651201
_symmetry_Int_Tables_number   1
_chemical_formula_structural   Cs2TiMnSe4
_chemical_formula_sum   'Cs4 Ti2 Mn2 Se8'
_cell_volume   591.67802910
_cell_formula_units_Z   2
loop_
 _symmetry_equiv_pos_site_id
 _symmetry_equiv_pos_as_xyz
  1  'x, y, z'
loop_
 _atom_site_type_symbol
 _atom_site_label
 _atom_site_symmetry_multiplicity
 _atom_site_fract_x
 _atom_site_fract_y
 _atom_site_fract_z
 _atom_site_occupancy
  Cs  Cs0  1  0.821231  0.821231  0.178769  1
  Cs  Cs1  1  0.178769  0.178769  0.821231  1
  Cs  Cs2  1  0.428769  0.428769  0.071231  1
  Cs  Cs3  1  0.071231  0.071231  0.428769  1
  Ti  Ti4  1  0.250000  0.250000  0.250000  1
  Ti  Ti5  1  0.000000  0.000000  0.000000  1
  Mn  Mn6  1  0.750000  0.750000  0.750000  1
  Mn  Mn7  1  0.500000  0.500000  0.500000  1
  Se  Se8  1  0.382687  0.720749  0.802216  1
  Se  Se9  1  0.094348  0.802216  0.720749  1
  Se  Se10  1  0.802216  0.094348  0.382687  1
  Se  Se11  1  0.720749  0.382687  0.094348  1
  Se  Se12  1  0.867313  0.529251  0.447784  1
  Se  Se13  1  0.155652  0.447784  0.529251  1
  Se  Se14  1  0.447784  0.155652  0.867313  1
  Se  Se15  1  0.529251  0.867313  0.155652  1
