# generated using pymatgen
data_Tb15Tm(CdCo)4
_symmetry_space_group_name_H-M   'P 1'
_cell_length_a   9.52480752
_cell_length_b   9.52393782
_cell_length_c   9.53844105
_cell_angle_alpha   59.95928304
_cell_angle_beta   59.96250461
_cell_angle_gamma   59.98586846
_symmetry_Int_Tables_number   1
_chemical_formula_structural   Tb15Tm(CdCo)4
_chemical_formula_sum   'Tb15 Tm1 Cd4 Co4'
_cell_volume   611.40903538
_cell_formula_units_Z   1
loop_
 _symmetry_equiv_pos_site_id
 _symmetry_equiv_pos_as_xyz
  1  'x, y, z'
loop_
 _atom_site_type_symbol
 _atom_site_label
 _atom_site_symmetry_multiplicity
 _atom_site_fract_x
 _atom_site_fract_y
 _atom_site_fract_z
 _atom_site_occupancy
  Tb  Tb0  1  0.595991  0.596119  0.596459  1
  Tb  Tb1  1  0.189335  0.810670  0.812227  1
  Tb  Tb2  1  0.061436  0.061280  0.438640  1
  Tb  Tb3  1  0.437425  0.062301  0.062184  1
  Tb  Tb4  1  0.810670  0.189342  0.812219  1
  Tb  Tb5  1  0.437412  0.062460  0.438063  1
  Tb  Tb6  1  0.597021  0.210942  0.595911  1
  Tb  Tb7  1  0.811434  0.811423  0.188573  1
  Tb  Tb8  1  0.211010  0.597086  0.595844  1
  Tb  Tb9  1  0.810658  0.189352  0.187781  1
  Tb  Tb10  1  0.062521  0.437424  0.438082  1
  Tb  Tb11  1  0.189344  0.810659  0.187779  1
  Tb  Tb12  1  0.595887  0.596015  0.211524  1
  Tb  Tb13  1  0.188677  0.188685  0.811317  1
  Tb  Tb14  1  0.062363  0.437438  0.062091  1
  Tm  Tm15  1  0.438650  0.438651  0.061454  1
  Cd  Cd16  1  0.830210  0.830215  0.508870  1
  Cd  Cd17  1  0.830212  0.830216  0.830708  1
  Cd  Cd18  1  0.507464  0.829754  0.831393  1
  Cd  Cd19  1  0.829755  0.507458  0.831397  1
  Co  Co20  1  0.391446  0.391446  0.389170  1
  Co  Co21  1  0.827826  0.391807  0.390178  1
  Co  Co22  1  0.391806  0.827811  0.390186  1
  Co  Co23  1  0.391444  0.391443  0.827948  1
