# generated using pymatgen
data_Ta3Ti3Co15Si7Rh
_symmetry_space_group_name_H-M   'P 1'
_cell_length_a   7.92026976
_cell_length_b   7.92371346
_cell_length_c   7.92508756
_cell_angle_alpha   59.87156814
_cell_angle_beta   59.88670655
_cell_angle_gamma   59.83118602
_symmetry_Int_Tables_number   1
_chemical_formula_structural   Ta3Ti3Co15Si7Rh
_chemical_formula_sum   'Ta3 Ti3 Co15 Si7 Rh1'
_cell_volume   350.59593007
_cell_formula_units_Z   1
loop_
 _symmetry_equiv_pos_site_id
 _symmetry_equiv_pos_as_xyz
  1  'x, y, z'
loop_
 _atom_site_type_symbol
 _atom_site_label
 _atom_site_symmetry_multiplicity
 _atom_site_fract_x
 _atom_site_fract_y
 _atom_site_fract_z
 _atom_site_occupancy
  Ta  Ta0  1  0.799079  0.199385  0.798899  1
  Ta  Ta1  1  0.798804  0.797929  0.200182  1
  Ta  Ta2  1  0.198728  0.197895  0.804222  1
  Ti  Ti3  1  0.201449  0.796464  0.797580  1
  Ti  Ti4  1  0.199869  0.801820  0.200289  1
  Ti  Ti5  1  0.802611  0.199056  0.200617  1
  Co  Co6  1  0.498275  0.834681  0.833899  1
  Co  Co7  1  0.622291  0.622013  0.141185  1
  Co  Co8  1  0.162593  0.162981  0.505517  1
  Co  Co9  1  0.833718  0.834947  0.498313  1
  Co  Co10  1  0.165726  0.166828  0.166284  1
  Co  Co11  1  0.833819  0.834232  0.832931  1
  Co  Co12  1  0.380946  0.380345  0.857504  1
  Co  Co13  1  0.833878  0.498129  0.834450  1
  Co  Co14  1  0.620498  0.619673  0.619850  1
  Co  Co15  1  0.380528  0.858478  0.380568  1
  Co  Co16  1  0.141443  0.620793  0.622221  1
  Co  Co17  1  0.621068  0.142404  0.622142  1
  Co  Co18  1  0.162407  0.505696  0.162354  1
  Co  Co19  1  0.857612  0.380595  0.381357  1
  Co  Co20  1  0.505246  0.163163  0.162552  1
  Si  Si21  1  0.001437  0.998168  0.497342  1
  Si  Si22  1  0.500056  0.993463  0.500996  1
  Si  Si23  1  0.503630  0.505455  0.503584  1
  Si  Si24  1  0.999382  0.499073  0.999392  1
  Si  Si25  1  0.499035  0.502639  0.993812  1
  Si  Si26  1  0.497165  0.998061  0.001520  1
  Si  Si27  1  0.995021  0.502371  0.499318  1
  Rh  Rh28  1  0.383690  0.383262  0.381124  1
