# generated using pymatgen
data_Er3Al2CuSi2Pd
_symmetry_space_group_name_H-M   'P 1'
_cell_length_a   6.79142500
_cell_length_b   6.73766343
_cell_length_c   4.26667700
_cell_angle_alpha   90.00000000
_cell_angle_beta   90.00000000
_cell_angle_gamma   120.26430960
_symmetry_Int_Tables_number   1
_chemical_formula_structural   Er3Al2CuSi2Pd
_chemical_formula_sum   'Er3 Al2 Cu1 Si2 Pd1'
_cell_volume   168.62725329
_cell_formula_units_Z   1
loop_
 _symmetry_equiv_pos_site_id
 _symmetry_equiv_pos_as_xyz
  1  'x, y, z'
loop_
 _atom_site_type_symbol
 _atom_site_label
 _atom_site_symmetry_multiplicity
 _atom_site_fract_x
 _atom_site_fract_y
 _atom_site_fract_z
 _atom_site_occupancy
  Er  Er0  1  0.429435  0.000000  0.000000  1
  Er  Er1  1  0.997662  0.415897  0.000000  1
  Er  Er2  1  0.581765  0.584103  0.000000  1
  Al  Al3  1  0.228090  0.235376  0.500001  1
  Al  Al4  1  0.992715  0.764624  0.500001  1
  Cu  Cu5  1  0.745636  0.000000  0.500001  1
  Si  Si6  1  0.668772  0.331461  0.500001  1
  Si  Si7  1  0.337309  0.668539  0.500001  1
  Pd  Pd8  1  0.018616  0.000000  0.000000  1
