# generated using pymatgen
data_NaScSnBr6
_symmetry_space_group_name_H-M   'P 1'
_cell_length_a   7.80176101
_cell_length_b   7.80167632
_cell_length_c   7.80129016
_cell_angle_alpha   55.99895784
_cell_angle_beta   55.99840698
_cell_angle_gamma   55.99741667
_symmetry_Int_Tables_number   1
_chemical_formula_structural   NaScSnBr6
_chemical_formula_sum   'Na1 Sc1 Sn1 Br6'
_cell_volume   304.63406783
_cell_formula_units_Z   1
loop_
 _symmetry_equiv_pos_site_id
 _symmetry_equiv_pos_as_xyz
  1  'x, y, z'
loop_
 _atom_site_type_symbol
 _atom_site_label
 _atom_site_symmetry_multiplicity
 _atom_site_fract_x
 _atom_site_fract_y
 _atom_site_fract_z
 _atom_site_occupancy
  Na  Na0  1  0.669892  0.669884  0.669891  1
  Sc  Sc1  1  0.999535  0.999610  0.999548  1
  Sn  Sn2  1  0.330882  0.330876  0.330882  1
  Br  Br3  1  0.223412  0.625956  0.913973  1
  Br  Br4  1  0.625961  0.913973  0.223398  1
  Br  Br5  1  0.913992  0.223395  0.625932  1
  Br  Br6  1  0.776131  0.374683  0.085543  1
  Br  Br7  1  0.374684  0.085497  0.776142  1
  Br  Br8  1  0.085514  0.776126  0.374691  1
