# generated using pymatgen
data_Zr4Re2Tc22Sb
_symmetry_space_group_name_H-M   'P 1'
_cell_length_a   8.41904719
_cell_length_b   8.41903671
_cell_length_c   8.41930500
_cell_angle_alpha   109.40223121
_cell_angle_beta   109.40299255
_cell_angle_gamma   109.44877194
_symmetry_Int_Tables_number   1
_chemical_formula_structural   Zr4Re2Tc22Sb
_chemical_formula_sum   'Zr4 Re2 Tc22 Sb1'
_cell_volume   460.29097744
_cell_formula_units_Z   1
loop_
 _symmetry_equiv_pos_site_id
 _symmetry_equiv_pos_as_xyz
  1  'x, y, z'
loop_
 _atom_site_type_symbol
 _atom_site_label
 _atom_site_symmetry_multiplicity
 _atom_site_fract_x
 _atom_site_fract_y
 _atom_site_fract_z
 _atom_site_occupancy
  Zr  Zr0  1  0.626795  0.999662  0.000168  1
  Zr  Zr1  1  0.999680  0.626807  0.000289  1
  Zr  Zr2  1  0.001147  0.001209  0.627292  1
  Zr  Zr3  1  0.372353  0.372293  0.372822  1
  Re  Re4  1  0.818171  0.623035  0.622191  1
  Re  Re5  1  0.623044  0.818192  0.622213  1
  Tc  Tc6  1  0.390188  0.671671  0.999348  1
  Tc  Tc7  1  0.715584  0.324683  0.324924  1
  Tc  Tc8  1  0.391065  0.999297  0.671965  1
  Tc  Tc9  1  0.671609  0.390120  0.999197  1
  Tc  Tc10  1  0.999225  0.390979  0.671876  1
  Tc  Tc11  1  0.324652  0.715601  0.324848  1
  Tc  Tc12  1  0.327449  0.327381  0.716327  1
  Tc  Tc13  1  0.999572  0.672083  0.390846  1
  Tc  Tc14  1  0.672109  0.999510  0.390878  1
  Tc  Tc15  1  0.610120  0.610166  0.282986  1
  Tc  Tc16  1  0.284299  0.610836  0.611370  1
  Tc  Tc17  1  0.610740  0.284279  0.611364  1
  Tc  Tc18  1  0.375132  0.195406  0.999273  1
  Tc  Tc19  1  0.181406  0.806733  0.806503  1
  Tc  Tc20  1  0.375207  0.999409  0.195616  1
  Tc  Tc21  1  0.195441  0.375152  0.999324  1
  Tc  Tc22  1  0.999439  0.375227  0.195618  1
  Tc  Tc23  1  0.806667  0.181354  0.806479  1
  Tc  Tc24  1  0.806115  0.806153  0.181321  1
  Tc  Tc25  1  0.999812  0.195465  0.375632  1
  Tc  Tc26  1  0.195516  0.999852  0.375645  1
  Tc  Tc27  1  0.625899  0.625899  0.821743  1
  Sb  Sb28  1  0.001563  0.001544  0.001939  1
