# generated using pymatgen
data_Nd16Hg4Ir3Pd
_symmetry_space_group_name_H-M   'P 1'
_cell_length_a   9.94436643
_cell_length_b   9.94436722
_cell_length_c   9.94436609
_cell_angle_alpha   60.28538553
_cell_angle_beta   60.28538914
_cell_angle_gamma   60.28538742
_symmetry_Int_Tables_number   1
_chemical_formula_structural   Nd16Hg4Ir3Pd
_chemical_formula_sum   'Nd16 Hg4 Ir3 Pd1'
_cell_volume   699.86187671
_cell_formula_units_Z   1
loop_
 _symmetry_equiv_pos_site_id
 _symmetry_equiv_pos_as_xyz
  1  'x, y, z'
loop_
 _atom_site_type_symbol
 _atom_site_label
 _atom_site_symmetry_multiplicity
 _atom_site_fract_x
 _atom_site_fract_y
 _atom_site_fract_z
 _atom_site_occupancy
  Nd  Nd0  1  0.598044  0.598044  0.598044  1
  Nd  Nd1  1  0.603972  0.603972  0.194992  1
  Nd  Nd2  1  0.603972  0.194992  0.603972  1
  Nd  Nd3  1  0.194992  0.603972  0.603972  1
  Nd  Nd4  1  0.053966  0.441109  0.441109  1
  Nd  Nd5  1  0.439522  0.059399  0.059399  1
  Nd  Nd6  1  0.441109  0.053966  0.441109  1
  Nd  Nd7  1  0.059399  0.439522  0.059399  1
  Nd  Nd8  1  0.441109  0.441109  0.053966  1
  Nd  Nd9  1  0.059399  0.059399  0.439522  1
  Nd  Nd10  1  0.190289  0.812091  0.812091  1
  Nd  Nd11  1  0.813294  0.188626  0.188626  1
  Nd  Nd12  1  0.812091  0.190289  0.812091  1
  Nd  Nd13  1  0.188626  0.813294  0.188626  1
  Nd  Nd14  1  0.812091  0.812091  0.190289  1
  Nd  Nd15  1  0.188626  0.188626  0.813294  1
  Hg  Hg16  1  0.834248  0.834248  0.834248  1
  Hg  Hg17  1  0.834055  0.834055  0.497782  1
  Hg  Hg18  1  0.834055  0.497782  0.834055  1
  Hg  Hg19  1  0.497782  0.834055  0.834055  1
  Ir  Ir20  1  0.391736  0.391736  0.823015  1
  Ir  Ir21  1  0.391736  0.823015  0.391736  1
  Ir  Ir22  1  0.823015  0.391736  0.391736  1
  Pd  Pd23  1  0.392872  0.392872  0.392872  1
