# generated using pymatgen
data_NdTmNi12P5
_symmetry_space_group_name_H-M   'P 1'
_cell_length_a   3.65134100
_cell_length_b   10.69386298
_cell_length_c   13.12758394
_cell_angle_alpha   71.72049471
_cell_angle_beta   90.00000000
_cell_angle_gamma   90.00000000
_symmetry_Int_Tables_number   1
_chemical_formula_structural   NdTmNi12P5
_chemical_formula_sum   'Nd2 Tm2 Ni24 P10'
_cell_volume   486.72543274
_cell_formula_units_Z   2
loop_
 _symmetry_equiv_pos_site_id
 _symmetry_equiv_pos_as_xyz
  1  'x, y, z'
loop_
 _atom_site_type_symbol
 _atom_site_label
 _atom_site_symmetry_multiplicity
 _atom_site_fract_x
 _atom_site_fract_y
 _atom_site_fract_z
 _atom_site_occupancy
  Nd  Nd0  1  0.250000  0.243527  0.188352  1
  Nd  Nd1  1  0.750000  0.756473  0.811648  1
  Tm  Tm2  1  0.250000  0.281756  0.681255  1
  Tm  Tm3  1  0.750000  0.718244  0.318745  1
  Ni  Ni4  1  0.250000  0.834003  0.141667  1
  Ni  Ni5  1  0.750000  0.165997  0.858333  1
  Ni  Ni6  1  0.250000  0.288285  0.439318  1
  Ni  Ni7  1  0.750000  0.711715  0.560682  1
  Ni  Ni8  1  0.250000  0.068839  0.016719  1
  Ni  Ni9  1  0.750000  0.931161  0.983281  1
  Ni  Ni10  1  0.250000  0.063040  0.446430  1
  Ni  Ni11  1  0.750000  0.936960  0.553570  1
  Ni  Ni12  1  0.250000  0.595743  0.696164  1
  Ni  Ni13  1  0.750000  0.404257  0.303836  1
  Ni  Ni14  1  0.250000  0.583338  0.008597  1
  Ni  Ni15  1  0.750000  0.416662  0.991403  1
  Ni  Ni16  1  0.250000  0.580014  0.508339  1
  Ni  Ni17  1  0.750000  0.419986  0.491661  1
  Ni  Ni18  1  0.250000  0.297778  0.915978  1
  Ni  Ni19  1  0.750000  0.702222  0.084022  1
  Ni  Ni20  1  0.250000  0.997499  0.659095  1
  Ni  Ni21  1  0.750000  0.002501  0.340905  1
  Ni  Ni22  1  0.250000  0.834969  0.436720  1
  Ni  Ni23  1  0.750000  0.165031  0.563280  1
  Ni  Ni24  1  0.250000  0.994293  0.847304  1
  Ni  Ni25  1  0.750000  0.005707  0.152696  1
  Ni  Ni26  1  0.250000  0.567393  0.204811  1
  Ni  Ni27  1  0.750000  0.432607  0.795189  1
  P  P28  1  0.250000  0.509156  0.871124  1
  P  P29  1  0.750000  0.490844  0.128876  1
  P  P30  1  0.250000  0.802669  0.983587  1
  P  P31  1  0.750000  0.197331  0.016413  1
  P  P32  1  0.250000  0.498183  0.377344  1
  P  P33  1  0.750000  0.501817  0.622656  1
  P  P34  1  0.250000  0.812852  0.610588  1
  P  P35  1  0.750000  0.187148  0.389412  1
  P  P36  1  0.250000  0.942729  0.261640  1
  P  P37  1  0.750000  0.057271  0.738360  1
