# generated using pymatgen
data_PrEu2Ni9
_symmetry_space_group_name_H-M   'P 1'
_cell_length_a   8.78814363
_cell_length_b   8.78814343
_cell_length_c   8.78814311
_cell_angle_alpha   33.41350793
_cell_angle_beta   33.41351054
_cell_angle_gamma   33.41350029
_symmetry_Int_Tables_number   1
_chemical_formula_structural   PrEu2Ni9
_chemical_formula_sum   'Pr1 Eu2 Ni9'
_cell_volume   183.28483438
_cell_formula_units_Z   1
loop_
 _symmetry_equiv_pos_site_id
 _symmetry_equiv_pos_as_xyz
  1  'x, y, z'
loop_
 _atom_site_type_symbol
 _atom_site_label
 _atom_site_symmetry_multiplicity
 _atom_site_fract_x
 _atom_site_fract_y
 _atom_site_fract_z
 _atom_site_occupancy
  Pr  Pr0  1  0.000000  0.000000  0.000000  1
  Eu  Eu1  1  0.859171  0.859171  0.859171  1
  Eu  Eu2  1  0.140829  0.140829  0.140829  1
  Ni  Ni3  1  0.081841  0.578410  0.578410  1
  Ni  Ni4  1  0.918159  0.421590  0.421590  1
  Ni  Ni5  1  0.667964  0.667964  0.667964  1
  Ni  Ni6  1  0.578410  0.578410  0.081841  1
  Ni  Ni7  1  0.421590  0.918159  0.421590  1
  Ni  Ni8  1  0.332036  0.332036  0.332036  1
  Ni  Ni9  1  0.500000  0.500000  0.500000  1
  Ni  Ni10  1  0.421590  0.421590  0.918159  1
  Ni  Ni11  1  0.578410  0.081841  0.578410  1
