# generated using pymatgen
data_Lu3(Fe2Co)2
_symmetry_space_group_name_H-M   'P 1'
_cell_length_a   5.04682013
_cell_length_b   5.08581177
_cell_length_c   12.35959700
_cell_angle_alpha   89.97741205
_cell_angle_beta   89.76589228
_cell_angle_gamma   120.08314234
_symmetry_Int_Tables_number   1
_chemical_formula_structural   Lu3(Fe2Co)2
_chemical_formula_sum   'Lu6 Fe8 Co4'
_cell_volume   274.50056039
_cell_formula_units_Z   2
loop_
 _symmetry_equiv_pos_site_id
 _symmetry_equiv_pos_as_xyz
  1  'x, y, z'
loop_
 _atom_site_type_symbol
 _atom_site_label
 _atom_site_symmetry_multiplicity
 _atom_site_fract_x
 _atom_site_fract_y
 _atom_site_fract_z
 _atom_site_occupancy
  Lu  Lu0  1  0.333440  0.665118  0.918074  1
  Lu  Lu1  1  0.001755  0.002019  0.248876  1
  Lu  Lu2  1  0.666663  0.333066  0.582937  1
  Lu  Lu3  1  0.333337  0.666934  0.667063  1
  Lu  Lu4  1  0.998245  0.997981  0.001124  1
  Lu  Lu5  1  0.666560  0.334882  0.331926  1
  Fe  Fe6  1  0.166721  0.334195  0.457286  1
  Fe  Fe7  1  0.833279  0.665805  0.792714  1
  Fe  Fe8  1  0.334013  0.667302  0.290656  1
  Fe  Fe9  1  0.000000  0.000000  0.625000  1
  Fe  Fe10  1  0.665987  0.332698  0.959344  1
  Fe  Fe11  1  0.000000  0.500000  0.125000  1
  Fe  Fe12  1  0.667114  0.834549  0.457494  1
  Fe  Fe13  1  0.332886  0.165451  0.792506  1
  Co  Co14  1  0.500000  0.500000  0.125000  1
  Co  Co15  1  0.166792  0.834349  0.457765  1
  Co  Co16  1  0.833208  0.165651  0.792235  1
  Co  Co17  1  0.500000  0.000000  0.125000  1
