# generated using pymatgen
data_FeAsBr6
_symmetry_space_group_name_H-M   'P 1'
_cell_length_a   9.97748556
_cell_length_b   9.97748560
_cell_length_c   7.17606799
_cell_angle_alpha   70.82179222
_cell_angle_beta   70.82178981
_cell_angle_gamma   80.18666843
_symmetry_Int_Tables_number   1
_chemical_formula_structural   FeAsBr6
_chemical_formula_sum   'Fe2 As2 Br12'
_cell_volume   635.71830735
_cell_formula_units_Z   2
loop_
 _symmetry_equiv_pos_site_id
 _symmetry_equiv_pos_as_xyz
  1  'x, y, z'
loop_
 _atom_site_type_symbol
 _atom_site_label
 _atom_site_symmetry_multiplicity
 _atom_site_fract_x
 _atom_site_fract_y
 _atom_site_fract_z
 _atom_site_occupancy
  Fe  Fe0  1  0.194168  0.194168  0.660096  1
  Fe  Fe1  1  0.805832  0.805832  0.339904  1
  As  As2  1  0.803468  0.196532  0.000000  1
  As  As3  1  0.196532  0.803468  0.000000  1
  Br  Br4  1  0.212998  0.584330  0.932606  1
  Br  Br5  1  0.415670  0.787002  0.067394  1
  Br  Br6  1  0.787002  0.415670  0.067394  1
  Br  Br7  1  0.584330  0.212998  0.932606  1
  Br  Br8  1  0.030369  0.722898  0.412250  1
  Br  Br9  1  0.277102  0.969631  0.587750  1
  Br  Br10  1  0.969631  0.277102  0.587750  1
  Br  Br11  1  0.722898  0.030369  0.412250  1
  Br  Br12  1  0.860690  0.860690  0.979437  1
  Br  Br13  1  0.139310  0.139310  0.020563  1
  Br  Br14  1  0.640928  0.640928  0.525477  1
  Br  Br15  1  0.359072  0.359072  0.474523  1
