# generated using pymatgen
data_TbDy8Y11(CoBi2)4
_symmetry_space_group_name_H-M   'P 1'
_cell_length_a   8.02744119
_cell_length_b   8.84587200
_cell_length_c   12.42586730
_cell_angle_alpha   90.00000000
_cell_angle_beta   90.02495328
_cell_angle_gamma   90.00000000
_symmetry_Int_Tables_number   1
_chemical_formula_structural   TbDy8Y11(CoBi2)4
_chemical_formula_sum   'Tb1 Dy8 Y11 Co4 Bi8'
_cell_volume   882.35723958
_cell_formula_units_Z   1
loop_
 _symmetry_equiv_pos_site_id
 _symmetry_equiv_pos_as_xyz
  1  'x, y, z'
loop_
 _atom_site_type_symbol
 _atom_site_label
 _atom_site_symmetry_multiplicity
 _atom_site_fract_x
 _atom_site_fract_y
 _atom_site_fract_z
 _atom_site_occupancy
  Tb  Tb0  1  0.846690  0.750000  0.801188  1
  Dy  Dy1  1  0.674943  0.035041  0.563400  1
  Dy  Dy2  1  0.324930  0.965030  0.436541  1
  Dy  Dy3  1  0.175059  0.965164  0.936577  1
  Dy  Dy4  1  0.324930  0.534970  0.436541  1
  Dy  Dy5  1  0.825003  0.035182  0.063565  1
  Dy  Dy6  1  0.674943  0.464959  0.563400  1
  Dy  Dy7  1  0.825003  0.464818  0.063565  1
  Dy  Dy8  1  0.175059  0.534836  0.936577  1
  Y  Y9  1  0.153648  0.250000  0.199460  1
  Y  Y10  1  0.346418  0.250000  0.699425  1
  Y  Y11  1  0.653516  0.750000  0.300629  1
  Y  Y12  1  0.377955  0.750000  0.689888  1
  Y  Y13  1  0.621909  0.250000  0.310118  1
  Y  Y14  1  0.878020  0.250000  0.810077  1
  Y  Y15  1  0.121868  0.750000  0.189831  1
  Y  Y16  1  0.953170  0.750000  0.502305  1
  Y  Y17  1  0.046960  0.250000  0.497697  1
  Y  Y18  1  0.453148  0.250000  0.997628  1
  Y  Y19  1  0.546848  0.750000  0.002330  1
  Co  Co20  1  0.560664  0.750000  0.508150  1
  Co  Co21  1  0.439510  0.250000  0.491809  1
  Co  Co22  1  0.060705  0.250000  0.991861  1
  Co  Co23  1  0.939119  0.750000  0.007671  1
  Bi  Bi24  1  0.569102  0.492167  0.825968  1
  Bi  Bi25  1  0.430678  0.507721  0.174029  1
  Bi  Bi26  1  0.069554  0.507475  0.673941  1
  Bi  Bi27  1  0.430678  0.992279  0.174029  1
  Bi  Bi28  1  0.930656  0.492316  0.325944  1
  Bi  Bi29  1  0.569102  0.007833  0.825968  1
  Bi  Bi30  1  0.930656  0.007684  0.325944  1
  Bi  Bi31  1  0.069554  0.992525  0.673941  1
