# generated using pymatgen
data_Yb3ErAs6Ir7
_symmetry_space_group_name_H-M   'P 1'
_cell_length_a   7.22660822
_cell_length_b   7.22660830
_cell_length_c   7.22660600
_cell_angle_alpha   109.45093482
_cell_angle_beta   109.45093505
_cell_angle_gamma   109.45093136
_symmetry_Int_Tables_number   1
_chemical_formula_structural   Yb3ErAs6Ir7
_chemical_formula_sum   'Yb3 Er1 As6 Ir7'
_cell_volume   290.74167218
_cell_formula_units_Z   1
loop_
 _symmetry_equiv_pos_site_id
 _symmetry_equiv_pos_as_xyz
  1  'x, y, z'
loop_
 _atom_site_type_symbol
 _atom_site_label
 _atom_site_symmetry_multiplicity
 _atom_site_fract_x
 _atom_site_fract_y
 _atom_site_fract_z
 _atom_site_occupancy
  Yb  Yb0  1  0.000000  0.500000  0.000000  1
  Yb  Yb1  1  0.500000  0.000000  0.000000  1
  Yb  Yb2  1  0.000000  0.000000  0.500000  1
  Er  Er3  1  0.500000  0.500000  0.500000  1
  As  As4  1  0.682929  0.003353  0.682929  1
  As  As5  1  0.682929  0.682929  0.003353  1
  As  As6  1  0.317071  0.317071  0.996647  1
  As  As7  1  0.003353  0.682929  0.682929  1
  As  As8  1  0.996647  0.317071  0.317071  1
  As  As9  1  0.317071  0.996647  0.317071  1
  Ir  Ir10  1  0.500000  0.748724  0.251276  1
  Ir  Ir11  1  0.748724  0.251276  0.500000  1
  Ir  Ir12  1  0.251276  0.748724  0.500000  1
  Ir  Ir13  1  0.251276  0.500000  0.748724  1
  Ir  Ir14  1  0.000000  0.000000  0.000000  1
  Ir  Ir15  1  0.500000  0.251276  0.748724  1
  Ir  Ir16  1  0.748724  0.500000  0.251276  1
