# generated using pymatgen
data_HoEr3HfIr3
_symmetry_space_group_name_H-M   'P 1'
_cell_length_a   10.77379500
_cell_length_b   10.76850800
_cell_length_c   6.22060400
_cell_angle_alpha   90.00000000
_cell_angle_beta   90.00000000
_cell_angle_gamma   90.00000000
_symmetry_Int_Tables_number   1
_chemical_formula_structural   HoEr3HfIr3
_chemical_formula_sum   'Ho4 Er12 Hf4 Ir12'
_cell_volume   721.70015406
_cell_formula_units_Z   4
loop_
 _symmetry_equiv_pos_site_id
 _symmetry_equiv_pos_as_xyz
  1  'x, y, z'
loop_
 _atom_site_type_symbol
 _atom_site_label
 _atom_site_symmetry_multiplicity
 _atom_site_fract_x
 _atom_site_fract_y
 _atom_site_fract_z
 _atom_site_occupancy
  Ho  Ho0  1  0.289558  0.086492  0.374423  1
  Ho  Ho1  1  0.289558  0.913508  0.874423  1
  Ho  Ho2  1  0.710442  0.086492  0.874423  1
  Ho  Ho3  1  0.710442  0.913508  0.374423  1
  Er  Er4  1  0.586331  0.789496  0.874657  1
  Er  Er5  1  0.586331  0.210504  0.374657  1
  Er  Er6  1  0.413669  0.789496  0.374657  1
  Er  Er7  1  0.413669  0.210504  0.874657  1
  Er  Er8  1  0.210330  0.413719  0.625330  1
  Er  Er9  1  0.210330  0.586281  0.125330  1
  Er  Er10  1  0.789670  0.413719  0.125330  1
  Er  Er11  1  0.789670  0.586281  0.625330  1
  Er  Er12  1  0.913744  0.710247  0.125309  1
  Er  Er13  1  0.913744  0.289753  0.625309  1
  Er  Er14  1  0.086256  0.710247  0.625309  1
  Er  Er15  1  0.086256  0.289753  0.125309  1
  Hf  Hf16  1  0.000000  0.000000  0.500152  1
  Hf  Hf17  1  0.000000  0.000000  0.000152  1
  Hf  Hf18  1  0.500000  0.500000  0.000096  1
  Hf  Hf19  1  0.500000  0.500000  0.500096  1
  Ir  Ir20  1  0.855868  0.144569  0.250217  1
  Ir  Ir21  1  0.855868  0.855431  0.750217  1
  Ir  Ir22  1  0.144132  0.144569  0.750217  1
  Ir  Ir23  1  0.144132  0.855431  0.250217  1
  Ir  Ir24  1  0.644319  0.355807  0.749930  1
  Ir  Ir25  1  0.644319  0.644193  0.249930  1
  Ir  Ir26  1  0.355681  0.355807  0.249930  1
  Ir  Ir27  1  0.355681  0.644193  0.749930  1
  Ir  Ir28  1  0.500000  0.000000  0.122354  1
  Ir  Ir29  1  0.500000  0.000000  0.622354  1
  Ir  Ir30  1  0.000000  0.500000  0.877665  1
  Ir  Ir31  1  0.000000  0.500000  0.377665  1
