# generated using pymatgen
data_Pa6Ni6Ge7Sb
_symmetry_space_group_name_H-M   'P 1'
_cell_length_a   7.84034105
_cell_length_b   7.84034103
_cell_length_c   7.84033979
_cell_angle_alpha   109.50994522
_cell_angle_beta   109.50994769
_cell_angle_gamma   109.50994584
_symmetry_Int_Tables_number   1
_chemical_formula_structural   Pa6Ni6Ge7Sb
_chemical_formula_sum   'Pa6 Ni6 Ge7 Sb1'
_cell_volume   370.47478459
_cell_formula_units_Z   1
loop_
 _symmetry_equiv_pos_site_id
 _symmetry_equiv_pos_as_xyz
  1  'x, y, z'
loop_
 _atom_site_type_symbol
 _atom_site_label
 _atom_site_symmetry_multiplicity
 _atom_site_fract_x
 _atom_site_fract_y
 _atom_site_fract_z
 _atom_site_occupancy
  Pa  Pa0  1  0.623176  0.368540  0.243338  1
  Pa  Pa1  1  0.368540  0.243338  0.623176  1
  Pa  Pa2  1  0.136226  0.751955  0.882425  1
  Pa  Pa3  1  0.751955  0.882425  0.136226  1
  Pa  Pa4  1  0.243338  0.623176  0.368540  1
  Pa  Pa5  1  0.882425  0.136226  0.751955  1
  Ni  Ni6  1  0.874546  0.248909  0.123406  1
  Ni  Ni7  1  0.367747  0.624141  0.752679  1
  Ni  Ni8  1  0.624141  0.752679  0.367747  1
  Ni  Ni9  1  0.752679  0.367747  0.624141  1
  Ni  Ni10  1  0.248909  0.123406  0.874546  1
  Ni  Ni11  1  0.123406  0.874546  0.248909  1
  Ge  Ge12  1  0.499762  0.998294  0.831044  1
  Ge  Ge13  1  0.166158  0.166158  0.166158  1
  Ge  Ge14  1  0.831044  0.499762  0.998294  1
  Ge  Ge15  1  0.998294  0.831044  0.499762  1
  Ge  Ge16  1  0.336899  0.498787  0.001473  1
  Ge  Ge17  1  0.001473  0.336899  0.498787  1
  Ge  Ge18  1  0.498787  0.001473  0.336899  1
  Sb  Sb19  1  0.670494  0.670494  0.670494  1
