# generated using pymatgen
data_Eu9Tm11Pt16
_symmetry_space_group_name_H-M   'P 1'
_cell_length_a   7.59086568
_cell_length_b   7.67482260
_cell_length_c   14.97674100
_cell_angle_alpha   90.04619603
_cell_angle_beta   90.02432717
_cell_angle_gamma   90.00961824
_symmetry_Int_Tables_number   1
_chemical_formula_structural   Eu9Tm11Pt16
_chemical_formula_sum   'Eu9 Tm11 Pt16'
_cell_volume   872.52280281
_cell_formula_units_Z   1
loop_
 _symmetry_equiv_pos_site_id
 _symmetry_equiv_pos_as_xyz
  1  'x, y, z'
loop_
 _atom_site_type_symbol
 _atom_site_label
 _atom_site_symmetry_multiplicity
 _atom_site_fract_x
 _atom_site_fract_y
 _atom_site_fract_z
 _atom_site_occupancy
  Eu  Eu0  1  0.159303  0.335639  0.618559  1
  Eu  Eu1  1  0.501907  0.678577  0.596088  1
  Eu  Eu2  1  0.000751  0.821188  0.905784  1
  Eu  Eu3  1  0.498926  0.321847  0.095320  1
  Eu  Eu4  1  0.999186  0.179381  0.403916  1
  Eu  Eu5  1  0.500929  0.321436  0.405103  1
  Eu  Eu6  1  0.998889  0.179118  0.095167  1
  Eu  Eu7  1  0.500224  0.678876  0.906096  1
  Eu  Eu8  1  0.999334  0.818724  0.594512  1
  Tm  Tm9  1  0.657672  0.162616  0.624530  1
  Tm  Tm10  1  0.157810  0.335894  0.878236  1
  Tm  Tm11  1  0.342087  0.837019  0.122738  1
  Tm  Tm12  1  0.840058  0.665623  0.376147  1
  Tm  Tm13  1  0.344696  0.837372  0.376326  1
  Tm  Tm14  1  0.842417  0.665225  0.122539  1
  Tm  Tm15  1  0.657581  0.163969  0.878145  1
  Tm  Tm16  1  0.820565  0.507539  0.751658  1
  Tm  Tm17  1  0.318751  0.990839  0.751476  1
  Tm  Tm18  1  0.180552  0.493858  0.249641  1
  Tm  Tm19  1  0.680945  0.009379  0.249351  1
  Pt  Pt20  1  0.674503  0.963201  0.451180  1
  Pt  Pt21  1  0.171283  0.540066  0.047306  1
  Pt  Pt22  1  0.328710  0.039124  0.953098  1
  Pt  Pt23  1  0.814272  0.461986  0.544092  1
  Pt  Pt24  1  0.338118  0.024051  0.547441  1
  Pt  Pt25  1  0.828664  0.461265  0.952816  1
  Pt  Pt26  1  0.671285  0.960945  0.047345  1
  Pt  Pt27  1  0.169536  0.543811  0.444939  1
  Pt  Pt28  1  0.459317  0.363647  0.753651  1
  Pt  Pt29  1  0.949210  0.133633  0.754340  1
  Pt  Pt30  1  0.546256  0.638204  0.248908  1
  Pt  Pt31  1  0.046640  0.863656  0.249259  1
  Pt  Pt32  1  0.686461  0.870353  0.751152  1
  Pt  Pt33  1  0.191260  0.630777  0.753950  1
  Pt  Pt34  1  0.311157  0.128546  0.249774  1
  Pt  Pt35  1  0.810746  0.372619  0.249419  1
