# generated using pymatgen
data_Pa2CoGeRh
_symmetry_space_group_name_H-M   'P 1'
_cell_length_a   7.40113000
_cell_length_b   7.40113007
_cell_length_c   3.42564200
_cell_angle_alpha   90.00000000
_cell_angle_beta   90.00000000
_cell_angle_gamma   91.07311076
_symmetry_Int_Tables_number   1
_chemical_formula_structural   Pa2CoGeRh
_chemical_formula_sum   'Pa4 Co2 Ge2 Rh2'
_cell_volume   187.61254173
_cell_formula_units_Z   2
loop_
 _symmetry_equiv_pos_site_id
 _symmetry_equiv_pos_as_xyz
  1  'x, y, z'
loop_
 _atom_site_type_symbol
 _atom_site_label
 _atom_site_symmetry_multiplicity
 _atom_site_fract_x
 _atom_site_fract_y
 _atom_site_fract_z
 _atom_site_occupancy
  Pa  Pa0  1  0.685452  0.185452  0.500000  1
  Pa  Pa1  1  0.314548  0.814548  0.500000  1
  Pa  Pa2  1  0.166844  0.333156  0.500000  1
  Pa  Pa3  1  0.833156  0.666844  0.500000  1
  Co  Co4  1  0.128519  0.628519  0.000000  1
  Co  Co5  1  0.871481  0.371481  0.000000  1
  Ge  Ge6  1  0.000000  0.000000  0.000000  1
  Ge  Ge7  1  0.500000  0.500000  0.000000  1
  Rh  Rh8  1  0.633523  0.866477  0.000000  1
  Rh  Rh9  1  0.366477  0.133523  0.000000  1
