# generated using pymatgen
data_Ho4Al4PdRh3
_symmetry_space_group_name_H-M   'P 1'
_cell_length_a   4.20858100
_cell_length_b   6.90828613
_cell_length_c   7.95867815
_cell_angle_alpha   90.02241743
_cell_angle_beta   90.00000000
_cell_angle_gamma   90.00000000
_symmetry_Int_Tables_number   1
_chemical_formula_structural   Ho4Al4PdRh3
_chemical_formula_sum   'Ho4 Al4 Pd1 Rh3'
_cell_volume   231.39124158
_cell_formula_units_Z   1
loop_
 _symmetry_equiv_pos_site_id
 _symmetry_equiv_pos_as_xyz
  1  'x, y, z'
loop_
 _atom_site_type_symbol
 _atom_site_label
 _atom_site_symmetry_multiplicity
 _atom_site_fract_x
 _atom_site_fract_y
 _atom_site_fract_z
 _atom_site_occupancy
  Ho  Ho0  1  0.250000  0.533945  0.182957  1
  Ho  Ho1  1  0.750000  0.457280  0.819407  1
  Ho  Ho2  1  0.750000  0.966729  0.675671  1
  Ho  Ho3  1  0.250000  0.035602  0.320797  1
  Al  Al4  1  0.250000  0.632885  0.558679  1
  Al  Al5  1  0.750000  0.364719  0.439265  1
  Al  Al6  1  0.750000  0.866959  0.063548  1
  Al  Al7  1  0.250000  0.139232  0.939639  1
  Pd  Pd8  1  0.250000  0.767091  0.877557  1
  Rh  Rh9  1  0.750000  0.237591  0.120838  1
  Rh  Rh10  1  0.750000  0.735814  0.378830  1
  Rh  Rh11  1  0.250000  0.262152  0.622812  1
