# generated using pymatgen
data_Ce2ErHf3F22
_symmetry_space_group_name_H-M   'P 1'
_cell_length_a   8.44964258
_cell_length_b   8.44964437
_cell_length_c   8.46635371
_cell_angle_alpha   124.85411581
_cell_angle_beta   106.63742466
_cell_angle_gamma   98.07680533
_symmetry_Int_Tables_number   1
_chemical_formula_structural   Ce2ErHf3F22
_chemical_formula_sum   'Ce2 Er1 Hf3 F22'
_cell_volume   438.27265014
_cell_formula_units_Z   1
loop_
 _symmetry_equiv_pos_site_id
 _symmetry_equiv_pos_as_xyz
  1  'x, y, z'
loop_
 _atom_site_type_symbol
 _atom_site_label
 _atom_site_symmetry_multiplicity
 _atom_site_fract_x
 _atom_site_fract_y
 _atom_site_fract_z
 _atom_site_occupancy
  Ce  Ce0  1  0.749478  0.249612  0.499424  1
  Ce  Ce1  1  0.249812  0.749945  0.499424  1
  Er  Er2  1  0.680222  0.635215  0.315437  1
  Hf  Hf3  1  0.317771  0.364975  0.682746  1
  Hf  Hf4  1  0.180357  0.866314  0.046672  1
  Hf  Hf5  1  0.819124  0.135319  0.954441  1
  F  F6  1  0.707638  0.916218  0.347006  1
  F  F7  1  0.292842  0.101105  0.651997  1
  F  F8  1  0.550891  0.359155  0.651997  1
  F  F9  1  0.947574  0.606028  0.813820  1
  F  F10  1  0.430788  0.639368  0.347006  1
  F  F11  1  0.055891  0.391940  0.186636  1
  F  F12  1  0.794696  0.130745  0.186636  1
  F  F13  1  0.207792  0.866247  0.813820  1
  F  F14  1  0.490733  0.492987  0.983720  1
  F  F15  1  0.003744  0.001302  0.005046  1
  F  F16  1  0.784048  0.880156  0.664203  1
  F  F17  1  0.220605  0.129410  0.350014  1
  F  F18  1  0.276565  0.629678  0.906244  1
  F  F19  1  0.721225  0.360429  0.081653  1
  F  F20  1  0.971455  0.740453  0.423892  1
  F  F21  1  0.047942  0.263497  0.582790  1
  F  F22  1  0.319293  0.534847  0.582790  1
  F  F23  1  0.176717  0.762652  0.212542  1
  F  F24  1  0.683438  0.452437  0.423892  1
  F  F25  1  0.823788  0.241123  0.786805  1
  F  F26  1  0.545682  0.963016  0.786805  1
  F  F27  1  0.449892  0.035826  0.212542  1
