# generated using pymatgen
data_Nd16MgInNiHg2Os3
_symmetry_space_group_name_H-M   'P 1'
_cell_length_a   9.85120106
_cell_length_b   9.99067862
_cell_length_c   9.99067800
_cell_angle_alpha   60.00000205
_cell_angle_beta   59.53052922
_cell_angle_gamma   59.53052807
_symmetry_Int_Tables_number   1
_chemical_formula_structural   Nd16MgInNiHg2Os3
_chemical_formula_sum   'Nd16 Mg1 In1 Ni1 Hg2 Os3'
_cell_volume   690.31234071
_cell_formula_units_Z   1
loop_
 _symmetry_equiv_pos_site_id
 _symmetry_equiv_pos_as_xyz
  1  'x, y, z'
loop_
 _atom_site_type_symbol
 _atom_site_label
 _atom_site_symmetry_multiplicity
 _atom_site_fract_x
 _atom_site_fract_y
 _atom_site_fract_z
 _atom_site_occupancy
  Nd  Nd0  1  0.808480  0.191964  0.191964  1
  Nd  Nd1  1  0.188446  0.810951  0.810951  1
  Nd  Nd2  1  0.186235  0.812389  0.189321  1
  Nd  Nd3  1  0.807126  0.193155  0.807658  1
  Nd  Nd4  1  0.186235  0.189321  0.812389  1
  Nd  Nd5  1  0.807126  0.807658  0.193155  1
  Nd  Nd6  1  0.939695  0.560825  0.560825  1
  Nd  Nd7  1  0.553977  0.939819  0.939819  1
  Nd  Nd8  1  0.553716  0.941942  0.567007  1
  Nd  Nd9  1  0.939190  0.560679  0.940719  1
  Nd  Nd10  1  0.553716  0.567007  0.941942  1
  Nd  Nd11  1  0.939190  0.940719  0.560679  1
  Nd  Nd12  1  0.348281  0.346224  0.346224  1
  Nd  Nd13  1  0.348382  0.346122  0.959590  1
  Nd  Nd14  1  0.348382  0.959590  0.346122  1
  Nd  Nd15  1  0.958188  0.347214  0.347214  1
  Mg  Mg16  1  0.286246  0.570120  0.570120  1
  In  In17  1  0.580350  0.581439  0.581439  1
  Ni  Ni18  1  0.580464  0.140193  0.140193  1
  Hg  Hg19  1  0.580313  0.585955  0.248645  1
  Hg  Hg20  1  0.580313  0.248645  0.585955  1
  Os  Os21  1  0.141829  0.138994  0.138994  1
  Os  Os22  1  0.142062  0.138998  0.580083  1
  Os  Os23  1  0.142062  0.580083  0.138998  1
