# generated using pymatgen
data_K2BaGeSe5
_symmetry_space_group_name_H-M   'P 1'
_cell_length_a   11.84198687
_cell_length_b   10.54925500
_cell_length_c   9.40902968
_cell_angle_alpha   90.00000000
_cell_angle_beta   91.86179083
_cell_angle_gamma   90.00000000
_symmetry_Int_Tables_number   1
_chemical_formula_structural   K2BaGeSe5
_chemical_formula_sum   'K8 Ba4 Ge4 Se20'
_cell_volume   1174.79443712
_cell_formula_units_Z   4
loop_
 _symmetry_equiv_pos_site_id
 _symmetry_equiv_pos_as_xyz
  1  'x, y, z'
loop_
 _atom_site_type_symbol
 _atom_site_label
 _atom_site_symmetry_multiplicity
 _atom_site_fract_x
 _atom_site_fract_y
 _atom_site_fract_z
 _atom_site_occupancy
  K  K0  1  0.561846  0.702012  0.059926  1
  K  K1  1  0.299484  0.945863  0.116722  1
  K  K2  1  0.700517  0.445863  0.383278  1
  K  K3  1  0.438153  0.202012  0.440073  1
  K  K4  1  0.561847  0.797988  0.559926  1
  K  K5  1  0.299484  0.554138  0.616721  1
  K  K6  1  0.700516  0.054138  0.883279  1
  K  K7  1  0.438153  0.297988  0.940074  1
  Ba  Ba8  1  0.985357  0.730148  0.096960  1
  Ba  Ba9  1  0.014644  0.230148  0.403039  1
  Ba  Ba10  1  0.985356  0.769852  0.596960  1
  Ba  Ba11  1  0.014644  0.269852  0.903040  1
  Ge  Ge12  1  0.251062  0.477947  0.208602  1
  Ge  Ge13  1  0.748937  0.977947  0.291398  1
  Ge  Ge14  1  0.251063  0.022053  0.708603  1
  Ge  Ge15  1  0.748937  0.522053  0.791397  1
  Se  Se16  1  0.255196  0.620688  0.002259  1
  Se  Se17  1  0.904209  0.033725  0.145060  1
  Se  Se18  1  0.224912  0.260180  0.153576  1
  Se  Se19  1  0.905392  0.439561  0.163771  1
  Se  Se20  1  0.568807  0.019993  0.187661  1
  Se  Se21  1  0.431193  0.519993  0.312339  1
  Se  Se22  1  0.094608  0.939561  0.336229  1
  Se  Se23  1  0.775087  0.760179  0.346424  1
  Se  Se24  1  0.095792  0.533726  0.354941  1
  Se  Se25  1  0.744805  0.120688  0.497741  1
  Se  Se26  1  0.255195  0.879311  0.502259  1
  Se  Se27  1  0.904208  0.466275  0.645059  1
  Se  Se28  1  0.224912  0.239821  0.653576  1
  Se  Se29  1  0.905392  0.060439  0.663770  1
  Se  Se30  1  0.568807  0.480007  0.687661  1
  Se  Se31  1  0.431194  0.980006  0.812339  1
  Se  Se32  1  0.094608  0.560439  0.836229  1
  Se  Se33  1  0.775088  0.739821  0.846424  1
  Se  Se34  1  0.095792  0.966275  0.854941  1
  Se  Se35  1  0.744804  0.379311  0.997740  1
