# generated using pymatgen
data_Y9Lu(CoRu)2
_symmetry_space_group_name_H-M   'P 1'
_cell_length_a   6.32356321
_cell_length_b   7.12483518
_cell_length_c   8.54331438
_cell_angle_alpha   96.52334967
_cell_angle_beta   112.39981448
_cell_angle_gamma   89.75531503
_symmetry_Int_Tables_number   1
_chemical_formula_structural   Y9Lu(CoRu)2
_chemical_formula_sum   'Y9 Lu1 Co2 Ru2'
_cell_volume   353.24745301
_cell_formula_units_Z   1
loop_
 _symmetry_equiv_pos_site_id
 _symmetry_equiv_pos_as_xyz
  1  'x, y, z'
loop_
 _atom_site_type_symbol
 _atom_site_label
 _atom_site_symmetry_multiplicity
 _atom_site_fract_x
 _atom_site_fract_y
 _atom_site_fract_z
 _atom_site_occupancy
  Y  Y0  1  0.526136  0.087263  0.816120  1
  Y  Y1  1  0.474657  0.909815  0.183791  1
  Y  Y2  1  0.701937  0.418858  0.189642  1
  Y  Y3  1  0.300402  0.583556  0.810840  1
  Y  Y4  1  0.286704  0.318878  0.431069  1
  Y  Y5  1  0.713347  0.681231  0.571035  1
  Y  Y6  1  0.854040  0.185625  0.565103  1
  Y  Y7  1  0.144010  0.812597  0.432557  1
  Y  Y8  1  0.075986  0.259848  0.000353  1
  Lu  Lu9  1  0.927123  0.743120  0.999961  1
  Co  Co10  1  0.322542  0.577253  0.225551  1
  Co  Co11  1  0.675992  0.425375  0.774864  1
  Ru  Ru12  1  0.103942  0.926442  0.786375  1
  Ru  Ru13  1  0.893181  0.070138  0.212738  1
