# generated using pymatgen
data_Yb5TcMoN7
_symmetry_space_group_name_H-M   'P 1'
_cell_length_a   6.03482944
_cell_length_b   8.92012297
_cell_length_c   8.82952771
_cell_angle_alpha   115.82128985
_cell_angle_beta   97.74961161
_cell_angle_gamma   88.88218355
_symmetry_Int_Tables_number   1
_chemical_formula_structural   Yb5TcMoN7
_chemical_formula_sum   'Yb10 Tc2 Mo2 N14'
_cell_volume   423.53224398
_cell_formula_units_Z   2
loop_
 _symmetry_equiv_pos_site_id
 _symmetry_equiv_pos_as_xyz
  1  'x, y, z'
loop_
 _atom_site_type_symbol
 _atom_site_label
 _atom_site_symmetry_multiplicity
 _atom_site_fract_x
 _atom_site_fract_y
 _atom_site_fract_z
 _atom_site_occupancy
  Yb  Yb0  1  0.836075  0.608833  0.322055  1
  Yb  Yb1  1  0.264628  0.988893  0.560717  1
  Yb  Yb2  1  0.705174  0.413611  0.854801  1
  Yb  Yb3  1  0.294826  0.586389  0.145199  1
  Yb  Yb4  1  0.392066  0.786435  0.914804  1
  Yb  Yb5  1  0.607934  0.213565  0.085196  1
  Yb  Yb6  1  0.163925  0.391167  0.677945  1
  Yb  Yb7  1  0.888592  0.863982  0.755561  1
  Yb  Yb8  1  0.111408  0.136018  0.244439  1
  Yb  Yb9  1  0.735372  0.011107  0.439283  1
  Tc  Tc10  1  0.583649  0.352994  0.473930  1
  Tc  Tc11  1  0.416351  0.647006  0.526070  1
  Mo  Mo12  1  0.122033  0.218119  0.924992  1
  Mo  Mo13  1  0.877967  0.781881  0.075008  1
  N  N14  1  0.510693  0.545266  0.680375  1
  N  N15  1  0.489307  0.454734  0.319625  1
  N  N16  1  0.137227  0.726389  0.557576  1
  N  N17  1  0.862773  0.273611  0.442424  1
  N  N18  1  0.411652  0.180861  0.472604  1
  N  N19  1  0.588348  0.819139  0.527396  1
  N  N20  1  0.943952  0.129454  0.712082  1
  N  N21  1  0.056048  0.870546  0.287918  1
  N  N22  1  0.239560  0.048386  0.976100  1
  N  N23  1  0.760440  0.951614  0.023900  1
  N  N24  1  0.369959  0.330059  0.906650  1
  N  N25  1  0.954477  0.364661  0.092021  1
  N  N26  1  0.045523  0.635339  0.907979  1
  N  N27  1  0.630041  0.669941  0.093350  1
