# generated using pymatgen
data_Li3La2PrPd3
_symmetry_space_group_name_H-M   'P 1'
_cell_length_a   7.45772875
_cell_length_b   7.45183054
_cell_length_c   4.23119400
_cell_angle_alpha   90.00000000
_cell_angle_beta   90.00000000
_cell_angle_gamma   119.97384508
_symmetry_Int_Tables_number   1
_chemical_formula_structural   Li3La2PrPd3
_chemical_formula_sum   'Li3 La2 Pr1 Pd3'
_cell_volume   203.69366518
_cell_formula_units_Z   1
loop_
 _symmetry_equiv_pos_site_id
 _symmetry_equiv_pos_as_xyz
  1  'x, y, z'
loop_
 _atom_site_type_symbol
 _atom_site_label
 _atom_site_symmetry_multiplicity
 _atom_site_fract_x
 _atom_site_fract_y
 _atom_site_fract_z
 _atom_site_occupancy
  Li  Li0  1  0.775644  0.772371  0.000000  1
  Li  Li1  1  0.224356  0.996728  0.000000  1
  Li  Li2  1  0.000000  0.230441  0.000000  1
  La  La3  1  0.412075  0.412233  0.500000  1
  La  La4  1  0.587925  0.000158  0.500000  1
  Pr  Pr5  1  0.000000  0.586474  0.500000  1
  Pd  Pd6  1  0.665179  0.331967  0.000000  1
  Pd  Pd7  1  0.334821  0.666789  0.000000  1
  Pd  Pd8  1  0.000000  0.002840  0.500000  1
