# generated using pymatgen
data_LaPr2NdMgIr
_symmetry_space_group_name_H-M   'P 1'
_cell_length_a   10.11572847
_cell_length_b   10.11572877
_cell_length_c   10.11478100
_cell_angle_alpha   60.00309600
_cell_angle_beta   60.00309502
_cell_angle_gamma   59.99380365
_symmetry_Int_Tables_number   1
_chemical_formula_structural   LaPr2NdMgIr
_chemical_formula_sum   'La4 Pr8 Nd4 Mg4 Ir4'
_cell_volume   731.87312614
_cell_formula_units_Z   4
loop_
 _symmetry_equiv_pos_site_id
 _symmetry_equiv_pos_as_xyz
  1  'x, y, z'
loop_
 _atom_site_type_symbol
 _atom_site_label
 _atom_site_symmetry_multiplicity
 _atom_site_fract_x
 _atom_site_fract_y
 _atom_site_fract_z
 _atom_site_occupancy
  La  La0  1  0.345797  0.345797  0.345498  1
  La  La1  1  0.345797  0.345797  0.962908  1
  La  La2  1  0.345498  0.962908  0.345797  1
  La  La3  1  0.962908  0.345498  0.345797  1
  Pr  Pr4  1  0.187844  0.187844  0.812156  1
  Pr  Pr5  1  0.812156  0.812156  0.187844  1
  Pr  Pr6  1  0.937483  0.562517  0.562517  1
  Pr  Pr7  1  0.562517  0.937483  0.937483  1
  Pr  Pr8  1  0.562517  0.937483  0.562517  1
  Pr  Pr9  1  0.937483  0.562517  0.937483  1
  Pr  Pr10  1  0.562515  0.562515  0.937485  1
  Pr  Pr11  1  0.937485  0.937485  0.562515  1
  Nd  Nd12  1  0.812081  0.187919  0.187919  1
  Nd  Nd13  1  0.187919  0.812081  0.812081  1
  Nd  Nd14  1  0.187919  0.812081  0.187919  1
  Nd  Nd15  1  0.812081  0.187919  0.812081  1
  Mg  Mg16  1  0.578906  0.578906  0.579091  1
  Mg  Mg17  1  0.578906  0.578906  0.263098  1
  Mg  Mg18  1  0.579091  0.263098  0.578906  1
  Mg  Mg19  1  0.263098  0.579091  0.578906  1
  Ir  Ir20  1  0.141618  0.141618  0.142101  1
  Ir  Ir21  1  0.141618  0.141618  0.574663  1
  Ir  Ir22  1  0.142101  0.574663  0.141618  1
  Ir  Ir23  1  0.574663  0.142101  0.141618  1
