# generated using pymatgen
data_YbPr7Sc12Si15Hg
_symmetry_space_group_name_H-M   'P 1'
_cell_length_a   7.27783483
_cell_length_b   7.53578899
_cell_length_c   14.38171919
_cell_angle_alpha   90.11314633
_cell_angle_beta   89.87674190
_cell_angle_gamma   90.20036626
_symmetry_Int_Tables_number   1
_chemical_formula_structural   YbPr7Sc12Si15Hg
_chemical_formula_sum   'Yb1 Pr7 Sc12 Si15 Hg1'
_cell_volume   788.74610600
_cell_formula_units_Z   1
loop_
 _symmetry_equiv_pos_site_id
 _symmetry_equiv_pos_as_xyz
  1  'x, y, z'
loop_
 _atom_site_type_symbol
 _atom_site_label
 _atom_site_symmetry_multiplicity
 _atom_site_fract_x
 _atom_site_fract_y
 _atom_site_fract_z
 _atom_site_occupancy
  Yb  Yb0  1  0.006830  0.172225  0.399477  1
  Pr  Pr1  1  0.513248  0.325321  0.397749  1
  Pr  Pr2  1  0.487552  0.672616  0.903075  1
  Pr  Pr3  1  0.494456  0.677204  0.600817  1
  Pr  Pr4  1  0.988270  0.834468  0.597490  1
  Pr  Pr5  1  0.987351  0.828529  0.903419  1
  Pr  Pr6  1  0.512914  0.327181  0.097810  1
  Pr  Pr7  1  0.013376  0.172585  0.096335  1
  Sc  Sc8  1  0.341859  0.167907  0.629366  1
  Sc  Sc9  1  0.667434  0.825840  0.373070  1
  Sc  Sc10  1  0.664066  0.001200  0.752545  1
  Sc  Sc11  1  0.168178  0.677208  0.370910  1
  Sc  Sc12  1  0.830175  0.323047  0.876472  1
  Sc  Sc13  1  0.821227  0.323901  0.625709  1
  Sc  Sc14  1  0.840178  0.501382  0.250693  1
  Sc  Sc15  1  0.337360  0.998713  0.249352  1
  Sc  Sc16  1  0.327348  0.174069  0.876174  1
  Sc  Sc17  1  0.168779  0.676343  0.124872  1
  Sc  Sc18  1  0.672236  0.824685  0.124606  1
  Sc  Sc19  1  0.161081  0.497177  0.754382  1
  Si  Si20  1  0.286224  0.880866  0.751738  1
  Si  Si21  1  0.465055  0.624724  0.247888  1
  Si  Si22  1  0.034662  0.128995  0.750679  1
  Si  Si23  1  0.535195  0.376737  0.752326  1
  Si  Si24  1  0.964608  0.876665  0.248209  1
  Si  Si25  1  0.712309  0.116919  0.248076  1
  Si  Si26  1  0.849101  0.537240  0.039325  1
  Si  Si27  1  0.349237  0.962423  0.039744  1
  Si  Si28  1  0.150169  0.462697  0.961577  1
  Si  Si29  1  0.648949  0.037718  0.537739  1
  Si  Si30  1  0.348750  0.960864  0.460924  1
  Si  Si31  1  0.838205  0.544224  0.457618  1
  Si  Si32  1  0.791132  0.617651  0.751991  1
  Si  Si33  1  0.212252  0.383271  0.248051  1
  Si  Si34  1  0.650077  0.036751  0.960695  1
  Hg  Hg35  1  0.160154  0.450649  0.539096  1
