# generated using pymatgen
data_YIn3BiB4Ir9
_symmetry_space_group_name_H-M   'P 1'
_cell_length_a   5.64102400
_cell_length_b   5.64102442
_cell_length_c   10.52051100
_cell_angle_alpha   90.00000000
_cell_angle_beta   90.00000000
_cell_angle_gamma   120.00000924
_symmetry_Int_Tables_number   1
_chemical_formula_structural   YIn3BiB4Ir9
_chemical_formula_sum   'Y1 In3 Bi1 B4 Ir9'
_cell_volume   289.92345643
_cell_formula_units_Z   1
loop_
 _symmetry_equiv_pos_site_id
 _symmetry_equiv_pos_as_xyz
  1  'x, y, z'
loop_
 _atom_site_type_symbol
 _atom_site_label
 _atom_site_symmetry_multiplicity
 _atom_site_fract_x
 _atom_site_fract_y
 _atom_site_fract_z
 _atom_site_occupancy
  Y  Y0  1  0.000000  0.000000  0.915991  1
  In  In1  1  0.666667  0.333333  0.506999  1
  In  In2  1  0.000000  0.000000  0.315909  1
  In  In3  1  0.333333  0.666667  0.506999  1
  Bi  Bi4  1  0.000000  0.000000  0.620075  1
  B  B5  1  0.666667  0.333333  0.155698  1
  B  B6  1  0.333333  0.666667  0.866588  1
  B  B7  1  0.666667  0.333333  0.866588  1
  B  B8  1  0.333333  0.666667  0.155698  1
  Ir  Ir9  1  0.000000  0.496193  0.282486  1
  Ir  Ir10  1  0.461013  0.000000  0.734997  1
  Ir  Ir11  1  0.496193  0.000000  0.282486  1
  Ir  Ir12  1  0.000000  0.493910  0.012334  1
  Ir  Ir13  1  0.538987  0.538987  0.734997  1
  Ir  Ir14  1  0.000000  0.461013  0.734997  1
  Ir  Ir15  1  0.506090  0.506090  0.012334  1
  Ir  Ir16  1  0.493910  0.000000  0.012334  1
  Ir  Ir17  1  0.503807  0.503807  0.282486  1
