# generated using pymatgen
data_LaPu2Sn3RuRh2
_symmetry_space_group_name_H-M   'P 1'
_cell_length_a   7.40576300
_cell_length_b   7.44088871
_cell_length_c   4.17081000
_cell_angle_alpha   90.00000000
_cell_angle_beta   90.00000000
_cell_angle_gamma   119.84396071
_symmetry_Int_Tables_number   1
_chemical_formula_structural   LaPu2Sn3RuRh2
_chemical_formula_sum   'La1 Pu2 Sn3 Ru1 Rh2'
_cell_volume   199.35465308
_cell_formula_units_Z   1
loop_
 _symmetry_equiv_pos_site_id
 _symmetry_equiv_pos_as_xyz
  1  'x, y, z'
loop_
 _atom_site_type_symbol
 _atom_site_label
 _atom_site_symmetry_multiplicity
 _atom_site_fract_x
 _atom_site_fract_y
 _atom_site_fract_z
 _atom_site_occupancy
  La  La0  1  0.585178  0.000000  0.000000  1
  Pu  Pu1  1  0.994032  0.586936  0.000000  1
  Pu  Pu2  1  0.407095  0.413064  0.000000  1
  Sn  Sn3  1  0.750620  0.752085  0.500000  1
  Sn  Sn4  1  0.998535  0.247915  0.500000  1
  Sn  Sn5  1  0.253251  0.000000  0.500000  1
  Ru  Ru6  1  0.017021  0.000000  0.000000  1
  Rh  Rh7  1  0.323400  0.652532  0.500000  1
  Rh  Rh8  1  0.670870  0.347468  0.500000  1
