# generated using pymatgen
data_La2Ce5Ni16
_symmetry_space_group_name_H-M   'P 1'
_cell_length_a   7.27439599
_cell_length_b   7.27439367
_cell_length_c   8.85664400
_cell_angle_alpha   114.11527748
_cell_angle_beta   114.11527792
_cell_angle_gamma   90.29308164
_symmetry_Int_Tables_number   1
_chemical_formula_structural   La2Ce5Ni16
_chemical_formula_sum   'La2 Ce5 Ni16'
_cell_volume   382.01289282
_cell_formula_units_Z   1
loop_
 _symmetry_equiv_pos_site_id
 _symmetry_equiv_pos_as_xyz
  1  'x, y, z'
loop_
 _atom_site_type_symbol
 _atom_site_label
 _atom_site_symmetry_multiplicity
 _atom_site_fract_x
 _atom_site_fract_y
 _atom_site_fract_z
 _atom_site_occupancy
  La  La0  1  0.594217  0.200142  0.794359  1
  La  La1  1  0.200142  0.594217  0.794359  1
  Ce  Ce2  1  0.999268  0.999268  0.998536  1
  Ce  Ce3  1  0.405314  0.405314  0.209152  1
  Ce  Ce4  1  0.803839  0.803839  0.209152  1
  Ce  Ce5  1  0.749098  0.249098  0.498194  1
  Ce  Ce6  1  0.249098  0.749098  0.498194  1
  Ni  Ni7  1  0.698053  0.183290  0.136463  1
  Ni  Ni8  1  0.953173  0.438411  0.136463  1
  Ni  Ni9  1  0.183290  0.698053  0.136463  1
  Ni  Ni10  1  0.438411  0.953173  0.136463  1
  Ni  Ni11  1  0.303320  0.066517  0.369839  1
  Ni  Ni12  1  0.066517  0.303320  0.369839  1
  Ni  Ni13  1  0.830811  0.559564  0.390375  1
  Ni  Ni14  1  0.559564  0.830811  0.390375  1
  Ni  Ni15  1  0.158240  0.158240  0.598147  1
  Ni  Ni16  1  0.439905  0.439905  0.598147  1
  Ni  Ni17  1  0.692819  0.692819  0.624723  1
  Ni  Ni18  1  0.931903  0.931903  0.624723  1
  Ni  Ni19  1  0.300120  0.053327  0.871508  1
  Ni  Ni20  1  0.053327  0.300120  0.871508  1
  Ni  Ni21  1  0.818181  0.571389  0.871508  1
  Ni  Ni22  1  0.571389  0.818181  0.871508  1
