# generated using pymatgen
data_Ce2SiP(Ru2C)2
_symmetry_space_group_name_H-M   'P 1'
_cell_length_a   5.89529114
_cell_length_b   5.89529024
_cell_length_c   7.12373000
_cell_angle_alpha   90.00000000
_cell_angle_beta   90.00000000
_cell_angle_gamma   38.43687562
_symmetry_Int_Tables_number   1
_chemical_formula_structural   Ce2SiP(Ru2C)2
_chemical_formula_sum   'Ce2 Si1 P1 Ru4 C2'
_cell_volume   153.90944114
_cell_formula_units_Z   1
loop_
 _symmetry_equiv_pos_site_id
 _symmetry_equiv_pos_as_xyz
  1  'x, y, z'
loop_
 _atom_site_type_symbol
 _atom_site_label
 _atom_site_symmetry_multiplicity
 _atom_site_fract_x
 _atom_site_fract_y
 _atom_site_fract_z
 _atom_site_occupancy
  Ce  Ce0  1  0.051492  0.051492  0.249999  1
  Ce  Ce1  1  0.949146  0.949146  0.750000  1
  Si  Si2  1  0.772718  0.772718  0.249999  1
  P  P3  1  0.228294  0.228294  0.750000  1
  Ru  Ru4  1  0.664977  0.664977  0.558465  1
  Ru  Ru5  1  0.333886  0.333886  0.052262  1
  Ru  Ru6  1  0.333886  0.333886  0.447738  1
  Ru  Ru7  1  0.664977  0.664977  0.941537  1
  C  C8  1  0.500314  0.500314  0.002204  1
  C  C9  1  0.500314  0.500314  0.497796  1
