# generated using pymatgen
data_CsPr5Y(CBr6)2
_symmetry_space_group_name_H-M   'P 1'
_cell_length_a   9.21527136
_cell_length_b   9.22930615
_cell_length_c   9.70619176
_cell_angle_alpha   71.98552116
_cell_angle_beta   70.67335301
_cell_angle_gamma   72.51100153
_symmetry_Int_Tables_number   1
_chemical_formula_structural   CsPr5Y(CBr6)2
_chemical_formula_sum   'Cs1 Pr5 Y1 C2 Br12'
_cell_volume   722.51975330
_cell_formula_units_Z   1
loop_
 _symmetry_equiv_pos_site_id
 _symmetry_equiv_pos_as_xyz
  1  'x, y, z'
loop_
 _atom_site_type_symbol
 _atom_site_label
 _atom_site_symmetry_multiplicity
 _atom_site_fract_x
 _atom_site_fract_y
 _atom_site_fract_z
 _atom_site_occupancy
  Cs  Cs0  1  0.000997  0.499157  0.999895  1
  Pr  Pr1  1  0.784178  0.032927  0.403266  1
  Pr  Pr2  1  0.596710  0.719011  0.473868  1
  Pr  Pr3  1  0.403810  0.281218  0.526879  1
  Pr  Pr4  1  0.215862  0.967894  0.594050  1
  Pr  Pr5  1  0.523541  0.882047  0.820601  1
  Y  Y6  1  0.475066  0.115973  0.187799  1
  C  C7  1  0.493662  0.027091  0.423672  1
  C  C8  1  0.506143  0.974840  0.572979  1
  Br  Br9  1  0.787665  0.160650  0.080320  1
  Br  Br10  1  0.583044  0.796386  0.143346  1
  Br  Br11  1  0.353903  0.425437  0.219215  1
  Br  Br12  1  0.144797  0.075185  0.286970  1
  Br  Br13  1  0.929218  0.720485  0.351396  1
  Br  Br14  1  0.717658  0.366989  0.426873  1
  Br  Br15  1  0.282943  0.632891  0.571620  1
  Br  Br16  1  0.071852  0.279836  0.648291  1
  Br  Br17  1  0.863853  0.926153  0.706523  1
  Br  Br18  1  0.650923  0.564107  0.776829  1
  Br  Br19  1  0.415331  0.213346  0.866018  1
  Br  Br20  1  0.198848  0.838374  0.919589  1
