# generated using pymatgen
data_K4Zr6RhBr18
_symmetry_space_group_name_H-M   'P 1'
_cell_length_a   10.63315705
_cell_length_b   10.76029404
_cell_length_c   10.85536450
_cell_angle_alpha   118.44230011
_cell_angle_beta   100.39993879
_cell_angle_gamma   103.83073367
_symmetry_Int_Tables_number   1
_chemical_formula_structural   K4Zr6RhBr18
_chemical_formula_sum   'K4 Zr6 Rh1 Br18'
_cell_volume   995.42335747
_cell_formula_units_Z   1
loop_
 _symmetry_equiv_pos_site_id
 _symmetry_equiv_pos_as_xyz
  1  'x, y, z'
loop_
 _atom_site_type_symbol
 _atom_site_label
 _atom_site_symmetry_multiplicity
 _atom_site_fract_x
 _atom_site_fract_y
 _atom_site_fract_z
 _atom_site_occupancy
  K  K0  1  0.652483  0.536783  0.227641  1
  K  K1  1  0.347517  0.463217  0.772359  1
  K  K2  1  0.689392  0.228186  0.565788  1
  K  K3  1  0.310608  0.771814  0.434212  1
  Zr  Zr4  1  0.160965  0.059715  0.244782  1
  Zr  Zr5  1  0.839035  0.940285  0.755218  1
  Zr  Zr6  1  0.854059  0.134765  0.141635  1
  Zr  Zr7  1  0.145941  0.865235  0.858365  1
  Zr  Zr8  1  0.154161  0.253325  0.047322  1
  Zr  Zr9  1  0.845839  0.746675  0.952678  1
  Rh  Rh10  1  0.000000  0.000000  0.000000  1
  Br  Br11  1  0.009895  0.415370  0.199989  1
  Br  Br12  1  0.990105  0.584630  0.800011  1
  Br  Br13  1  0.332994  0.337820  0.315601  1
  Br  Br14  1  0.667006  0.662180  0.684399  1
  Br  Br15  1  0.330606  0.527938  0.102457  1
  Br  Br16  1  0.669394  0.472062  0.897543  1
  Br  Br17  1  0.005527  0.793878  0.212771  1
  Br  Br18  1  0.994473  0.206122  0.787229  1
  Br  Br19  1  0.702479  0.282305  0.295039  1
  Br  Br20  1  0.297521  0.717695  0.704961  1
  Br  Br21  1  0.319107  0.127807  0.900559  1
  Br  Br22  1  0.680893  0.872193  0.099441  1
  Br  Br23  1  0.017413  0.206842  0.413789  1
  Br  Br24  1  0.982587  0.793158  0.586211  1
  Br  Br25  1  0.323488  0.919253  0.110360  1
  Br  Br26  1  0.676512  0.080747  0.889640  1
  Br  Br27  1  0.341923  0.122789  0.508704  1
  Br  Br28  1  0.658077  0.877211  0.491296  1
