# generated using pymatgen
data_Sc3AlPt2O
_symmetry_space_group_name_H-M   'P 1'
_cell_length_a   8.53509020
_cell_length_b   8.53508956
_cell_length_c   8.53509100
_cell_angle_alpha   59.99999829
_cell_angle_beta   60.00000079
_cell_angle_gamma   59.99999355
_symmetry_Int_Tables_number   1
_chemical_formula_structural   Sc3AlPt2O
_chemical_formula_sum   'Sc12 Al4 Pt8 O4'
_cell_volume   439.65228216
_cell_formula_units_Z   4
loop_
 _symmetry_equiv_pos_site_id
 _symmetry_equiv_pos_as_xyz
  1  'x, y, z'
loop_
 _atom_site_type_symbol
 _atom_site_label
 _atom_site_symmetry_multiplicity
 _atom_site_fract_x
 _atom_site_fract_y
 _atom_site_fract_z
 _atom_site_occupancy
  Sc  Sc0  1  0.811122  0.811122  0.188878  1
  Sc  Sc1  1  0.188878  0.188878  0.811122  1
  Sc  Sc2  1  0.811122  0.188878  0.811122  1
  Sc  Sc3  1  0.188878  0.811122  0.188878  1
  Sc  Sc4  1  0.188878  0.811122  0.811122  1
  Sc  Sc5  1  0.811122  0.188878  0.188878  1
  Sc  Sc6  1  0.438878  0.438878  0.061122  1
  Sc  Sc7  1  0.061122  0.061122  0.438878  1
  Sc  Sc8  1  0.438878  0.061122  0.438878  1
  Sc  Sc9  1  0.061122  0.438878  0.061122  1
  Sc  Sc10  1  0.061122  0.438878  0.438878  1
  Sc  Sc11  1  0.438878  0.061122  0.061122  1
  Al  Al12  1  0.125000  0.625000  0.625000  1
  Al  Al13  1  0.625000  0.125000  0.625000  1
  Al  Al14  1  0.625000  0.625000  0.125000  1
  Al  Al15  1  0.625000  0.625000  0.625000  1
  Pt  Pt16  1  0.760155  0.413281  0.413281  1
  Pt  Pt17  1  0.413281  0.760155  0.413281  1
  Pt  Pt18  1  0.413281  0.413281  0.760155  1
  Pt  Pt19  1  0.413281  0.413281  0.413281  1
  Pt  Pt20  1  0.489845  0.836719  0.836719  1
  Pt  Pt21  1  0.836719  0.489845  0.836719  1
  Pt  Pt22  1  0.836719  0.836719  0.489845  1
  Pt  Pt23  1  0.836719  0.836719  0.836719  1
  O  O24  1  0.625000  0.125000  0.125000  1
  O  O25  1  0.125000  0.625000  0.125000  1
  O  O26  1  0.125000  0.125000  0.625000  1
  O  O27  1  0.125000  0.125000  0.125000  1
