# generated using pymatgen
data_Tb4DySn3Bi
_symmetry_space_group_name_H-M   'P 1'
_cell_length_a   8.19416000
_cell_length_b   8.23001400
_cell_length_c   15.56345000
_cell_angle_alpha   90.00000000
_cell_angle_beta   90.00000000
_cell_angle_gamma   90.00000000
_symmetry_Int_Tables_number   1
_chemical_formula_structural   Tb4DySn3Bi
_chemical_formula_sum   'Tb16 Dy4 Sn12 Bi4'
_cell_volume   1049.56874290
_cell_formula_units_Z   4
loop_
 _symmetry_equiv_pos_site_id
 _symmetry_equiv_pos_as_xyz
  1  'x, y, z'
loop_
 _atom_site_type_symbol
 _atom_site_label
 _atom_site_symmetry_multiplicity
 _atom_site_fract_x
 _atom_site_fract_y
 _atom_site_fract_z
 _atom_site_occupancy
  Tb  Tb0  1  0.379522  0.839065  0.876250  1
  Tb  Tb1  1  0.879522  0.660935  0.623750  1
  Tb  Tb2  1  0.620478  0.160935  0.376250  1
  Tb  Tb3  1  0.120478  0.339065  0.123750  1
  Tb  Tb4  1  0.629048  0.162435  0.122278  1
  Tb  Tb5  1  0.129048  0.337565  0.377722  1
  Tb  Tb6  1  0.370952  0.837565  0.622278  1
  Tb  Tb7  1  0.870952  0.662435  0.877722  1
  Tb  Tb8  1  0.544160  0.326065  0.894983  1
  Tb  Tb9  1  0.044160  0.173935  0.605017  1
  Tb  Tb10  1  0.455840  0.673935  0.394983  1
  Tb  Tb11  1  0.955840  0.826065  0.105017  1
  Tb  Tb12  1  0.473769  0.674244  0.103180  1
  Tb  Tb13  1  0.973769  0.825756  0.396820  1
  Tb  Tb14  1  0.526231  0.325756  0.603180  1
  Tb  Tb15  1  0.026231  0.174244  0.896820  1
  Dy  Dy16  1  0.204993  0.500399  0.747018  1
  Dy  Dy17  1  0.704993  0.999601  0.752982  1
  Dy  Dy18  1  0.795007  0.499601  0.247018  1
  Dy  Dy19  1  0.295007  0.000399  0.252982  1
  Sn  Sn20  1  0.716484  0.968254  0.956925  1
  Sn  Sn21  1  0.216484  0.531746  0.543075  1
  Sn  Sn22  1  0.283516  0.031746  0.456925  1
  Sn  Sn23  1  0.783516  0.468254  0.043075  1
  Sn  Sn24  1  0.570932  0.622217  0.748370  1
  Sn  Sn25  1  0.070932  0.877783  0.751630  1
  Sn  Sn26  1  0.429068  0.377783  0.248370  1
  Sn  Sn27  1  0.929068  0.122217  0.251630  1
  Sn  Sn28  1  0.341084  0.146956  0.751346  1
  Sn  Sn29  1  0.841084  0.353044  0.748654  1
  Sn  Sn30  1  0.658916  0.853044  0.251346  1
  Sn  Sn31  1  0.158916  0.646956  0.248654  1
  Bi  Bi32  1  0.280350  0.028652  0.043524  1
  Bi  Bi33  1  0.780350  0.471348  0.456476  1
  Bi  Bi34  1  0.719650  0.971348  0.543524  1
  Bi  Bi35  1  0.219650  0.528652  0.956476  1
