# generated using pymatgen
data_SmTm3Re4F28
_symmetry_space_group_name_H-M   'P 1'
_cell_length_a   5.63772025
_cell_length_b   8.92884307
_cell_length_c   12.00833443
_cell_angle_alpha   62.52303998
_cell_angle_beta   89.94008709
_cell_angle_gamma   90.02368198
_symmetry_Int_Tables_number   1
_chemical_formula_structural   SmTm3Re4F28
_chemical_formula_sum   'Sm1 Tm3 Re4 F28'
_cell_volume   536.29138236
_cell_formula_units_Z   1
loop_
 _symmetry_equiv_pos_site_id
 _symmetry_equiv_pos_as_xyz
  1  'x, y, z'
loop_
 _atom_site_type_symbol
 _atom_site_label
 _atom_site_symmetry_multiplicity
 _atom_site_fract_x
 _atom_site_fract_y
 _atom_site_fract_z
 _atom_site_occupancy
  Sm  Sm0  1  0.757852  0.815842  0.766388  1
  Tm  Tm1  1  0.742093  0.816524  0.265812  1
  Tm  Tm2  1  0.241905  0.184994  0.234238  1
  Tm  Tm3  1  0.259018  0.189833  0.733408  1
  Re  Re4  1  0.742203  0.275731  0.453223  1
  Re  Re5  1  0.243144  0.726150  0.048931  1
  Re  Re6  1  0.255838  0.726379  0.540836  1
  Re  Re7  1  0.756780  0.269261  0.957064  1
  F  F8  1  0.456107  0.705865  0.925821  1
  F  F9  1  0.960392  0.292615  0.576241  1
  F  F10  1  0.537446  0.290103  0.078068  1
  F  F11  1  0.037459  0.707964  0.418933  1
  F  F12  1  0.457056  0.284111  0.548076  1
  F  F13  1  0.958256  0.713748  0.957422  1
  F  F14  1  0.545253  0.718075  0.448851  1
  F  F15  1  0.042587  0.279992  0.050629  1
  F  F16  1  0.766934  0.517268  0.858856  1
  F  F17  1  0.265170  0.477004  0.640641  1
  F  F18  1  0.236120  0.476143  0.145125  1
  F  F19  1  0.734243  0.524818  0.356070  1
  F  F20  1  0.758470  0.020863  0.055917  1
  F  F21  1  0.257856  0.975239  0.443776  1
  F  F22  1  0.240182  0.974302  0.947528  1
  F  F23  1  0.740441  0.027439  0.550353  1
  F  F24  1  0.982727  0.729177  0.642481  1
  F  F25  1  0.483349  0.267777  0.853823  1
  F  F26  1  0.013798  0.267768  0.350896  1
  F  F27  1  0.516540  0.733087  0.150044  1
  F  F28  1  0.033981  0.745858  0.174743  1
  F  F29  1  0.531608  0.255689  0.327544  1
  F  F30  1  0.966995  0.252336  0.829776  1
  F  F31  1  0.459159  0.741987  0.669333  1
  F  F32  1  0.430909  0.976071  0.235010  1
  F  F33  1  0.931032  0.025315  0.265196  1
  F  F34  1  0.571000  0.036390  0.766324  1
  F  F35  1  0.086099  0.978282  0.732626  1
