# generated using pymatgen
data_LiSmCu3Ir
_symmetry_space_group_name_H-M   'P 1'
_cell_length_a   5.22178892
_cell_length_b   5.22178999
_cell_length_c   5.22178900
_cell_angle_alpha   58.94333523
_cell_angle_beta   58.94334102
_cell_angle_gamma   58.94332335
_symmetry_Int_Tables_number   1
_chemical_formula_structural   LiSmCu3Ir
_chemical_formula_sum   'Li1 Sm1 Cu3 Ir1'
_cell_volume   98.25246325
_cell_formula_units_Z   1
loop_
 _symmetry_equiv_pos_site_id
 _symmetry_equiv_pos_as_xyz
  1  'x, y, z'
loop_
 _atom_site_type_symbol
 _atom_site_label
 _atom_site_symmetry_multiplicity
 _atom_site_fract_x
 _atom_site_fract_y
 _atom_site_fract_z
 _atom_site_occupancy
  Li  Li0  1  0.998721  0.998721  0.998721  1
  Sm  Sm1  1  0.253440  0.253440  0.253440  1
  Cu  Cu2  1  0.121629  0.625757  0.625757  1
  Cu  Cu3  1  0.625757  0.121629  0.625757  1
  Cu  Cu4  1  0.625757  0.625757  0.121629  1
  Ir  Ir5  1  0.624697  0.624697  0.624697  1
