# generated using pymatgen
data_Ta8Cr2GeB4P
_symmetry_space_group_name_H-M   'P 1'
_cell_length_a   6.06881493
_cell_length_b   6.06881454
_cell_length_c   7.19760330
_cell_angle_alpha   114.93475872
_cell_angle_beta   114.93475790
_cell_angle_gamma   89.99999179
_symmetry_Int_Tables_number   1
_chemical_formula_structural   Ta8Cr2GeB4P
_chemical_formula_sum   'Ta8 Cr2 Ge1 B4 P1'
_cell_volume   212.82244166
_cell_formula_units_Z   1
loop_
 _symmetry_equiv_pos_site_id
 _symmetry_equiv_pos_as_xyz
  1  'x, y, z'
loop_
 _atom_site_type_symbol
 _atom_site_label
 _atom_site_symmetry_multiplicity
 _atom_site_fract_x
 _atom_site_fract_y
 _atom_site_fract_z
 _atom_site_occupancy
  Ta  Ta0  1  0.028551  0.536045  0.725967  1
  Ta  Ta1  1  0.697416  0.189922  0.725967  1
  Ta  Ta2  1  0.189922  0.028551  0.725967  1
  Ta  Ta3  1  0.536045  0.697416  0.725967  1
  Ta  Ta4  1  0.963955  0.471449  0.274033  1
  Ta  Ta5  1  0.310078  0.802584  0.274033  1
  Ta  Ta6  1  0.802584  0.963955  0.274033  1
  Ta  Ta7  1  0.471449  0.310078  0.274033  1
  Cr  Cr8  1  0.499335  0.499335  0.998671  1
  Cr  Cr9  1  0.000665  0.000665  0.001329  1
  Ge  Ge10  1  0.250000  0.250000  0.500000  1
  B  B11  1  0.378580  0.878580  0.000000  1
  B  B12  1  0.621420  0.121420  0.000000  1
  B  B13  1  0.121420  0.378580  0.000000  1
  B  B14  1  0.878580  0.621420  0.000000  1
  P  P15  1  0.750000  0.750000  0.500000  1
