# generated using pymatgen
data_SrPu2F9
_symmetry_space_group_name_H-M   'P 1'
_cell_length_a   6.94716700
_cell_length_b   8.71016400
_cell_length_c   11.52578100
_cell_angle_alpha   90.00000000
_cell_angle_beta   90.00000000
_cell_angle_gamma   90.00000000
_symmetry_Int_Tables_number   1
_chemical_formula_structural   SrPu2F9
_chemical_formula_sum   'Sr4 Pu8 F36'
_cell_volume   697.43611807
_cell_formula_units_Z   4
loop_
 _symmetry_equiv_pos_site_id
 _symmetry_equiv_pos_as_xyz
  1  'x, y, z'
loop_
 _atom_site_type_symbol
 _atom_site_label
 _atom_site_symmetry_multiplicity
 _atom_site_fract_x
 _atom_site_fract_y
 _atom_site_fract_z
 _atom_site_occupancy
  Sr  Sr0  1  0.630465  0.025255  0.250000  1
  Sr  Sr1  1  0.369535  0.974745  0.750000  1
  Sr  Sr2  1  0.130465  0.474745  0.750000  1
  Sr  Sr3  1  0.869535  0.525255  0.250000  1
  Pu  Pu4  1  0.158819  0.171283  0.052737  1
  Pu  Pu5  1  0.841181  0.828717  0.947263  1
  Pu  Pu6  1  0.658819  0.328717  0.947263  1
  Pu  Pu7  1  0.841181  0.828717  0.552737  1
  Pu  Pu8  1  0.341181  0.671283  0.052737  1
  Pu  Pu9  1  0.158819  0.171283  0.447263  1
  Pu  Pu10  1  0.341181  0.671283  0.447263  1
  Pu  Pu11  1  0.658819  0.328717  0.552737  1
  F  F12  1  0.200608  0.430256  0.090677  1
  F  F13  1  0.799392  0.569744  0.909323  1
  F  F14  1  0.700608  0.069744  0.909323  1
  F  F15  1  0.799392  0.569744  0.590677  1
  F  F16  1  0.299392  0.930256  0.090677  1
  F  F17  1  0.200608  0.430256  0.409323  1
  F  F18  1  0.299392  0.930256  0.409323  1
  F  F19  1  0.700608  0.069744  0.590677  1
  F  F20  1  0.095061  0.995956  0.601369  1
  F  F21  1  0.904939  0.004044  0.398631  1
  F  F22  1  0.595061  0.504044  0.398631  1
  F  F23  1  0.904939  0.004044  0.101369  1
  F  F24  1  0.404939  0.495956  0.601369  1
  F  F25  1  0.095061  0.995956  0.898631  1
  F  F26  1  0.404939  0.495956  0.898631  1
  F  F27  1  0.595061  0.504044  0.101369  1
  F  F28  1  0.491204  0.202386  0.098682  1
  F  F29  1  0.508796  0.797614  0.901318  1
  F  F30  1  0.991204  0.297614  0.901318  1
  F  F31  1  0.508796  0.797614  0.598682  1
  F  F32  1  0.008796  0.702386  0.098682  1
  F  F33  1  0.491204  0.202386  0.401318  1
  F  F34  1  0.008796  0.702386  0.401318  1
  F  F35  1  0.991204  0.297614  0.598682  1
  F  F36  1  0.191016  0.157046  0.250000  1
  F  F37  1  0.808984  0.842954  0.750000  1
  F  F38  1  0.691016  0.342954  0.750000  1
  F  F39  1  0.308984  0.657046  0.250000  1
  F  F40  1  0.368319  0.204624  0.617092  1
  F  F41  1  0.631681  0.795376  0.382908  1
  F  F42  1  0.868319  0.295376  0.382908  1
  F  F43  1  0.631681  0.795376  0.117092  1
  F  F44  1  0.131681  0.704624  0.617092  1
  F  F45  1  0.368319  0.204624  0.882908  1
  F  F46  1  0.131681  0.704624  0.882908  1
  F  F47  1  0.868319  0.295376  0.117092  1
