# generated using pymatgen
data_La3Co2Cu7(Ni2B)2
_symmetry_space_group_name_H-M   'P 1'
_cell_length_a   5.14060861
_cell_length_b   5.13906963
_cell_length_c   11.05560600
_cell_angle_alpha   90.00000000
_cell_angle_beta   90.00000000
_cell_angle_gamma   119.61775946
_symmetry_Int_Tables_number   1
_chemical_formula_structural   La3Co2Cu7(Ni2B)2
_chemical_formula_sum   'La3 Co2 Cu7 Ni4 B2'
_cell_volume   253.90552362
_cell_formula_units_Z   1
loop_
 _symmetry_equiv_pos_site_id
 _symmetry_equiv_pos_as_xyz
  1  'x, y, z'
loop_
 _atom_site_type_symbol
 _atom_site_label
 _atom_site_symmetry_multiplicity
 _atom_site_fract_x
 _atom_site_fract_y
 _atom_site_fract_z
 _atom_site_occupancy
  La  La0  1  0.000000  0.000000  0.997523  1
  La  La1  1  0.000000  0.000000  0.693943  1
  La  La2  1  0.000000  0.000000  0.314305  1
  Co  Co3  1  0.500000  0.000000  0.873325  1
  Co  Co4  1  0.000000  0.500000  0.873315  1
  Cu  Cu5  1  0.500000  0.500000  0.500136  1
  Cu  Cu6  1  0.500000  0.000000  0.500222  1
  Cu  Cu7  1  0.000000  0.500000  0.500221  1
  Cu  Cu8  1  0.668200  0.331781  0.686269  1
  Cu  Cu9  1  0.331800  0.668219  0.686269  1
  Cu  Cu10  1  0.333700  0.666361  0.313378  1
  Cu  Cu11  1  0.666300  0.333639  0.313378  1
  Ni  Ni12  1  0.500000  0.500000  0.870891  1
  Ni  Ni13  1  0.500000  0.500000  0.127156  1
  Ni  Ni14  1  0.500000  0.000000  0.127806  1
  Ni  Ni15  1  0.000000  0.500000  0.127791  1
  B  B16  1  0.668891  0.331083  0.997036  1
  B  B17  1  0.331109  0.668917  0.997036  1
