# generated using pymatgen
data_Rb8NdGd3Cl20
_symmetry_space_group_name_H-M   'P 1'
_cell_length_a   8.36095117
_cell_length_b   8.81309800
_cell_length_c   13.43419300
_cell_angle_alpha   90.00000000
_cell_angle_beta   90.29280011
_cell_angle_gamma   90.00000000
_symmetry_Int_Tables_number   1
_chemical_formula_structural   Rb8NdGd3Cl20
_chemical_formula_sum   'Rb8 Nd1 Gd3 Cl20'
_cell_volume   989.89743524
_cell_formula_units_Z   1
loop_
 _symmetry_equiv_pos_site_id
 _symmetry_equiv_pos_as_xyz
  1  'x, y, z'
loop_
 _atom_site_type_symbol
 _atom_site_label
 _atom_site_symmetry_multiplicity
 _atom_site_fract_x
 _atom_site_fract_y
 _atom_site_fract_z
 _atom_site_occupancy
  Rb  Rb0  1  0.945876  0.004926  0.826826  1
  Rb  Rb1  1  0.054726  0.996342  0.173122  1
  Rb  Rb2  1  0.445135  0.995913  0.671088  1
  Rb  Rb3  1  0.054726  0.503658  0.173122  1
  Rb  Rb4  1  0.554571  0.004723  0.328908  1
  Rb  Rb5  1  0.945876  0.495074  0.826826  1
  Rb  Rb6  1  0.554571  0.495277  0.328908  1
  Rb  Rb7  1  0.445135  0.504087  0.671088  1
  Nd  Nd8  1  0.572272  0.750000  0.004478  1
  Gd  Gd9  1  0.929662  0.750000  0.503331  1
  Gd  Gd10  1  0.069797  0.250000  0.496665  1
  Gd  Gd11  1  0.428124  0.250000  0.996386  1
  Cl  Cl12  1  0.112920  0.750000  0.670089  1
  Cl  Cl13  1  0.886960  0.250000  0.329820  1
  Cl  Cl14  1  0.612192  0.250000  0.830551  1
  Cl  Cl15  1  0.382478  0.750000  0.173630  1
  Cl  Cl16  1  0.842608  0.042680  0.569332  1
  Cl  Cl17  1  0.156782  0.957471  0.430825  1
  Cl  Cl18  1  0.341150  0.960506  0.928099  1
  Cl  Cl19  1  0.156782  0.542529  0.430825  1
  Cl  Cl20  1  0.658525  0.045707  0.071860  1
  Cl  Cl21  1  0.842608  0.457320  0.569332  1
  Cl  Cl22  1  0.658525  0.454293  0.071860  1
  Cl  Cl23  1  0.341150  0.539494  0.928099  1
  Cl  Cl24  1  0.601633  0.750000  0.512320  1
  Cl  Cl25  1  0.398054  0.250000  0.487114  1
  Cl  Cl26  1  0.099426  0.250000  0.987977  1
  Cl  Cl27  1  0.906280  0.750000  0.011652  1
  Cl  Cl28  1  0.653977  0.750000  0.804356  1
  Cl  Cl29  1  0.347844  0.250000  0.192010  1
  Cl  Cl30  1  0.152652  0.250000  0.692010  1
  Cl  Cl31  1  0.846983  0.750000  0.307490  1
