# generated using pymatgen
data_MgIn5Co2
_symmetry_space_group_name_H-M   'P 1'
_cell_length_a   6.91321505
_cell_length_b   6.91903605
_cell_length_c   7.00320900
_cell_angle_alpha   90.00000000
_cell_angle_beta   90.00000000
_cell_angle_gamma   90.01381833
_symmetry_Int_Tables_number   1
_chemical_formula_structural   MgIn5Co2
_chemical_formula_sum   'Mg2 In10 Co4'
_cell_volume   334.98297476
_cell_formula_units_Z   2
loop_
 _symmetry_equiv_pos_site_id
 _symmetry_equiv_pos_as_xyz
  1  'x, y, z'
loop_
 _atom_site_type_symbol
 _atom_site_label
 _atom_site_symmetry_multiplicity
 _atom_site_fract_x
 _atom_site_fract_y
 _atom_site_fract_z
 _atom_site_occupancy
  Mg  Mg0  1  0.500000  0.500000  0.000000  1
  Mg  Mg1  1  0.500000  0.500000  0.500000  1
  In  In2  1  0.000000  0.000000  0.000000  1
  In  In3  1  0.832866  0.350381  0.241048  1
  In  In4  1  0.167134  0.649620  0.241048  1
  In  In5  1  0.350530  0.167207  0.259178  1
  In  In6  1  0.649472  0.832793  0.259178  1
  In  In7  1  0.000000  0.000000  0.500000  1
  In  In8  1  0.350529  0.167207  0.740822  1
  In  In9  1  0.649471  0.832793  0.740822  1
  In  In10  1  0.832866  0.350381  0.758952  1
  In  In11  1  0.167134  0.649620  0.758952  1
  Co  Co12  1  0.144303  0.348340  0.000000  1
  Co  Co13  1  0.855696  0.651660  0.000000  1
  Co  Co14  1  0.651587  0.144294  0.500000  1
  Co  Co15  1  0.348413  0.855705  0.500000  1
