# generated using pymatgen
data_Zr10Al2Sn3Sb
_symmetry_space_group_name_H-M   'P 1'
_cell_length_a   5.54012256
_cell_length_b   8.42026780
_cell_length_c   8.42918653
_cell_angle_alpha   83.79360964
_cell_angle_beta   70.81451243
_cell_angle_gamma   70.79340191
_symmetry_Int_Tables_number   1
_chemical_formula_structural   Zr10Al2Sn3Sb
_chemical_formula_sum   'Zr10 Al2 Sn3 Sb1'
_cell_volume   350.70506373
_cell_formula_units_Z   1
loop_
 _symmetry_equiv_pos_site_id
 _symmetry_equiv_pos_as_xyz
  1  'x, y, z'
loop_
 _atom_site_type_symbol
 _atom_site_label
 _atom_site_symmetry_multiplicity
 _atom_site_fract_x
 _atom_site_fract_y
 _atom_site_fract_z
 _atom_site_occupancy
  Zr  Zr0  1  0.249281  0.499608  0.500000  1
  Zr  Zr1  1  0.751111  0.499608  0.500000  1
  Zr  Zr2  1  0.076591  0.137893  0.708925  1
  Zr  Zr3  1  0.923179  0.862399  0.291243  1
  Zr  Zr4  1  0.785441  0.290899  0.138220  1
  Zr  Zr5  1  0.423661  0.290899  0.861780  1
  Zr  Zr6  1  0.214508  0.708898  0.862086  1
  Zr  Zr7  1  0.576594  0.708898  0.137914  1
  Zr  Zr8  1  0.714422  0.862399  0.708757  1
  Zr  Zr9  1  0.285516  0.137893  0.291075  1
  Al  Al10  1  0.249930  0.000140  0.000000  1
  Al  Al11  1  0.749930  0.000140  0.000000  1
  Sn  Sn12  1  0.163949  0.499911  0.172190  1
  Sn  Sn13  1  0.836139  0.499911  0.827810  1
  Sn  Sn14  1  0.336038  0.827924  0.500000  1
  Sb  Sb15  1  0.663711  0.172578  0.500000  1
