# generated using pymatgen
data_Ho7Co6Sn22Hg
_symmetry_space_group_name_H-M   'P 1'
_cell_length_a   9.66657000
_cell_length_b   9.66656847
_cell_length_c   10.00142900
_cell_angle_alpha   90.00000000
_cell_angle_beta   90.00000000
_cell_angle_gamma   119.99999839
_symmetry_Int_Tables_number   1
_chemical_formula_structural   Ho7Co6Sn22Hg
_chemical_formula_sum   'Ho7 Co6 Sn22 Hg1'
_cell_volume   809.35196743
_cell_formula_units_Z   1
loop_
 _symmetry_equiv_pos_site_id
 _symmetry_equiv_pos_as_xyz
  1  'x, y, z'
loop_
 _atom_site_type_symbol
 _atom_site_label
 _atom_site_symmetry_multiplicity
 _atom_site_fract_x
 _atom_site_fract_y
 _atom_site_fract_z
 _atom_site_occupancy
  Ho  Ho0  1  0.000000  0.000000  0.000000  1
  Ho  Ho1  1  0.520683  0.479317  0.693580  1
  Ho  Ho2  1  0.520683  0.041364  0.693580  1
  Ho  Ho3  1  0.958636  0.479317  0.693580  1
  Ho  Ho4  1  0.041364  0.520683  0.306420  1
  Ho  Ho5  1  0.479317  0.958636  0.306420  1
  Ho  Ho6  1  0.479317  0.520683  0.306420  1
  Co  Co7  1  0.168089  0.831911  0.802984  1
  Co  Co8  1  0.168089  0.336179  0.802984  1
  Co  Co9  1  0.663821  0.831911  0.802984  1
  Co  Co10  1  0.336179  0.168089  0.197016  1
  Co  Co11  1  0.831911  0.663821  0.197016  1
  Co  Co12  1  0.831911  0.168089  0.197016  1
  Sn  Sn13  1  0.666667  0.333333  0.181487  1
  Sn  Sn14  1  0.666667  0.333333  0.879788  1
  Sn  Sn15  1  0.333333  0.666667  0.120212  1
  Sn  Sn16  1  0.346363  0.346363  0.000000  1
  Sn  Sn17  1  0.000000  0.653637  0.000000  1
  Sn  Sn18  1  0.653637  0.000000  0.000000  1
  Sn  Sn19  1  0.653637  0.653637  0.000000  1
  Sn  Sn20  1  0.333333  0.666667  0.818513  1
  Sn  Sn21  1  0.435174  0.217587  0.453410  1
  Sn  Sn22  1  0.217587  0.782413  0.546590  1
  Sn  Sn23  1  0.217587  0.435174  0.546590  1
  Sn  Sn24  1  0.564826  0.782413  0.546590  1
  Sn  Sn25  1  0.116864  0.883136  0.269921  1
  Sn  Sn26  1  0.782413  0.564826  0.453410  1
  Sn  Sn27  1  0.782413  0.217587  0.453410  1
  Sn  Sn28  1  0.346363  0.000000  0.000000  1
  Sn  Sn29  1  0.116864  0.233727  0.269921  1
  Sn  Sn30  1  0.766273  0.883136  0.269921  1
  Sn  Sn31  1  0.233727  0.116864  0.730079  1
  Sn  Sn32  1  0.883136  0.766273  0.730079  1
  Sn  Sn33  1  0.883136  0.116864  0.730079  1
  Sn  Sn34  1  0.000000  0.346363  0.000000  1
  Hg  Hg35  1  0.000000  0.000000  0.500000  1
