# generated using pymatgen
data_Lu15Sc9(CoTc)4
_symmetry_space_group_name_H-M   'P 1'
_cell_length_a   6.10432747
_cell_length_b   8.88173826
_cell_length_c   13.63159860
_cell_angle_alpha   89.97385197
_cell_angle_beta   89.92083570
_cell_angle_gamma   90.00854149
_symmetry_Int_Tables_number   1
_chemical_formula_structural   Lu15Sc9(CoTc)4
_chemical_formula_sum   'Lu15 Sc9 Co4 Tc4'
_cell_volume   739.06412063
_cell_formula_units_Z   1
loop_
 _symmetry_equiv_pos_site_id
 _symmetry_equiv_pos_as_xyz
  1  'x, y, z'
loop_
 _atom_site_type_symbol
 _atom_site_label
 _atom_site_symmetry_multiplicity
 _atom_site_fract_x
 _atom_site_fract_y
 _atom_site_fract_z
 _atom_site_occupancy
  Lu  Lu0  1  0.409731  0.935425  0.785267  1
  Lu  Lu1  1  0.910162  0.063931  0.715332  1
  Lu  Lu2  1  0.591137  0.436290  0.213317  1
  Lu  Lu3  1  0.090185  0.563744  0.285098  1
  Lu  Lu4  1  0.590310  0.063763  0.214667  1
  Lu  Lu5  1  0.089366  0.936399  0.284615  1
  Lu  Lu6  1  0.413107  0.562955  0.785764  1
  Lu  Lu7  1  0.910273  0.436165  0.716584  1
  Lu  Lu8  1  0.245826  0.938631  0.536403  1
  Lu  Lu9  1  0.747080  0.063321  0.963890  1
  Lu  Lu10  1  0.753831  0.438326  0.463869  1
  Lu  Lu11  1  0.252467  0.559920  0.035392  1
  Lu  Lu12  1  0.753961  0.061676  0.463917  1
  Lu  Lu13  1  0.254923  0.937925  0.036272  1
  Lu  Lu14  1  0.245615  0.561380  0.536609  1
  Sc  Sc15  1  0.535448  0.749640  0.349372  1
  Sc  Sc16  1  0.035797  0.251227  0.148881  1
  Sc  Sc17  1  0.465138  0.250390  0.651336  1
  Sc  Sc18  1  0.963541  0.747965  0.850298  1
  Sc  Sc19  1  0.776744  0.747967  0.109458  1
  Sc  Sc20  1  0.277563  0.249969  0.389166  1
  Sc  Sc21  1  0.220852  0.250848  0.890011  1
  Sc  Sc22  1  0.723067  0.749894  0.610619  1
  Sc  Sc23  1  0.737473  0.438692  0.962694  1
  Co  Co24  1  0.383833  0.750119  0.182410  1
  Co  Co25  1  0.884731  0.250468  0.316774  1
  Co  Co26  1  0.616494  0.253897  0.819953  1
  Co  Co27  1  0.115669  0.749945  0.683123  1
  Tc  Tc28  1  0.921507  0.750124  0.439004  1
  Tc  Tc29  1  0.425563  0.251303  0.059363  1
  Tc  Tc30  1  0.078630  0.250213  0.561220  1
  Tc  Tc31  1  0.579976  0.747488  0.939325  1
