# generated using pymatgen
data_Tb9Dy7(TmPt4)4
_symmetry_space_group_name_H-M   'P 1'
_cell_length_a   7.47605106
_cell_length_b   7.58409111
_cell_length_c   14.76795700
_cell_angle_alpha   90.00803824
_cell_angle_beta   89.99298752
_cell_angle_gamma   90.00543284
_symmetry_Int_Tables_number   1
_chemical_formula_structural   Tb9Dy7(TmPt4)4
_chemical_formula_sum   'Tb9 Dy7 Tm4 Pt16'
_cell_volume   837.32914865
_cell_formula_units_Z   1
loop_
 _symmetry_equiv_pos_site_id
 _symmetry_equiv_pos_as_xyz
  1  'x, y, z'
loop_
 _atom_site_type_symbol
 _atom_site_label
 _atom_site_symmetry_multiplicity
 _atom_site_fract_x
 _atom_site_fract_y
 _atom_site_fract_z
 _atom_site_occupancy
  Tb  Tb0  1  0.156807  0.331881  0.622664  1
  Tb  Tb1  1  0.501881  0.679824  0.593450  1
  Tb  Tb2  1  0.001760  0.820377  0.906627  1
  Tb  Tb3  1  0.498273  0.320402  0.093433  1
  Tb  Tb4  1  0.998169  0.179500  0.406372  1
  Tb  Tb5  1  0.498314  0.320387  0.406471  1
  Tb  Tb6  1  0.998206  0.179589  0.093436  1
  Tb  Tb7  1  0.501732  0.679595  0.906610  1
  Tb  Tb8  1  0.001620  0.820437  0.593485  1
  Dy  Dy9  1  0.656805  0.168058  0.622788  1
  Dy  Dy10  1  0.156779  0.331875  0.877380  1
  Dy  Dy11  1  0.343209  0.831889  0.122706  1
  Dy  Dy12  1  0.843130  0.668146  0.377169  1
  Dy  Dy13  1  0.343214  0.831904  0.377148  1
  Dy  Dy14  1  0.843206  0.668127  0.122695  1
  Dy  Dy15  1  0.656803  0.168084  0.877378  1
  Tm  Tm16  1  0.818704  0.512619  0.750135  1
  Tm  Tm17  1  0.318975  0.987352  0.750132  1
  Tm  Tm18  1  0.181123  0.487537  0.249951  1
  Tm  Tm19  1  0.681102  0.012460  0.249959  1
  Pt  Pt20  1  0.683224  0.968057  0.457670  1
  Pt  Pt21  1  0.183151  0.531963  0.042298  1
  Pt  Pt22  1  0.316884  0.031952  0.957553  1
  Pt  Pt23  1  0.816353  0.468253  0.542328  1
  Pt  Pt24  1  0.317240  0.031299  0.542314  1
  Pt  Pt25  1  0.816887  0.468063  0.957564  1
  Pt  Pt26  1  0.683138  0.968040  0.042295  1
  Pt  Pt27  1  0.183162  0.532303  0.457376  1
  Pt  Pt28  1  0.454711  0.387807  0.750233  1
  Pt  Pt29  1  0.954110  0.112005  0.750235  1
  Pt  Pt30  1  0.545652  0.612341  0.249976  1
  Pt  Pt31  1  0.045632  0.887668  0.249972  1
  Pt  Pt32  1  0.681800  0.855946  0.750036  1
  Pt  Pt33  1  0.181919  0.644251  0.750207  1
  Pt  Pt34  1  0.318176  0.144025  0.249981  1
  Pt  Pt35  1  0.818145  0.355984  0.249971  1
