# generated using pymatgen
data_TbYbSbPtO7
_symmetry_space_group_name_H-M   'P 1'
_cell_length_a   7.31859598
_cell_length_b   7.38398527
_cell_length_c   7.31859502
_cell_angle_alpha   59.70399012
_cell_angle_beta   59.56953167
_cell_angle_gamma   59.70399169
_symmetry_Int_Tables_number   1
_chemical_formula_structural   TbYbSbPtO7
_chemical_formula_sum   'Tb2 Yb2 Sb2 Pt2 O14'
_cell_volume   277.49394290
_cell_formula_units_Z   2
loop_
 _symmetry_equiv_pos_site_id
 _symmetry_equiv_pos_as_xyz
  1  'x, y, z'
loop_
 _atom_site_type_symbol
 _atom_site_label
 _atom_site_symmetry_multiplicity
 _atom_site_fract_x
 _atom_site_fract_y
 _atom_site_fract_z
 _atom_site_occupancy
  Tb  Tb0  1  0.625000  0.625000  0.625000  1
  Tb  Tb1  1  0.625000  0.125000  0.625000  1
  Yb  Yb2  1  0.625000  0.625000  0.125000  1
  Yb  Yb3  1  0.125000  0.625000  0.625000  1
  Sb  Sb4  1  0.125000  0.125000  0.125000  1
  Sb  Sb5  1  0.125000  0.625000  0.125000  1
  Pt  Pt6  1  0.625000  0.125000  0.125000  1
  Pt  Pt7  1  0.125000  0.125000  0.625000  1
  O  O8  1  0.039972  0.459017  0.457923  1
  O  O9  1  0.792077  0.790983  0.210028  1
  O  O10  1  0.792077  0.206911  0.210028  1
  O  O11  1  0.464958  0.035042  0.464958  1
  O  O12  1  0.047268  0.452732  0.047268  1
  O  O13  1  0.745420  0.754580  0.745420  1
  O  O14  1  0.039972  0.043089  0.457923  1
  O  O15  1  0.202732  0.797268  0.202732  1
  O  O16  1  0.210028  0.206911  0.792077  1
  O  O17  1  0.504580  0.495420  0.504580  1
  O  O18  1  0.785042  0.214958  0.785042  1
  O  O19  1  0.457923  0.043089  0.039972  1
  O  O20  1  0.457923  0.459017  0.039972  1
  O  O21  1  0.210028  0.790983  0.792077  1
