# generated using pymatgen
data_Tb12ZnIn2Os3
_symmetry_space_group_name_H-M   'P 1'
_cell_length_a   8.57642405
_cell_length_b   8.57712808
_cell_length_c   8.57642321
_cell_angle_alpha   113.25936433
_cell_angle_beta   111.12828842
_cell_angle_gamma   104.15797761
_symmetry_Int_Tables_number   1
_chemical_formula_structural   Tb12ZnIn2Os3
_chemical_formula_sum   'Tb12 Zn1 In2 Os3'
_cell_volume   482.40229142
_cell_formula_units_Z   1
loop_
 _symmetry_equiv_pos_site_id
 _symmetry_equiv_pos_as_xyz
  1  'x, y, z'
loop_
 _atom_site_type_symbol
 _atom_site_label
 _atom_site_symmetry_multiplicity
 _atom_site_fract_x
 _atom_site_fract_y
 _atom_site_fract_z
 _atom_site_occupancy
  Tb  Tb0  1  0.437867  0.239560  0.198340  1
  Tb  Tb1  1  0.555975  0.760253  0.795736  1
  Tb  Tb2  1  0.041220  0.239560  0.801693  1
  Tb  Tb3  1  0.964515  0.760253  0.204277  1
  Tb  Tb4  1  0.190743  0.286020  0.464141  1
  Tb  Tb5  1  0.821951  0.726647  0.535874  1
  Tb  Tb6  1  0.190773  0.726647  0.904696  1
  Tb  Tb7  1  0.821879  0.286020  0.095277  1
  Tb  Tb8  1  0.327961  0.641493  0.313531  1
  Tb  Tb9  1  0.658987  0.349078  0.690092  1
  Tb  Tb10  1  0.327839  0.014308  0.686468  1
  Tb  Tb11  1  0.659103  0.968916  0.309814  1
  Zn  Zn12  1  0.877654  0.377699  0.500045  1
  In  In13  1  0.501397  0.501413  0.000016  1
  In  In14  1  0.996710  0.996731  0.000021  1
  Os  Os15  1  0.334870  0.003704  0.331170  1
  Os  Os16  1  0.672533  0.003704  0.668834  1
  Os  Os17  1  0.118026  0.617998  0.499973  1
