# generated using pymatgen
data_Dy3Cd3In2Ir
_symmetry_space_group_name_H-M   'P 1'
_cell_length_a   8.24564600
_cell_length_b   8.24564558
_cell_length_c   3.67562000
_cell_angle_alpha   90.00000000
_cell_angle_beta   90.00000000
_cell_angle_gamma   120.00000061
_symmetry_Int_Tables_number   1
_chemical_formula_structural   Dy3Cd3In2Ir
_chemical_formula_sum   'Dy3 Cd3 In2 Ir1'
_cell_volume   216.42657397
_cell_formula_units_Z   1
loop_
 _symmetry_equiv_pos_site_id
 _symmetry_equiv_pos_as_xyz
  1  'x, y, z'
loop_
 _atom_site_type_symbol
 _atom_site_label
 _atom_site_symmetry_multiplicity
 _atom_site_fract_x
 _atom_site_fract_y
 _atom_site_fract_z
 _atom_site_occupancy
  Dy  Dy0  1  0.579566  0.956397  0.000000  1
  Dy  Dy1  1  0.043603  0.623168  0.000000  1
  Dy  Dy2  1  0.376832  0.420434  0.000000  1
  Cd  Cd3  1  0.286777  0.004038  0.500000  1
  Cd  Cd4  1  0.995962  0.282740  0.500000  1
  Cd  Cd5  1  0.717260  0.713223  0.500000  1
  In  In6  1  0.666667  0.333333  0.500000  1
  In  In7  1  0.000000  0.000000  0.000000  1
  Ir  Ir8  1  0.333333  0.666667  0.500000  1
