# generated using pymatgen
data_Yb7Ce(Si3Pd)4
_symmetry_space_group_name_H-M   'P 1'
_cell_length_a   8.25369200
_cell_length_b   8.25369068
_cell_length_c   8.31731100
_cell_angle_alpha   90.00000000
_cell_angle_beta   90.00000000
_cell_angle_gamma   119.99999728
_symmetry_Int_Tables_number   1
_chemical_formula_structural   Yb7Ce(Si3Pd)4
_chemical_formula_sum   'Yb7 Ce1 Si12 Pd4'
_cell_volume   490.69319132
_cell_formula_units_Z   1
loop_
 _symmetry_equiv_pos_site_id
 _symmetry_equiv_pos_as_xyz
  1  'x, y, z'
loop_
 _atom_site_type_symbol
 _atom_site_label
 _atom_site_symmetry_multiplicity
 _atom_site_fract_x
 _atom_site_fract_y
 _atom_site_fract_z
 _atom_site_occupancy
  Yb  Yb0  1  0.501758  0.003516  0.250000  1
  Yb  Yb1  1  0.498252  0.996503  0.750000  1
  Yb  Yb2  1  0.996484  0.498242  0.250000  1
  Yb  Yb3  1  0.003497  0.501748  0.750000  1
  Yb  Yb4  1  0.501758  0.498242  0.250000  1
  Yb  Yb5  1  0.498252  0.501748  0.750000  1
  Yb  Yb6  1  0.000000  0.000000  0.250000  1
  Ce  Ce7  1  0.000000  0.000000  0.750000  1
  Si  Si8  1  0.164792  0.329583  0.998435  1
  Si  Si9  1  0.835382  0.670765  0.996016  1
  Si  Si10  1  0.670417  0.835208  0.998435  1
  Si  Si11  1  0.835382  0.670765  0.503984  1
  Si  Si12  1  0.329235  0.164618  0.996016  1
  Si  Si13  1  0.164792  0.329583  0.501565  1
  Si  Si14  1  0.164792  0.835208  0.998435  1
  Si  Si15  1  0.329235  0.164618  0.503984  1
  Si  Si16  1  0.835382  0.164618  0.996016  1
  Si  Si17  1  0.670417  0.835208  0.501565  1
  Si  Si18  1  0.835382  0.164618  0.503984  1
  Si  Si19  1  0.164792  0.835208  0.501565  1
  Pd  Pd20  1  0.333333  0.666667  0.006117  1
  Pd  Pd21  1  0.666667  0.333333  0.998667  1
  Pd  Pd22  1  0.666667  0.333333  0.501333  1
  Pd  Pd23  1  0.333333  0.666667  0.493883  1
