# generated using pymatgen
data_Yb3Pr5(US5)4
_symmetry_space_group_name_H-M   'P 1'
_cell_length_a   7.50086999
_cell_length_b   8.05232713
_cell_length_c   11.81341464
_cell_angle_alpha   90.03406583
_cell_angle_beta   89.93231275
_cell_angle_gamma   89.94966873
_symmetry_Int_Tables_number   1
_chemical_formula_structural   Yb3Pr5(US5)4
_chemical_formula_sum   'Yb3 Pr5 U4 S20'
_cell_volume   713.52295347
_cell_formula_units_Z   1
loop_
 _symmetry_equiv_pos_site_id
 _symmetry_equiv_pos_as_xyz
  1  'x, y, z'
loop_
 _atom_site_type_symbol
 _atom_site_label
 _atom_site_symmetry_multiplicity
 _atom_site_fract_x
 _atom_site_fract_y
 _atom_site_fract_z
 _atom_site_occupancy
  Yb  Yb0  1  0.524934  0.499408  0.324731  1
  Yb  Yb1  1  0.975137  0.000707  0.820010  1
  Yb  Yb2  1  0.475808  0.000057  0.678052  1
  Pr  Pr3  1  0.028967  0.499537  0.176612  1
  Pr  Pr4  1  0.467415  0.497393  0.674115  1
  Pr  Pr5  1  0.033638  0.001065  0.173343  1
  Pr  Pr6  1  0.531095  0.997603  0.327969  1
  Pr  Pr7  1  0.966216  0.502182  0.823460  1
  U  U8  1  0.070324  0.752437  0.494816  1
  U  U9  1  0.434156  0.750164  0.989750  1
  U  U10  1  0.930494  0.250807  0.509167  1
  U  U11  1  0.567632  0.248516  0.006364  1
  S  S12  1  0.838268  0.959712  0.589365  1
  S  S13  1  0.660336  0.539646  0.090794  1
  S  S14  1  0.162085  0.460210  0.410838  1
  S  S15  1  0.337578  0.040247  0.910132  1
  S  S16  1  0.163389  0.043250  0.408801  1
  S  S17  1  0.334637  0.457305  0.909255  1
  S  S18  1  0.835144  0.543969  0.590313  1
  S  S19  1  0.663203  0.957542  0.092270  1
  S  S20  1  0.842124  0.751193  0.314626  1
  S  S21  1  0.661011  0.748060  0.813739  1
  S  S22  1  0.159075  0.252596  0.684898  1
  S  S23  1  0.337681  0.248767  0.186082  1
  S  S24  1  0.447719  0.750596  0.497794  1
  S  S25  1  0.050663  0.748878  0.997541  1
  S  S26  1  0.552515  0.250458  0.502547  1
  S  S27  1  0.948045  0.249222  0.001822  1
  S  S28  1  0.187284  0.750503  0.712593  1
  S  S29  1  0.314154  0.749322  0.210611  1
  S  S30  1  0.812065  0.248905  0.289274  1
  S  S31  1  0.687206  0.249741  0.788318  1
