# generated using pymatgen
data_Pa4Ga5GeOs7
_symmetry_space_group_name_H-M   'P 1'
_cell_length_a   7.28161444
_cell_length_b   7.28161408
_cell_length_c   7.28161475
_cell_angle_alpha   109.61517604
_cell_angle_beta   109.39929133
_cell_angle_gamma   109.39928599
_symmetry_Int_Tables_number   1
_chemical_formula_structural   Pa4Ga5GeOs7
_chemical_formula_sum   'Pa4 Ga5 Ge1 Os7'
_cell_volume   297.20705333
_cell_formula_units_Z   1
loop_
 _symmetry_equiv_pos_site_id
 _symmetry_equiv_pos_as_xyz
  1  'x, y, z'
loop_
 _atom_site_type_symbol
 _atom_site_label
 _atom_site_symmetry_multiplicity
 _atom_site_fract_x
 _atom_site_fract_y
 _atom_site_fract_z
 _atom_site_occupancy
  Pa  Pa0  1  0.000000  0.002067  0.504255  1
  Pa  Pa1  1  0.000000  0.504255  0.002067  1
  Pa  Pa2  1  0.497812  0.002067  0.002067  1
  Pa  Pa3  1  0.502188  0.504255  0.504255  1
  Ga  Ga4  1  0.692190  0.694474  0.002284  1
  Ga  Ga5  1  0.307810  0.002284  0.310095  1
  Ga  Ga6  1  0.000000  0.301428  0.301428  1
  Ga  Ga7  1  0.307810  0.310095  0.002284  1
  Ga  Ga8  1  0.692190  0.002284  0.694474  1
  Ge  Ge9  1  0.000000  0.686259  0.686259  1
  Os  Os10  1  0.750005  0.249706  0.499701  1
  Os  Os11  1  0.750005  0.499701  0.249706  1
  Os  Os12  1  0.500000  0.250987  0.750987  1
  Os  Os13  1  0.249995  0.499701  0.749696  1
  Os  Os14  1  0.249995  0.749696  0.499701  1
  Os  Os15  1  0.500000  0.750987  0.250987  1
  Os  Os16  1  0.000000  0.989753  0.989753  1
