# generated using pymatgen
data_LaNd15Cd4(OsPd)2
_symmetry_space_group_name_H-M   'P 1'
_cell_length_a   9.98385844
_cell_length_b   9.98385864
_cell_length_c   10.08883011
_cell_angle_alpha   59.63825898
_cell_angle_beta   59.63826051
_cell_angle_gamma   59.66123336
_symmetry_Int_Tables_number   1
_chemical_formula_structural   LaNd15Cd4(OsPd)2
_chemical_formula_sum   'La1 Nd15 Cd4 Os2 Pd2'
_cell_volume   705.36564283
_cell_formula_units_Z   1
loop_
 _symmetry_equiv_pos_site_id
 _symmetry_equiv_pos_as_xyz
  1  'x, y, z'
loop_
 _atom_site_type_symbol
 _atom_site_label
 _atom_site_symmetry_multiplicity
 _atom_site_fract_x
 _atom_site_fract_y
 _atom_site_fract_z
 _atom_site_occupancy
  La  La0  1  0.345694  0.345694  0.356734  1
  Nd  Nd1  1  0.349454  0.349454  0.944801  1
  Nd  Nd2  1  0.344405  0.954590  0.349021  1
  Nd  Nd3  1  0.954590  0.344405  0.349021  1
  Nd  Nd4  1  0.815983  0.188944  0.191297  1
  Nd  Nd5  1  0.188049  0.815956  0.803390  1
  Nd  Nd6  1  0.188944  0.815983  0.191297  1
  Nd  Nd7  1  0.815956  0.188049  0.803390  1
  Nd  Nd8  1  0.188803  0.188803  0.812436  1
  Nd  Nd9  1  0.806391  0.806391  0.193845  1
  Nd  Nd10  1  0.936365  0.556959  0.567712  1
  Nd  Nd11  1  0.556137  0.938208  0.940013  1
  Nd  Nd12  1  0.556959  0.936365  0.567712  1
  Nd  Nd13  1  0.938208  0.556137  0.940013  1
  Nd  Nd14  1  0.563173  0.563173  0.937595  1
  Nd  Nd15  1  0.939290  0.939290  0.559972  1
  Cd  Cd16  1  0.579790  0.579790  0.579907  1
  Cd  Cd17  1  0.580699  0.580699  0.259236  1
  Cd  Cd18  1  0.581900  0.257504  0.581505  1
  Cd  Cd19  1  0.257504  0.581900  0.581505  1
  Os  Os20  1  0.144090  0.144090  0.137850  1
  Os  Os21  1  0.146511  0.146511  0.573795  1
  Pd  Pd22  1  0.147079  0.574025  0.138976  1
  Pd  Pd23  1  0.574025  0.147079  0.138976  1
