# generated using pymatgen
data_Lu3Hf2(Co2Si5)2
_symmetry_space_group_name_H-M   'P 1'
_cell_length_a   12.10960100
_cell_length_b   12.10960100
_cell_length_c   3.98169900
_cell_angle_alpha   90.00000000
_cell_angle_beta   90.00000000
_cell_angle_gamma   90.00000000
_symmetry_Int_Tables_number   1
_chemical_formula_structural   Lu3Hf2(Co2Si5)2
_chemical_formula_sum   'Lu6 Hf4 Co8 Si20'
_cell_volume   583.88604229
_cell_formula_units_Z   2
loop_
 _symmetry_equiv_pos_site_id
 _symmetry_equiv_pos_as_xyz
  1  'x, y, z'
loop_
 _atom_site_type_symbol
 _atom_site_label
 _atom_site_symmetry_multiplicity
 _atom_site_fract_x
 _atom_site_fract_y
 _atom_site_fract_z
 _atom_site_occupancy
  Lu  Lu0  1  0.000000  0.000000  0.000000  1
  Lu  Lu1  1  0.500000  0.500000  0.000000  1
  Lu  Lu2  1  0.887687  0.387687  0.500000  1
  Lu  Lu3  1  0.387687  0.112313  0.500000  1
  Lu  Lu4  1  0.612313  0.887687  0.500000  1
  Lu  Lu5  1  0.112313  0.612313  0.500000  1
  Hf  Hf6  1  0.676490  0.176490  0.500000  1
  Hf  Hf7  1  0.176490  0.323510  0.500000  1
  Hf  Hf8  1  0.823510  0.676490  0.500000  1
  Hf  Hf9  1  0.323510  0.823510  0.500000  1
  Co  Co10  1  0.525692  0.254910  0.000000  1
  Co  Co11  1  0.254910  0.474308  0.000000  1
  Co  Co12  1  0.745090  0.525692  0.000000  1
  Co  Co13  1  0.474308  0.745090  0.000000  1
  Co  Co14  1  0.974308  0.754910  0.000000  1
  Co  Co15  1  0.025692  0.245090  0.000000  1
  Co  Co16  1  0.754910  0.025692  0.000000  1
  Co  Co17  1  0.245090  0.974308  0.000000  1
  Si  Si18  1  0.569076  0.069076  0.000000  1
  Si  Si19  1  0.069076  0.430924  0.000000  1
  Si  Si20  1  0.930924  0.569076  0.000000  1
  Si  Si21  1  0.430924  0.930924  0.000000  1
  Si  Si22  1  0.198265  0.156579  0.000000  1
  Si  Si23  1  0.156579  0.801735  0.000000  1
  Si  Si24  1  0.843421  0.198265  0.000000  1
  Si  Si25  1  0.801735  0.843421  0.000000  1
  Si  Si26  1  0.301735  0.656579  0.000000  1
  Si  Si27  1  0.698265  0.343421  0.000000  1
  Si  Si28  1  0.656579  0.698265  0.000000  1
  Si  Si29  1  0.343421  0.301735  0.000000  1
  Si  Si30  1  0.004087  0.165754  0.500000  1
  Si  Si31  1  0.165754  0.995913  0.500000  1
  Si  Si32  1  0.834246  0.004087  0.500000  1
  Si  Si33  1  0.995913  0.834246  0.500000  1
  Si  Si34  1  0.495913  0.665754  0.500000  1
  Si  Si35  1  0.504087  0.334246  0.500000  1
  Si  Si36  1  0.665754  0.504087  0.500000  1
  Si  Si37  1  0.334246  0.495913  0.500000  1
