# generated using pymatgen
data_Yb2Pd3(PtO4)3
_symmetry_space_group_name_H-M   'P 1'
_cell_length_a   3.25917900
_cell_length_b   7.28066402
_cell_length_c   10.22928410
_cell_angle_alpha   90.09675824
_cell_angle_beta   90.00000000
_cell_angle_gamma   90.00000000
_symmetry_Int_Tables_number   1
_chemical_formula_structural   Yb2Pd3(PtO4)3
_chemical_formula_sum   'Yb2 Pd3 Pt3 O12'
_cell_volume   242.73020605
_cell_formula_units_Z   1
loop_
 _symmetry_equiv_pos_site_id
 _symmetry_equiv_pos_as_xyz
  1  'x, y, z'
loop_
 _atom_site_type_symbol
 _atom_site_label
 _atom_site_symmetry_multiplicity
 _atom_site_fract_x
 _atom_site_fract_y
 _atom_site_fract_z
 _atom_site_occupancy
  Yb  Yb0  1  0.000000  0.002487  0.001601  1
  Yb  Yb1  1  0.000000  0.497216  0.498279  1
  Pd  Pd2  1  0.000000  0.000604  0.499411  1
  Pd  Pd3  1  0.000000  0.499457  0.000624  1
  Pd  Pd4  1  0.500000  0.248045  0.249351  1
  Pt  Pt5  1  0.500000  0.751828  0.750619  1
  Pt  Pt6  1  0.500000  0.251856  0.749412  1
  Pt  Pt7  1  0.500000  0.748241  0.250635  1
  O  O8  1  0.500000  0.996672  0.160931  1
  O  O9  1  0.500000  0.002352  0.840439  1
  O  O10  1  0.500000  0.501867  0.659496  1
  O  O11  1  0.500000  0.499165  0.339104  1
  O  O12  1  0.000000  0.206599  0.371935  1
  O  O13  1  0.000000  0.792002  0.629898  1
  O  O14  1  0.000000  0.291714  0.869918  1
  O  O15  1  0.000000  0.708552  0.129916  1
  O  O16  1  0.000000  0.290668  0.126524  1
  O  O17  1  0.000000  0.710879  0.871620  1
  O  O18  1  0.000000  0.211180  0.628596  1
  O  O19  1  0.000000  0.788617  0.371691  1
