# generated using pymatgen
data_NdTaCrB6
_symmetry_space_group_name_H-M   'P 1'
_cell_length_a   3.47692500
_cell_length_b   9.00272300
_cell_length_c   11.43590100
_cell_angle_alpha   90.00000000
_cell_angle_beta   90.00000000
_cell_angle_gamma   90.00000000
_symmetry_Int_Tables_number   1
_chemical_formula_structural   NdTaCrB6
_chemical_formula_sum   'Nd4 Ta4 Cr4 B24'
_cell_volume   357.96420206
_cell_formula_units_Z   4
loop_
 _symmetry_equiv_pos_site_id
 _symmetry_equiv_pos_as_xyz
  1  'x, y, z'
loop_
 _atom_site_type_symbol
 _atom_site_label
 _atom_site_symmetry_multiplicity
 _atom_site_fract_x
 _atom_site_fract_y
 _atom_site_fract_z
 _atom_site_occupancy
  Nd  Nd0  1  0.000000  0.823454  0.085052  1
  Nd  Nd1  1  0.000000  0.176546  0.914948  1
  Nd  Nd2  1  0.000000  0.323454  0.414948  1
  Nd  Nd3  1  0.000000  0.676546  0.585052  1
  Ta  Ta4  1  0.000000  0.446206  0.127736  1
  Ta  Ta5  1  0.000000  0.553794  0.872264  1
  Ta  Ta6  1  0.000000  0.946206  0.372264  1
  Ta  Ta7  1  0.000000  0.053794  0.627736  1
  Cr  Cr8  1  0.000000  0.145564  0.185434  1
  Cr  Cr9  1  0.000000  0.854436  0.814566  1
  Cr  Cr10  1  0.000000  0.645564  0.314566  1
  Cr  Cr11  1  0.000000  0.354436  0.685434  1
  B  B12  1  0.500000  0.057617  0.071259  1
  B  B13  1  0.500000  0.942383  0.928741  1
  B  B14  1  0.500000  0.557617  0.428741  1
  B  B15  1  0.500000  0.442383  0.571259  1
  B  B16  1  0.500000  0.256086  0.085200  1
  B  B17  1  0.500000  0.743914  0.914800  1
  B  B18  1  0.500000  0.756086  0.414800  1
  B  B19  1  0.500000  0.243914  0.585200  1
  B  B20  1  0.500000  0.298134  0.235039  1
  B  B21  1  0.500000  0.701866  0.764961  1
  B  B22  1  0.500000  0.798134  0.264961  1
  B  B23  1  0.500000  0.201866  0.735039  1
  B  B24  1  0.500000  0.129788  0.317574  1
  B  B25  1  0.500000  0.870212  0.682426  1
  B  B26  1  0.500000  0.629788  0.182426  1
  B  B27  1  0.500000  0.370212  0.817574  1
  B  B28  1  0.500000  0.484797  0.284199  1
  B  B29  1  0.500000  0.515203  0.715801  1
  B  B30  1  0.500000  0.984797  0.215801  1
  B  B31  1  0.500000  0.015203  0.784199  1
  B  B32  1  0.500000  0.097052  0.474854  1
  B  B33  1  0.500000  0.902948  0.525146  1
  B  B34  1  0.500000  0.597052  0.025146  1
  B  B35  1  0.500000  0.402948  0.974854  1
