# generated using pymatgen
data_Pr3TiWC6
_symmetry_space_group_name_H-M   'P 1'
_cell_length_a   8.64305200
_cell_length_b   8.64305098
_cell_length_c   5.21477400
_cell_angle_alpha   90.00000000
_cell_angle_beta   90.00000000
_cell_angle_gamma   119.99999624
_symmetry_Int_Tables_number   1
_chemical_formula_structural   Pr3TiWC6
_chemical_formula_sum   'Pr6 Ti2 W2 C12'
_cell_volume   337.36524523
_cell_formula_units_Z   2
loop_
 _symmetry_equiv_pos_site_id
 _symmetry_equiv_pos_as_xyz
  1  'x, y, z'
loop_
 _atom_site_type_symbol
 _atom_site_label
 _atom_site_symmetry_multiplicity
 _atom_site_fract_x
 _atom_site_fract_y
 _atom_site_fract_z
 _atom_site_occupancy
  Pr  Pr0  1  0.615156  0.691954  0.750000  1
  Pr  Pr1  1  0.923204  0.615156  0.250000  1
  Pr  Pr2  1  0.691954  0.076796  0.250000  1
  Pr  Pr3  1  0.308046  0.923204  0.750000  1
  Pr  Pr4  1  0.076796  0.384844  0.750000  1
  Pr  Pr5  1  0.384844  0.308046  0.250000  1
  Ti  Ti6  1  0.000000  0.000000  0.500000  1
  Ti  Ti7  1  0.000000  0.000000  0.000000  1
  W  W8  1  0.666667  0.333333  0.750000  1
  W  W9  1  0.333333  0.666667  0.250000  1
  C  C10  1  0.955459  0.769690  0.750000  1
  C  C11  1  0.185768  0.955459  0.250000  1
  C  C12  1  0.769690  0.814232  0.250000  1
  C  C13  1  0.230310  0.185768  0.750000  1
  C  C14  1  0.814232  0.044541  0.750000  1
  C  C15  1  0.044541  0.230310  0.250000  1
  C  C16  1  0.859275  0.586911  0.750000  1
  C  C17  1  0.272364  0.859275  0.250000  1
  C  C18  1  0.586911  0.727636  0.250000  1
  C  C19  1  0.413089  0.272364  0.750000  1
  C  C20  1  0.140725  0.413089  0.250000  1
  C  C21  1  0.727636  0.140725  0.750000  1
