# generated using pymatgen
data_Ca2Zr(Si3Pd10)2
_symmetry_space_group_name_H-M   'P 1'
_cell_length_a   8.70015007
_cell_length_b   8.70014994
_cell_length_c   8.70015100
_cell_angle_alpha   59.99999978
_cell_angle_beta   60.00000027
_cell_angle_gamma   60.00000627
_symmetry_Int_Tables_number   1
_chemical_formula_structural   Ca2Zr(Si3Pd10)2
_chemical_formula_sum   'Ca2 Zr1 Si6 Pd20'
_cell_volume   465.65609802
_cell_formula_units_Z   1
loop_
 _symmetry_equiv_pos_site_id
 _symmetry_equiv_pos_as_xyz
  1  'x, y, z'
loop_
 _atom_site_type_symbol
 _atom_site_label
 _atom_site_symmetry_multiplicity
 _atom_site_fract_x
 _atom_site_fract_y
 _atom_site_fract_z
 _atom_site_occupancy
  Ca  Ca0  1  0.250000  0.250000  0.250000  1
  Ca  Ca1  1  0.750000  0.750000  0.750000  1
  Zr  Zr2  1  0.000000  0.000000  0.000000  1
  Si  Si3  1  0.730919  0.269081  0.269081  1
  Si  Si4  1  0.269081  0.730919  0.730919  1
  Si  Si5  1  0.269081  0.730919  0.269081  1
  Si  Si6  1  0.730919  0.269081  0.730919  1
  Si  Si7  1  0.269081  0.269081  0.730919  1
  Si  Si8  1  0.730919  0.730919  0.269081  1
  Pd  Pd9  1  0.383821  0.383821  0.383821  1
  Pd  Pd10  1  0.616179  0.616179  0.616179  1
  Pd  Pd11  1  0.383821  0.383821  0.848539  1
  Pd  Pd12  1  0.383821  0.848539  0.383821  1
  Pd  Pd13  1  0.616179  0.616179  0.151461  1
  Pd  Pd14  1  0.616179  0.151461  0.616179  1
  Pd  Pd15  1  0.848539  0.383821  0.383821  1
  Pd  Pd16  1  0.151461  0.616179  0.616179  1
  Pd  Pd17  1  0.341407  0.000000  0.000000  1
  Pd  Pd18  1  0.658593  0.000000  0.000000  1
  Pd  Pd19  1  0.000000  0.341407  0.658593  1
  Pd  Pd20  1  0.000000  0.658593  0.341407  1
  Pd  Pd21  1  0.000000  0.341407  0.000000  1
  Pd  Pd22  1  0.658593  0.000000  0.341407  1
  Pd  Pd23  1  0.000000  0.658593  0.000000  1
  Pd  Pd24  1  0.341407  0.000000  0.658593  1
  Pd  Pd25  1  0.000000  0.000000  0.341407  1
  Pd  Pd26  1  0.000000  0.000000  0.658593  1
  Pd  Pd27  1  0.658593  0.341407  0.000000  1
  Pd  Pd28  1  0.341407  0.658593  0.000000  1
