# generated using pymatgen
data_Ac2Nd2S3N2
_symmetry_space_group_name_H-M   'P 1'
_cell_length_a   8.37615716
_cell_length_b   8.37615576
_cell_length_c   6.51323800
_cell_angle_alpha   89.91074717
_cell_angle_beta   89.91074718
_cell_angle_gamma   75.53888540
_symmetry_Int_Tables_number   1
_chemical_formula_structural   Ac2Nd2S3N2
_chemical_formula_sum   'Ac4 Nd4 S6 N4'
_cell_volume   442.48991631
_cell_formula_units_Z   2
loop_
 _symmetry_equiv_pos_site_id
 _symmetry_equiv_pos_as_xyz
  1  'x, y, z'
loop_
 _atom_site_type_symbol
 _atom_site_label
 _atom_site_symmetry_multiplicity
 _atom_site_fract_x
 _atom_site_fract_y
 _atom_site_fract_z
 _atom_site_occupancy
  Ac  Ac0  1  0.797755  0.442839  0.530682  1
  Ac  Ac1  1  0.557161  0.202245  0.969318  1
  Ac  Ac2  1  0.202245  0.557161  0.469318  1
  Ac  Ac3  1  0.442839  0.797755  0.030682  1
  Nd  Nd4  1  0.239282  0.080101  0.564901  1
  Nd  Nd5  1  0.919899  0.760718  0.935099  1
  Nd  Nd6  1  0.760718  0.919899  0.435099  1
  Nd  Nd7  1  0.080101  0.239282  0.064901  1
  S  S8  1  0.759121  0.485564  0.028389  1
  S  S9  1  0.090226  0.909774  0.250000  1
  S  S10  1  0.514436  0.240879  0.471611  1
  S  S11  1  0.240879  0.514436  0.971611  1
  S  S12  1  0.909774  0.090226  0.750000  1
  S  S13  1  0.485564  0.759121  0.528389  1
  N  N14  1  0.084077  0.322647  0.409296  1
  N  N15  1  0.322647  0.084077  0.909296  1
  N  N16  1  0.915923  0.677353  0.590704  1
  N  N17  1  0.677353  0.915923  0.090704  1
