# generated using pymatgen
data_SnB8O13
_symmetry_space_group_name_H-M   'P 1'
_cell_length_a   8.75519500
_cell_length_b   8.75519500
_cell_length_c   13.33318000
_cell_angle_alpha   90.00000000
_cell_angle_beta   90.00000000
_cell_angle_gamma   90.00000000
_symmetry_Int_Tables_number   1
_chemical_formula_structural   SnB8O13
_chemical_formula_sum   'Sn4 B32 O52'
_cell_volume   1022.03410631
_cell_formula_units_Z   4
loop_
 _symmetry_equiv_pos_site_id
 _symmetry_equiv_pos_as_xyz
  1  'x, y, z'
loop_
 _atom_site_type_symbol
 _atom_site_label
 _atom_site_symmetry_multiplicity
 _atom_site_fract_x
 _atom_site_fract_y
 _atom_site_fract_z
 _atom_site_occupancy
  Sn  Sn0  1  0.000000  0.611530  0.500000  1
  Sn  Sn1  1  0.388470  0.000000  0.750000  1
  Sn  Sn2  1  0.611530  0.000000  0.250000  1
  Sn  Sn3  1  0.000000  0.388470  0.000000  1
  B  B4  1  0.787497  0.059410  0.000379  1
  B  B5  1  0.212503  0.940590  0.500379  1
  B  B6  1  0.059410  0.787497  0.749621  1
  B  B7  1  0.059410  0.212503  0.750379  1
  B  B8  1  0.940590  0.787497  0.250379  1
  B  B9  1  0.212503  0.059410  0.999621  1
  B  B10  1  0.787497  0.940590  0.499621  1
  B  B11  1  0.940590  0.212503  0.249621  1
  B  B12  1  0.745156  0.797136  0.037770  1
  B  B13  1  0.254844  0.202864  0.537770  1
  B  B14  1  0.797136  0.745156  0.712230  1
  B  B15  1  0.797136  0.254844  0.787770  1
  B  B16  1  0.202864  0.745156  0.287770  1
  B  B17  1  0.254844  0.797136  0.962230  1
  B  B18  1  0.745156  0.202864  0.462230  1
  B  B19  1  0.202864  0.254844  0.212230  1
  B  B20  1  0.645558  0.546554  0.112632  1
  B  B21  1  0.354442  0.453446  0.612632  1
  B  B22  1  0.546554  0.645558  0.637368  1
  B  B23  1  0.546554  0.354442  0.862632  1
  B  B24  1  0.453446  0.645558  0.362632  1
  B  B25  1  0.354442  0.546554  0.887368  1
  B  B26  1  0.645558  0.453446  0.387368  1
  B  B27  1  0.453446  0.354442  0.137368  1
  B  B28  1  0.861460  0.861460  0.875000  1
  B  B29  1  0.138540  0.861460  0.125000  1
  B  B30  1  0.861460  0.138540  0.625000  1
  B  B31  1  0.138540  0.138540  0.375000  1
  B  B32  1  0.274445  0.725555  0.625000  1
  B  B33  1  0.274445  0.274445  0.875000  1
  B  B34  1  0.725555  0.725555  0.375000  1
  B  B35  1  0.725555  0.274445  0.125000  1
  O  O36  1  0.714216  0.952321  0.061618  1
  O  O37  1  0.285784  0.047679  0.561618  1
  O  O38  1  0.952321  0.714216  0.688382  1
  O  O39  1  0.952321  0.285784  0.811618  1
  O  O40  1  0.047679  0.714216  0.311618  1
  O  O41  1  0.285784  0.952321  0.938382  1
  O  O42  1  0.714216  0.047679  0.438382  1
  O  O43  1  0.047679  0.285784  0.188382  1
  O  O44  1  0.844868  0.021186  0.910342  1
  O  O45  1  0.155132  0.978814  0.410342  1
  O  O46  1  0.021186  0.844868  0.839658  1
  O  O47  1  0.021186  0.155132  0.660342  1
  O  O48  1  0.978814  0.844868  0.160342  1
  O  O49  1  0.155132  0.021186  0.089658  1
  O  O50  1  0.844868  0.978814  0.589658  1
  O  O51  1  0.978814  0.155132  0.339658  1
  O  O52  1  0.828168  0.754422  0.957726  1
  O  O53  1  0.171832  0.245578  0.457726  1
  O  O54  1  0.754422  0.828168  0.792274  1
  O  O55  1  0.754422  0.171832  0.707726  1
  O  O56  1  0.245578  0.828168  0.207726  1
  O  O57  1  0.171832  0.754422  0.042274  1
  O  O58  1  0.828168  0.245578  0.542274  1
  O  O59  1  0.245578  0.171832  0.292274  1
  O  O60  1  0.759473  0.438743  0.119569  1
  O  O61  1  0.240527  0.561257  0.619569  1
  O  O62  1  0.438743  0.759473  0.630431  1
  O  O63  1  0.438743  0.240527  0.869569  1
  O  O64  1  0.561257  0.759473  0.369569  1
  O  O65  1  0.240527  0.438743  0.880431  1
  O  O66  1  0.759473  0.561257  0.380431  1
  O  O67  1  0.561257  0.240527  0.130431  1
  O  O68  1  0.800850  0.208902  0.034439  1
  O  O69  1  0.199150  0.791098  0.534439  1
  O  O70  1  0.208902  0.800850  0.715561  1
  O  O71  1  0.208902  0.199150  0.784439  1
  O  O72  1  0.791098  0.800850  0.284439  1
  O  O73  1  0.199150  0.208902  0.965561  1
  O  O74  1  0.800850  0.791098  0.465561  1
  O  O75  1  0.791098  0.199150  0.215561  1
  O  O76  1  0.671050  0.698073  0.100212  1
  O  O77  1  0.328950  0.301927  0.600212  1
  O  O78  1  0.698073  0.671050  0.649788  1
  O  O79  1  0.698073  0.328950  0.850212  1
  O  O80  1  0.301927  0.671050  0.350212  1
  O  O81  1  0.328950  0.698073  0.899788  1
  O  O82  1  0.671050  0.301927  0.399788  1
  O  O83  1  0.301927  0.328950  0.149788  1
  O  O84  1  0.505514  0.494486  0.625000  1
  O  O85  1  0.505514  0.505514  0.875000  1
  O  O86  1  0.494486  0.494486  0.375000  1
  O  O87  1  0.494486  0.505514  0.125000  1
