# generated using pymatgen
data_Li2TmLu5(Co4P3)4
_symmetry_space_group_name_H-M   'P 1'
_cell_length_a   3.68306900
_cell_length_b   10.51579000
_cell_length_c   12.08035800
_cell_angle_alpha   90.00000000
_cell_angle_beta   90.00000000
_cell_angle_gamma   90.00000000
_symmetry_Int_Tables_number   1
_chemical_formula_structural   Li2TmLu5(Co4P3)4
_chemical_formula_sum   'Li2 Tm1 Lu5 Co16 P12'
_cell_volume   467.87685780
_cell_formula_units_Z   1
loop_
 _symmetry_equiv_pos_site_id
 _symmetry_equiv_pos_as_xyz
  1  'x, y, z'
loop_
 _atom_site_type_symbol
 _atom_site_label
 _atom_site_symmetry_multiplicity
 _atom_site_fract_x
 _atom_site_fract_y
 _atom_site_fract_z
 _atom_site_occupancy
  Li  Li0  1  0.500000  0.500000  0.153988  1
  Li  Li1  1  0.000000  0.000000  0.845831  1
  Tm  Tm2  1  0.000000  0.500000  0.523932  1
  Lu  Lu3  1  0.500000  0.000000  0.476153  1
  Lu  Lu4  1  0.500000  0.820717  0.206087  1
  Lu  Lu5  1  0.500000  0.179283  0.206087  1
  Lu  Lu6  1  0.000000  0.679353  0.793987  1
  Lu  Lu7  1  0.000000  0.320647  0.793987  1
  Co  Co8  1  0.500000  0.500000  0.704520  1
  Co  Co9  1  0.000000  0.000000  0.296056  1
  Co  Co10  1  0.000000  0.500000  0.987391  1
  Co  Co11  1  0.500000  0.000000  0.012665  1
  Co  Co12  1  0.500000  0.332742  0.996985  1
  Co  Co13  1  0.500000  0.667258  0.996985  1
  Co  Co14  1  0.000000  0.167221  0.003037  1
  Co  Co15  1  0.000000  0.832779  0.003037  1
  Co  Co16  1  0.500000  0.296261  0.431315  1
  Co  Co17  1  0.500000  0.703739  0.431315  1
  Co  Co18  1  0.000000  0.203067  0.568567  1
  Co  Co19  1  0.000000  0.796933  0.568567  1
  Co  Co20  1  0.500000  0.877713  0.706175  1
  Co  Co21  1  0.500000  0.122287  0.706175  1
  Co  Co22  1  0.000000  0.622505  0.293645  1
  Co  Co23  1  0.000000  0.377495  0.293645  1
  P  P24  1  0.500000  0.500000  0.884349  1
  P  P25  1  0.000000  0.000000  0.115866  1
  P  P26  1  0.500000  0.500000  0.347515  1
  P  P27  1  0.000000  0.000000  0.651894  1
  P  P28  1  0.500000  0.311241  0.616978  1
  P  P29  1  0.500000  0.688759  0.616978  1
  P  P30  1  0.000000  0.188359  0.383177  1
  P  P31  1  0.000000  0.811641  0.383177  1
  P  P32  1  0.500000  0.842304  0.891609  1
  P  P33  1  0.500000  0.157696  0.891609  1
  P  P34  1  0.000000  0.657778  0.108360  1
  P  P35  1  0.000000  0.342222  0.108360  1
