# generated using pymatgen
data_Hf7Zr3SiSn6
_symmetry_space_group_name_H-M   'P 1'
_cell_length_a   5.86170600
_cell_length_b   8.54778115
_cell_length_c   8.54779900
_cell_angle_alpha   119.99994135
_cell_angle_beta   90.00003910
_cell_angle_gamma   89.99990672
_symmetry_Int_Tables_number   1
_chemical_formula_structural   Hf7Zr3SiSn6
_chemical_formula_sum   'Hf7 Zr3 Si1 Sn6'
_cell_volume   370.90493885
_cell_formula_units_Z   1
loop_
 _symmetry_equiv_pos_site_id
 _symmetry_equiv_pos_as_xyz
  1  'x, y, z'
loop_
 _atom_site_type_symbol
 _atom_site_label
 _atom_site_symmetry_multiplicity
 _atom_site_fract_x
 _atom_site_fract_y
 _atom_site_fract_z
 _atom_site_occupancy
  Hf  Hf0  1  0.499840  0.333343  0.666666  1
  Hf  Hf1  1  0.499840  0.666678  0.333334  1
  Hf  Hf2  1  0.998909  0.666675  0.333340  1
  Hf  Hf3  1  0.998909  0.333336  0.666660  1
  Hf  Hf4  1  0.761162  0.254396  0.000000  1
  Hf  Hf5  1  0.761183  0.745596  0.745600  1
  Hf  Hf6  1  0.761183  0.999996  0.254400  1
  Zr  Zr7  1  0.238722  0.747318  0.000000  1
  Zr  Zr8  1  0.238757  0.252684  0.252754  1
  Zr  Zr9  1  0.238757  0.999929  0.747246  1
  Si  Si10  1  0.503735  0.999996  0.000000  1
  Sn  Sn11  1  0.746246  0.608021  0.000000  1
  Sn  Sn12  1  0.746247  0.391983  0.391982  1
  Sn  Sn13  1  0.746247  0.000001  0.608018  1
  Sn  Sn14  1  0.253419  0.392864  0.000000  1
  Sn  Sn15  1  0.253420  0.607174  0.607166  1
  Sn  Sn16  1  0.253420  0.000010  0.392834  1
