# generated using pymatgen
data_UPaB6Mo
_symmetry_space_group_name_H-M   'P 1'
_cell_length_a   3.74053000
_cell_length_b   9.30106300
_cell_length_c   11.38749500
_cell_angle_alpha   90.00000000
_cell_angle_beta   90.00000000
_cell_angle_gamma   90.00000000
_symmetry_Int_Tables_number   1
_chemical_formula_structural   UPaB6Mo
_chemical_formula_sum   'U4 Pa4 B24 Mo4'
_cell_volume   396.18125882
_cell_formula_units_Z   4
loop_
 _symmetry_equiv_pos_site_id
 _symmetry_equiv_pos_as_xyz
  1  'x, y, z'
loop_
 _atom_site_type_symbol
 _atom_site_label
 _atom_site_symmetry_multiplicity
 _atom_site_fract_x
 _atom_site_fract_y
 _atom_site_fract_z
 _atom_site_occupancy
  U  U0  1  0.000000  0.956127  0.395260  1
  U  U1  1  0.000000  0.043873  0.604740  1
  U  U2  1  0.000000  0.456127  0.104740  1
  U  U3  1  0.000000  0.543873  0.895260  1
  Pa  Pa4  1  0.000000  0.334367  0.407718  1
  Pa  Pa5  1  0.000000  0.665633  0.592282  1
  Pa  Pa6  1  0.000000  0.834367  0.092282  1
  Pa  Pa7  1  0.000000  0.165633  0.907718  1
  B  B8  1  0.500000  0.550714  0.432073  1
  B  B9  1  0.500000  0.449286  0.567927  1
  B  B10  1  0.500000  0.050714  0.067927  1
  B  B11  1  0.500000  0.949286  0.932073  1
  B  B12  1  0.500000  0.743906  0.423395  1
  B  B13  1  0.500000  0.256094  0.576605  1
  B  B14  1  0.500000  0.243906  0.076605  1
  B  B15  1  0.500000  0.756094  0.923395  1
  B  B16  1  0.500000  0.802931  0.273761  1
  B  B17  1  0.500000  0.197069  0.726239  1
  B  B18  1  0.500000  0.302931  0.226239  1
  B  B19  1  0.500000  0.697069  0.773761  1
  B  B20  1  0.500000  0.643680  0.187761  1
  B  B21  1  0.500000  0.356320  0.812239  1
  B  B22  1  0.500000  0.143680  0.312239  1
  B  B23  1  0.500000  0.856320  0.687761  1
  B  B24  1  0.500000  0.986697  0.219286  1
  B  B25  1  0.500000  0.013303  0.780714  1
  B  B26  1  0.500000  0.486697  0.280714  1
  B  B27  1  0.500000  0.513303  0.719286  1
  B  B28  1  0.500000  0.639845  0.038708  1
  B  B29  1  0.500000  0.360155  0.961292  1
  B  B30  1  0.500000  0.139845  0.461292  1
  B  B31  1  0.500000  0.860155  0.538708  1
  Mo  Mo32  1  0.000000  0.645484  0.319479  1
  Mo  Mo33  1  0.000000  0.354516  0.680521  1
  Mo  Mo34  1  0.000000  0.145484  0.180521  1
  Mo  Mo35  1  0.000000  0.854516  0.819479  1
