# generated using pymatgen
data_Dy4Ho6InBi5
_symmetry_space_group_name_H-M   'P 1'
_cell_length_a   9.12274715
_cell_length_b   9.13738729
_cell_length_c   6.43476500
_cell_angle_alpha   90.00000000
_cell_angle_beta   90.00000000
_cell_angle_gamma   120.05310227
_symmetry_Int_Tables_number   1
_chemical_formula_structural   Dy4Ho6InBi5
_chemical_formula_sum   'Dy4 Ho6 In1 Bi5'
_cell_volume   464.27826874
_cell_formula_units_Z   1
loop_
 _symmetry_equiv_pos_site_id
 _symmetry_equiv_pos_as_xyz
  1  'x, y, z'
loop_
 _atom_site_type_symbol
 _atom_site_label
 _atom_site_symmetry_multiplicity
 _atom_site_fract_x
 _atom_site_fract_y
 _atom_site_fract_z
 _atom_site_occupancy
  Dy  Dy0  1  0.759013  0.757197  0.750000  1
  Dy  Dy1  1  0.240987  0.998183  0.750000  1
  Dy  Dy2  1  0.235540  0.243865  0.250000  1
  Dy  Dy3  1  0.764460  0.008325  0.250000  1
  Ho  Ho4  1  0.672023  0.334227  0.000459  1
  Ho  Ho5  1  0.327977  0.662205  0.000459  1
  Ho  Ho6  1  0.327977  0.662205  0.499541  1
  Ho  Ho7  1  0.672023  0.334227  0.499541  1
  Ho  Ho8  1  0.000000  0.241195  0.750000  1
  Ho  Ho9  1  0.000000  0.755476  0.250000  1
  In  In10  1  0.000000  0.395446  0.250000  1
  Bi  Bi11  1  0.391352  0.389174  0.750000  1
  Bi  Bi12  1  0.608648  0.997822  0.750000  1
  Bi  Bi13  1  0.000000  0.608103  0.750000  1
  Bi  Bi14  1  0.610524  0.611436  0.250000  1
  Bi  Bi15  1  0.389476  0.000911  0.250000  1
