# generated using pymatgen
data_TmThZn5Sn
_symmetry_space_group_name_H-M   'P 1'
_cell_length_a   8.44412523
_cell_length_b   8.44412651
_cell_length_c   9.04629500
_cell_angle_alpha   90.00000000
_cell_angle_beta   90.00000000
_cell_angle_gamma   150.08525011
_symmetry_Int_Tables_number   1
_chemical_formula_structural   TmThZn5Sn
_chemical_formula_sum   'Tm2 Th2 Zn10 Sn2'
_cell_volume   321.68365632
_cell_formula_units_Z   2
loop_
 _symmetry_equiv_pos_site_id
 _symmetry_equiv_pos_as_xyz
  1  'x, y, z'
loop_
 _atom_site_type_symbol
 _atom_site_label
 _atom_site_symmetry_multiplicity
 _atom_site_fract_x
 _atom_site_fract_y
 _atom_site_fract_z
 _atom_site_occupancy
  Tm  Tm0  1  0.202269  0.797731  0.250000  1
  Tm  Tm1  1  0.797731  0.202269  0.750000  1
  Th  Th2  1  0.000000  0.000000  0.500000  1
  Th  Th3  1  0.000000  0.000000  0.000000  1
  Zn  Zn4  1  0.811842  0.188158  0.391270  1
  Zn  Zn5  1  0.188158  0.811842  0.608730  1
  Zn  Zn6  1  0.811842  0.188158  0.108730  1
  Zn  Zn7  1  0.188158  0.811842  0.891270  1
  Zn  Zn8  1  0.658333  0.341667  0.480234  1
  Zn  Zn9  1  0.341667  0.658333  0.519766  1
  Zn  Zn10  1  0.658333  0.341667  0.019766  1
  Zn  Zn11  1  0.341667  0.658333  0.980234  1
  Zn  Zn12  1  0.392733  0.607267  0.250000  1
  Zn  Zn13  1  0.607267  0.392733  0.750000  1
  Sn  Sn14  1  0.555779  0.444221  0.250000  1
  Sn  Sn15  1  0.444221  0.555779  0.750000  1
