# generated using pymatgen
data_Zr3Mn(Pd5Pt)2
_symmetry_space_group_name_H-M   'P 1'
_cell_length_a   5.69600555
_cell_length_b   5.69168852
_cell_length_c   9.26673200
_cell_angle_alpha   90.00000000
_cell_angle_beta   90.00000000
_cell_angle_gamma   119.97492003
_symmetry_Int_Tables_number   1
_chemical_formula_structural   Zr3Mn(Pd5Pt)2
_chemical_formula_sum   'Zr3 Mn1 Pd10 Pt2'
_cell_volume   260.24264479
_cell_formula_units_Z   1
loop_
 _symmetry_equiv_pos_site_id
 _symmetry_equiv_pos_as_xyz
  1  'x, y, z'
loop_
 _atom_site_type_symbol
 _atom_site_label
 _atom_site_symmetry_multiplicity
 _atom_site_fract_x
 _atom_site_fract_y
 _atom_site_fract_z
 _atom_site_occupancy
  Zr  Zr0  1  0.001605  0.000803  0.499912  1
  Zr  Zr1  1  0.001605  0.000803  0.000088  1
  Zr  Zr2  1  0.664425  0.332212  0.750000  1
  Mn  Mn3  1  0.333398  0.666700  0.250000  1
  Pd  Pd4  1  0.499742  0.501168  0.497477  1
  Pd  Pd5  1  0.499742  0.998575  0.497477  1
  Pd  Pd6  1  0.001720  0.500860  0.497779  1
  Pd  Pd7  1  0.499742  0.501168  0.002523  1
  Pd  Pd8  1  0.499742  0.998575  0.002523  1
  Pd  Pd9  1  0.001720  0.500860  0.002221  1
  Pd  Pd10  1  0.830345  0.169549  0.250000  1
  Pd  Pd11  1  0.830345  0.660795  0.250000  1
  Pd  Pd12  1  0.337676  0.168838  0.250000  1
  Pd  Pd13  1  0.660910  0.830455  0.750000  1
  Pt  Pt14  1  0.168640  0.830067  0.750000  1
  Pt  Pt15  1  0.168640  0.338573  0.750000  1
