# generated using pymatgen
data_La3NdAu3O4
_symmetry_space_group_name_H-M   'P 1'
_cell_length_a   7.11151037
_cell_length_b   7.11150989
_cell_length_c   8.33367800
_cell_angle_alpha   90.00000000
_cell_angle_beta   90.00000000
_cell_angle_gamma   146.41912887
_symmetry_Int_Tables_number   1
_chemical_formula_structural   La3NdAu3O4
_chemical_formula_sum   'La3 Nd1 Au3 O4'
_cell_volume   233.11734675
_cell_formula_units_Z   1
loop_
 _symmetry_equiv_pos_site_id
 _symmetry_equiv_pos_as_xyz
  1  'x, y, z'
loop_
 _atom_site_type_symbol
 _atom_site_label
 _atom_site_symmetry_multiplicity
 _atom_site_fract_x
 _atom_site_fract_y
 _atom_site_fract_z
 _atom_site_occupancy
  La  La0  1  0.318353  0.681647  0.756452  1
  La  La1  1  0.318353  0.681647  0.243548  1
  La  La2  1  0.998018  0.001982  0.000000  1
  Nd  Nd3  1  0.985195  0.014805  0.500000  1
  Au  Au4  1  0.638130  0.361870  0.329865  1
  Au  Au5  1  0.638130  0.361870  0.670135  1
  Au  Au6  1  0.682913  0.317087  0.000000  1
  O  O7  1  0.394615  0.605385  0.500000  1
  O  O8  1  0.411995  0.588005  0.000000  1
  O  O9  1  0.907753  0.092247  0.751940  1
  O  O10  1  0.907753  0.092247  0.248060  1
