# generated using pymatgen
data_Ho3ThAl12(GaIr)6
_symmetry_space_group_name_H-M   'P 1'
_cell_length_a   7.55010786
_cell_length_b   7.56571233
_cell_length_c   9.57723500
_cell_angle_alpha   90.00000000
_cell_angle_beta   90.00000000
_cell_angle_gamma   119.67329749
_symmetry_Int_Tables_number   1
_chemical_formula_structural   Ho3ThAl12(GaIr)6
_chemical_formula_sum   'Ho3 Th1 Al12 Ga6 Ir6'
_cell_volume   475.32875877
_cell_formula_units_Z   1
loop_
 _symmetry_equiv_pos_site_id
 _symmetry_equiv_pos_as_xyz
  1  'x, y, z'
loop_
 _atom_site_type_symbol
 _atom_site_label
 _atom_site_symmetry_multiplicity
 _atom_site_fract_x
 _atom_site_fract_y
 _atom_site_fract_z
 _atom_site_occupancy
  Ho  Ho0  1  0.001935  0.329872  0.750000  1
  Ho  Ho1  1  0.671600  0.996964  0.250000  1
  Ho  Ho2  1  0.329385  0.002562  0.750000  1
  Th  Th3  1  0.996916  0.669851  0.250000  1
  Al  Al4  1  0.002095  0.330318  0.070367  1
  Al  Al5  1  0.998472  0.665117  0.920306  1
  Al  Al6  1  0.998472  0.665117  0.579694  1
  Al  Al7  1  0.339235  0.005716  0.429786  1
  Al  Al8  1  0.002095  0.330318  0.429633  1
  Al  Al9  1  0.665318  0.999616  0.574237  1
  Al  Al10  1  0.665318  0.999616  0.925763  1
  Al  Al11  1  0.339235  0.005716  0.070214  1
  Al  Al12  1  0.332832  0.332819  0.560758  1
  Al  Al13  1  0.662079  0.665570  0.450026  1
  Al  Al14  1  0.662079  0.665570  0.049974  1
  Al  Al15  1  0.332832  0.332819  0.939242  1
  Ga  Ga16  1  0.131006  0.134062  0.250000  1
  Ga  Ga17  1  0.872273  0.874703  0.750000  1
  Ga  Ga18  1  0.346026  0.549078  0.250000  1
  Ga  Ga19  1  0.658433  0.449144  0.750000  1
  Ga  Ga20  1  0.542306  0.335421  0.250000  1
  Ga  Ga21  1  0.450427  0.661656  0.750000  1
  Ir  Ir22  1  0.673127  0.329784  0.000516  1
  Ir  Ir23  1  0.326476  0.671106  0.000495  1
  Ir  Ir24  1  0.326476  0.671106  0.499505  1
  Ir  Ir25  1  0.673127  0.329784  0.499484  1
  Ir  Ir26  1  0.000210  0.998298  0.000808  1
  Ir  Ir27  1  0.000210  0.998298  0.499192  1
