# generated using pymatgen
data_AcLaZn5Sn
_symmetry_space_group_name_H-M   'P 1'
_cell_length_a   8.75698640
_cell_length_b   8.75698664
_cell_length_c   9.28278700
_cell_angle_alpha   90.00000000
_cell_angle_beta   90.00000000
_cell_angle_gamma   149.23155473
_symmetry_Int_Tables_number   1
_chemical_formula_structural   AcLaZn5Sn
_chemical_formula_sum   'Ac2 La2 Zn10 Sn2'
_cell_volume   364.16028963
_cell_formula_units_Z   2
loop_
 _symmetry_equiv_pos_site_id
 _symmetry_equiv_pos_as_xyz
  1  'x, y, z'
loop_
 _atom_site_type_symbol
 _atom_site_label
 _atom_site_symmetry_multiplicity
 _atom_site_fract_x
 _atom_site_fract_y
 _atom_site_fract_z
 _atom_site_occupancy
  Ac  Ac0  1  0.000000  0.000000  0.500000  1
  Ac  Ac1  1  0.000000  0.000000  0.000000  1
  La  La2  1  0.208589  0.791411  0.250000  1
  La  La3  1  0.791411  0.208589  0.750000  1
  Zn  Zn4  1  0.812404  0.187596  0.389550  1
  Zn  Zn5  1  0.187596  0.812404  0.610450  1
  Zn  Zn6  1  0.812404  0.187596  0.110450  1
  Zn  Zn7  1  0.187596  0.812404  0.889550  1
  Zn  Zn8  1  0.658585  0.341415  0.486450  1
  Zn  Zn9  1  0.341415  0.658585  0.513550  1
  Zn  Zn10  1  0.658585  0.341415  0.013550  1
  Zn  Zn11  1  0.341415  0.658585  0.986450  1
  Zn  Zn12  1  0.397816  0.602184  0.250000  1
  Zn  Zn13  1  0.602184  0.397816  0.750000  1
  Sn  Sn14  1  0.560731  0.439269  0.250000  1
  Sn  Sn15  1  0.439269  0.560731  0.750000  1
