# generated using pymatgen
data_Sc4Co3Os4Ru
_symmetry_space_group_name_H-M   'P 1'
_cell_length_a   5.03691132
_cell_length_b   5.04770481
_cell_length_c   8.50000124
_cell_angle_alpha   89.99999834
_cell_angle_beta   89.97586260
_cell_angle_gamma   120.07091807
_symmetry_Int_Tables_number   1
_chemical_formula_structural   Sc4Co3Os4Ru
_chemical_formula_sum   'Sc4 Co3 Os4 Ru1'
_cell_volume   187.02386389
_cell_formula_units_Z   1
loop_
 _symmetry_equiv_pos_site_id
 _symmetry_equiv_pos_as_xyz
  1  'x, y, z'
loop_
 _atom_site_type_symbol
 _atom_site_label
 _atom_site_symmetry_multiplicity
 _atom_site_fract_x
 _atom_site_fract_y
 _atom_site_fract_z
 _atom_site_occupancy
  Sc  Sc0  1  0.327387  0.663694  0.436366  1
  Sc  Sc1  1  0.662817  0.331408  0.568120  1
  Sc  Sc2  1  0.662727  0.331363  0.932024  1
  Sc  Sc3  1  0.327558  0.663779  0.063096  1
  Co  Co4  1  0.184327  0.348693  0.751862  1
  Co  Co5  1  0.184327  0.835635  0.751862  1
  Co  Co6  1  0.344038  0.172018  0.247625  1
  Os  Os7  1  0.830000  0.658411  0.249872  1
  Os  Os8  1  0.661936  0.830968  0.749726  1
  Os  Os9  1  0.992981  0.996491  0.994182  1
  Os  Os10  1  0.830000  0.171590  0.249872  1
  Ru  Ru11  1  0.991898  0.995949  0.505394  1
