# generated using pymatgen
data_Gd2(ZnAu2)3
_symmetry_space_group_name_H-M   'P 1'
_cell_length_a   8.94344701
_cell_length_b   8.94344673
_cell_length_c   8.94344685
_cell_angle_alpha   54.59530635
_cell_angle_beta   54.59530981
_cell_angle_gamma   54.59530396
_symmetry_Int_Tables_number   1
_chemical_formula_structural   Gd2(ZnAu2)3
_chemical_formula_sum   'Gd4 Zn6 Au12'
_cell_volume   442.11326338
_cell_formula_units_Z   2
loop_
 _symmetry_equiv_pos_site_id
 _symmetry_equiv_pos_as_xyz
  1  'x, y, z'
loop_
 _atom_site_type_symbol
 _atom_site_label
 _atom_site_symmetry_multiplicity
 _atom_site_fract_x
 _atom_site_fract_y
 _atom_site_fract_z
 _atom_site_occupancy
  Gd  Gd0  1  0.908220  0.908220  0.908220  1
  Gd  Gd1  1  0.408220  0.408220  0.408220  1
  Gd  Gd2  1  0.091780  0.091780  0.091780  1
  Gd  Gd3  1  0.591780  0.591780  0.591780  1
  Zn  Zn4  1  0.545604  0.750000  0.954396  1
  Zn  Zn5  1  0.954396  0.545604  0.750000  1
  Zn  Zn6  1  0.750000  0.954396  0.545604  1
  Zn  Zn7  1  0.454396  0.250000  0.045604  1
  Zn  Zn8  1  0.045604  0.454396  0.250000  1
  Zn  Zn9  1  0.250000  0.045604  0.454396  1
  Au  Au10  1  0.493928  0.861106  0.204028  1
  Au  Au11  1  0.204028  0.493928  0.861106  1
  Au  Au12  1  0.861106  0.204028  0.493928  1
  Au  Au13  1  0.704028  0.361106  0.993928  1
  Au  Au14  1  0.993928  0.704028  0.361106  1
  Au  Au15  1  0.361106  0.993928  0.704028  1
  Au  Au16  1  0.506072  0.138894  0.795972  1
  Au  Au17  1  0.795972  0.506072  0.138894  1
  Au  Au18  1  0.138894  0.795972  0.506072  1
  Au  Au19  1  0.295972  0.638894  0.006072  1
  Au  Au20  1  0.006072  0.295972  0.638894  1
  Au  Au21  1  0.638894  0.006072  0.295972  1
