# generated using pymatgen
data_Hf3Ga3RuRhAu
_symmetry_space_group_name_H-M   'P 1'
_cell_length_a   7.39411200
_cell_length_b   7.39411165
_cell_length_c   3.30372800
_cell_angle_alpha   90.00000000
_cell_angle_beta   90.00000000
_cell_angle_gamma   119.99999263
_symmetry_Int_Tables_number   1
_chemical_formula_structural   Hf3Ga3RuRhAu
_chemical_formula_sum   'Hf3 Ga3 Ru1 Rh1 Au1'
_cell_volume   156.42529280
_cell_formula_units_Z   1
loop_
 _symmetry_equiv_pos_site_id
 _symmetry_equiv_pos_as_xyz
  1  'x, y, z'
loop_
 _atom_site_type_symbol
 _atom_site_label
 _atom_site_symmetry_multiplicity
 _atom_site_fract_x
 _atom_site_fract_y
 _atom_site_fract_z
 _atom_site_occupancy
  Hf  Hf0  1  0.393793  0.023294  0.500000  1
  Hf  Hf1  1  0.976706  0.370499  0.500000  1
  Hf  Hf2  1  0.629501  0.606207  0.500000  1
  Ga  Ga3  1  0.721859  0.994767  0.000000  1
  Ga  Ga4  1  0.005233  0.727091  0.000000  1
  Ga  Ga5  1  0.272909  0.278141  0.000000  1
  Ru  Ru6  1  0.666667  0.333333  0.000000  1
  Rh  Rh7  1  0.000000  0.000000  0.500000  1
  Au  Au8  1  0.333333  0.666667  0.000000  1
