# generated using pymatgen
data_YTm3(Co3Si5)2
_symmetry_space_group_name_H-M   'P 1'
_cell_length_a   7.80807268
_cell_length_b   7.80915413
_cell_length_c   5.47087309
_cell_angle_alpha   70.80386044
_cell_angle_beta   70.83247322
_cell_angle_gamma   93.47015656
_symmetry_Int_Tables_number   1
_chemical_formula_structural   YTm3(Co3Si5)2
_chemical_formula_sum   'Y1 Tm3 Co6 Si10'
_cell_volume   292.21499574
_cell_formula_units_Z   1
loop_
 _symmetry_equiv_pos_site_id
 _symmetry_equiv_pos_as_xyz
  1  'x, y, z'
loop_
 _atom_site_type_symbol
 _atom_site_label
 _atom_site_symmetry_multiplicity
 _atom_site_fract_x
 _atom_site_fract_y
 _atom_site_fract_z
 _atom_site_occupancy
  Y  Y0  1  0.597935  0.869813  0.262221  1
  Tm  Tm1  1  0.869709  0.597327  0.763491  1
  Tm  Tm2  1  0.402716  0.129678  0.736824  1
  Tm  Tm3  1  0.129586  0.403066  0.236833  1
  Co  Co4  1  0.539084  0.262630  0.125272  1
  Co  Co5  1  0.997506  0.003729  0.249563  1
  Co  Co6  1  0.261200  0.538543  0.626406  1
  Co  Co7  1  0.460186  0.737132  0.875564  1
  Co  Co8  1  0.738059  0.461133  0.374450  1
  Co  Co9  1  0.004097  0.996740  0.749615  1
  Si  Si10  1  0.771782  0.229346  0.749059  1
  Si  Si11  1  0.227467  0.771399  0.250543  1
  Si  Si12  1  0.510558  0.488269  0.750446  1
  Si  Si13  1  0.487942  0.509648  0.251304  1
  Si  Si14  1  0.213871  0.785861  0.749682  1
  Si  Si15  1  0.786423  0.215004  0.249925  1
  Si  Si16  1  0.065296  0.262368  0.834024  1
  Si  Si17  1  0.262321  0.066092  0.333855  1
  Si  Si18  1  0.936042  0.737027  0.165724  1
  Si  Si19  1  0.738222  0.935194  0.665199  1
