# generated using pymatgen
data_AcLa(CuPd)2
_symmetry_space_group_name_H-M   'P 1'
_cell_length_a   4.44133100
_cell_length_b   4.44133221
_cell_length_c   8.03611100
_cell_angle_alpha   90.00000000
_cell_angle_beta   90.00000000
_cell_angle_gamma   120.00001336
_symmetry_Int_Tables_number   1
_chemical_formula_structural   AcLa(CuPd)2
_chemical_formula_sum   'Ac1 La1 Cu2 Pd2'
_cell_volume   137.27861862
_cell_formula_units_Z   1
loop_
 _symmetry_equiv_pos_site_id
 _symmetry_equiv_pos_as_xyz
  1  'x, y, z'
loop_
 _atom_site_type_symbol
 _atom_site_label
 _atom_site_symmetry_multiplicity
 _atom_site_fract_x
 _atom_site_fract_y
 _atom_site_fract_z
 _atom_site_occupancy
  Ac  Ac0  1  0.000000  0.000000  0.500000  1
  La  La1  1  0.000000  0.000000  0.000000  1
  Cu  Cu2  1  0.333333  0.666667  0.762110  1
  Cu  Cu3  1  0.666667  0.333333  0.237890  1
  Pd  Pd4  1  0.333333  0.666667  0.243974  1
  Pd  Pd5  1  0.666667  0.333333  0.756026  1
