# generated using pymatgen
data_Cs3IrO5
_symmetry_space_group_name_H-M   'P 1'
_cell_length_a   8.99030200
_cell_length_b   9.23676600
_cell_length_c   9.94923500
_cell_angle_alpha   90.00000000
_cell_angle_beta   90.00000000
_cell_angle_gamma   90.00000000
_symmetry_Int_Tables_number   1
_chemical_formula_structural   Cs3IrO5
_chemical_formula_sum   'Cs12 Ir4 O20'
_cell_volume   826.19756603
_cell_formula_units_Z   4
loop_
 _symmetry_equiv_pos_site_id
 _symmetry_equiv_pos_as_xyz
  1  'x, y, z'
loop_
 _atom_site_type_symbol
 _atom_site_label
 _atom_site_symmetry_multiplicity
 _atom_site_fract_x
 _atom_site_fract_y
 _atom_site_fract_z
 _atom_site_occupancy
  Cs  Cs0  1  0.250000  0.000000  0.476609  1
  Cs  Cs1  1  0.750000  0.000000  0.523391  1
  Cs  Cs2  1  0.250000  0.500000  0.023391  1
  Cs  Cs3  1  0.750000  0.500000  0.976609  1
  Cs  Cs4  1  0.250000  0.000000  0.014847  1
  Cs  Cs5  1  0.750000  0.000000  0.985153  1
  Cs  Cs6  1  0.250000  0.500000  0.485153  1
  Cs  Cs7  1  0.750000  0.500000  0.514847  1
  Cs  Cs8  1  0.550679  0.250000  0.250000  1
  Cs  Cs9  1  0.449321  0.750000  0.750000  1
  Cs  Cs10  1  0.949321  0.750000  0.250000  1
  Cs  Cs11  1  0.050679  0.250000  0.750000  1
  Ir  Ir12  1  0.016539  0.250000  0.250000  1
  Ir  Ir13  1  0.983461  0.750000  0.750000  1
  Ir  Ir14  1  0.483461  0.750000  0.250000  1
  Ir  Ir15  1  0.516539  0.250000  0.750000  1
  O  O16  1  0.221214  0.250000  0.250000  1
  O  O17  1  0.778786  0.750000  0.750000  1
  O  O18  1  0.278786  0.750000  0.250000  1
  O  O19  1  0.721214  0.250000  0.750000  1
  O  O20  1  0.581606  0.576378  0.241242  1
  O  O21  1  0.418394  0.423622  0.758758  1
  O  O22  1  0.918394  0.423622  0.241242  1
  O  O23  1  0.918394  0.076378  0.258758  1
  O  O24  1  0.081606  0.576378  0.758758  1
  O  O25  1  0.081606  0.923622  0.741242  1
  O  O26  1  0.581606  0.923622  0.258758  1
  O  O27  1  0.418394  0.076378  0.741242  1
  O  O28  1  0.515265  0.260347  0.556205  1
  O  O29  1  0.484735  0.739653  0.443795  1
  O  O30  1  0.984735  0.739653  0.556205  1
  O  O31  1  0.984735  0.760347  0.943795  1
  O  O32  1  0.015265  0.260347  0.443795  1
  O  O33  1  0.015265  0.239653  0.056205  1
  O  O34  1  0.515265  0.239653  0.943795  1
  O  O35  1  0.484735  0.760347  0.056205  1
