# generated using pymatgen
data_Ho3Tm17FeCo3Sb8
_symmetry_space_group_name_H-M   'P 1'
_cell_length_a   7.78211816
_cell_length_b   8.72416000
_cell_length_c   12.07662627
_cell_angle_alpha   90.00000000
_cell_angle_beta   90.09730089
_cell_angle_gamma   90.00000000
_symmetry_Int_Tables_number   1
_chemical_formula_structural   Ho3Tm17FeCo3Sb8
_chemical_formula_sum   'Ho3 Tm17 Fe1 Co3 Sb8'
_cell_volume   819.91049025
_cell_formula_units_Z   1
loop_
 _symmetry_equiv_pos_site_id
 _symmetry_equiv_pos_as_xyz
  1  'x, y, z'
loop_
 _atom_site_type_symbol
 _atom_site_label
 _atom_site_symmetry_multiplicity
 _atom_site_fract_x
 _atom_site_fract_y
 _atom_site_fract_z
 _atom_site_occupancy
  Ho  Ho0  1  0.125094  0.250000  0.192082  1
  Ho  Ho1  1  0.378099  0.250000  0.692662  1
  Ho  Ho2  1  0.877688  0.750000  0.807873  1
  Tm  Tm3  1  0.159229  0.750000  0.206667  1
  Tm  Tm4  1  0.655725  0.250000  0.295840  1
  Tm  Tm5  1  0.844879  0.250000  0.797809  1
  Tm  Tm6  1  0.343875  0.750000  0.702286  1
  Tm  Tm7  1  0.450347  0.750000  0.997521  1
  Tm  Tm8  1  0.945178  0.250000  0.503294  1
  Tm  Tm9  1  0.549191  0.250000  0.002221  1
  Tm  Tm10  1  0.048417  0.750000  0.496972  1
  Tm  Tm11  1  0.621827  0.750000  0.307162  1
  Tm  Tm12  1  0.824143  0.962655  0.066060  1
  Tm  Tm13  1  0.325003  0.032424  0.435922  1
  Tm  Tm14  1  0.176699  0.463488  0.934712  1
  Tm  Tm15  1  0.676401  0.542007  0.564518  1
  Tm  Tm16  1  0.176699  0.036512  0.934712  1
  Tm  Tm17  1  0.676401  0.957993  0.564518  1
  Tm  Tm18  1  0.824143  0.537345  0.066060  1
  Tm  Tm19  1  0.325003  0.467576  0.435922  1
  Fe  Fe20  1  0.424183  0.750000  0.486643  1
  Co  Co21  1  0.934790  0.250000  0.009454  1
  Co  Co22  1  0.568574  0.250000  0.508740  1
  Co  Co23  1  0.067874  0.750000  0.992410  1
  Sb  Sb24  1  0.930123  0.992721  0.327697  1
  Sb  Sb25  1  0.432514  0.007854  0.171693  1
  Sb  Sb26  1  0.068319  0.491328  0.671931  1
  Sb  Sb27  1  0.569314  0.508244  0.827650  1
  Sb  Sb28  1  0.068319  0.008672  0.671931  1
  Sb  Sb29  1  0.569314  0.991756  0.827650  1
  Sb  Sb30  1  0.930123  0.507279  0.327697  1
  Sb  Sb31  1  0.432514  0.492146  0.171693  1
