# generated using pymatgen
data_Dy3Y5Ti11Si16Rh
_symmetry_space_group_name_H-M   'P 1'
_cell_length_a   7.04860188
_cell_length_b   7.04840116
_cell_length_c   12.89356505
_cell_angle_alpha   89.88506902
_cell_angle_beta   90.11794773
_cell_angle_gamma   89.79647140
_symmetry_Int_Tables_number   1
_chemical_formula_structural   Dy3Y5Ti11Si16Rh
_chemical_formula_sum   'Dy3 Y5 Ti11 Si16 Rh1'
_cell_volume   640.56332646
_cell_formula_units_Z   1
loop_
 _symmetry_equiv_pos_site_id
 _symmetry_equiv_pos_as_xyz
  1  'x, y, z'
loop_
 _atom_site_type_symbol
 _atom_site_label
 _atom_site_symmetry_multiplicity
 _atom_site_fract_x
 _atom_site_fract_y
 _atom_site_fract_z
 _atom_site_occupancy
  Dy  Dy0  1  0.503210  0.158515  0.217866  1
  Dy  Dy1  1  0.499121  0.841160  0.714803  1
  Dy  Dy2  1  0.342498  0.001594  0.468036  1
  Y  Y3  1  0.996015  0.659850  0.032776  1
  Y  Y4  1  0.001876  0.342264  0.531940  1
  Y  Y5  1  0.659795  0.995959  0.967236  1
  Y  Y6  1  0.158614  0.503488  0.782033  1
  Y  Y7  1  0.841019  0.498783  0.285062  1
  Ti  Ti8  1  0.344338  0.506336  0.374766  1
  Ti  Ti9  1  0.850311  0.996026  0.376318  1
  Ti  Ti10  1  0.006524  0.151340  0.124853  1
  Ti  Ti11  1  0.996112  0.850457  0.623607  1
  Ti  Ti12  1  0.506407  0.344157  0.625150  1
  Ti  Ti13  1  0.151373  0.006487  0.875100  1
  Ti  Ti14  1  0.824327  0.173064  0.748628  1
  Ti  Ti15  1  0.173301  0.824550  0.251442  1
  Ti  Ti16  1  0.326508  0.326411  0.000084  1
  Ti  Ti17  1  0.492684  0.650848  0.127736  1
  Ti  Ti18  1  0.650757  0.492841  0.872202  1
  Si  Si19  1  0.050103  0.713547  0.435973  1
  Si  Si20  1  0.952049  0.291141  0.934563  1
  Si  Si21  1  0.713208  0.049791  0.564092  1
  Si  Si22  1  0.208487  0.452718  0.184464  1
  Si  Si23  1  0.789637  0.550804  0.682723  1
  Si  Si24  1  0.452871  0.208167  0.815555  1
  Si  Si25  1  0.550426  0.790051  0.317327  1
  Si  Si26  1  0.291272  0.952163  0.065575  1
  Si  Si27  1  0.797646  0.868061  0.185658  1
  Si  Si28  1  0.297341  0.627742  0.565601  1
  Si  Si29  1  0.704045  0.369264  0.065715  1
  Si  Si30  1  0.627239  0.297025  0.434377  1
  Si  Si31  1  0.369488  0.704268  0.934310  1
  Si  Si32  1  0.131224  0.203113  0.315835  1
  Si  Si33  1  0.203473  0.130656  0.684185  1
  Si  Si34  1  0.867771  0.797862  0.814320  1
  Rh  Rh35  1  0.668928  0.669494  0.500086  1
