# generated using pymatgen
data_U2B2CN
_symmetry_space_group_name_H-M   'P 1'
_cell_length_a   6.21146002
_cell_length_b   6.21145964
_cell_length_c   3.28438700
_cell_angle_alpha   90.00000000
_cell_angle_beta   90.00000000
_cell_angle_gamma   146.28690579
_symmetry_Int_Tables_number   1
_chemical_formula_structural   U2B2CN
_chemical_formula_sum   'U2 B2 C1 N1'
_cell_volume   70.33341428
_cell_formula_units_Z   1
loop_
 _symmetry_equiv_pos_site_id
 _symmetry_equiv_pos_as_xyz
  1  'x, y, z'
loop_
 _atom_site_type_symbol
 _atom_site_label
 _atom_site_symmetry_multiplicity
 _atom_site_fract_x
 _atom_site_fract_y
 _atom_site_fract_z
 _atom_site_occupancy
  U  U0  1  0.862440  0.137560  0.750000  1
  U  U1  1  0.137845  0.862155  0.250000  1
  B  B2  1  0.532865  0.467135  0.750000  1
  B  B3  1  0.464582  0.535418  0.250000  1
  C  C4  1  0.665450  0.334550  0.750000  1
  N  N5  1  0.336818  0.663182  0.250000  1
