# generated using pymatgen
data_Th3Al3Pt2Rh
_symmetry_space_group_name_H-M   'P 1'
_cell_length_a   7.30429100
_cell_length_b   7.30428976
_cell_length_c   4.15125200
_cell_angle_alpha   90.00000000
_cell_angle_beta   90.00000000
_cell_angle_gamma   119.99999202
_symmetry_Int_Tables_number   1
_chemical_formula_structural   Th3Al3Pt2Rh
_chemical_formula_sum   'Th3 Al3 Pt2 Rh1'
_cell_volume   191.80760603
_cell_formula_units_Z   1
loop_
 _symmetry_equiv_pos_site_id
 _symmetry_equiv_pos_as_xyz
  1  'x, y, z'
loop_
 _atom_site_type_symbol
 _atom_site_label
 _atom_site_symmetry_multiplicity
 _atom_site_fract_x
 _atom_site_fract_y
 _atom_site_fract_z
 _atom_site_occupancy
  Th  Th0  1  0.994940  0.417336  0.500000  1
  Th  Th1  1  0.582664  0.577605  0.500000  1
  Th  Th2  1  0.422395  0.005060  0.500000  1
  Al  Al3  1  0.998251  0.765615  0.000000  1
  Al  Al4  1  0.234385  0.232635  0.000000  1
  Al  Al5  1  0.767365  0.001749  0.000000  1
  Pt  Pt6  1  0.333333  0.666667  0.000000  1
  Pt  Pt7  1  0.000000  0.000000  0.500000  1
  Rh  Rh8  1  0.666667  0.333333  0.000000  1
