# generated using pymatgen
data_LiPr2Pa4Co17P12
_symmetry_space_group_name_H-M   'P 1'
_cell_length_a   3.77555200
_cell_length_b   10.48104300
_cell_length_c   12.42600900
_cell_angle_alpha   90.00000000
_cell_angle_beta   90.00000000
_cell_angle_gamma   90.00000000
_symmetry_Int_Tables_number   1
_chemical_formula_structural   LiPr2Pa4Co17P12
_chemical_formula_sum   'Li1 Pr2 Pa4 Co17 P12'
_cell_volume   491.71858441
_cell_formula_units_Z   1
loop_
 _symmetry_equiv_pos_site_id
 _symmetry_equiv_pos_as_xyz
  1  'x, y, z'
loop_
 _atom_site_type_symbol
 _atom_site_label
 _atom_site_symmetry_multiplicity
 _atom_site_fract_x
 _atom_site_fract_y
 _atom_site_fract_z
 _atom_site_occupancy
  Li  Li0  1  0.500000  0.500000  0.147078  1
  Pr  Pr1  1  0.000000  0.500000  0.518241  1
  Pr  Pr2  1  0.500000  0.000000  0.481800  1
  Pa  Pa3  1  0.500000  0.816633  0.208710  1
  Pa  Pa4  1  0.500000  0.183367  0.208710  1
  Pa  Pa5  1  0.000000  0.680523  0.793436  1
  Pa  Pa6  1  0.000000  0.319477  0.793436  1
  Co  Co7  1  0.000000  0.000000  0.840383  1
  Co  Co8  1  0.500000  0.500000  0.712435  1
  Co  Co9  1  0.000000  0.000000  0.288689  1
  Co  Co10  1  0.000000  0.500000  0.983528  1
  Co  Co11  1  0.500000  0.000000  0.016788  1
  Co  Co12  1  0.500000  0.328780  0.995638  1
  Co  Co13  1  0.500000  0.671220  0.995638  1
  Co  Co14  1  0.000000  0.164884  0.003132  1
  Co  Co15  1  0.000000  0.835116  0.003132  1
  Co  Co16  1  0.500000  0.296401  0.428581  1
  Co  Co17  1  0.500000  0.703599  0.428581  1
  Co  Co18  1  0.000000  0.202888  0.574122  1
  Co  Co19  1  0.000000  0.797112  0.574122  1
  Co  Co20  1  0.500000  0.877378  0.715010  1
  Co  Co21  1  0.500000  0.122622  0.715010  1
  Co  Co22  1  0.000000  0.627146  0.286639  1
  Co  Co23  1  0.000000  0.372854  0.286639  1
  P  P24  1  0.500000  0.500000  0.889040  1
  P  P25  1  0.000000  0.000000  0.113569  1
  P  P26  1  0.500000  0.500000  0.338769  1
  P  P27  1  0.000000  0.000000  0.661483  1
  P  P28  1  0.500000  0.308730  0.615001  1
  P  P29  1  0.500000  0.691270  0.615001  1
  P  P30  1  0.000000  0.190819  0.387079  1
  P  P31  1  0.000000  0.809181  0.387079  1
  P  P32  1  0.500000  0.848768  0.894815  1
  P  P33  1  0.500000  0.151232  0.894815  1
  P  P34  1  0.000000  0.655296  0.101935  1
  P  P35  1  0.000000  0.344704  0.101935  1
