# generated using pymatgen
data_Dy2Lu2MnOsC4
_symmetry_space_group_name_H-M   'P 1'
_cell_length_a   5.01572600
_cell_length_b   6.39025070
_cell_length_c   9.56370617
_cell_angle_alpha   90.56892075
_cell_angle_beta   90.00000000
_cell_angle_gamma   90.00000000
_symmetry_Int_Tables_number   1
_chemical_formula_structural   Dy2Lu2MnOsC4
_chemical_formula_sum   'Dy4 Lu4 Mn2 Os2 C8'
_cell_volume   306.51837514
_cell_formula_units_Z   2
loop_
 _symmetry_equiv_pos_site_id
 _symmetry_equiv_pos_as_xyz
  1  'x, y, z'
loop_
 _atom_site_type_symbol
 _atom_site_label
 _atom_site_symmetry_multiplicity
 _atom_site_fract_x
 _atom_site_fract_y
 _atom_site_fract_z
 _atom_site_occupancy
  Dy  Dy0  1  0.250000  0.526647  0.212832  1
  Dy  Dy1  1  0.750000  0.473353  0.787168  1
  Dy  Dy2  1  0.750000  0.973347  0.712753  1
  Dy  Dy3  1  0.250000  0.026653  0.287247  1
  Lu  Lu4  1  0.250000  0.677407  0.558096  1
  Lu  Lu5  1  0.750000  0.322593  0.441904  1
  Lu  Lu6  1  0.750000  0.826892  0.053918  1
  Lu  Lu7  1  0.250000  0.173108  0.946082  1
  Mn  Mn8  1  0.250000  0.726671  0.862833  1
  Mn  Mn9  1  0.750000  0.273329  0.137167  1
  Os  Os10  1  0.750000  0.776427  0.362472  1
  Os  Os11  1  0.250000  0.223573  0.637528  1
  C  C12  1  0.250000  0.465294  0.766401  1
  C  C13  1  0.750000  0.534706  0.233599  1
  C  C14  1  0.750000  0.049666  0.255539  1
  C  C15  1  0.250000  0.950334  0.744461  1
  C  C16  1  0.250000  0.821118  0.041232  1
  C  C17  1  0.750000  0.178882  0.958768  1
  C  C18  1  0.750000  0.670077  0.551601  1
  C  C19  1  0.250000  0.329923  0.448399  1
