# generated using pymatgen
data_Sm2Pa(SnRh)3
_symmetry_space_group_name_H-M   'P 1'
_cell_length_a   7.59383480
_cell_length_b   7.70015843
_cell_length_c   3.91228200
_cell_angle_alpha   90.00000000
_cell_angle_beta   90.00000000
_cell_angle_gamma   120.46425656
_symmetry_Int_Tables_number   1
_chemical_formula_structural   Sm2Pa(SnRh)3
_chemical_formula_sum   'Sm2 Pa1 Sn3 Rh3'
_cell_volume   197.18361399
_cell_formula_units_Z   1
loop_
 _symmetry_equiv_pos_site_id
 _symmetry_equiv_pos_as_xyz
  1  'x, y, z'
loop_
 _atom_site_type_symbol
 _atom_site_label
 _atom_site_symmetry_multiplicity
 _atom_site_fract_x
 _atom_site_fract_y
 _atom_site_fract_z
 _atom_site_occupancy
  Sm  Sm0  1  0.594116  0.593524  0.000000  1
  Sm  Sm1  1  0.405884  0.999409  0.000000  1
  Pa  Pa2  1  0.000000  0.413253  0.000000  1
  Sn  Sn3  1  0.268696  0.256829  0.500000  1
  Sn  Sn4  1  0.000000  0.758072  0.500000  1
  Sn  Sn5  1  0.731304  0.988133  0.500000  1
  Rh  Rh6  1  0.705619  0.337637  0.500000  1
  Rh  Rh7  1  0.294381  0.632019  0.500000  1
  Rh  Rh8  1  0.000000  0.021123  0.000000  1
