# generated using pymatgen
data_Er3Lu17Zn6CoRu
_symmetry_space_group_name_H-M   'P 1'
_cell_length_a   9.19626200
_cell_length_b   9.19626242
_cell_length_c   9.36408800
_cell_angle_alpha   90.00000000
_cell_angle_beta   90.00000000
_cell_angle_gamma   119.99999848
_symmetry_Int_Tables_number   1
_chemical_formula_structural   Er3Lu17Zn6CoRu
_chemical_formula_sum   'Er3 Lu17 Zn6 Co1 Ru1'
_cell_volume   685.83369185
_cell_formula_units_Z   1
loop_
 _symmetry_equiv_pos_site_id
 _symmetry_equiv_pos_as_xyz
  1  'x, y, z'
loop_
 _atom_site_type_symbol
 _atom_site_label
 _atom_site_symmetry_multiplicity
 _atom_site_fract_x
 _atom_site_fract_y
 _atom_site_fract_z
 _atom_site_occupancy
  Er  Er0  1  0.458394  0.541608  0.750000  1
  Er  Er1  1  0.458389  0.916786  0.750000  1
  Er  Er2  1  0.083215  0.541608  0.750000  1
  Lu  Lu3  1  0.000001  0.999998  0.499878  1
  Lu  Lu4  1  0.000001  0.999998  0.000122  1
  Lu  Lu5  1  0.210087  0.789911  0.436891  1
  Lu  Lu6  1  0.210088  0.420179  0.436894  1
  Lu  Lu7  1  0.579824  0.789915  0.436892  1
  Lu  Lu8  1  0.792544  0.207459  0.556399  1
  Lu  Lu9  1  0.792540  0.585084  0.556399  1
  Lu  Lu10  1  0.414916  0.207459  0.556398  1
  Lu  Lu11  1  0.792544  0.207459  0.943601  1
  Lu  Lu12  1  0.792540  0.585084  0.943601  1
  Lu  Lu13  1  0.414916  0.207459  0.943602  1
  Lu  Lu14  1  0.210087  0.789911  0.063109  1
  Lu  Lu15  1  0.210088  0.420179  0.063106  1
  Lu  Lu16  1  0.579824  0.789915  0.063108  1
  Lu  Lu17  1  0.542032  0.457967  0.250000  1
  Lu  Lu18  1  0.542035  0.084063  0.250000  1
  Lu  Lu19  1  0.915934  0.457964  0.250000  1
  Zn  Zn20  1  0.886378  0.113618  0.250000  1
  Zn  Zn21  1  0.886355  0.772733  0.250000  1
  Zn  Zn22  1  0.227271  0.113640  0.250000  1
  Zn  Zn23  1  0.113005  0.886997  0.750000  1
  Zn  Zn24  1  0.112999  0.225999  0.750000  1
  Zn  Zn25  1  0.773997  0.887002  0.750000  1
  Co  Co26  1  0.333331  0.666666  0.250000  1
  Ru  Ru27  1  0.666665  0.333343  0.750000  1
