# generated using pymatgen
data_Dy4Er8InCo4Ni
_symmetry_space_group_name_H-M   'P 1'
_cell_length_a   8.24395668
_cell_length_b   8.24395581
_cell_length_c   8.24395645
_cell_angle_alpha   110.69177360
_cell_angle_beta   110.92337724
_cell_angle_gamma   106.83044105
_symmetry_Int_Tables_number   1
_chemical_formula_structural   Dy4Er8InCo4Ni
_chemical_formula_sum   'Dy4 Er8 In1 Co4 Ni1'
_cell_volume   430.62061239
_cell_formula_units_Z   1
loop_
 _symmetry_equiv_pos_site_id
 _symmetry_equiv_pos_as_xyz
  1  'x, y, z'
loop_
 _atom_site_type_symbol
 _atom_site_label
 _atom_site_symmetry_multiplicity
 _atom_site_fract_x
 _atom_site_fract_y
 _atom_site_fract_z
 _atom_site_occupancy
  Dy  Dy0  1  0.186218  0.290087  0.476304  1
  Dy  Dy1  1  0.813782  0.709913  0.523696  1
  Dy  Dy2  1  0.186218  0.709913  0.896131  1
  Dy  Dy3  1  0.813782  0.290087  0.103869  1
  Er  Er4  1  0.315339  0.620280  0.304941  1
  Er  Er5  1  0.684661  0.379720  0.695059  1
  Er  Er6  1  0.315339  0.010398  0.695059  1
  Er  Er7  1  0.684661  0.989602  0.304941  1
  Er  Er8  1  0.408780  0.213711  0.195069  1
  Er  Er9  1  0.591220  0.786289  0.804931  1
  Er  Er10  1  0.018641  0.213711  0.804931  1
  Er  Er11  1  0.981359  0.786289  0.195069  1
  In  In12  1  0.500000  0.500000  0.000000  1
  Co  Co13  1  0.112976  0.612976  0.500000  1
  Co  Co14  1  0.887024  0.387024  0.500000  1
  Co  Co15  1  0.376930  0.000000  0.376930  1
  Co  Co16  1  0.623070  0.000000  0.623070  1
  Ni  Ni17  1  0.000000  0.000000  0.000000  1
