# generated using pymatgen
data_Tm3Np(B4Os)4
_symmetry_space_group_name_H-M   'P 1'
_cell_length_a   3.54276000
_cell_length_b   5.93586003
_cell_length_c   11.49694205
_cell_angle_alpha   90.01070418
_cell_angle_beta   90.00000000
_cell_angle_gamma   90.00000000
_symmetry_Int_Tables_number   1
_chemical_formula_structural   Tm3Np(B4Os)4
_chemical_formula_sum   'Tm3 Np1 B16 Os4'
_cell_volume   241.77295500
_cell_formula_units_Z   1
loop_
 _symmetry_equiv_pos_site_id
 _symmetry_equiv_pos_as_xyz
  1  'x, y, z'
loop_
 _atom_site_type_symbol
 _atom_site_label
 _atom_site_symmetry_multiplicity
 _atom_site_fract_x
 _atom_site_fract_y
 _atom_site_fract_z
 _atom_site_occupancy
  Tm  Tm0  1  0.500000  0.871302  0.349605  1
  Tm  Tm1  1  0.500000  0.629171  0.851180  1
  Tm  Tm2  1  0.500000  0.370798  0.149846  1
  Np  Np3  1  0.500000  0.129259  0.651093  1
  B  B4  1  0.000000  0.476013  0.692928  1
  B  B5  1  0.000000  0.525035  0.307854  1
  B  B6  1  0.000000  0.972882  0.807104  1
  B  B7  1  0.000000  0.025333  0.192204  1
  B  B8  1  0.000000  0.290474  0.811230  1
  B  B9  1  0.000000  0.708882  0.185840  1
  B  B10  1  0.000000  0.792521  0.687147  1
  B  B11  1  0.000000  0.209909  0.313154  1
  B  B12  1  0.000000  0.363557  0.969451  1
  B  B13  1  0.000000  0.634383  0.030627  1
  B  B14  1  0.000000  0.867700  0.530866  1
  B  B15  1  0.000000  0.133677  0.469201  1
  B  B16  1  0.000000  0.384595  0.547705  1
  B  B17  1  0.000000  0.613012  0.452368  1
  B  B18  1  0.000000  0.885734  0.953439  1
  B  B19  1  0.000000  0.112871  0.047242  1
  Os  Os20  1  0.500000  0.142173  0.902950  1
  Os  Os21  1  0.500000  0.861367  0.093118  1
  Os  Os22  1  0.500000  0.642732  0.594817  1
  Os  Os23  1  0.500000  0.356618  0.409032  1
