# generated using pymatgen
data_Er16Mg2InAgIr4
_symmetry_space_group_name_H-M   'P 1'
_cell_length_a   9.62216743
_cell_length_b   9.56155655
_cell_length_c   9.62216695
_cell_angle_alpha   59.64602215
_cell_angle_beta   59.99945941
_cell_angle_gamma   59.64601707
_symmetry_Int_Tables_number   1
_chemical_formula_structural   Er16Mg2InAgIr4
_chemical_formula_sum   'Er16 Mg2 In1 Ag1 Ir4'
_cell_volume   622.60577972
_cell_formula_units_Z   1
loop_
 _symmetry_equiv_pos_site_id
 _symmetry_equiv_pos_as_xyz
  1  'x, y, z'
loop_
 _atom_site_type_symbol
 _atom_site_label
 _atom_site_symmetry_multiplicity
 _atom_site_fract_x
 _atom_site_fract_y
 _atom_site_fract_z
 _atom_site_occupancy
  Er  Er0  1  0.064729  0.057184  0.438596  1
  Er  Er1  1  0.650617  0.041642  0.650617  1
  Er  Er2  1  0.192882  0.808124  0.192882  1
  Er  Er3  1  0.435859  0.056672  0.435859  1
  Er  Er4  1  0.190901  0.190344  0.810512  1
  Er  Er5  1  0.655205  0.653848  0.655205  1
  Er  Er6  1  0.046339  0.649329  0.649370  1
  Er  Er7  1  0.438596  0.057184  0.064729  1
  Er  Er8  1  0.649370  0.649329  0.046339  1
  Er  Er9  1  0.188973  0.812195  0.812459  1
  Er  Er10  1  0.812761  0.188539  0.812761  1
  Er  Er11  1  0.810512  0.190344  0.190901  1
  Er  Er12  1  0.812459  0.812195  0.188973  1
  Er  Er13  1  0.064854  0.434501  0.435350  1
  Er  Er14  1  0.435350  0.434501  0.064854  1
  Er  Er15  1  0.060907  0.439494  0.060907  1
  Mg  Mg16  1  0.729072  0.430308  0.421272  1
  Mg  Mg17  1  0.421272  0.430308  0.729072  1
  In  In18  1  0.418000  0.419681  0.418000  1
  Ag  Ag19  1  0.417689  0.750845  0.417689  1
  Ir  Ir20  1  0.859407  0.855082  0.859407  1
  Ir  Ir21  1  0.423011  0.857636  0.861353  1
  Ir  Ir22  1  0.861353  0.857636  0.423011  1
  Ir  Ir23  1  0.859883  0.423082  0.859883  1
