# generated using pymatgen
data_CaYb5(Si3Ru)8
_symmetry_space_group_name_H-M   'P 1'
_cell_length_a   10.15645137
_cell_length_b   10.15643580
_cell_length_c   8.15045107
_cell_angle_alpha   89.98598235
_cell_angle_beta   90.01354005
_cell_angle_gamma   132.65574459
_symmetry_Int_Tables_number   1
_chemical_formula_structural   CaYb5(Si3Ru)8
_chemical_formula_sum   'Ca1 Yb5 Si24 Ru8'
_cell_volume   618.31691553
_cell_formula_units_Z   1
loop_
 _symmetry_equiv_pos_site_id
 _symmetry_equiv_pos_as_xyz
  1  'x, y, z'
loop_
 _atom_site_type_symbol
 _atom_site_label
 _atom_site_symmetry_multiplicity
 _atom_site_fract_x
 _atom_site_fract_y
 _atom_site_fract_z
 _atom_site_occupancy
  Ca  Ca0  1  0.002204  0.502202  0.249999  1
  Yb  Yb1  1  0.000009  0.999993  0.999979  1
  Yb  Yb2  1  0.499994  0.500010  0.500020  1
  Yb  Yb3  1  0.997611  0.497611  0.750000  1
  Yb  Yb4  1  0.497567  0.997566  0.749999  1
  Yb  Yb5  1  0.502391  0.002391  0.250000  1
  Si  Si6  1  0.704969  0.294177  0.999643  1
  Si  Si7  1  0.294910  0.705716  0.999655  1
  Si  Si8  1  0.794178  0.204968  0.500357  1
  Si  Si9  1  0.205716  0.794911  0.500345  1
  Si  Si10  1  0.333052  0.333181  0.167602  1
  Si  Si11  1  0.666813  0.666906  0.832291  1
  Si  Si12  1  0.166900  0.166806  0.667704  1
  Si  Si13  1  0.833185  0.833056  0.332403  1
  Si  Si14  1  0.847405  0.614341  0.007576  1
  Si  Si15  1  0.152669  0.385620  0.991549  1
  Si  Si16  1  0.652600  0.885921  0.508025  1
  Si  Si17  1  0.114340  0.347404  0.492425  1
  Si  Si18  1  0.347271  0.114011  0.492083  1
  Si  Si19  1  0.885622  0.652672  0.508450  1
  Si  Si20  1  0.385919  0.152598  0.991974  1
  Si  Si21  1  0.614014  0.847273  0.007918  1
  Si  Si22  1  0.893102  0.125724  0.268850  1
  Si  Si23  1  0.106751  0.873858  0.730965  1
  Si  Si24  1  0.606741  0.373835  0.768981  1
  Si  Si25  1  0.625725  0.393102  0.231151  1
  Si  Si26  1  0.393881  0.626428  0.231148  1
  Si  Si27  1  0.373857  0.606752  0.769033  1
  Si  Si28  1  0.873836  0.106739  0.731016  1
  Si  Si29  1  0.126427  0.893881  0.268855  1
  Ru  Ru30  1  0.829920  0.169164  0.999556  1
  Ru  Ru31  1  0.170090  0.830848  0.999615  1
  Ru  Ru32  1  0.669162  0.329916  0.500447  1
  Ru  Ru33  1  0.330850  0.670092  0.500386  1
  Ru  Ru34  1  0.125897  0.126121  0.375117  1
  Ru  Ru35  1  0.874090  0.874216  0.624915  1
  Ru  Ru36  1  0.374213  0.374089  0.875082  1
  Ru  Ru37  1  0.626124  0.625900  0.124888  1
