# generated using pymatgen
data_Pr2Co18Si7Ge
_symmetry_space_group_name_H-M   'P 1'
_cell_length_a   7.96826880
_cell_length_b   7.96826860
_cell_length_c   7.98799419
_cell_angle_alpha   121.74928669
_cell_angle_beta   121.74927903
_cell_angle_gamma   87.09388812
_symmetry_Int_Tables_number   1
_chemical_formula_structural   Pr2Co18Si7Ge
_chemical_formula_sum   'Pr2 Co18 Si7 Ge1'
_cell_volume   348.34585314
_cell_formula_units_Z   1
loop_
 _symmetry_equiv_pos_site_id
 _symmetry_equiv_pos_as_xyz
  1  'x, y, z'
loop_
 _atom_site_type_symbol
 _atom_site_label
 _atom_site_symmetry_multiplicity
 _atom_site_fract_x
 _atom_site_fract_y
 _atom_site_fract_z
 _atom_site_occupancy
  Pr  Pr0  1  0.751096  0.749846  0.000083  1
  Pr  Pr1  1  0.249846  0.251096  0.000083  1
  Co  Co2  1  0.689709  0.450065  0.500180  1
  Co  Co3  1  0.451207  0.951207  0.753524  1
  Co  Co4  1  0.189582  0.689582  0.239456  1
  Co  Co5  1  0.556834  0.056834  0.254186  1
  Co  Co6  1  0.950065  0.189709  0.500180  1
  Co  Co7  1  0.197850  0.931913  0.132850  1
  Co  Co8  1  0.801937  0.069876  0.870642  1
  Co  Co9  1  0.431913  0.697850  0.132850  1
  Co  Co10  1  0.569876  0.301937  0.870642  1
  Co  Co11  1  0.698525  0.568482  0.268351  1
  Co  Co12  1  0.300240  0.427478  0.729812  1
  Co  Co13  1  0.927478  0.800240  0.729812  1
  Co  Co14  1  0.309838  0.546727  0.495002  1
  Co  Co15  1  0.809302  0.309302  0.758628  1
  Co  Co16  1  0.997346  0.497346  0.497403  1
  Co  Co17  1  0.499989  0.999989  0.500638  1
  Co  Co18  1  0.068482  0.198525  0.268351  1
  Co  Co19  1  0.046727  0.809838  0.495002  1
  Si  Si20  1  0.045400  0.545400  0.836053  1
  Si  Si21  1  0.546268  0.709037  0.498904  1
  Si  Si22  1  0.790466  0.953315  0.500775  1
  Si  Si23  1  0.453315  0.290466  0.500775  1
  Si  Si24  1  0.953504  0.453504  0.163228  1
  Si  Si25  1  0.708726  0.208726  0.162616  1
  Si  Si26  1  0.209037  0.046268  0.498904  1
  Ge  Ge27  1  0.295442  0.795442  0.841069  1
