# generated using pymatgen
data_Th3ScAu5
_symmetry_space_group_name_H-M   'P 1'
_cell_length_a   8.12514685
_cell_length_b   8.12514680
_cell_length_c   8.12514700
_cell_angle_alpha   66.13377760
_cell_angle_beta   66.13377776
_cell_angle_gamma   66.13375509
_symmetry_Int_Tables_number   1
_chemical_formula_structural   Th3ScAu5
_chemical_formula_sum   'Th6 Sc2 Au10'
_cell_volume   429.58042444
_cell_formula_units_Z   2
loop_
 _symmetry_equiv_pos_site_id
 _symmetry_equiv_pos_as_xyz
  1  'x, y, z'
loop_
 _atom_site_type_symbol
 _atom_site_label
 _atom_site_symmetry_multiplicity
 _atom_site_fract_x
 _atom_site_fract_y
 _atom_site_fract_z
 _atom_site_occupancy
  Th  Th0  1  0.892545  0.181124  0.629738  1
  Th  Th1  1  0.629738  0.892545  0.181124  1
  Th  Th2  1  0.181124  0.629738  0.892545  1
  Th  Th3  1  0.107455  0.818876  0.370262  1
  Th  Th4  1  0.370262  0.107455  0.818876  1
  Th  Th5  1  0.818876  0.370262  0.107455  1
  Sc  Sc6  1  0.656653  0.656653  0.656653  1
  Sc  Sc7  1  0.343347  0.343347  0.343347  1
  Au  Au8  1  0.000000  0.000000  0.000000  1
  Au  Au9  1  0.500000  0.500000  0.500000  1
  Au  Au10  1  0.800943  0.800943  0.800943  1
  Au  Au11  1  0.199057  0.199057  0.199057  1
  Au  Au12  1  0.937605  0.545801  0.326210  1
  Au  Au13  1  0.326210  0.937605  0.545801  1
  Au  Au14  1  0.545801  0.326210  0.937605  1
  Au  Au15  1  0.062395  0.454199  0.673790  1
  Au  Au16  1  0.673790  0.062395  0.454199  1
  Au  Au17  1  0.454199  0.673790  0.062395  1
