# generated using pymatgen
data_Ta2Ti(AlRu2)3
_symmetry_space_group_name_H-M   'P 1'
_cell_length_a   4.36004200
_cell_length_b   6.18709600
_cell_length_c   13.05217400
_cell_angle_alpha   90.00000000
_cell_angle_beta   90.00028941
_cell_angle_gamma   90.00000000
_symmetry_Int_Tables_number   1
_chemical_formula_structural   Ta2Ti(AlRu2)3
_chemical_formula_sum   'Ta4 Ti2 Al6 Ru12'
_cell_volume   352.09542517
_cell_formula_units_Z   2
loop_
 _symmetry_equiv_pos_site_id
 _symmetry_equiv_pos_as_xyz
  1  'x, y, z'
loop_
 _atom_site_type_symbol
 _atom_site_label
 _atom_site_symmetry_multiplicity
 _atom_site_fract_x
 _atom_site_fract_y
 _atom_site_fract_z
 _atom_site_occupancy
  Ta  Ta0  1  0.000002  0.499999  0.996551  1
  Ta  Ta1  1  0.499851  0.000000  0.165478  1
  Ta  Ta2  1  0.999849  0.499999  0.334516  1
  Ta  Ta3  1  0.500001  0.000000  0.503454  1
  Ti  Ti4  1  0.000141  0.499999  0.668393  1
  Ti  Ti5  1  0.500142  0.000000  0.831606  1
  Al  Al6  1  0.999996  0.000000  0.997139  1
  Al  Al7  1  0.499840  0.499999  0.165649  1
  Al  Al8  1  0.999840  0.000000  0.334359  1
  Al  Al9  1  0.499997  0.499999  0.502868  1
  Al  Al10  1  0.000157  0.000000  0.668326  1
  Al  Al11  1  0.500157  0.499999  0.831662  1
  Ru  Ru12  1  0.500002  0.249607  0.999519  1
  Ru  Ru13  1  0.500002  0.750392  0.999519  1
  Ru  Ru14  1  0.999856  0.249514  0.166599  1
  Ru  Ru15  1  0.999856  0.750486  0.166599  1
  Ru  Ru16  1  0.499855  0.250487  0.333408  1
  Ru  Ru17  1  0.499855  0.749514  0.333408  1
  Ru  Ru18  1  0.000005  0.250386  0.500477  1
  Ru  Ru19  1  0.000005  0.749614  0.500477  1
  Ru  Ru20  1  0.500146  0.251536  0.667466  1
  Ru  Ru21  1  0.500146  0.748465  0.667466  1
  Ru  Ru22  1  0.000151  0.248450  0.832531  1
  Ru  Ru23  1  0.000151  0.751550  0.832531  1
