# generated using pymatgen
data_Dy3Tm5Sc12Ga7Si9
_symmetry_space_group_name_H-M   'P 1'
_cell_length_a   7.13850165
_cell_length_b   7.39060835
_cell_length_c   14.21136804
_cell_angle_alpha   90.03692621
_cell_angle_beta   89.94654397
_cell_angle_gamma   90.08197976
_symmetry_Int_Tables_number   1
_chemical_formula_structural   Dy3Tm5Sc12Ga7Si9
_chemical_formula_sum   'Dy3 Tm5 Sc12 Ga7 Si9'
_cell_volume   749.76025742
_cell_formula_units_Z   1
loop_
 _symmetry_equiv_pos_site_id
 _symmetry_equiv_pos_as_xyz
  1  'x, y, z'
loop_
 _atom_site_type_symbol
 _atom_site_label
 _atom_site_symmetry_multiplicity
 _atom_site_fract_x
 _atom_site_fract_y
 _atom_site_fract_z
 _atom_site_occupancy
  Dy  Dy0  1  0.012281  0.174360  0.098672  1
  Dy  Dy1  1  0.989849  0.823295  0.901878  1
  Dy  Dy2  1  0.488624  0.676729  0.902124  1
  Tm  Tm3  1  0.989600  0.823139  0.599446  1
  Tm  Tm4  1  0.510086  0.322191  0.099225  1
  Tm  Tm5  1  0.010113  0.176472  0.400077  1
  Tm  Tm6  1  0.510495  0.322899  0.400219  1
  Tm  Tm7  1  0.489719  0.676784  0.599346  1
  Sc  Sc8  1  0.164031  0.502653  0.749580  1
  Sc  Sc9  1  0.836573  0.498127  0.249986  1
  Sc  Sc10  1  0.336014  0.002696  0.249169  1
  Sc  Sc11  1  0.663490  0.997792  0.749367  1
  Sc  Sc12  1  0.330364  0.173465  0.625670  1
  Sc  Sc13  1  0.669100  0.826824  0.373871  1
  Sc  Sc14  1  0.169313  0.673689  0.373812  1
  Sc  Sc15  1  0.667811  0.825307  0.126437  1
  Sc  Sc16  1  0.830305  0.326462  0.625862  1
  Sc  Sc17  1  0.329988  0.174092  0.874886  1
  Sc  Sc18  1  0.829234  0.326720  0.874259  1
  Sc  Sc19  1  0.172107  0.675367  0.125276  1
  Ga  Ga20  1  0.161850  0.464083  0.539559  1
  Ga  Ga21  1  0.838147  0.535872  0.460213  1
  Ga  Ga22  1  0.337943  0.963735  0.460366  1
  Ga  Ga23  1  0.838185  0.537372  0.040385  1
  Ga  Ga24  1  0.661915  0.036087  0.539355  1
  Ga  Ga25  1  0.160828  0.462455  0.960914  1
  Ga  Ga26  1  0.659927  0.038218  0.961400  1
  Si  Si27  1  0.032047  0.112534  0.750478  1
  Si  Si28  1  0.967737  0.886359  0.249845  1
  Si  Si29  1  0.467537  0.611726  0.249634  1
  Si  Si30  1  0.532277  0.387146  0.749869  1
  Si  Si31  1  0.284458  0.873204  0.749888  1
  Si  Si32  1  0.715148  0.127854  0.249510  1
  Si  Si33  1  0.215444  0.372134  0.249879  1
  Si  Si34  1  0.784383  0.627392  0.749756  1
  Si  Si35  1  0.343077  0.964768  0.039787  1
