# generated using pymatgen
data_Yb2Y2Ni13Ge
_symmetry_space_group_name_H-M   'P 1'
_cell_length_a   4.88096349
_cell_length_b   4.88096426
_cell_length_c   12.35728656
_cell_angle_alpha   78.62261005
_cell_angle_beta   78.62260907
_cell_angle_gamma   60.96433696
_symmetry_Int_Tables_number   1
_chemical_formula_structural   Yb2Y2Ni13Ge
_chemical_formula_sum   'Yb2 Y2 Ni13 Ge1'
_cell_volume   250.56264781
_cell_formula_units_Z   1
loop_
 _symmetry_equiv_pos_site_id
 _symmetry_equiv_pos_as_xyz
  1  'x, y, z'
loop_
 _atom_site_type_symbol
 _atom_site_label
 _atom_site_symmetry_multiplicity
 _atom_site_fract_x
 _atom_site_fract_y
 _atom_site_fract_z
 _atom_site_occupancy
  Yb  Yb0  1  0.850621  0.850621  0.448402  1
  Yb  Yb1  1  0.149379  0.149379  0.551598  1
  Y  Y2  1  0.945482  0.945482  0.163730  1
  Y  Y3  1  0.054518  0.054518  0.836270  1
  Ni  Ni4  1  0.500000  0.500000  0.500000  1
  Ni  Ni5  1  0.722247  0.722247  0.831838  1
  Ni  Ni6  1  0.277753  0.277753  0.168162  1
  Ni  Ni7  1  0.609624  0.609624  0.167485  1
  Ni  Ni8  1  0.390376  0.390376  0.832515  1
  Ni  Ni9  1  0.000000  0.500000  0.000000  1
  Ni  Ni10  1  0.500000  0.000000  0.000000  1
  Ni  Ni11  1  0.388205  0.388205  0.333161  1
  Ni  Ni12  1  0.889716  0.390162  0.331179  1
  Ni  Ni13  1  0.390162  0.889716  0.331179  1
  Ni  Ni14  1  0.611795  0.611795  0.666839  1
  Ni  Ni15  1  0.110284  0.609838  0.668821  1
  Ni  Ni16  1  0.609838  0.110284  0.668821  1
  Ge  Ge17  1  0.500000  0.500000  0.000000  1
