# generated using pymatgen
data_Na4MnSnF12
_symmetry_space_group_name_H-M   'P 1'
_cell_length_a   5.02806700
_cell_length_b   5.02806700
_cell_length_c   10.02325600
_cell_angle_alpha   90.00000000
_cell_angle_beta   90.00000000
_cell_angle_gamma   90.00000000
_symmetry_Int_Tables_number   1
_chemical_formula_structural   Na4MnSnF12
_chemical_formula_sum   'Na4 Mn1 Sn1 F12'
_cell_volume   253.40252315
_cell_formula_units_Z   1
loop_
 _symmetry_equiv_pos_site_id
 _symmetry_equiv_pos_as_xyz
  1  'x, y, z'
loop_
 _atom_site_type_symbol
 _atom_site_label
 _atom_site_symmetry_multiplicity
 _atom_site_fract_x
 _atom_site_fract_y
 _atom_site_fract_z
 _atom_site_occupancy
  Na  Na0  1  0.000000  0.000000  0.329711  1
  Na  Na1  1  0.500000  0.500000  0.842092  1
  Na  Na2  1  0.000000  0.000000  0.670289  1
  Na  Na3  1  0.500000  0.500000  0.157908  1
  Mn  Mn4  1  0.000000  0.000000  0.000000  1
  Sn  Sn5  1  0.500000  0.500000  0.500000  1
  F  F6  1  0.740197  0.740197  0.000000  1
  F  F7  1  0.781138  0.218862  0.500000  1
  F  F8  1  0.218862  0.781138  0.500000  1
  F  F9  1  0.259803  0.259803  0.000000  1
  F  F10  1  0.687431  0.687431  0.350792  1
  F  F11  1  0.312569  0.312569  0.350792  1
  F  F12  1  0.312569  0.312569  0.649208  1
  F  F13  1  0.179446  0.820554  0.133498  1
  F  F14  1  0.820554  0.179446  0.133498  1
  F  F15  1  0.820554  0.179446  0.866502  1
  F  F16  1  0.179446  0.820554  0.866502  1
  F  F17  1  0.687431  0.687431  0.649208  1
