# generated using pymatgen
data_Tb3Dy7Cd3Ni
_symmetry_space_group_name_H-M   'P 1'
_cell_length_a   9.60036000
_cell_length_b   9.60036117
_cell_length_c   9.82038700
_cell_angle_alpha   90.00000000
_cell_angle_beta   90.00000000
_cell_angle_gamma   119.99999596
_symmetry_Int_Tables_number   1
_chemical_formula_structural   Tb3Dy7Cd3Ni
_chemical_formula_sum   'Tb6 Dy14 Cd6 Ni2'
_cell_volume   783.85249083
_cell_formula_units_Z   2
loop_
 _symmetry_equiv_pos_site_id
 _symmetry_equiv_pos_as_xyz
  1  'x, y, z'
loop_
 _atom_site_type_symbol
 _atom_site_label
 _atom_site_symmetry_multiplicity
 _atom_site_fract_x
 _atom_site_fract_y
 _atom_site_fract_z
 _atom_site_occupancy
  Tb  Tb0  1  0.543565  0.456435  0.250000  1
  Tb  Tb1  1  0.543565  0.087131  0.250000  1
  Tb  Tb2  1  0.912869  0.456435  0.250000  1
  Tb  Tb3  1  0.456435  0.543565  0.750000  1
  Tb  Tb4  1  0.456435  0.912869  0.750000  1
  Tb  Tb5  1  0.087131  0.543565  0.750000  1
  Dy  Dy6  1  0.000000  0.000000  0.500000  1
  Dy  Dy7  1  0.000000  0.000000  0.000000  1
  Dy  Dy8  1  0.210415  0.789585  0.436538  1
  Dy  Dy9  1  0.210415  0.420831  0.436538  1
  Dy  Dy10  1  0.579169  0.789585  0.436538  1
  Dy  Dy11  1  0.789585  0.210415  0.563462  1
  Dy  Dy12  1  0.789585  0.579169  0.563462  1
  Dy  Dy13  1  0.420831  0.210415  0.563462  1
  Dy  Dy14  1  0.789585  0.210415  0.936538  1
  Dy  Dy15  1  0.789585  0.579169  0.936538  1
  Dy  Dy16  1  0.420831  0.210415  0.936538  1
  Dy  Dy17  1  0.210415  0.789585  0.063462  1
  Dy  Dy18  1  0.210415  0.420831  0.063462  1
  Dy  Dy19  1  0.579169  0.789585  0.063462  1
  Cd  Cd20  1  0.884870  0.115130  0.250000  1
  Cd  Cd21  1  0.884870  0.769740  0.250000  1
  Cd  Cd22  1  0.230260  0.115130  0.250000  1
  Cd  Cd23  1  0.115130  0.884870  0.750000  1
  Cd  Cd24  1  0.115130  0.230260  0.750000  1
  Cd  Cd25  1  0.769740  0.884870  0.750000  1
  Ni  Ni26  1  0.333333  0.666667  0.250000  1
  Ni  Ni27  1  0.666667  0.333333  0.750000  1
