# generated using pymatgen
data_Hf6FeMo2Ir3
_symmetry_space_group_name_H-M   'P 1'
_cell_length_a   4.61007100
_cell_length_b   6.56151600
_cell_length_c   13.81475200
_cell_angle_alpha   90.00000000
_cell_angle_beta   90.00000000
_cell_angle_gamma   90.00000000
_symmetry_Int_Tables_number   1
_chemical_formula_structural   Hf6FeMo2Ir3
_chemical_formula_sum   'Hf12 Fe2 Mo4 Ir6'
_cell_volume   417.88318792
_cell_formula_units_Z   2
loop_
 _symmetry_equiv_pos_site_id
 _symmetry_equiv_pos_as_xyz
  1  'x, y, z'
loop_
 _atom_site_type_symbol
 _atom_site_label
 _atom_site_symmetry_multiplicity
 _atom_site_fract_x
 _atom_site_fract_y
 _atom_site_fract_z
 _atom_site_occupancy
  Hf  Hf0  1  0.499996  0.249508  0.998224  1
  Hf  Hf1  1  0.499996  0.750494  0.998224  1
  Hf  Hf2  1  0.999896  0.250050  0.166447  1
  Hf  Hf3  1  0.999896  0.749950  0.166447  1
  Hf  Hf4  1  0.499895  0.249950  0.333555  1
  Hf  Hf5  1  0.499895  0.750050  0.333555  1
  Hf  Hf6  1  0.999996  0.250494  0.501776  1
  Hf  Hf7  1  0.999996  0.749506  0.501776  1
  Hf  Hf8  1  0.500104  0.250845  0.668281  1
  Hf  Hf9  1  0.500104  0.749155  0.668281  1
  Hf  Hf10  1  0.000104  0.249155  0.831718  1
  Hf  Hf11  1  0.000104  0.750845  0.831718  1
  Fe  Fe12  1  0.000148  0.500000  0.668769  1
  Fe  Fe13  1  0.500148  0.000000  0.831232  1
  Mo  Mo14  1  0.999995  0.500000  0.996120  1
  Mo  Mo15  1  0.499885  0.000000  0.164554  1
  Mo  Mo16  1  0.999885  0.500000  0.335445  1
  Mo  Mo17  1  0.499995  0.000000  0.503880  1
  Ir  Ir18  1  0.999982  0.000000  0.995221  1
  Ir  Ir19  1  0.499885  0.500000  0.165301  1
  Ir  Ir20  1  0.999885  0.000000  0.334698  1
  Ir  Ir21  1  0.499982  0.500000  0.504779  1
  Ir  Ir22  1  0.000117  0.000000  0.670116  1
  Ir  Ir23  1  0.500117  0.500000  0.829885  1
