# generated using pymatgen
data_RbMn3O6
_symmetry_space_group_name_H-M   'P 1'
_cell_length_a   5.07602068
_cell_length_b   5.07628389
_cell_length_c   13.71703775
_cell_angle_alpha   86.21913093
_cell_angle_beta   93.80660091
_cell_angle_gamma   118.28073680
_symmetry_Int_Tables_number   1
_chemical_formula_structural   RbMn3O6
_chemical_formula_sum   'Rb2 Mn6 O12'
_cell_volume   310.33622379
_cell_formula_units_Z   2
loop_
 _symmetry_equiv_pos_site_id
 _symmetry_equiv_pos_as_xyz
  1  'x, y, z'
loop_
 _atom_site_type_symbol
 _atom_site_label
 _atom_site_symmetry_multiplicity
 _atom_site_fract_x
 _atom_site_fract_y
 _atom_site_fract_z
 _atom_site_occupancy
  Rb  Rb0  1  0.357085  0.857277  0.250068  1
  Rb  Rb1  1  0.642295  0.142082  0.749980  1
  Mn  Mn2  1  0.163365  0.835253  0.501279  1
  Mn  Mn3  1  0.336224  0.662901  0.998763  1
  Mn  Mn4  1  0.664814  0.336754  0.001162  1
  Mn  Mn5  1  0.836518  0.164608  0.498806  1
  Mn  Mn6  1  0.500018  0.499890  0.500038  1
  Mn  Mn7  1  0.000385  0.999658  0.999952  1
  O  O8  1  0.513307  0.833089  0.570798  1
  O  O9  1  0.665818  0.987439  0.071091  1
  O  O10  1  0.333838  0.012695  0.929378  1
  O  O11  1  0.846413  0.492990  0.570770  1
  O  O12  1  0.486539  0.166508  0.429189  1
  O  O13  1  0.857538  0.875518  0.421835  1
  O  O14  1  0.007687  0.653337  0.070461  1
  O  O15  1  0.992624  0.347496  0.928955  1
  O  O16  1  0.623847  0.642481  0.921758  1
  O  O17  1  0.142245  0.124517  0.578262  1
  O  O18  1  0.375691  0.358582  0.078054  1
  O  O19  1  0.153745  0.506923  0.429398  1
