# generated using pymatgen
data_RbSnF5
_symmetry_space_group_name_H-M   'P 1'
_cell_length_a   5.86791800
_cell_length_b   8.26771300
_cell_length_c   10.93197900
_cell_angle_alpha   90.00000000
_cell_angle_beta   90.00000000
_cell_angle_gamma   90.00000000
_symmetry_Int_Tables_number   1
_chemical_formula_structural   RbSnF5
_chemical_formula_sum   'Rb4 Sn4 F20'
_cell_volume   530.35689264
_cell_formula_units_Z   4
loop_
 _symmetry_equiv_pos_site_id
 _symmetry_equiv_pos_as_xyz
  1  'x, y, z'
loop_
 _atom_site_type_symbol
 _atom_site_label
 _atom_site_symmetry_multiplicity
 _atom_site_fract_x
 _atom_site_fract_y
 _atom_site_fract_z
 _atom_site_occupancy
  Rb  Rb0  1  0.500000  0.884550  0.965219  1
  Rb  Rb1  1  0.500000  0.115450  0.465219  1
  Rb  Rb2  1  0.000000  0.360819  0.123482  1
  Rb  Rb3  1  0.000000  0.639181  0.623482  1
  Sn  Sn4  1  0.000000  0.882603  0.241866  1
  Sn  Sn5  1  0.500000  0.576716  0.341684  1
  Sn  Sn6  1  0.500000  0.423284  0.841684  1
  Sn  Sn7  1  0.000000  0.117397  0.741866  1
  F  F8  1  0.255462  0.541880  0.926450  1
  F  F9  1  0.748376  0.698684  0.235240  1
  F  F10  1  0.242152  0.048192  0.240311  1
  F  F11  1  0.748376  0.301316  0.735240  1
  F  F12  1  0.500000  0.234395  0.950016  1
  F  F13  1  0.757848  0.951808  0.740311  1
  F  F14  1  0.500000  0.574851  0.702633  1
  F  F15  1  0.242152  0.951808  0.740311  1
  F  F16  1  0.000000  0.854187  0.063769  1
  F  F17  1  0.757848  0.048192  0.240311  1
  F  F18  1  0.500000  0.425149  0.202633  1
  F  F19  1  0.744538  0.458120  0.426450  1
  F  F20  1  0.251624  0.698684  0.235240  1
  F  F21  1  0.000000  0.848553  0.418837  1
  F  F22  1  0.000000  0.145813  0.563769  1
  F  F23  1  0.251624  0.301316  0.735240  1
  F  F24  1  0.000000  0.151447  0.918837  1
  F  F25  1  0.255462  0.458120  0.426450  1
  F  F26  1  0.500000  0.765605  0.450016  1
  F  F27  1  0.744538  0.541880  0.926450  1
