# generated using pymatgen
data_La8DyU3Se20
_symmetry_space_group_name_H-M   'P 1'
_cell_length_a   7.92806117
_cell_length_b   8.55623500
_cell_length_c   12.54555879
_cell_angle_alpha   90.00000000
_cell_angle_beta   90.43881237
_cell_angle_gamma   90.00000000
_symmetry_Int_Tables_number   1
_chemical_formula_structural   La8DyU3Se20
_chemical_formula_sum   'La8 Dy1 U3 Se20'
_cell_volume   850.99492383
_cell_formula_units_Z   1
loop_
 _symmetry_equiv_pos_site_id
 _symmetry_equiv_pos_as_xyz
  1  'x, y, z'
loop_
 _atom_site_type_symbol
 _atom_site_label
 _atom_site_symmetry_multiplicity
 _atom_site_fract_x
 _atom_site_fract_y
 _atom_site_fract_z
 _atom_site_occupancy
  La  La0  1  0.530801  0.501791  0.324262  1
  La  La1  1  0.969734  0.999804  0.822129  1
  La  La2  1  0.470846  0.000134  0.674171  1
  La  La3  1  0.028353  0.501619  0.179379  1
  La  La4  1  0.470846  0.499866  0.674171  1
  La  La5  1  0.028353  0.998381  0.179379  1
  La  La6  1  0.530801  0.998209  0.324262  1
  La  La7  1  0.969734  0.500196  0.822129  1
  Dy  Dy8  1  0.069781  0.750000  0.495113  1
  U  U9  1  0.428300  0.750000  0.990114  1
  U  U10  1  0.939000  0.250000  0.505820  1
  U  U11  1  0.569662  0.250000  0.009167  1
  Se  Se12  1  0.831668  0.965782  0.593389  1
  Se  Se13  1  0.663525  0.542293  0.091371  1
  Se  Se14  1  0.165497  0.456907  0.408835  1
  Se  Se15  1  0.335941  0.043038  0.907149  1
  Se  Se16  1  0.165497  0.043093  0.408835  1
  Se  Se17  1  0.335941  0.456962  0.907149  1
  Se  Se18  1  0.831668  0.534218  0.593389  1
  Se  Se19  1  0.663525  0.957707  0.091371  1
  Se  Se20  1  0.834066  0.750000  0.312465  1
  Se  Se21  1  0.662938  0.750000  0.813178  1
  Se  Se22  1  0.165069  0.250000  0.686480  1
  Se  Se23  1  0.337678  0.250000  0.186394  1
  Se  Se24  1  0.452840  0.750000  0.496752  1
  Se  Se25  1  0.046106  0.750000  0.998902  1
  Se  Se26  1  0.549420  0.250000  0.499799  1
  Se  Se27  1  0.952805  0.250000  0.002107  1
  Se  Se28  1  0.190262  0.750000  0.715386  1
  Se  Se29  1  0.311313  0.750000  0.211316  1
  Se  Se30  1  0.809967  0.250000  0.286441  1
  Se  Se31  1  0.688061  0.250000  0.789193  1
