# generated using pymatgen
data_Yb2(EuSi)3
_symmetry_space_group_name_H-M   'P 1'
_cell_length_a   7.67559960
_cell_length_b   7.67043392
_cell_length_c   9.16431846
_cell_angle_alpha   114.73080699
_cell_angle_beta   114.70119391
_cell_angle_gamma   89.96965890
_symmetry_Int_Tables_number   1
_chemical_formula_structural   Yb2(EuSi)3
_chemical_formula_sum   'Yb4 Eu6 Si6'
_cell_volume   435.17876614
_cell_formula_units_Z   2
loop_
 _symmetry_equiv_pos_site_id
 _symmetry_equiv_pos_as_xyz
  1  'x, y, z'
loop_
 _atom_site_type_symbol
 _atom_site_label
 _atom_site_symmetry_multiplicity
 _atom_site_fract_x
 _atom_site_fract_y
 _atom_site_fract_z
 _atom_site_occupancy
  Yb  Yb0  1  0.001247  0.002262  0.002606  1
  Yb  Yb1  1  0.501254  0.500442  0.002733  1
  Yb  Yb2  1  0.465970  0.320657  0.286567  1
  Yb  Yb3  1  0.965862  0.465640  0.286514  1
  Eu  Eu4  1  0.322644  0.821753  0.289099  1
  Eu  Eu5  1  0.822509  0.967544  0.289074  1
  Eu  Eu6  1  0.178169  0.032550  0.710896  1
  Eu  Eu7  1  0.678263  0.178058  0.711086  1
  Eu  Eu8  1  0.032685  0.532684  0.710362  1
  Eu  Eu9  1  0.532391  0.677741  0.710210  1
  Si  Si10  1  0.611948  0.112242  0.000196  1
  Si  Si11  1  0.111977  0.387923  0.000172  1
  Si  Si12  1  0.888608  0.612795  0.001896  1
  Si  Si13  1  0.388567  0.889038  0.001759  1
  Si  Si14  1  0.248814  0.252789  0.498489  1
  Si  Si15  1  0.749093  0.745883  0.498347  1
