# generated using pymatgen
data_Ta4Si3PRh4
_symmetry_space_group_name_H-M   'P 1'
_cell_length_a   3.75739600
_cell_length_b   6.40477392
_cell_length_c   7.33267891
_cell_angle_alpha   90.16838442
_cell_angle_beta   90.00000000
_cell_angle_gamma   90.00000000
_symmetry_Int_Tables_number   1
_chemical_formula_structural   Ta4Si3PRh4
_chemical_formula_sum   'Ta4 Si3 P1 Rh4'
_cell_volume   176.46214974
_cell_formula_units_Z   1
loop_
 _symmetry_equiv_pos_site_id
 _symmetry_equiv_pos_as_xyz
  1  'x, y, z'
loop_
 _atom_site_type_symbol
 _atom_site_label
 _atom_site_symmetry_multiplicity
 _atom_site_fract_x
 _atom_site_fract_y
 _atom_site_fract_z
 _atom_site_occupancy
  Ta  Ta0  1  0.250000  0.526661  0.671467  1
  Ta  Ta1  1  0.750000  0.472892  0.326652  1
  Ta  Ta2  1  0.250000  0.027895  0.830356  1
  Ta  Ta3  1  0.750000  0.975471  0.172142  1
  Si  Si4  1  0.750000  0.734691  0.874691  1
  Si  Si5  1  0.250000  0.766786  0.374734  1
  Si  Si6  1  0.750000  0.232488  0.625164  1
  P  P7  1  0.250000  0.263546  0.125531  1
  Rh  Rh8  1  0.750000  0.855267  0.562921  1
  Rh  Rh9  1  0.250000  0.146554  0.434198  1
  Rh  Rh10  1  0.750000  0.353643  0.938811  1
  Rh  Rh11  1  0.250000  0.644105  0.063334  1
