# generated using pymatgen
data_BaNb6SnSe12
_symmetry_space_group_name_H-M   'P 1'
_cell_length_a   6.11291100
_cell_length_b   6.11291106
_cell_length_c   15.96491000
_cell_angle_alpha   90.00000000
_cell_angle_beta   90.00000000
_cell_angle_gamma   120.00000508
_symmetry_Int_Tables_number   1
_chemical_formula_structural   BaNb6SnSe12
_chemical_formula_sum   'Ba1 Nb6 Sn1 Se12'
_cell_volume   516.64619361
_cell_formula_units_Z   1
loop_
 _symmetry_equiv_pos_site_id
 _symmetry_equiv_pos_as_xyz
  1  'x, y, z'
loop_
 _atom_site_type_symbol
 _atom_site_label
 _atom_site_symmetry_multiplicity
 _atom_site_fract_x
 _atom_site_fract_y
 _atom_site_fract_z
 _atom_site_occupancy
  Ba  Ba0  1  0.000000  0.000000  0.500000  1
  Nb  Nb1  1  0.000000  0.000000  0.761187  1
  Nb  Nb2  1  0.000000  0.000000  0.238813  1
  Nb  Nb3  1  0.333333  0.666667  0.237899  1
  Nb  Nb4  1  0.666667  0.333333  0.762101  1
  Nb  Nb5  1  0.666667  0.333333  0.237899  1
  Nb  Nb6  1  0.333333  0.666667  0.762101  1
  Sn  Sn7  1  0.000000  0.000000  0.000000  1
  Se  Se8  1  0.336179  0.000000  0.134711  1
  Se  Se9  1  0.000000  0.336179  0.134711  1
  Se  Se10  1  0.663821  0.663821  0.134711  1
  Se  Se11  1  0.337808  0.337808  0.657836  1
  Se  Se12  1  0.662192  0.662192  0.342164  1
  Se  Se13  1  0.662192  0.000000  0.657836  1
  Se  Se14  1  0.000000  0.662192  0.657836  1
  Se  Se15  1  0.000000  0.663821  0.865289  1
  Se  Se16  1  0.336179  0.336179  0.865289  1
  Se  Se17  1  0.000000  0.337808  0.342164  1
  Se  Se18  1  0.337808  0.000000  0.342164  1
  Se  Se19  1  0.663821  0.000000  0.865289  1
