# generated using pymatgen
data_Dy4AlRu3F28
_symmetry_space_group_name_H-M   'P 1'
_cell_length_a   5.51911094
_cell_length_b   8.85085887
_cell_length_c   11.86424993
_cell_angle_alpha   63.12274747
_cell_angle_beta   89.68824001
_cell_angle_gamma   90.13322777
_symmetry_Int_Tables_number   1
_chemical_formula_structural   Dy4AlRu3F28
_chemical_formula_sum   'Dy4 Al1 Ru3 F28'
_cell_volume   516.93488942
_cell_formula_units_Z   1
loop_
 _symmetry_equiv_pos_site_id
 _symmetry_equiv_pos_as_xyz
  1  'x, y, z'
loop_
 _atom_site_type_symbol
 _atom_site_label
 _atom_site_symmetry_multiplicity
 _atom_site_fract_x
 _atom_site_fract_y
 _atom_site_fract_z
 _atom_site_occupancy
  Dy  Dy0  1  0.761866  0.793248  0.776994  1
  Dy  Dy1  1  0.262001  0.186339  0.745374  1
  Dy  Dy2  1  0.242322  0.198003  0.212792  1
  Dy  Dy3  1  0.741655  0.833702  0.252034  1
  Al  Al4  1  0.757894  0.275447  0.953591  1
  Ru  Ru5  1  0.259005  0.729533  0.540658  1
  Ru  Ru6  1  0.244468  0.725733  0.047250  1
  Ru  Ru7  1  0.743159  0.275282  0.453280  1
  F  F8  1  0.431562  0.697852  0.919122  1
  F  F9  1  0.945810  0.295480  0.578108  1
  F  F10  1  0.543097  0.287958  0.068678  1
  F  F11  1  0.057082  0.708160  0.416466  1
  F  F12  1  0.453834  0.279658  0.547103  1
  F  F13  1  0.940271  0.716252  0.966595  1
  F  F14  1  0.552836  0.724343  0.450521  1
  F  F15  1  0.020042  0.288618  0.044619  1
  F  F16  1  0.769020  0.508226  0.863104  1
  F  F17  1  0.270361  0.488380  0.635689  1
  F  F18  1  0.232513  0.486633  0.143170  1
  F  F19  1  0.728323  0.516238  0.359226  1
  F  F20  1  0.764884  0.041377  0.053450  1
  F  F21  1  0.260972  0.968095  0.451271  1
  F  F22  1  0.249138  0.964582  0.959403  1
  F  F23  1  0.748250  0.036310  0.544031  1
  F  F24  1  0.970890  0.732251  0.634616  1
  F  F25  1  0.507763  0.262278  0.857474  1
  F  F26  1  0.027554  0.275011  0.357010  1
  F  F27  1  0.541599  0.726719  0.134640  1
  F  F28  1  0.057974  0.742791  0.181062  1
  F  F29  1  0.540497  0.256165  0.325731  1
  F  F30  1  0.967987  0.251574  0.840645  1
  F  F31  1  0.455086  0.747884  0.670240  1
  F  F32  1  0.397974  0.964769  0.229718  1
  F  F33  1  0.915520  0.033517  0.276247  1
  F  F34  1  0.567355  0.012365  0.768794  1
  F  F35  1  0.069437  0.969228  0.741295  1
