# generated using pymatgen
data_Ca4Ga(SiPd2)2
_symmetry_space_group_name_H-M   'P 1'
_cell_length_a   10.95522371
_cell_length_b   10.99363189
_cell_length_c   7.81020661
_cell_angle_alpha   71.93123938
_cell_angle_beta   71.70032193
_cell_angle_gamma   30.86204076
_symmetry_Int_Tables_number   1
_chemical_formula_structural   Ca4Ga(SiPd2)2
_chemical_formula_sum   'Ca8 Ga2 Si4 Pd8'
_cell_volume   456.52475947
_cell_formula_units_Z   2
loop_
 _symmetry_equiv_pos_site_id
 _symmetry_equiv_pos_as_xyz
  1  'x, y, z'
loop_
 _atom_site_type_symbol
 _atom_site_label
 _atom_site_symmetry_multiplicity
 _atom_site_fract_x
 _atom_site_fract_y
 _atom_site_fract_z
 _atom_site_occupancy
  Ca  Ca0  1  0.929008  0.207321  0.329889  1
  Ca  Ca1  1  0.065346  0.797316  0.671720  1
  Ca  Ca2  1  0.791481  0.071194  0.167938  1
  Ca  Ca3  1  0.452477  0.203978  0.909744  1
  Ca  Ca4  1  0.789877  0.553914  0.594459  1
  Ca  Ca5  1  0.208335  0.448769  0.406747  1
  Ca  Ca6  1  0.204271  0.931514  0.831277  1
  Ca  Ca7  1  0.547959  0.793706  0.090458  1
  Ga  Ga8  1  0.303873  0.042529  0.431474  1
  Ga  Ga9  1  0.372442  0.626693  0.249558  1
  Si  Si10  1  0.040315  0.304431  0.934786  1
  Si  Si11  1  0.696952  0.958422  0.565651  1
  Si  Si12  1  0.961068  0.697564  0.061909  1
  Si  Si13  1  0.619604  0.378456  0.751221  1
  Pd  Pd14  1  0.580678  0.289210  0.533169  1
  Pd  Pd15  1  0.707187  0.419785  0.965046  1
  Pd  Pd16  1  0.299876  0.572954  0.018163  1
  Pd  Pd17  1  0.431349  0.689414  0.484916  1
  Pd  Pd18  1  0.655972  0.906622  0.318886  1
  Pd  Pd19  1  0.914034  0.642959  0.815720  1
  Pd  Pd20  1  0.362430  0.083912  0.689129  1
  Pd  Pd21  1  0.065465  0.379338  0.178139  1
