# generated using pymatgen
data_CaDy3ReB16W3
_symmetry_space_group_name_H-M   'P 1'
_cell_length_a   3.60652600
_cell_length_b   6.03755401
_cell_length_c   11.67072202
_cell_angle_alpha   89.99906779
_cell_angle_beta   90.00000000
_cell_angle_gamma   90.00000000
_symmetry_Int_Tables_number   1
_chemical_formula_structural   CaDy3ReB16W3
_chemical_formula_sum   'Ca1 Dy3 Re1 B16 W3'
_cell_volume   254.12525116
_cell_formula_units_Z   1
loop_
 _symmetry_equiv_pos_site_id
 _symmetry_equiv_pos_as_xyz
  1  'x, y, z'
loop_
 _atom_site_type_symbol
 _atom_site_label
 _atom_site_symmetry_multiplicity
 _atom_site_fract_x
 _atom_site_fract_y
 _atom_site_fract_z
 _atom_site_occupancy
  Ca  Ca0  1  0.000000  0.627547  0.349644  1
  Dy  Dy1  1  0.000000  0.373266  0.650006  1
  Dy  Dy2  1  0.000000  0.127743  0.149607  1
  Dy  Dy3  1  0.000000  0.873381  0.850537  1
  Re  Re4  1  0.000000  0.870686  0.585178  1
  B  B5  1  0.500000  0.787076  0.185945  1
  B  B6  1  0.500000  0.211893  0.813087  1
  B  B7  1  0.500000  0.286482  0.313645  1
  B  B8  1  0.500000  0.714749  0.684539  1
  B  B9  1  0.500000  0.866463  0.031625  1
  B  B10  1  0.500000  0.133430  0.967908  1
  B  B11  1  0.500000  0.366834  0.469267  1
  B  B12  1  0.500000  0.635085  0.532815  1
  B  B13  1  0.500000  0.882657  0.453776  1
  B  B14  1  0.500000  0.111061  0.549249  1
  B  B15  1  0.500000  0.385620  0.047024  1
  B  B16  1  0.500000  0.613625  0.952151  1
  B  B17  1  0.500000  0.976303  0.306766  1
  B  B18  1  0.500000  0.022197  0.692822  1
  B  B19  1  0.500000  0.476009  0.192920  1
  B  B20  1  0.500000  0.524713  0.806074  1
  W  W21  1  0.000000  0.630811  0.084042  1
  W  W22  1  0.000000  0.370310  0.914154  1
  W  W23  1  0.000000  0.132060  0.417222  1
