# generated using pymatgen
data_Tm5Co16(TcP4)3
_symmetry_space_group_name_H-M   'P 1'
_cell_length_a   11.97472200
_cell_length_b   11.97472197
_cell_length_c   3.69019700
_cell_angle_alpha   90.00000000
_cell_angle_beta   90.00000000
_cell_angle_gamma   119.99999455
_symmetry_Int_Tables_number   1
_chemical_formula_structural   Tm5Co16(TcP4)3
_chemical_formula_sum   'Tm5 Co16 Tc3 P12'
_cell_volume   458.25908707
_cell_formula_units_Z   1
loop_
 _symmetry_equiv_pos_site_id
 _symmetry_equiv_pos_as_xyz
  1  'x, y, z'
loop_
 _atom_site_type_symbol
 _atom_site_label
 _atom_site_symmetry_multiplicity
 _atom_site_fract_x
 _atom_site_fract_y
 _atom_site_fract_z
 _atom_site_occupancy
  Tm  Tm0  1  0.666667  0.333333  0.000000  1
  Tm  Tm1  1  0.333333  0.666667  0.000000  1
  Tm  Tm2  1  0.184383  0.184383  0.500000  1
  Tm  Tm3  1  0.815617  0.000000  0.500000  1
  Tm  Tm4  1  0.000000  0.815617  0.500000  1
  Co  Co5  1  0.821031  0.196370  0.000000  1
  Co  Co6  1  0.803630  0.624661  0.000000  1
  Co  Co7  1  0.375339  0.178969  0.000000  1
  Co  Co8  1  0.196370  0.821031  0.000000  1
  Co  Co9  1  0.624661  0.803630  0.000000  1
  Co  Co10  1  0.178969  0.375339  0.000000  1
  Co  Co11  1  0.643882  0.126731  0.500000  1
  Co  Co12  1  0.873269  0.517150  0.500000  1
  Co  Co13  1  0.482850  0.356118  0.500000  1
  Co  Co14  1  0.126731  0.643882  0.500000  1
  Co  Co15  1  0.517150  0.873269  0.500000  1
  Co  Co16  1  0.356118  0.482850  0.500000  1
  Co  Co17  1  0.718169  0.718169  0.500000  1
  Co  Co18  1  0.281831  0.000000  0.500000  1
  Co  Co19  1  0.000000  0.281831  0.500000  1
  Co  Co20  1  0.000000  0.000000  0.000000  1
  Tc  Tc21  1  0.554047  0.554047  0.000000  1
  Tc  Tc22  1  0.445953  0.000000  0.000000  1
  Tc  Tc23  1  0.000000  0.445953  0.000000  1
  P  P24  1  0.361887  0.361887  0.000000  1
  P  P25  1  0.638113  0.000000  0.000000  1
  P  P26  1  0.000000  0.638113  0.000000  1
  P  P27  1  0.834481  0.314407  0.500000  1
  P  P28  1  0.685593  0.520074  0.500000  1
  P  P29  1  0.479926  0.165519  0.500000  1
  P  P30  1  0.314407  0.834481  0.500000  1
  P  P31  1  0.520074  0.685593  0.500000  1
  P  P32  1  0.165519  0.479926  0.500000  1
  P  P33  1  0.821986  0.821986  0.000000  1
  P  P34  1  0.178014  0.000000  0.000000  1
  P  P35  1  0.000000  0.178014  0.000000  1
