# generated using pymatgen
data_Ac3Ga5SnO14
_symmetry_space_group_name_H-M   'P 1'
_cell_length_a   8.35700500
_cell_length_b   8.35465975
_cell_length_c   5.29180200
_cell_angle_alpha   90.03826732
_cell_angle_beta   90.00000000
_cell_angle_gamma   120.00929026
_symmetry_Int_Tables_number   1
_chemical_formula_structural   Ac3Ga5SnO14
_chemical_formula_sum   'Ac3 Ga5 Sn1 O14'
_cell_volume   319.94317788
_cell_formula_units_Z   1
loop_
 _symmetry_equiv_pos_site_id
 _symmetry_equiv_pos_as_xyz
  1  'x, y, z'
loop_
 _atom_site_type_symbol
 _atom_site_label
 _atom_site_symmetry_multiplicity
 _atom_site_fract_x
 _atom_site_fract_y
 _atom_site_fract_z
 _atom_site_occupancy
  Ac  Ac0  1  0.431541  0.000002  0.000000  1
  Ac  Ac1  1  0.999958  0.431426  0.999881  1
  Ac  Ac2  1  0.568530  0.568572  0.000120  1
  Ga  Ga3  1  0.333334  0.666822  0.475707  1
  Ga  Ga4  1  0.666515  0.333180  0.524290  1
  Ga  Ga5  1  0.759048  0.999999  0.499999  1
  Ga  Ga6  1  0.999749  0.758643  0.500191  1
  Ga  Ga7  1  0.241107  0.241358  0.499810  1
  Sn  Sn8  1  0.000113  0.999998  0.000004  1
  O  O9  1  0.226577  0.085640  0.239863  1
  O  O10  1  0.914789  0.141032  0.240185  1
  O  O11  1  0.859096  0.773817  0.240269  1
  O  O12  1  0.140938  0.914361  0.760138  1
  O  O13  1  0.773755  0.858968  0.759817  1
  O  O14  1  0.085279  0.226183  0.759733  1
  O  O15  1  0.455921  0.303232  0.688106  1
  O  O16  1  0.696831  0.152799  0.688259  1
  O  O17  1  0.846947  0.543941  0.688489  1
  O  O18  1  0.152685  0.696769  0.311891  1
  O  O19  1  0.544031  0.847201  0.311742  1
  O  O20  1  0.303005  0.456061  0.311515  1
  O  O21  1  0.333354  0.666658  0.819917  1
  O  O22  1  0.666698  0.333343  0.180080  1
