# generated using pymatgen
data_La3Nd5(DySn4)2
_symmetry_space_group_name_H-M   'P 1'
_cell_length_a   8.30675600
_cell_length_b   8.42604132
_cell_length_c   16.06790261
_cell_angle_alpha   90.03164004
_cell_angle_beta   90.00000000
_cell_angle_gamma   90.00000000
_symmetry_Int_Tables_number   1
_chemical_formula_structural   La3Nd5(DySn4)2
_chemical_formula_sum   'La6 Nd10 Dy4 Sn16'
_cell_volume   1124.64164960
_cell_formula_units_Z   2
loop_
 _symmetry_equiv_pos_site_id
 _symmetry_equiv_pos_as_xyz
  1  'x, y, z'
loop_
 _atom_site_type_symbol
 _atom_site_label
 _atom_site_symmetry_multiplicity
 _atom_site_fract_x
 _atom_site_fract_y
 _atom_site_fract_z
 _atom_site_occupancy
  La  La0  1  0.480715  0.680784  0.402263  1
  La  La1  1  0.980715  0.819216  0.097737  1
  La  La2  1  0.480502  0.680221  0.097624  1
  La  La3  1  0.980502  0.819779  0.402376  1
  La  La4  1  0.518801  0.318619  0.597734  1
  La  La5  1  0.018801  0.181381  0.902266  1
  Nd  Nd6  1  0.367197  0.837804  0.878879  1
  Nd  Nd7  1  0.867197  0.662196  0.621121  1
  Nd  Nd8  1  0.633112  0.161850  0.379459  1
  Nd  Nd9  1  0.133112  0.338150  0.120541  1
  Nd  Nd10  1  0.632948  0.162117  0.120709  1
  Nd  Nd11  1  0.132948  0.337883  0.379291  1
  Nd  Nd12  1  0.366585  0.837972  0.620869  1
  Nd  Nd13  1  0.866585  0.662028  0.879131  1
  Nd  Nd14  1  0.520029  0.319337  0.900706  1
  Nd  Nd15  1  0.020029  0.180663  0.599294  1
  Dy  Dy16  1  0.199814  0.502214  0.750017  1
  Dy  Dy17  1  0.699814  0.997786  0.749983  1
  Dy  Dy18  1  0.800197  0.496964  0.249897  1
  Dy  Dy19  1  0.300197  0.003036  0.250103  1
  Sn  Sn20  1  0.294353  0.036134  0.044351  1
  Sn  Sn21  1  0.794353  0.463866  0.455649  1
  Sn  Sn22  1  0.708429  0.966276  0.545496  1
  Sn  Sn23  1  0.208429  0.533724  0.954504  1
  Sn  Sn24  1  0.704905  0.965714  0.954900  1
  Sn  Sn25  1  0.204905  0.534286  0.545100  1
  Sn  Sn26  1  0.291744  0.036781  0.456490  1
  Sn  Sn27  1  0.791744  0.463219  0.043510  1
  Sn  Sn28  1  0.565263  0.617724  0.750180  1
  Sn  Sn29  1  0.065263  0.882276  0.749820  1
  Sn  Sn30  1  0.434984  0.381136  0.250131  1
  Sn  Sn31  1  0.934984  0.118864  0.249869  1
  Sn  Sn32  1  0.325255  0.144968  0.750693  1
  Sn  Sn33  1  0.825255  0.355032  0.749307  1
  Sn  Sn34  1  0.675166  0.855970  0.250056  1
  Sn  Sn35  1  0.175166  0.644030  0.249944  1
