# generated using pymatgen
data_Ho5Pb3N
_symmetry_space_group_name_H-M   'P 1'
_cell_length_a   9.14643479
_cell_length_b   9.14643529
_cell_length_c   9.14643509
_cell_angle_alpha   126.14553609
_cell_angle_beta   126.14553385
_cell_angle_gamma   79.64907701
_symmetry_Int_Tables_number   1
_chemical_formula_structural   Ho5Pb3N
_chemical_formula_sum   'Ho10 Pb6 N2'
_cell_volume   482.06670749
_cell_formula_units_Z   2
loop_
 _symmetry_equiv_pos_site_id
 _symmetry_equiv_pos_as_xyz
  1  'x, y, z'
loop_
 _atom_site_type_symbol
 _atom_site_label
 _atom_site_symmetry_multiplicity
 _atom_site_fract_x
 _atom_site_fract_y
 _atom_site_fract_z
 _atom_site_occupancy
  Ho  Ho0  1  0.994725  0.201614  0.500000  1
  Ho  Ho1  1  0.798386  0.298386  0.793111  1
  Ho  Ho2  1  0.494725  0.994725  0.793111  1
  Ho  Ho3  1  0.505275  0.005275  0.206889  1
  Ho  Ho4  1  0.005275  0.798386  0.500000  1
  Ho  Ho5  1  0.500000  0.500000  0.000000  1
  Ho  Ho6  1  0.201614  0.701614  0.206889  1
  Ho  Ho7  1  0.701614  0.494725  0.500000  1
  Ho  Ho8  1  0.298386  0.505275  0.500000  1
  Ho  Ho9  1  0.000000  0.000000  0.000000  1
  Pb  Pb10  1  0.850481  0.350481  0.200963  1
  Pb  Pb11  1  0.149519  0.649519  0.799037  1
  Pb  Pb12  1  0.350481  0.149519  0.500000  1
  Pb  Pb13  1  0.750000  0.750000  0.000000  1
  Pb  Pb14  1  0.649519  0.850481  0.500000  1
  Pb  Pb15  1  0.250000  0.250000  0.000000  1
  N  N16  1  0.750000  0.250000  0.500000  1
  N  N17  1  0.250000  0.750000  0.500000  1
