# generated using pymatgen
data_LiTb4Y5Cd3Ru
_symmetry_space_group_name_H-M   'P 1'
_cell_length_a   9.50363573
_cell_length_b   9.50266313
_cell_length_c   9.74250298
_cell_angle_alpha   89.99999920
_cell_angle_beta   90.04450000
_cell_angle_gamma   119.99661141
_symmetry_Int_Tables_number   1
_chemical_formula_structural   LiTb4Y5Cd3Ru
_chemical_formula_sum   'Li2 Tb8 Y10 Cd6 Ru2'
_cell_volume   761.99294114
_cell_formula_units_Z   2
loop_
 _symmetry_equiv_pos_site_id
 _symmetry_equiv_pos_as_xyz
  1  'x, y, z'
loop_
 _atom_site_type_symbol
 _atom_site_label
 _atom_site_symmetry_multiplicity
 _atom_site_fract_x
 _atom_site_fract_y
 _atom_site_fract_z
 _atom_site_occupancy
  Li  Li0  1  0.000025  0.000013  0.500076  1
  Li  Li1  1  0.000095  0.000047  0.000066  1
  Tb  Tb2  1  0.208121  0.791829  0.441206  1
  Tb  Tb3  1  0.208121  0.416293  0.441206  1
  Tb  Tb4  1  0.583746  0.791873  0.441207  1
  Tb  Tb5  1  0.791866  0.208040  0.558651  1
  Tb  Tb6  1  0.791866  0.583825  0.558651  1
  Tb  Tb7  1  0.416232  0.208116  0.558698  1
  Tb  Tb8  1  0.791823  0.208051  0.941228  1
  Tb  Tb9  1  0.791823  0.583771  0.941228  1
  Y  Y10  1  0.415483  0.207741  0.941800  1
  Y  Y11  1  0.208018  0.792003  0.058304  1
  Y  Y12  1  0.208018  0.416016  0.058304  1
  Y  Y13  1  0.584020  0.792011  0.058327  1
  Y  Y14  1  0.542346  0.457536  0.249982  1
  Y  Y15  1  0.542346  0.084811  0.249982  1
  Y  Y16  1  0.915150  0.457575  0.249975  1
  Y  Y17  1  0.457531  0.542432  0.749985  1
  Y  Y18  1  0.457531  0.915098  0.749985  1
  Y  Y19  1  0.084916  0.542457  0.750069  1
  Cd  Cd20  1  0.891698  0.108286  0.249875  1
  Cd  Cd21  1  0.891698  0.783413  0.249875  1
  Cd  Cd22  1  0.216651  0.108326  0.249687  1
  Cd  Cd23  1  0.108426  0.891730  0.750270  1
  Cd  Cd24  1  0.108426  0.216695  0.750270  1
  Cd  Cd25  1  0.783182  0.891591  0.750170  1
  Ru  Ru26  1  0.333362  0.666681  0.251600  1
  Ru  Ru27  1  0.667479  0.333739  0.749324  1
