# generated using pymatgen
data_CaCe(Cu9Si4)2
_symmetry_space_group_name_H-M   'P 1'
_cell_length_a   8.14593091
_cell_length_b   8.14593082
_cell_length_c   8.14593066
_cell_angle_alpha   120.42901246
_cell_angle_beta   120.42902615
_cell_angle_gamma   89.25851184
_symmetry_Int_Tables_number   1
_chemical_formula_structural   CaCe(Cu9Si4)2
_chemical_formula_sum   'Ca1 Ce1 Cu18 Si8'
_cell_volume   379.70149483
_cell_formula_units_Z   1
loop_
 _symmetry_equiv_pos_site_id
 _symmetry_equiv_pos_as_xyz
  1  'x, y, z'
loop_
 _atom_site_type_symbol
 _atom_site_label
 _atom_site_symmetry_multiplicity
 _atom_site_fract_x
 _atom_site_fract_y
 _atom_site_fract_z
 _atom_site_occupancy
  Ca  Ca0  1  0.750000  0.750000  0.000000  1
  Ce  Ce1  1  0.250000  0.250000  0.000000  1
  Cu  Cu2  1  0.935925  0.202591  0.137373  1
  Cu  Cu3  1  0.202591  0.065219  0.266667  1
  Cu  Cu4  1  0.798552  0.935925  0.733333  1
  Cu  Cu5  1  0.434781  0.297409  0.733333  1
  Cu  Cu6  1  0.065219  0.798552  0.862627  1
  Cu  Cu7  1  0.806878  0.057657  0.499100  1
  Cu  Cu8  1  0.558558  0.307779  0.500900  1
  Cu  Cu9  1  0.192221  0.941442  0.499100  1
  Cu  Cu10  1  0.442343  0.693122  0.500900  1
  Cu  Cu11  1  0.941442  0.442343  0.749221  1
  Cu  Cu12  1  0.693122  0.192221  0.250779  1
  Cu  Cu13  1  0.057657  0.558558  0.250779  1
  Cu  Cu14  1  0.701448  0.434781  0.137373  1
  Cu  Cu15  1  0.564075  0.701448  0.266667  1
  Cu  Cu16  1  0.500000  0.000000  0.500000  1
  Cu  Cu17  1  0.000000  0.500000  0.500000  1
  Cu  Cu18  1  0.307779  0.806878  0.749221  1
  Cu  Cu19  1  0.297409  0.564075  0.862627  1
  Si  Si20  1  0.795251  0.291565  0.851186  1
  Si  Si21  1  0.555935  0.059622  0.851186  1
  Si  Si22  1  0.059622  0.208435  0.503687  1
  Si  Si23  1  0.291565  0.440378  0.496313  1
  Si  Si24  1  0.944065  0.795251  0.503687  1
  Si  Si25  1  0.440378  0.944065  0.148814  1
  Si  Si26  1  0.208435  0.704749  0.148814  1
  Si  Si27  1  0.704749  0.555935  0.496313  1
