# generated using pymatgen
data_Hf4Ta2Al16Ir5Pt2
_symmetry_space_group_name_H-M   'P 1'
_cell_length_a   8.65694386
_cell_length_b   8.70095173
_cell_length_c   8.70079205
_cell_angle_alpha   59.67390542
_cell_angle_beta   60.17038756
_cell_angle_gamma   60.16858145
_symmetry_Int_Tables_number   1
_chemical_formula_structural   Hf4Ta2Al16Ir5Pt2
_chemical_formula_sum   'Hf4 Ta2 Al16 Ir5 Pt2'
_cell_volume   463.44245624
_cell_formula_units_Z   1
loop_
 _symmetry_equiv_pos_site_id
 _symmetry_equiv_pos_as_xyz
  1  'x, y, z'
loop_
 _atom_site_type_symbol
 _atom_site_label
 _atom_site_symmetry_multiplicity
 _atom_site_fract_x
 _atom_site_fract_y
 _atom_site_fract_z
 _atom_site_occupancy
  Hf  Hf0  1  0.318445  0.681566  0.318427  1
  Hf  Hf1  1  0.318438  0.318421  0.681573  1
  Hf  Hf2  1  0.681554  0.318434  0.681571  1
  Hf  Hf3  1  0.681561  0.681578  0.318427  1
  Ta  Ta4  1  0.678174  0.321829  0.321828  1
  Ta  Ta5  1  0.321825  0.678170  0.678171  1
  Al  Al6  1  0.340801  0.336236  0.336235  1
  Al  Al7  1  0.336258  0.340806  0.986694  1
  Al  Al8  1  0.986691  0.336261  0.336264  1
  Al  Al9  1  0.336257  0.986692  0.340806  1
  Al  Al10  1  0.659198  0.663764  0.663765  1
  Al  Al11  1  0.663742  0.659195  0.013306  1
  Al  Al12  1  0.663743  0.013308  0.659194  1
  Al  Al13  1  0.013310  0.663739  0.663736  1
  Al  Al14  1  0.113082  0.122756  0.122747  1
  Al  Al15  1  0.122770  0.113066  0.641432  1
  Al  Al16  1  0.641481  0.122754  0.122763  1
  Al  Al17  1  0.122761  0.641432  0.113066  1
  Al  Al18  1  0.886917  0.877243  0.877253  1
  Al  Al19  1  0.877229  0.886933  0.358570  1
  Al  Al20  1  0.877238  0.358570  0.886933  1
  Al  Al21  1  0.358522  0.877245  0.877236  1
  Ir  Ir22  1  0.000000  0.000000  0.000000  1
  Ir  Ir23  1  0.000000  0.500000  0.000000  1
  Ir  Ir24  1  0.000000  0.000000  0.500000  1
  Ir  Ir25  1  0.500000  0.000000  0.500000  1
  Ir  Ir26  1  0.500000  0.500000  0.000000  1
  Pt  Pt27  1  0.500000  0.000000  0.000001  1
  Pt  Pt28  1  0.000000  0.500000  0.500000  1
