# generated using pymatgen
data_LiTh2Zn4Sn
_symmetry_space_group_name_H-M   'P 1'
_cell_length_a   8.62598772
_cell_length_b   8.62598737
_cell_length_c   9.05277100
_cell_angle_alpha   90.00000000
_cell_angle_beta   90.00000000
_cell_angle_gamma   149.76692548
_symmetry_Int_Tables_number   1
_chemical_formula_structural   LiTh2Zn4Sn
_chemical_formula_sum   'Li2 Th4 Zn8 Sn2'
_cell_volume   339.16798878
_cell_formula_units_Z   2
loop_
 _symmetry_equiv_pos_site_id
 _symmetry_equiv_pos_as_xyz
  1  'x, y, z'
loop_
 _atom_site_type_symbol
 _atom_site_label
 _atom_site_symmetry_multiplicity
 _atom_site_fract_x
 _atom_site_fract_y
 _atom_site_fract_z
 _atom_site_occupancy
  Li  Li0  1  0.397076  0.602924  0.250000  1
  Li  Li1  1  0.602924  0.397076  0.750000  1
  Th  Th2  1  0.205211  0.794789  0.250000  1
  Th  Th3  1  0.794789  0.205211  0.750000  1
  Th  Th4  1  0.000000  0.000000  0.500000  1
  Th  Th5  1  0.000000  0.000000  0.000000  1
  Zn  Zn6  1  0.816311  0.183689  0.390555  1
  Zn  Zn7  1  0.183689  0.816311  0.609445  1
  Zn  Zn8  1  0.816311  0.183689  0.109445  1
  Zn  Zn9  1  0.183689  0.816311  0.890555  1
  Zn  Zn10  1  0.657778  0.342222  0.483509  1
  Zn  Zn11  1  0.342222  0.657778  0.516491  1
  Zn  Zn12  1  0.657778  0.342222  0.016491  1
  Zn  Zn13  1  0.342222  0.657778  0.983509  1
  Sn  Sn14  1  0.554332  0.445668  0.250000  1
  Sn  Sn15  1  0.445668  0.554332  0.750000  1
