# generated using pymatgen
data_TbU5(Cu2S7)2
_symmetry_space_group_name_H-M   'P 1'
_cell_length_a   9.72560967
_cell_length_b   9.67726799
_cell_length_c   5.65328980
_cell_angle_alpha   90.20521247
_cell_angle_beta   89.79770298
_cell_angle_gamma   120.23061431
_symmetry_Int_Tables_number   1
_chemical_formula_structural   TbU5(Cu2S7)2
_chemical_formula_sum   'Tb1 U5 Cu4 S14'
_cell_volume   459.70995604
_cell_formula_units_Z   1
loop_
 _symmetry_equiv_pos_site_id
 _symmetry_equiv_pos_as_xyz
  1  'x, y, z'
loop_
 _atom_site_type_symbol
 _atom_site_label
 _atom_site_symmetry_multiplicity
 _atom_site_fract_x
 _atom_site_fract_y
 _atom_site_fract_z
 _atom_site_occupancy
  Tb  Tb0  1  0.227275  0.848584  0.031503  1
  U  U1  1  0.148632  0.380029  0.028373  1
  U  U2  1  0.850048  0.621516  0.530626  1
  U  U3  1  0.619862  0.772865  0.027723  1
  U  U4  1  0.769071  0.150413  0.534033  1
  U  U5  1  0.379421  0.230279  0.531029  1
  Cu  Cu6  1  0.667079  0.333746  0.151095  1
  Cu  Cu7  1  0.333882  0.664858  0.649144  1
  Cu  Cu8  1  0.000224  0.000484  0.499452  1
  Cu  Cu9  1  0.000348  0.999186  0.000298  1
  S  S10  1  0.666630  0.334459  0.751821  1
  S  S11  1  0.568806  0.487743  0.284151  1
  S  S12  1  0.152603  0.892377  0.515771  1
  S  S13  1  0.515467  0.082710  0.286343  1
  S  S14  1  0.433354  0.513064  0.783167  1
  S  S15  1  0.491570  0.919032  0.779507  1
  S  S16  1  0.846986  0.107299  0.016578  1
  S  S17  1  0.078239  0.562184  0.778163  1
  S  S18  1  0.739101  0.846109  0.512549  1
  S  S19  1  0.335945  0.663193  0.250574  1
  S  S20  1  0.919426  0.432706  0.281878  1
  S  S21  1  0.261707  0.158931  0.015605  1
  S  S22  1  0.108471  0.262522  0.514214  1
  S  S23  1  0.885851  0.735710  0.012804  1
