# generated using pymatgen
data_Li2NdTmSi2Sn
_symmetry_space_group_name_H-M   'P 1'
_cell_length_a   9.59465679
_cell_length_b   9.59465689
_cell_length_c   6.85267100
_cell_angle_alpha   90.00000000
_cell_angle_beta   90.00000000
_cell_angle_gamma   153.32992069
_symmetry_Int_Tables_number   1
_chemical_formula_structural   Li2NdTmSi2Sn
_chemical_formula_sum   'Li4 Nd2 Tm2 Si4 Sn2'
_cell_volume   283.15375928
_cell_formula_units_Z   2
loop_
 _symmetry_equiv_pos_site_id
 _symmetry_equiv_pos_as_xyz
  1  'x, y, z'
loop_
 _atom_site_type_symbol
 _atom_site_label
 _atom_site_symmetry_multiplicity
 _atom_site_fract_x
 _atom_site_fract_y
 _atom_site_fract_z
 _atom_site_occupancy
  Li  Li0  1  0.184909  0.815091  0.055148  1
  Li  Li1  1  0.184909  0.815091  0.444852  1
  Li  Li2  1  0.815091  0.184909  0.944852  1
  Li  Li3  1  0.815091  0.184909  0.555148  1
  Nd  Nd4  1  0.550067  0.449933  0.250000  1
  Nd  Nd5  1  0.449933  0.550067  0.750000  1
  Tm  Tm6  1  0.351813  0.648187  0.250000  1
  Tm  Tm7  1  0.648187  0.351813  0.750000  1
  Si  Si8  1  0.058593  0.941407  0.925473  1
  Si  Si9  1  0.941407  0.058593  0.074527  1
  Si  Si10  1  0.941407  0.058593  0.425473  1
  Si  Si11  1  0.058593  0.941407  0.574527  1
  Sn  Sn12  1  0.722316  0.277684  0.250000  1
  Sn  Sn13  1  0.277684  0.722316  0.750000  1
