# generated using pymatgen
data_KThGe4N7
_symmetry_space_group_name_H-M   'P 1'
_cell_length_a   6.33885900
_cell_length_b   6.33885931
_cell_length_c   10.40581100
_cell_angle_alpha   90.00000000
_cell_angle_beta   90.00000000
_cell_angle_gamma   120.00000358
_symmetry_Int_Tables_number   1
_chemical_formula_structural   KThGe4N7
_chemical_formula_sum   'K2 Th2 Ge8 N14'
_cell_volume   362.10019132
_cell_formula_units_Z   2
loop_
 _symmetry_equiv_pos_site_id
 _symmetry_equiv_pos_as_xyz
  1  'x, y, z'
loop_
 _atom_site_type_symbol
 _atom_site_label
 _atom_site_symmetry_multiplicity
 _atom_site_fract_x
 _atom_site_fract_y
 _atom_site_fract_z
 _atom_site_occupancy
  K  K0  1  0.333333  0.666667  0.364077  1
  K  K1  1  0.666667  0.333333  0.864077  1
  Th  Th2  1  0.333333  0.666667  0.735664  1
  Th  Th3  1  0.666667  0.333333  0.235664  1
  Ge  Ge4  1  0.826485  0.652968  0.546248  1
  Ge  Ge5  1  0.173515  0.826485  0.046248  1
  Ge  Ge6  1  0.652968  0.826485  0.046248  1
  Ge  Ge7  1  0.347032  0.173515  0.546248  1
  Ge  Ge8  1  0.826485  0.173515  0.546248  1
  Ge  Ge9  1  0.173515  0.347032  0.046248  1
  Ge  Ge10  1  0.000000  0.000000  0.813601  1
  Ge  Ge11  1  0.000000  0.000000  0.313601  1
  N  N12  1  0.000000  0.000000  0.621488  1
  N  N13  1  0.000000  0.000000  0.121488  1
  N  N14  1  0.157554  0.315107  0.870454  1
  N  N15  1  0.842446  0.157554  0.370454  1
  N  N16  1  0.315107  0.157554  0.370454  1
  N  N17  1  0.684893  0.842446  0.870454  1
  N  N18  1  0.157554  0.842446  0.870454  1
  N  N19  1  0.842446  0.684893  0.370454  1
  N  N20  1  0.984000  0.492001  0.602988  1
  N  N21  1  0.492001  0.984000  0.102988  1
  N  N22  1  0.492001  0.507999  0.102988  1
  N  N23  1  0.507999  0.492001  0.602988  1
  N  N24  1  0.016000  0.507999  0.102988  1
  N  N25  1  0.507999  0.016000  0.602988  1
