# generated using pymatgen
data_Pm2S11
_symmetry_space_group_name_H-M   'P 1'
_cell_length_a   5.22813357
_cell_length_b   8.02536994
_cell_length_c   12.26197148
_cell_angle_alpha   71.32319547
_cell_angle_beta   61.04289038
_cell_angle_gamma   71.28078368
_symmetry_Int_Tables_number   1
_chemical_formula_structural   Pm2S11
_chemical_formula_sum   'Pm2 S11'
_cell_volume   417.83127920
_cell_formula_units_Z   1
loop_
 _symmetry_equiv_pos_site_id
 _symmetry_equiv_pos_as_xyz
  1  'x, y, z'
loop_
 _atom_site_type_symbol
 _atom_site_label
 _atom_site_symmetry_multiplicity
 _atom_site_fract_x
 _atom_site_fract_y
 _atom_site_fract_z
 _atom_site_occupancy
  Pm  Pm0  1  0.264476  0.087560  0.242988  1
  Pm  Pm1  1  0.163884  0.564994  0.329356  1
  S  S2  1  0.830172  0.909878  0.270236  1
  S  S3  1  0.246815  0.850509  0.117685  1
  S  S4  1  0.894403  0.250639  0.450953  1
  S  S5  1  0.577790  0.369733  0.121856  1
  S  S6  1  0.811153  0.806814  0.591072  1
  S  S7  1  0.945403  0.376474  0.726292  1
  S  S8  1  0.635930  0.238841  0.873067  1
  S  S9  1  0.788080  0.408699  0.299782  1
  S  S10  1  0.725653  0.564843  0.612950  1
  S  S11  1  0.253636  0.787268  0.451371  1
  S  S12  1  0.353582  0.388535  0.013962  1
