# generated using pymatgen
data_KTm(CuO2)4
_symmetry_space_group_name_H-M   'P 1'
_cell_length_a   6.29792542
_cell_length_b   6.29792595
_cell_length_c   6.29792602
_cell_angle_alpha   124.36418522
_cell_angle_beta   124.36419778
_cell_angle_gamma   82.59382855
_symmetry_Int_Tables_number   1
_chemical_formula_structural   KTm(CuO2)4
_chemical_formula_sum   'K1 Tm1 Cu4 O8'
_cell_volume   163.48300817
_cell_formula_units_Z   1
loop_
 _symmetry_equiv_pos_site_id
 _symmetry_equiv_pos_as_xyz
  1  'x, y, z'
loop_
 _atom_site_type_symbol
 _atom_site_label
 _atom_site_symmetry_multiplicity
 _atom_site_fract_x
 _atom_site_fract_y
 _atom_site_fract_z
 _atom_site_occupancy
  K  K0  1  0.750000  0.250000  0.500000  1
  Tm  Tm1  1  0.000000  0.000000  0.000000  1
  Cu  Cu2  1  0.394893  0.630393  0.275246  1
  Cu  Cu3  1  0.369607  0.644853  0.764501  1
  Cu  Cu4  1  0.880353  0.605107  0.235499  1
  Cu  Cu5  1  0.355147  0.119647  0.724754  1
  O  O6  1  0.199278  0.640052  0.923877  1
  O  O7  1  0.716175  0.275402  0.076123  1
  O  O8  1  0.303449  0.974502  0.886626  1
  O  O9  1  0.724598  0.800722  0.440772  1
  O  O10  1  0.087876  0.416823  0.113374  1
  O  O11  1  0.359948  0.283825  0.559228  1
  O  O12  1  0.025498  0.912124  0.328947  1
  O  O13  1  0.583177  0.696551  0.671053  1
