# generated using pymatgen
data_Ti7VAs4
_symmetry_space_group_name_H-M   'P 1'
_cell_length_a   6.61341896
_cell_length_b   3.49195100
_cell_length_c   8.20133675
_cell_angle_alpha   90.00000000
_cell_angle_beta   90.17725607
_cell_angle_gamma   90.00000000
_symmetry_Int_Tables_number   1
_chemical_formula_structural   Ti7VAs4
_chemical_formula_sum   'Ti7 V1 As4'
_cell_volume   189.39859084
_cell_formula_units_Z   1
loop_
 _symmetry_equiv_pos_site_id
 _symmetry_equiv_pos_as_xyz
  1  'x, y, z'
loop_
 _atom_site_type_symbol
 _atom_site_label
 _atom_site_symmetry_multiplicity
 _atom_site_fract_x
 _atom_site_fract_y
 _atom_site_fract_z
 _atom_site_occupancy
  Ti  Ti0  1  0.444956  0.250000  0.166785  1
  Ti  Ti1  1  0.951396  0.250000  0.328300  1
  Ti  Ti2  1  0.634136  0.749999  0.437111  1
  Ti  Ti3  1  0.362815  0.250000  0.562656  1
  Ti  Ti4  1  0.048893  0.749999  0.671167  1
  Ti  Ti5  1  0.548097  0.749999  0.831560  1
  Ti  Ti6  1  0.872359  0.250000  0.940161  1
  V  V7  1  0.135879  0.749999  0.060466  1
  As  As8  1  0.748213  0.749999  0.138941  1
  As  As9  1  0.245188  0.749999  0.358107  1
  As  As10  1  0.753441  0.250000  0.640161  1
  As  As11  1  0.254625  0.250000  0.864588  1
