# generated using pymatgen
data_Ce2Y2Zn7CoRu2
_symmetry_space_group_name_H-M   'P 1'
_cell_length_a   7.10787101
_cell_length_b   7.10787101
_cell_length_c   5.08675434
_cell_angle_alpha   90.60553602
_cell_angle_beta   90.60553602
_cell_angle_gamma   89.84290395
_symmetry_Int_Tables_number   1
_chemical_formula_structural   Ce2Y2Zn7CoRu2
_chemical_formula_sum   'Ce2 Y2 Zn7 Co1 Ru2'
_cell_volume   256.96254670
_cell_formula_units_Z   1
loop_
 _symmetry_equiv_pos_site_id
 _symmetry_equiv_pos_as_xyz
  1  'x, y, z'
loop_
 _atom_site_type_symbol
 _atom_site_label
 _atom_site_symmetry_multiplicity
 _atom_site_fract_x
 _atom_site_fract_y
 _atom_site_fract_z
 _atom_site_occupancy
  Ce  Ce0  1  0.015760  0.982803  0.015666  1
  Ce  Ce1  1  0.482803  0.515760  0.015666  1
  Y  Y2  1  0.002894  0.502894  0.769678  1
  Y  Y3  1  0.499165  0.999165  0.235867  1
  Zn  Zn4  1  0.825219  0.681269  0.294751  1
  Zn  Zn5  1  0.807130  0.307130  0.286946  1
  Zn  Zn6  1  0.318636  0.184517  0.717302  1
  Zn  Zn7  1  0.181269  0.325219  0.294751  1
  Zn  Zn8  1  0.691659  0.191659  0.734870  1
  Zn  Zn9  1  0.684517  0.818636  0.717302  1
  Zn  Zn10  1  0.301764  0.801764  0.670496  1
  Co  Co11  1  0.186218  0.686218  0.226212  1
  Ru  Ru12  1  0.504877  0.498089  0.510246  1
  Ru  Ru13  1  0.998089  0.004877  0.510246  1
