# generated using pymatgen
data_Hf18Ta6FeMo2S
_symmetry_space_group_name_H-M   'P 1'
_cell_length_a   8.57602100
_cell_length_b   8.79758881
_cell_length_c   8.79758901
_cell_angle_alpha   119.99732204
_cell_angle_beta   90.00000000
_cell_angle_gamma   90.00000000
_symmetry_Int_Tables_number   1
_chemical_formula_structural   Hf18Ta6FeMo2S
_chemical_formula_sum   'Hf18 Ta6 Fe1 Mo2 S1'
_cell_volume   574.85129685
_cell_formula_units_Z   1
loop_
 _symmetry_equiv_pos_site_id
 _symmetry_equiv_pos_as_xyz
  1  'x, y, z'
loop_
 _atom_site_type_symbol
 _atom_site_label
 _atom_site_symmetry_multiplicity
 _atom_site_fract_x
 _atom_site_fract_y
 _atom_site_fract_z
 _atom_site_occupancy
  Hf  Hf0  1  0.553075  0.801720  0.603424  1
  Hf  Hf1  1  0.553086  0.801701  0.198299  1
  Hf  Hf2  1  0.553075  0.396576  0.198280  1
  Hf  Hf3  1  0.439824  0.203941  0.407889  1
  Hf  Hf4  1  0.439811  0.203947  0.796053  1
  Hf  Hf5  1  0.439824  0.592111  0.796059  1
  Hf  Hf6  1  0.060176  0.203941  0.407889  1
  Hf  Hf7  1  0.060189  0.203947  0.796053  1
  Hf  Hf8  1  0.060176  0.592111  0.796059  1
  Hf  Hf9  1  0.946925  0.801720  0.603424  1
  Hf  Hf10  1  0.946914  0.801701  0.198299  1
  Hf  Hf11  1  0.946925  0.396576  0.198280  1
  Hf  Hf12  1  0.750000  0.451814  0.903599  1
  Hf  Hf13  1  0.750000  0.451843  0.548157  1
  Hf  Hf14  1  0.750000  0.096401  0.548185  1
  Hf  Hf15  1  0.250000  0.540413  0.080829  1
  Hf  Hf16  1  0.250000  0.540406  0.459594  1
  Hf  Hf17  1  0.250000  0.919171  0.459586  1
  Ta  Ta18  1  0.750000  0.111531  0.223090  1
  Ta  Ta19  1  0.750000  0.111537  0.888463  1
  Ta  Ta20  1  0.750000  0.776910  0.888469  1
  Ta  Ta21  1  0.250000  0.887225  0.774430  1
  Ta  Ta22  1  0.250000  0.887211  0.112789  1
  Ta  Ta23  1  0.250000  0.225570  0.112775  1
  Fe  Fe24  1  0.250000  0.333353  0.666647  1
  Mo  Mo25  1  0.498809  0.000000  0.000000  1
  Mo  Mo26  1  0.001191  0.000000  0.000000  1
  S  S27  1  0.750000  0.666621  0.333379  1
