# generated using pymatgen
data_Nd2Co9Si7Ru3
_symmetry_space_group_name_H-M   'P 1'
_cell_length_a   3.77329500
_cell_length_b   9.25351023
_cell_length_c   9.25351000
_cell_angle_alpha   119.99999918
_cell_angle_beta   90.00000000
_cell_angle_gamma   90.00000000
_symmetry_Int_Tables_number   1
_chemical_formula_structural   Nd2Co9Si7Ru3
_chemical_formula_sum   'Nd2 Co9 Si7 Ru3'
_cell_volume   279.81075510
_cell_formula_units_Z   1
loop_
 _symmetry_equiv_pos_site_id
 _symmetry_equiv_pos_as_xyz
  1  'x, y, z'
loop_
 _atom_site_type_symbol
 _atom_site_label
 _atom_site_symmetry_multiplicity
 _atom_site_fract_x
 _atom_site_fract_y
 _atom_site_fract_z
 _atom_site_occupancy
  Nd  Nd0  1  0.000000  0.666667  0.333333  1
  Nd  Nd1  1  0.500000  0.333333  0.666667  1
  Co  Co2  1  0.000000  0.569871  0.945502  1
  Co  Co3  1  0.000000  0.375630  0.430129  1
  Co  Co4  1  0.000000  0.054498  0.624370  1
  Co  Co5  1  0.000000  0.872019  0.152045  1
  Co  Co6  1  0.000000  0.280027  0.127981  1
  Co  Co7  1  0.000000  0.847955  0.719973  1
  Co  Co8  1  0.500000  0.947754  0.382168  1
  Co  Co9  1  0.500000  0.434414  0.052246  1
  Co  Co10  1  0.500000  0.617832  0.565586  1
  Si  Si11  1  0.000000  0.000000  0.000000  1
  Si  Si12  1  0.500000  0.707980  0.106702  1
  Si  Si13  1  0.500000  0.398722  0.292020  1
  Si  Si14  1  0.500000  0.893298  0.601278  1
  Si  Si15  1  0.000000  0.598650  0.704856  1
  Si  Si16  1  0.000000  0.106208  0.401350  1
  Si  Si17  1  0.000000  0.295144  0.893792  1
  Ru  Ru18  1  0.500000  0.785188  0.897647  1
  Ru  Ru19  1  0.500000  0.112459  0.214812  1
  Ru  Ru20  1  0.500000  0.102353  0.887541  1
