# generated using pymatgen
data_Na(NdSn4)3
_symmetry_space_group_name_H-M   'P 1'
_cell_length_a   12.12649570
_cell_length_b   12.12649609
_cell_length_c   12.12649609
_cell_angle_alpha   31.71026590
_cell_angle_beta   31.71026380
_cell_angle_gamma   31.71026444
_symmetry_Int_Tables_number   1
_chemical_formula_structural   Na(NdSn4)3
_chemical_formula_sum   'Na1 Nd3 Sn12'
_cell_volume   437.53584175
_cell_formula_units_Z   1
loop_
 _symmetry_equiv_pos_site_id
 _symmetry_equiv_pos_as_xyz
  1  'x, y, z'
loop_
 _atom_site_type_symbol
 _atom_site_label
 _atom_site_symmetry_multiplicity
 _atom_site_fract_x
 _atom_site_fract_y
 _atom_site_fract_z
 _atom_site_occupancy
  Na  Na0  1  0.290818  0.290818  0.290818  1
  Nd  Nd1  1  0.877958  0.877958  0.877958  1
  Nd  Nd2  1  0.121263  0.121263  0.121263  1
  Nd  Nd3  1  0.708490  0.708490  0.708490  1
  Sn  Sn4  1  0.292605  0.793348  0.793348  1
  Sn  Sn5  1  0.793348  0.793348  0.292605  1
  Sn  Sn6  1  0.863444  0.381118  0.381118  1
  Sn  Sn7  1  0.381118  0.381118  0.863444  1
  Sn  Sn8  1  0.381118  0.863444  0.381118  1
  Sn  Sn9  1  0.620814  0.135383  0.620814  1
  Sn  Sn10  1  0.135383  0.620814  0.620814  1
  Sn  Sn11  1  0.620814  0.620814  0.135383  1
  Sn  Sn12  1  0.793348  0.292605  0.793348  1
  Sn  Sn13  1  0.210422  0.698637  0.210422  1
  Sn  Sn14  1  0.210422  0.210422  0.698637  1
  Sn  Sn15  1  0.698637  0.210422  0.210422  1
