# generated using pymatgen
data_Er11PaGa20
_symmetry_space_group_name_H-M   'P 1'
_cell_length_a   6.09876653
_cell_length_b   9.57619917
_cell_length_c   11.42459536
_cell_angle_alpha   89.98165992
_cell_angle_beta   89.84646586
_cell_angle_gamma   89.98847214
_symmetry_Int_Tables_number   1
_chemical_formula_structural   Er11PaGa20
_chemical_formula_sum   'Er11 Pa1 Ga20'
_cell_volume   667.22823343
_cell_formula_units_Z   1
loop_
 _symmetry_equiv_pos_site_id
 _symmetry_equiv_pos_as_xyz
  1  'x, y, z'
loop_
 _atom_site_type_symbol
 _atom_site_label
 _atom_site_symmetry_multiplicity
 _atom_site_fract_x
 _atom_site_fract_y
 _atom_site_fract_z
 _atom_site_occupancy
  Er  Er0  1  0.849946  0.748779  0.074214  1
  Er  Er1  1  0.651336  0.749655  0.574206  1
  Er  Er2  1  0.151163  0.249922  0.924820  1
  Er  Er3  1  0.351638  0.251797  0.426003  1
  Er  Er4  1  0.609219  0.988990  0.851881  1
  Er  Er5  1  0.111470  0.010076  0.648271  1
  Er  Er6  1  0.389532  0.489874  0.148368  1
  Er  Er7  1  0.110296  0.489978  0.648764  1
  Er  Er8  1  0.389585  0.010815  0.148619  1
  Er  Er9  1  0.889833  0.990073  0.352018  1
  Er  Er10  1  0.609257  0.509906  0.851353  1
  Pa  Pa11  1  0.887723  0.510468  0.353016  1
  Ga  Ga12  1  0.873779  0.052317  0.091520  1
  Ga  Ga13  1  0.627166  0.446559  0.590097  1
  Ga  Ga14  1  0.126442  0.553068  0.908663  1
  Ga  Ga15  1  0.373635  0.948658  0.408580  1
  Ga  Ga16  1  0.126200  0.947086  0.909458  1
  Ga  Ga17  1  0.377325  0.553293  0.408641  1
  Ga  Ga18  1  0.874143  0.446622  0.090531  1
  Ga  Ga19  1  0.626856  0.052311  0.591808  1
  Ga  Ga20  1  0.172596  0.749815  0.252852  1
  Ga  Ga21  1  0.325293  0.749939  0.751950  1
  Ga  Ga22  1  0.824274  0.249251  0.748801  1
  Ga  Ga23  1  0.674074  0.249704  0.246924  1
  Ga  Ga24  1  0.374441  0.750208  0.005860  1
  Ga  Ga25  1  0.124750  0.749415  0.503402  1
  Ga  Ga26  1  0.624819  0.249423  0.993906  1
  Ga  Ga27  1  0.874512  0.249884  0.494792  1
  Ga  Ga28  1  0.603581  0.750922  0.298433  1
  Ga  Ga29  1  0.896957  0.750079  0.798585  1
  Ga  Ga30  1  0.396519  0.249643  0.700910  1
  Ga  Ga31  1  0.101639  0.251471  0.202756  1
