# generated using pymatgen
data_Nd12Os2PdPt
_symmetry_space_group_name_H-M   'P 1'
_cell_length_a   6.54354305
_cell_length_b   7.47919505
_cell_length_c   9.83577300
_cell_angle_alpha   90.00000000
_cell_angle_beta   90.00000000
_cell_angle_gamma   90.44038605
_symmetry_Int_Tables_number   1
_chemical_formula_structural   Nd12Os2PdPt
_chemical_formula_sum   'Nd12 Os2 Pd1 Pt1'
_cell_volume   481.35278839
_cell_formula_units_Z   1
loop_
 _symmetry_equiv_pos_site_id
 _symmetry_equiv_pos_as_xyz
  1  'x, y, z'
loop_
 _atom_site_type_symbol
 _atom_site_label
 _atom_site_symmetry_multiplicity
 _atom_site_fract_x
 _atom_site_fract_y
 _atom_site_fract_z
 _atom_site_occupancy
  Nd  Nd0  1  0.337017  0.673292  0.061520  1
  Nd  Nd1  1  0.170480  0.184897  0.435289  1
  Nd  Nd2  1  0.666203  0.324506  0.562495  1
  Nd  Nd3  1  0.827821  0.818100  0.933922  1
  Nd  Nd4  1  0.666203  0.324506  0.937505  1
  Nd  Nd5  1  0.827821  0.818100  0.566078  1
  Nd  Nd6  1  0.337017  0.673292  0.438480  1
  Nd  Nd7  1  0.170480  0.184897  0.064711  1
  Nd  Nd8  1  0.855595  0.527416  0.250000  1
  Nd  Nd9  1  0.632425  0.040016  0.250000  1
  Nd  Nd10  1  0.139462  0.470892  0.750000  1
  Nd  Nd11  1  0.364949  0.961018  0.750000  1
  Os  Os12  1  0.439691  0.382275  0.250000  1
  Os  Os13  1  0.559674  0.616605  0.750000  1
  Pd  Pd14  1  0.068436  0.883021  0.250000  1
  Pt  Pt15  1  0.936723  0.117165  0.750000  1
