# generated using pymatgen
data_U3Ga3Ir2Rh
_symmetry_space_group_name_H-M   'P 1'
_cell_length_a   6.95017200
_cell_length_b   6.95017106
_cell_length_c   4.04984600
_cell_angle_alpha   90.00000000
_cell_angle_beta   90.00000000
_cell_angle_gamma   119.99999497
_symmetry_Int_Tables_number   1
_chemical_formula_structural   U3Ga3Ir2Rh
_chemical_formula_sum   'U3 Ga3 Ir2 Rh1'
_cell_volume   169.41825672
_cell_formula_units_Z   1
loop_
 _symmetry_equiv_pos_site_id
 _symmetry_equiv_pos_as_xyz
  1  'x, y, z'
loop_
 _atom_site_type_symbol
 _atom_site_label
 _atom_site_symmetry_multiplicity
 _atom_site_fract_x
 _atom_site_fract_y
 _atom_site_fract_z
 _atom_site_occupancy
  U  U0  1  0.422447  0.422447  0.500000  1
  U  U1  1  0.577553  0.000000  0.500000  1
  U  U2  1  0.000000  0.577553  0.500000  1
  Ga  Ga3  1  0.760925  0.760925  0.000000  1
  Ga  Ga4  1  0.239075  0.000000  0.000000  1
  Ga  Ga5  1  0.000000  0.239075  0.000000  1
  Ir  Ir6  1  0.666667  0.333333  0.000000  1
  Ir  Ir7  1  0.333333  0.666667  0.000000  1
  Rh  Rh8  1  0.000000  0.000000  0.500000  1
