# generated using pymatgen
data_Zr3Nb2SiGe2N
_symmetry_space_group_name_H-M   'P 1'
_cell_length_a   7.89050545
_cell_length_b   7.89050571
_cell_length_c   5.49774200
_cell_angle_alpha   90.00000000
_cell_angle_beta   90.00000000
_cell_angle_gamma   120.03865955
_symmetry_Int_Tables_number   1
_chemical_formula_structural   Zr3Nb2SiGe2N
_chemical_formula_sum   'Zr6 Nb4 Si2 Ge4 N2'
_cell_volume   296.31615816
_cell_formula_units_Z   2
loop_
 _symmetry_equiv_pos_site_id
 _symmetry_equiv_pos_as_xyz
  1  'x, y, z'
loop_
 _atom_site_type_symbol
 _atom_site_label
 _atom_site_symmetry_multiplicity
 _atom_site_fract_x
 _atom_site_fract_y
 _atom_site_fract_z
 _atom_site_occupancy
  Zr  Zr0  1  0.235822  0.003003  0.750000  1
  Zr  Zr1  1  0.764178  0.996997  0.250000  1
  Zr  Zr2  1  0.003003  0.235822  0.750000  1
  Zr  Zr3  1  0.996997  0.764178  0.250000  1
  Zr  Zr4  1  0.763048  0.763048  0.750000  1
  Zr  Zr5  1  0.236952  0.236952  0.250000  1
  Nb  Nb6  1  0.335531  0.664469  0.500000  1
  Nb  Nb7  1  0.664469  0.335531  0.500000  1
  Nb  Nb8  1  0.664469  0.335531  0.000000  1
  Nb  Nb9  1  0.335531  0.664469  0.000000  1
  Si  Si10  1  0.409661  0.409661  0.750000  1
  Si  Si11  1  0.590339  0.590339  0.250000  1
  Ge  Ge12  1  0.592778  0.000896  0.750000  1
  Ge  Ge13  1  0.407222  0.999104  0.250000  1
  Ge  Ge14  1  0.000896  0.592778  0.750000  1
  Ge  Ge15  1  0.999104  0.407222  0.250000  1
  N  N16  1  0.000000  0.000000  0.500000  1
  N  N17  1  0.000000  0.000000  0.000000  1
