# generated using pymatgen
data_Pr3NdC5
_symmetry_space_group_name_H-M   'P 1'
_cell_length_a   3.89404200
_cell_length_b   6.95681420
_cell_length_c   12.58728836
_cell_angle_alpha   89.97262961
_cell_angle_beta   90.00000000
_cell_angle_gamma   90.00000000
_symmetry_Int_Tables_number   1
_chemical_formula_structural   Pr3NdC5
_chemical_formula_sum   'Pr6 Nd2 C10'
_cell_volume   340.99119723
_cell_formula_units_Z   2
loop_
 _symmetry_equiv_pos_site_id
 _symmetry_equiv_pos_as_xyz
  1  'x, y, z'
loop_
 _atom_site_type_symbol
 _atom_site_label
 _atom_site_symmetry_multiplicity
 _atom_site_fract_x
 _atom_site_fract_y
 _atom_site_fract_z
 _atom_site_occupancy
  Pr  Pr0  1  0.000000  0.252716  0.542086  1
  Pr  Pr1  1  0.000000  0.747284  0.457914  1
  Pr  Pr2  1  0.000000  0.753401  0.958108  1
  Pr  Pr3  1  0.000000  0.246599  0.041892  1
  Pr  Pr4  1  0.500000  0.606832  0.697137  1
  Pr  Pr5  1  0.500000  0.393168  0.302863  1
  Nd  Nd6  1  0.500000  0.106980  0.803982  1
  Nd  Nd7  1  0.500000  0.893020  0.196018  1
  C  C8  1  0.500000  0.500000  0.500000  1
  C  C9  1  0.500000  0.000000  0.000000  1
  C  C10  1  0.000000  0.359460  0.737732  1
  C  C11  1  0.000000  0.640540  0.262268  1
  C  C12  1  0.000000  0.863259  0.762617  1
  C  C13  1  0.000000  0.136741  0.237383  1
  C  C14  1  0.000000  0.399791  0.839860  1
  C  C15  1  0.000000  0.600209  0.160140  1
  C  C16  1  0.000000  0.096534  0.339433  1
  C  C17  1  0.000000  0.903466  0.660567  1
