# generated using pymatgen
data_Ca2Pr17SmIr12
_symmetry_space_group_name_H-M   'P 1'
_cell_length_a   11.34107000
_cell_length_b   11.34107000
_cell_length_c   6.54471700
_cell_angle_alpha   90.00000000
_cell_angle_beta   90.00000000
_cell_angle_gamma   90.00000000
_symmetry_Int_Tables_number   1
_chemical_formula_structural   Ca2Pr17SmIr12
_chemical_formula_sum   'Ca2 Pr17 Sm1 Ir12'
_cell_volume   841.78064151
_cell_formula_units_Z   1
loop_
 _symmetry_equiv_pos_site_id
 _symmetry_equiv_pos_as_xyz
  1  'x, y, z'
loop_
 _atom_site_type_symbol
 _atom_site_label
 _atom_site_symmetry_multiplicity
 _atom_site_fract_x
 _atom_site_fract_y
 _atom_site_fract_z
 _atom_site_occupancy
  Ca  Ca0  1  0.000000  0.000000  0.500000  1
  Ca  Ca1  1  0.000000  0.000000  0.000000  1
  Pr  Pr2  1  0.288069  0.087953  0.385162  1
  Pr  Pr3  1  0.288382  0.911493  0.885357  1
  Pr  Pr4  1  0.711618  0.088507  0.885357  1
  Pr  Pr5  1  0.711931  0.912047  0.385162  1
  Pr  Pr6  1  0.589029  0.790508  0.884213  1
  Pr  Pr7  1  0.588961  0.209267  0.383865  1
  Pr  Pr8  1  0.411039  0.790733  0.383865  1
  Pr  Pr9  1  0.410971  0.209492  0.884213  1
  Pr  Pr10  1  0.209267  0.411039  0.616135  1
  Pr  Pr11  1  0.209492  0.589029  0.115787  1
  Pr  Pr12  1  0.790508  0.410971  0.115787  1
  Pr  Pr13  1  0.790733  0.588961  0.616135  1
  Pr  Pr14  1  0.911493  0.711618  0.114643  1
  Pr  Pr15  1  0.912047  0.288069  0.614838  1
  Pr  Pr16  1  0.087953  0.711931  0.614838  1
  Pr  Pr17  1  0.088507  0.288382  0.114643  1
  Pr  Pr18  1  0.500000  0.500000  0.500000  1
  Sm  Sm19  1  0.500000  0.500000  0.000000  1
  Ir  Ir20  1  0.842446  0.157442  0.250230  1
  Ir  Ir21  1  0.842558  0.842446  0.749770  1
  Ir  Ir22  1  0.157442  0.157554  0.749770  1
  Ir  Ir23  1  0.157554  0.842558  0.250230  1
  Ir  Ir24  1  0.651840  0.347352  0.753219  1
  Ir  Ir25  1  0.652648  0.651840  0.246781  1
  Ir  Ir26  1  0.347352  0.348160  0.246781  1
  Ir  Ir27  1  0.348160  0.652648  0.753219  1
  Ir  Ir28  1  0.500000  0.000000  0.116562  1
  Ir  Ir29  1  0.500000  0.000000  0.616331  1
  Ir  Ir30  1  0.000000  0.500000  0.883438  1
  Ir  Ir31  1  0.000000  0.500000  0.383669  1
