# generated using pymatgen
data_Ce2P2O9
_symmetry_space_group_name_H-M   'P 1'
_cell_length_a   5.77855287
_cell_length_b   5.77855277
_cell_length_c   12.74911400
_cell_angle_alpha   90.00000000
_cell_angle_beta   90.00000000
_cell_angle_gamma   103.57789143
_symmetry_Int_Tables_number   1
_chemical_formula_structural   Ce2P2O9
_chemical_formula_sum   'Ce4 P4 O18'
_cell_volume   413.81623603
_cell_formula_units_Z   2
loop_
 _symmetry_equiv_pos_site_id
 _symmetry_equiv_pos_as_xyz
  1  'x, y, z'
loop_
 _atom_site_type_symbol
 _atom_site_label
 _atom_site_symmetry_multiplicity
 _atom_site_fract_x
 _atom_site_fract_y
 _atom_site_fract_z
 _atom_site_occupancy
  Ce  Ce0  1  0.207650  0.792350  0.430000  1
  Ce  Ce1  1  0.292350  0.707650  0.930000  1
  Ce  Ce2  1  0.792350  0.207650  0.570000  1
  Ce  Ce3  1  0.707650  0.292350  0.070000  1
  P  P4  1  0.109097  0.890903  0.143220  1
  P  P5  1  0.390903  0.609097  0.643220  1
  P  P6  1  0.890903  0.109097  0.856780  1
  P  P7  1  0.609097  0.390903  0.356780  1
  O  O8  1  0.941596  0.058404  0.123803  1
  O  O9  1  0.558404  0.441596  0.623803  1
  O  O10  1  0.058404  0.941596  0.876197  1
  O  O11  1  0.441596  0.558404  0.376197  1
  O  O12  1  0.500000  0.500000  0.000000  1
  O  O13  1  0.000000  0.000000  0.500000  1
  O  O14  1  0.640105  0.359895  0.238844  1
  O  O15  1  0.859895  0.140105  0.738844  1
  O  O16  1  0.853235  0.486059  0.413572  1
  O  O17  1  0.646765  0.013941  0.913572  1
  O  O18  1  0.486059  0.853235  0.586428  1
  O  O19  1  0.013941  0.646765  0.086428  1
  O  O20  1  0.146765  0.513941  0.586428  1
  O  O21  1  0.353235  0.986059  0.086428  1
  O  O22  1  0.513941  0.146765  0.413572  1
  O  O23  1  0.986059  0.353235  0.913572  1
  O  O24  1  0.140105  0.859895  0.261156  1
  O  O25  1  0.359895  0.640105  0.761156  1
