# generated using pymatgen
data_NdTmS2
_symmetry_space_group_name_H-M   'P 1'
_cell_length_a   7.03212879
_cell_length_b   7.03212896
_cell_length_c   7.03213001
_cell_angle_alpha   32.26350623
_cell_angle_beta   32.26350828
_cell_angle_gamma   32.26350266
_symmetry_Int_Tables_number   1
_chemical_formula_structural   NdTmS2
_chemical_formula_sum   'Nd1 Tm1 S2'
_cell_volume   88.07962858
_cell_formula_units_Z   1
loop_
 _symmetry_equiv_pos_site_id
 _symmetry_equiv_pos_as_xyz
  1  'x, y, z'
loop_
 _atom_site_type_symbol
 _atom_site_label
 _atom_site_symmetry_multiplicity
 _atom_site_fract_x
 _atom_site_fract_y
 _atom_site_fract_z
 _atom_site_occupancy
  Nd  Nd0  1  0.500000  0.500000  0.500000  1
  Tm  Tm1  1  0.000000  0.000000  0.000000  1
  S  S2  1  0.258206  0.258206  0.258206  1
  S  S3  1  0.741794  0.741794  0.741794  1
