# generated using pymatgen
data_CeTm9Co4
_symmetry_space_group_name_H-M   'P 1'
_cell_length_a   8.48801097
_cell_length_b   8.48547427
_cell_length_c   6.80501709
_cell_angle_alpha   84.77307697
_cell_angle_beta   83.48085382
_cell_angle_gamma   42.90576954
_symmetry_Int_Tables_number   1
_chemical_formula_structural   CeTm9Co4
_chemical_formula_sum   'Ce1 Tm9 Co4'
_cell_volume   331.49745638
_cell_formula_units_Z   1
loop_
 _symmetry_equiv_pos_site_id
 _symmetry_equiv_pos_as_xyz
  1  'x, y, z'
loop_
 _atom_site_type_symbol
 _atom_site_label
 _atom_site_symmetry_multiplicity
 _atom_site_fract_x
 _atom_site_fract_y
 _atom_site_fract_z
 _atom_site_occupancy
  Ce  Ce0  1  0.004082  0.801839  0.898679  1
  Tm  Tm1  1  0.203618  0.988462  0.584104  1
  Tm  Tm2  1  0.986989  0.201720  0.086659  1
  Tm  Tm3  1  0.794257  0.017920  0.411751  1
  Tm  Tm4  1  0.354846  0.210643  0.815752  1
  Tm  Tm5  1  0.782435  0.645966  0.682928  1
  Tm  Tm6  1  0.647574  0.780488  0.186648  1
  Tm  Tm7  1  0.215365  0.353979  0.317161  1
  Tm  Tm8  1  0.569609  0.433698  0.748975  1
  Tm  Tm9  1  0.427113  0.571384  0.250049  1
  Co  Co10  1  0.163096  0.619357  0.597515  1
  Co  Co11  1  0.399039  0.823713  0.929544  1
  Co  Co12  1  0.824860  0.400958  0.426692  1
  Co  Co13  1  0.627117  0.149873  0.063545  1
