# generated using pymatgen
data_Ca2Pd3
_symmetry_space_group_name_H-M   'P 1'
_cell_length_a   5.56916645
_cell_length_b   5.56916620
_cell_length_c   5.56916586
_cell_angle_alpha   132.18393661
_cell_angle_beta   119.21093295
_cell_angle_gamma   80.81985606
_symmetry_Int_Tables_number   1
_chemical_formula_structural   Ca2Pd3
_chemical_formula_sum   'Ca2 Pd3'
_cell_volume   107.87262865
_cell_formula_units_Z   1
loop_
 _symmetry_equiv_pos_site_id
 _symmetry_equiv_pos_as_xyz
  1  'x, y, z'
loop_
 _atom_site_type_symbol
 _atom_site_label
 _atom_site_symmetry_multiplicity
 _atom_site_fract_x
 _atom_site_fract_y
 _atom_site_fract_z
 _atom_site_occupancy
  Ca  Ca0  1  0.700914  0.200914  0.500000  1
  Ca  Ca1  1  0.299086  0.799086  0.500000  1
  Pd  Pd2  1  0.736702  0.500000  0.236702  1
  Pd  Pd3  1  0.263298  0.500000  0.763298  1
  Pd  Pd4  1  0.000000  0.000000  0.000000  1
