# generated using pymatgen
data_Sc5In(SnRu2)6
_symmetry_space_group_name_H-M   'P 1'
_cell_length_a   4.55628005
_cell_length_b   6.35650945
_cell_length_c   13.75867684
_cell_angle_alpha   89.96005571
_cell_angle_beta   90.00241631
_cell_angle_gamma   89.98419699
_symmetry_Int_Tables_number   1
_chemical_formula_structural   Sc5In(SnRu2)6
_chemical_formula_sum   'Sc5 In1 Sn6 Ru12'
_cell_volume   398.47919731
_cell_formula_units_Z   1
loop_
 _symmetry_equiv_pos_site_id
 _symmetry_equiv_pos_as_xyz
  1  'x, y, z'
loop_
 _atom_site_type_symbol
 _atom_site_label
 _atom_site_symmetry_multiplicity
 _atom_site_fract_x
 _atom_site_fract_y
 _atom_site_fract_z
 _atom_site_occupancy
  Sc  Sc0  1  0.499942  0.499972  0.165775  1
  Sc  Sc1  1  0.999939  0.000041  0.334942  1
  Sc  Sc2  1  0.500000  0.499989  0.500014  1
  Sc  Sc3  1  0.000052  0.999962  0.665099  1
  Sc  Sc4  1  0.500068  0.500031  0.834225  1
  In  In5  1  0.000040  0.000167  0.999892  1
  Sn  Sn6  1  0.000029  0.499915  0.999949  1
  Sn  Sn7  1  0.499930  0.000019  0.170600  1
  Sn  Sn8  1  0.999914  0.500028  0.331236  1
  Sn  Sn9  1  0.500022  0.999904  0.499962  1
  Sn  Sn10  1  0.000087  0.500027  0.668780  1
  Sn  Sn11  1  0.499987  0.999923  0.829414  1
  Ru  Ru12  1  0.500024  0.244379  0.000019  1
  Ru  Ru13  1  0.499954  0.755663  0.000035  1
  Ru  Ru14  1  0.999953  0.247523  0.165538  1
  Ru  Ru15  1  0.999889  0.752485  0.165533  1
  Ru  Ru16  1  0.499952  0.250293  0.333353  1
  Ru  Ru17  1  0.499908  0.749689  0.333353  1
  Ru  Ru18  1  0.000178  0.256421  0.500021  1
  Ru  Ru19  1  0.999824  0.743582  0.499996  1
  Ru  Ru20  1  0.500092  0.250361  0.666668  1
  Ru  Ru21  1  0.500063  0.749625  0.666659  1
  Ru  Ru22  1  0.000107  0.247520  0.834464  1
  Ru  Ru23  1  0.000041  0.752489  0.834468  1
