# generated using pymatgen
data_Zr3Zn3Pd2Rh
_symmetry_space_group_name_H-M   'P 1'
_cell_length_a   7.34515800
_cell_length_b   7.34515937
_cell_length_c   3.36559300
_cell_angle_alpha   90.00000000
_cell_angle_beta   90.00000000
_cell_angle_gamma   119.99999385
_symmetry_Int_Tables_number   1
_chemical_formula_structural   Zr3Zn3Pd2Rh
_chemical_formula_sum   'Zr3 Zn3 Pd2 Rh1'
_cell_volume   157.25143583
_cell_formula_units_Z   1
loop_
 _symmetry_equiv_pos_site_id
 _symmetry_equiv_pos_as_xyz
  1  'x, y, z'
loop_
 _atom_site_type_symbol
 _atom_site_label
 _atom_site_symmetry_multiplicity
 _atom_site_fract_x
 _atom_site_fract_y
 _atom_site_fract_z
 _atom_site_occupancy
  Zr  Zr0  1  0.989730  0.392646  0.500000  1
  Zr  Zr1  1  0.607354  0.597083  0.500000  1
  Zr  Zr2  1  0.402917  0.010270  0.500000  1
  Zn  Zn3  1  0.002790  0.729602  0.000000  1
  Zn  Zn4  1  0.270398  0.273189  0.000000  1
  Zn  Zn5  1  0.726811  0.997210  0.000000  1
  Pd  Pd6  1  0.333333  0.666667  0.000000  1
  Pd  Pd7  1  0.000000  0.000000  0.500000  1
  Rh  Rh8  1  0.666667  0.333333  0.000000  1
