# generated using pymatgen
data_Cr2SnGe(PO5)2
_symmetry_space_group_name_H-M   'P 1'
_cell_length_a   6.43353194
_cell_length_b   6.89359312
_cell_length_c   10.54092126
_cell_angle_alpha   83.35671128
_cell_angle_beta   73.25129960
_cell_angle_gamma   112.58787088
_symmetry_Int_Tables_number   1
_chemical_formula_structural   Cr2SnGe(PO5)2
_chemical_formula_sum   'Cr4 Sn2 Ge2 P4 O20'
_cell_volume   399.54212939
_cell_formula_units_Z   2
loop_
 _symmetry_equiv_pos_site_id
 _symmetry_equiv_pos_as_xyz
  1  'x, y, z'
loop_
 _atom_site_type_symbol
 _atom_site_label
 _atom_site_symmetry_multiplicity
 _atom_site_fract_x
 _atom_site_fract_y
 _atom_site_fract_z
 _atom_site_occupancy
  Cr  Cr0  1  0.441728  0.323066  0.919500  1
  Cr  Cr1  1  0.546001  0.678201  0.080500  1
  Cr  Cr2  1  0.941581  0.823005  0.419450  1
  Cr  Cr3  1  0.045944  0.178177  0.580499  1
  Sn  Sn4  1  0.505233  0.243626  0.297812  1
  Sn  Sn5  1  0.005372  0.744030  0.797700  1
  Ge  Ge6  1  0.040514  0.236269  0.211753  1
  Ge  Ge7  1  0.540424  0.736206  0.711806  1
  P  P8  1  0.393704  0.691353  0.413599  1
  P  P9  1  0.893788  0.191446  0.913607  1
  P  P10  1  0.103333  0.811183  0.085581  1
  P  P11  1  0.603275  0.311128  0.585620  1
  O  O12  1  0.383508  0.345771  0.113484  1
  O  O13  1  0.883441  0.845740  0.613478  1
  O  O14  1  0.109079  0.152528  0.383827  1
  O  O15  1  0.609175  0.652626  0.883806  1
  O  O16  1  0.619531  0.828152  0.445890  1
  O  O17  1  0.119643  0.328173  0.945893  1
  O  O18  1  0.876261  0.677141  0.050808  1
  O  O19  1  0.376140  0.177008  0.550887  1
  O  O20  1  0.783582  0.499889  0.458451  1
  O  O21  1  0.283696  0.999981  0.958457  1
  O  O22  1  0.708842  0.001595  0.039221  1
  O  O23  1  0.208776  0.501519  0.539212  1
  O  O24  1  0.280014  0.846770  0.382401  1
  O  O25  1  0.780174  0.346888  0.882384  1
  O  O26  1  0.212879  0.657542  0.119446  1
  O  O27  1  0.712819  0.157478  0.619482  1
  O  O28  1  0.471621  0.605646  0.286265  1
  O  O29  1  0.971668  0.105678  0.786265  1
  O  O30  1  0.024117  0.901090  0.211451  1
  O  O31  1  0.524140  0.401088  0.711464  1
