# generated using pymatgen
data_La20Ir6Ru5Au
_symmetry_space_group_name_H-M   'P 1'
_cell_length_a   11.41838001
_cell_length_b   11.41837981
_cell_length_c   6.70913544
_cell_angle_alpha   89.45146994
_cell_angle_beta   89.45147267
_cell_angle_gamma   89.76456140
_symmetry_Int_Tables_number   1
_chemical_formula_structural   La20Ir6Ru5Au
_chemical_formula_sum   'La20 Ir6 Ru5 Au1'
_cell_volume   874.64582115
_cell_formula_units_Z   1
loop_
 _symmetry_equiv_pos_site_id
 _symmetry_equiv_pos_as_xyz
  1  'x, y, z'
loop_
 _atom_site_type_symbol
 _atom_site_label
 _atom_site_symmetry_multiplicity
 _atom_site_fract_x
 _atom_site_fract_y
 _atom_site_fract_z
 _atom_site_occupancy
  La  La0  1  0.297474  0.096755  0.390084  1
  La  La1  1  0.300059  0.913905  0.871815  1
  La  La2  1  0.704492  0.091674  0.891649  1
  La  La3  1  0.707131  0.911034  0.389674  1
  La  La4  1  0.591689  0.794663  0.890852  1
  La  La5  1  0.592573  0.205578  0.391122  1
  La  La6  1  0.418957  0.792931  0.390065  1
  La  La7  1  0.410560  0.206573  0.890928  1
  La  La8  1  0.205337  0.408311  0.609148  1
  La  La9  1  0.207069  0.581043  0.109935  1
  La  La10  1  0.794422  0.407427  0.108878  1
  La  La11  1  0.793427  0.589440  0.609072  1
  La  La12  1  0.903245  0.702526  0.109916  1
  La  La13  1  0.908326  0.295508  0.608351  1
  La  La14  1  0.086095  0.699941  0.628185  1
  La  La15  1  0.088966  0.292869  0.110326  1
  La  La16  1  0.994014  0.007158  0.503229  1
  La  La17  1  0.992842  0.005986  0.996771  1
  La  La18  1  0.500467  0.499588  0.999253  1
  La  La19  1  0.500412  0.499533  0.500747  1
  Ir  Ir20  1  0.847196  0.846657  0.750217  1
  Ir  Ir21  1  0.153343  0.152804  0.749783  1
  Ir  Ir22  1  0.652090  0.347910  0.750000  1
  Ir  Ir23  1  0.652163  0.652560  0.250342  1
  Ir  Ir24  1  0.347440  0.347837  0.249658  1
  Ir  Ir25  1  0.346715  0.653285  0.750000  1
  Ru  Ru26  1  0.850567  0.149433  0.250000  1
  Ru  Ru27  1  0.498502  0.999721  0.120427  1
  Ru  Ru28  1  0.499039  0.999376  0.620639  1
  Ru  Ru29  1  0.000624  0.500961  0.879361  1
  Ru  Ru30  1  0.000279  0.501498  0.379573  1
  Au  Au31  1  0.154482  0.845518  0.250000  1
