# generated using pymatgen
data_Ho20Ir5Pd2Rh5
_symmetry_space_group_name_H-M   'P 1'
_cell_length_a   10.90544511
_cell_length_b   10.90544406
_cell_length_c   6.32097100
_cell_angle_alpha   89.99245555
_cell_angle_beta   89.99245561
_cell_angle_gamma   90.48659285
_symmetry_Int_Tables_number   1
_chemical_formula_structural   Ho20Ir5Pd2Rh5
_chemical_formula_sum   'Ho20 Ir5 Pd2 Rh5'
_cell_volume   751.71787794
_cell_formula_units_Z   1
loop_
 _symmetry_equiv_pos_site_id
 _symmetry_equiv_pos_as_xyz
  1  'x, y, z'
loop_
 _atom_site_type_symbol
 _atom_site_label
 _atom_site_symmetry_multiplicity
 _atom_site_fract_x
 _atom_site_fract_y
 _atom_site_fract_z
 _atom_site_occupancy
  Ho  Ho0  1  0.293895  0.087118  0.372107  1
  Ho  Ho1  1  0.291777  0.906227  0.880312  1
  Ho  Ho2  1  0.707599  0.093510  0.879631  1
  Ho  Ho3  1  0.705357  0.910879  0.371977  1
  Ho  Ho4  1  0.584026  0.789219  0.880617  1
  Ho  Ho5  1  0.587978  0.210194  0.379706  1
  Ho  Ho6  1  0.410005  0.790134  0.379995  1
  Ho  Ho7  1  0.415662  0.210408  0.880147  1
  Ho  Ho8  1  0.210781  0.415974  0.619383  1
  Ho  Ho9  1  0.209866  0.589995  0.120005  1
  Ho  Ho10  1  0.789806  0.412022  0.120294  1
  Ho  Ho11  1  0.789592  0.584338  0.619853  1
  Ho  Ho12  1  0.912882  0.706105  0.127893  1
  Ho  Ho13  1  0.906490  0.292401  0.620369  1
  Ho  Ho14  1  0.093773  0.708223  0.619688  1
  Ho  Ho15  1  0.089121  0.294643  0.128023  1
  Ho  Ho16  1  0.999960  0.999836  0.498341  1
  Ho  Ho17  1  0.000164  0.000040  0.001659  1
  Ho  Ho18  1  0.499898  0.499757  0.000857  1
  Ho  Ho19  1  0.500243  0.500102  0.499143  1
  Ir  Ir20  1  0.152451  0.847549  0.250000  1
  Ir  Ir21  1  0.654699  0.345301  0.750000  1
  Ir  Ir22  1  0.655948  0.655496  0.249711  1
  Ir  Ir23  1  0.344504  0.344052  0.250289  1
  Ir  Ir24  1  0.346001  0.653999  0.750000  1
  Pd  Pd25  1  0.844769  0.845319  0.749854  1
  Pd  Pd26  1  0.154681  0.155231  0.750146  1
  Rh  Rh27  1  0.847357  0.152643  0.250000  1
  Rh  Rh28  1  0.500619  0.000157  0.122095  1
  Rh  Rh29  1  0.500417  0.000165  0.624035  1
  Rh  Rh30  1  0.999835  0.499583  0.875965  1
  Rh  Rh31  1  0.999843  0.499381  0.377905  1
