# generated using pymatgen
data_Tb2Al9PdRh2
_symmetry_space_group_name_H-M   'P 1'
_cell_length_a   7.60018184
_cell_length_b   7.60018461
_cell_length_c   9.49083910
_cell_angle_alpha   89.97221696
_cell_angle_beta   89.97248566
_cell_angle_gamma   119.53928492
_symmetry_Int_Tables_number   1
_chemical_formula_structural   Tb2Al9PdRh2
_chemical_formula_sum   'Tb4 Al18 Pd2 Rh4'
_cell_volume   476.95862286
_cell_formula_units_Z   2
loop_
 _symmetry_equiv_pos_site_id
 _symmetry_equiv_pos_as_xyz
  1  'x, y, z'
loop_
 _atom_site_type_symbol
 _atom_site_label
 _atom_site_symmetry_multiplicity
 _atom_site_fract_x
 _atom_site_fract_y
 _atom_site_fract_z
 _atom_site_occupancy
  Tb  Tb0  1  0.994966  0.670090  0.250478  1
  Tb  Tb1  1  0.005034  0.329910  0.749522  1
  Tb  Tb2  1  0.670090  0.994966  0.250478  1
  Tb  Tb3  1  0.329910  0.005034  0.749522  1
  Al  Al4  1  0.127060  0.127060  0.251361  1
  Al  Al5  1  0.872940  0.872940  0.748639  1
  Al  Al6  1  0.001217  0.331241  0.077998  1
  Al  Al7  1  0.998783  0.668759  0.922002  1
  Al  Al8  1  0.000367  0.665100  0.574477  1
  Al  Al9  1  0.334900  0.999633  0.425523  1
  Al  Al10  1  0.999633  0.334900  0.425523  1
  Al  Al11  1  0.665100  0.000367  0.574477  1
  Al  Al12  1  0.668759  0.998783  0.922002  1
  Al  Al13  1  0.331241  0.001217  0.077998  1
  Al  Al14  1  0.332094  0.332094  0.548828  1
  Al  Al15  1  0.667906  0.667906  0.451172  1
  Al  Al16  1  0.669108  0.669108  0.054981  1
  Al  Al17  1  0.330892  0.330892  0.945019  1
  Al  Al18  1  0.340715  0.547742  0.253942  1
  Al  Al19  1  0.659285  0.452258  0.746058  1
  Al  Al20  1  0.547741  0.340715  0.253942  1
  Al  Al21  1  0.452259  0.659285  0.746058  1
  Pd  Pd22  1  0.672163  0.327838  0.000000  1
  Pd  Pd23  1  0.327837  0.672162  0.000000  1
  Rh  Rh24  1  0.327848  0.672153  0.499999  1
  Rh  Rh25  1  0.672152  0.327847  0.500001  1
  Rh  Rh26  1  0.000000  0.000000  0.000000  1
  Rh  Rh27  1  0.000000  0.000000  0.500000  1
