# generated using pymatgen
data_Pr4DyZr2P12Ir17
_symmetry_space_group_name_H-M   'P 1'
_cell_length_a   12.74157017
_cell_length_b   12.99064537
_cell_length_c   4.03022900
_cell_angle_alpha   90.00000000
_cell_angle_beta   90.00000000
_cell_angle_gamma   119.38638654
_symmetry_Int_Tables_number   1
_chemical_formula_structural   Pr4DyZr2P12Ir17
_chemical_formula_sum   'Pr4 Dy1 Zr2 P12 Ir17'
_cell_volume   581.25443563
_cell_formula_units_Z   1
loop_
 _symmetry_equiv_pos_site_id
 _symmetry_equiv_pos_as_xyz
  1  'x, y, z'
loop_
 _atom_site_type_symbol
 _atom_site_label
 _atom_site_symmetry_multiplicity
 _atom_site_fract_x
 _atom_site_fract_y
 _atom_site_fract_z
 _atom_site_occupancy
  Pr  Pr0  1  0.329454  0.661708  0.500000  1
  Pr  Pr1  1  0.001391  0.814849  0.000000  1
  Pr  Pr2  1  0.186846  0.185305  0.000000  1
  Pr  Pr3  1  0.813253  0.999792  0.000000  1
  Dy  Dy4  1  0.669074  0.339277  0.500000  1
  Zr  Zr5  1  0.995927  0.445531  0.500000  1
  Zr  Zr6  1  0.552468  0.553791  0.500000  1
  P  P7  1  0.005842  0.647706  0.500000  1
  P  P8  1  0.357550  0.352976  0.500000  1
  P  P9  1  0.641652  0.999127  0.500000  1
  P  P10  1  0.516328  0.685936  0.000000  1
  P  P11  1  0.309081  0.825923  0.000000  1
  P  P12  1  0.162641  0.478745  0.000000  1
  P  P13  1  0.485931  0.177341  0.000000  1
  P  P14  1  0.684111  0.518536  0.000000  1
  P  P15  1  0.827112  0.313056  0.000000  1
  P  P16  1  0.998783  0.176362  0.500000  1
  P  P17  1  0.823613  0.823077  0.500000  1
  P  P18  1  0.184181  0.000342  0.500000  1
  Ir  Ir19  1  0.507114  0.867949  0.000000  1
  Ir  Ir20  1  0.124149  0.644193  0.000000  1
  Ir  Ir21  1  0.355323  0.491812  0.000000  1
  Ir  Ir22  1  0.485444  0.356501  0.000000  1
  Ir  Ir23  1  0.857975  0.502714  0.000000  1
  Ir  Ir24  1  0.639014  0.135656  0.000000  1
  Ir  Ir25  1  0.464374  0.001446  0.500000  1
  Ir  Ir26  1  0.995594  0.279597  0.000000  1
  Ir  Ir27  1  0.717009  0.719240  0.000000  1
  Ir  Ir28  1  0.294971  0.001554  0.000000  1
  Ir  Ir29  1  0.621392  0.805402  0.500000  1
  Ir  Ir30  1  0.207702  0.827577  0.500000  1
  Ir  Ir31  1  0.176378  0.368530  0.500000  1
  Ir  Ir32  1  0.382819  0.174401  0.500000  1
  Ir  Ir33  1  0.808053  0.629752  0.500000  1
  Ir  Ir34  1  0.813768  0.193986  0.500000  1
  Ir  Ir35  1  0.003684  0.000308  0.500000  1
