# generated using pymatgen
data_Pr7(NdRh3)2
_symmetry_space_group_name_H-M   'P 1'
_cell_length_a   7.67274852
_cell_length_b   7.67274807
_cell_length_c   7.67274868
_cell_angle_alpha   71.14422769
_cell_angle_beta   71.14423029
_cell_angle_gamma   71.14421784
_symmetry_Int_Tables_number   1
_chemical_formula_structural   Pr7(NdRh3)2
_chemical_formula_sum   'Pr7 Nd2 Rh6'
_cell_volume   392.27063167
_cell_formula_units_Z   1
loop_
 _symmetry_equiv_pos_site_id
 _symmetry_equiv_pos_as_xyz
  1  'x, y, z'
loop_
 _atom_site_type_symbol
 _atom_site_label
 _atom_site_symmetry_multiplicity
 _atom_site_fract_x
 _atom_site_fract_y
 _atom_site_fract_z
 _atom_site_occupancy
  Pr  Pr0  1  0.201107  0.201107  0.201107  1
  Pr  Pr1  1  0.161598  0.391729  0.665921  1
  Pr  Pr2  1  0.665921  0.161598  0.391729  1
  Pr  Pr3  1  0.391729  0.665921  0.161598  1
  Pr  Pr4  1  0.838199  0.608721  0.333894  1
  Pr  Pr5  1  0.333894  0.838199  0.608721  1
  Pr  Pr6  1  0.608721  0.333894  0.838199  1
  Nd  Nd7  1  0.000180  0.000180  0.000180  1
  Nd  Nd8  1  0.799558  0.799558  0.799558  1
  Rh  Rh9  1  0.955876  0.160154  0.592797  1
  Rh  Rh10  1  0.592797  0.955876  0.160154  1
  Rh  Rh11  1  0.160154  0.592797  0.955876  1
  Rh  Rh12  1  0.042866  0.837629  0.409771  1
  Rh  Rh13  1  0.409771  0.042866  0.837629  1
  Rh  Rh14  1  0.837629  0.409771  0.042866  1
