# generated using pymatgen
data_Mg2SnB2Rh5
_symmetry_space_group_name_H-M   'P 1'
_cell_length_a   9.62102700
_cell_length_b   9.62102700
_cell_length_c   2.99127100
_cell_angle_alpha   90.00000000
_cell_angle_beta   90.00000000
_cell_angle_gamma   90.00000000
_symmetry_Int_Tables_number   1
_chemical_formula_structural   Mg2SnB2Rh5
_chemical_formula_sum   'Mg4 Sn2 B4 Rh10'
_cell_volume   276.88448905
_cell_formula_units_Z   2
loop_
 _symmetry_equiv_pos_site_id
 _symmetry_equiv_pos_as_xyz
  1  'x, y, z'
loop_
 _atom_site_type_symbol
 _atom_site_label
 _atom_site_symmetry_multiplicity
 _atom_site_fract_x
 _atom_site_fract_y
 _atom_site_fract_z
 _atom_site_occupancy
  Mg  Mg0  1  0.675554  0.175554  0.000000  1
  Mg  Mg1  1  0.324446  0.824446  0.000000  1
  Mg  Mg2  1  0.175554  0.324446  0.000000  1
  Mg  Mg3  1  0.824446  0.675554  0.000000  1
  Sn  Sn4  1  0.000000  0.000000  0.000000  1
  Sn  Sn5  1  0.500000  0.500000  0.000000  1
  B  B6  1  0.122473  0.622473  0.000000  1
  B  B7  1  0.877527  0.377527  0.000000  1
  B  B8  1  0.622473  0.877527  0.000000  1
  B  B9  1  0.377527  0.122473  0.000000  1
  Rh  Rh10  1  0.500000  0.000000  0.500000  1
  Rh  Rh11  1  0.000000  0.500000  0.500000  1
  Rh  Rh12  1  0.222798  0.071431  0.500000  1
  Rh  Rh13  1  0.777202  0.928569  0.500000  1
  Rh  Rh14  1  0.071431  0.777202  0.500000  1
  Rh  Rh15  1  0.722798  0.428569  0.500000  1
  Rh  Rh16  1  0.928569  0.222798  0.500000  1
  Rh  Rh17  1  0.277202  0.571431  0.500000  1
  Rh  Rh18  1  0.571431  0.722798  0.500000  1
  Rh  Rh19  1  0.428569  0.277202  0.500000  1
