# generated using pymatgen
data_NdDy4Y3Au4
_symmetry_space_group_name_H-M   'P 1'
_cell_length_a   4.90866000
_cell_length_b   7.29188615
_cell_length_c   8.78757200
_cell_angle_alpha   90.61944003
_cell_angle_beta   90.00000000
_cell_angle_gamma   90.00000000
_symmetry_Int_Tables_number   1
_chemical_formula_structural   NdDy4Y3Au4
_chemical_formula_sum   'Nd1 Dy4 Y3 Au4'
_cell_volume   314.51860853
_cell_formula_units_Z   1
loop_
 _symmetry_equiv_pos_site_id
 _symmetry_equiv_pos_as_xyz
  1  'x, y, z'
loop_
 _atom_site_type_symbol
 _atom_site_label
 _atom_site_symmetry_multiplicity
 _atom_site_fract_x
 _atom_site_fract_y
 _atom_site_fract_z
 _atom_site_occupancy
  Nd  Nd0  1  0.250000  0.013725  0.324608  1
  Dy  Dy1  1  0.250000  0.149111  0.922387  1
  Dy  Dy2  1  0.250000  0.649746  0.578433  1
  Dy  Dy3  1  0.750000  0.851390  0.077011  1
  Dy  Dy4  1  0.750000  0.348784  0.420566  1
  Y  Y5  1  0.250000  0.517329  0.174860  1
  Y  Y6  1  0.750000  0.983551  0.678360  1
  Y  Y7  1  0.750000  0.483870  0.820844  1
  Au  Au8  1  0.250000  0.255497  0.607062  1
  Au  Au9  1  0.250000  0.751540  0.899437  1
  Au  Au10  1  0.750000  0.743677  0.399330  1
  Au  Au11  1  0.750000  0.251781  0.097101  1
