# generated using pymatgen
data_Dy8TaTi10Si16Ir
_symmetry_space_group_name_H-M   'P 1'
_cell_length_a   7.03149855
_cell_length_b   7.03149852
_cell_length_c   12.88145578
_cell_angle_alpha   89.84942577
_cell_angle_beta   90.15057608
_cell_angle_gamma   89.89597625
_symmetry_Int_Tables_number   1
_chemical_formula_structural   Dy8TaTi10Si16Ir
_chemical_formula_sum   'Dy8 Ta1 Ti10 Si16 Ir1'
_cell_volume   636.87911571
_cell_formula_units_Z   1
loop_
 _symmetry_equiv_pos_site_id
 _symmetry_equiv_pos_as_xyz
  1  'x, y, z'
loop_
 _atom_site_type_symbol
 _atom_site_label
 _atom_site_symmetry_multiplicity
 _atom_site_fract_x
 _atom_site_fract_y
 _atom_site_fract_z
 _atom_site_occupancy
  Dy  Dy0  1  0.996131  0.659532  0.032402  1
  Dy  Dy1  1  0.002106  0.341828  0.531163  1
  Dy  Dy2  1  0.659532  0.996131  0.967598  1
  Dy  Dy3  1  0.158697  0.503263  0.781986  1
  Dy  Dy4  1  0.840841  0.499019  0.284948  1
  Dy  Dy5  1  0.503263  0.158697  0.218014  1
  Dy  Dy6  1  0.499019  0.840841  0.715052  1
  Dy  Dy7  1  0.341828  0.002106  0.468837  1
  Ta  Ta8  1  0.326291  0.326291  0.000000  1
  Ti  Ti9  1  0.343319  0.506693  0.375210  1
  Ti  Ti10  1  0.850196  0.997031  0.376335  1
  Ti  Ti11  1  0.007238  0.152558  0.124384  1
  Ti  Ti12  1  0.997031  0.850196  0.623665  1
  Ti  Ti13  1  0.506693  0.343319  0.624790  1
  Ti  Ti14  1  0.152558  0.007238  0.875616  1
  Ti  Ti15  1  0.824552  0.172849  0.748064  1
  Ti  Ti16  1  0.172849  0.824552  0.251936  1
  Ti  Ti17  1  0.492524  0.650513  0.127533  1
  Ti  Ti18  1  0.650513  0.492524  0.872467  1
  Si  Si19  1  0.048714  0.713471  0.436012  1
  Si  Si20  1  0.952049  0.291456  0.934199  1
  Si  Si21  1  0.713471  0.048714  0.563988  1
  Si  Si22  1  0.207149  0.453243  0.185052  1
  Si  Si23  1  0.789806  0.550453  0.681569  1
  Si  Si24  1  0.453243  0.207149  0.814948  1
  Si  Si25  1  0.550453  0.789806  0.318431  1
  Si  Si26  1  0.291456  0.952049  0.065801  1
  Si  Si27  1  0.798114  0.867896  0.185837  1
  Si  Si28  1  0.299008  0.627331  0.565702  1
  Si  Si29  1  0.703530  0.369081  0.065350  1
  Si  Si30  1  0.627331  0.299008  0.434298  1
  Si  Si31  1  0.369081  0.703530  0.934650  1
  Si  Si32  1  0.131156  0.203131  0.316040  1
  Si  Si33  1  0.203131  0.131156  0.683960  1
  Si  Si34  1  0.867896  0.798114  0.814163  1
  Ir  Ir35  1  0.669230  0.669230  0.500000  1
