# generated using pymatgen
data_V10B4AsS
_symmetry_space_group_name_H-M   'P 1'
_cell_length_a   6.72499288
_cell_length_b   6.72499358
_cell_length_c   6.72499443
_cell_angle_alpha   129.34367765
_cell_angle_beta   129.34368131
_cell_angle_gamma   74.45820674
_symmetry_Int_Tables_number   1
_chemical_formula_structural   V10B4AsS
_chemical_formula_sum   'V10 B4 As1 S1'
_cell_volume   177.27852380
_cell_formula_units_Z   1
loop_
 _symmetry_equiv_pos_site_id
 _symmetry_equiv_pos_as_xyz
  1  'x, y, z'
loop_
 _atom_site_type_symbol
 _atom_site_label
 _atom_site_symmetry_multiplicity
 _atom_site_fract_x
 _atom_site_fract_y
 _atom_site_fract_z
 _atom_site_occupancy
  V  V0  1  0.534870  0.697591  0.509315  1
  V  V1  1  0.025555  0.534870  0.837279  1
  V  V2  1  0.697591  0.188276  0.162721  1
  V  V3  1  0.965130  0.474445  0.162721  1
  V  V4  1  0.188276  0.025555  0.490685  1
  V  V5  1  0.474445  0.311724  0.509315  1
  V  V6  1  0.802409  0.965130  0.490685  1
  V  V7  1  0.311724  0.802409  0.837279  1
  V  V8  1  0.000613  0.000613  0.000000  1
  V  V9  1  0.499387  0.499387  0.000000  1
  B  B10  1  0.615005  0.115005  0.730010  1
  B  B11  1  0.115005  0.384995  0.500000  1
  B  B12  1  0.884995  0.615005  0.500000  1
  B  B13  1  0.384995  0.884995  0.269990  1
  As  As14  1  0.250000  0.250000  0.000000  1
  S  S15  1  0.750000  0.750000  0.000000  1
