# generated using pymatgen
data_DyY(ScPt)2
_symmetry_space_group_name_H-M   'P 1'
_cell_length_a   4.61377900
_cell_length_b   6.99828000
_cell_length_c   8.42595300
_cell_angle_alpha   90.00000000
_cell_angle_beta   90.00000000
_cell_angle_gamma   90.00000000
_symmetry_Int_Tables_number   1
_chemical_formula_structural   DyY(ScPt)2
_chemical_formula_sum   'Dy2 Y2 Sc4 Pt4'
_cell_volume   272.06152921
_cell_formula_units_Z   2
loop_
 _symmetry_equiv_pos_site_id
 _symmetry_equiv_pos_as_xyz
  1  'x, y, z'
loop_
 _atom_site_type_symbol
 _atom_site_label
 _atom_site_symmetry_multiplicity
 _atom_site_fract_x
 _atom_site_fract_y
 _atom_site_fract_z
 _atom_site_occupancy
  Dy  Dy0  1  0.250000  0.985959  0.323961  1
  Dy  Dy1  1  0.250000  0.485959  0.176039  1
  Y  Y2  1  0.750000  0.014476  0.677248  1
  Y  Y3  1  0.750000  0.514476  0.822752  1
  Sc  Sc4  1  0.250000  0.859224  0.926849  1
  Sc  Sc5  1  0.250000  0.359224  0.573151  1
  Sc  Sc6  1  0.750000  0.140637  0.073379  1
  Sc  Sc7  1  0.750000  0.640637  0.426621  1
  Pt  Pt8  1  0.250000  0.243088  0.904779  1
  Pt  Pt9  1  0.250000  0.743088  0.595221  1
  Pt  Pt10  1  0.750000  0.756615  0.096813  1
  Pt  Pt11  1  0.750000  0.256615  0.403187  1
