# generated using pymatgen
data_Pr5Th3(Si3Pd)4
_symmetry_space_group_name_H-M   'P 1'
_cell_length_a   8.27002936
_cell_length_b   8.28021549
_cell_length_c   8.56708600
_cell_angle_alpha   90.00000000
_cell_angle_beta   90.00000000
_cell_angle_gamma   119.82890480
_symmetry_Int_Tables_number   1
_chemical_formula_structural   Pr5Th3(Si3Pd)4
_chemical_formula_sum   'Pr5 Th3 Si12 Pd4'
_cell_volume   508.93066949
_cell_formula_units_Z   1
loop_
 _symmetry_equiv_pos_site_id
 _symmetry_equiv_pos_as_xyz
  1  'x, y, z'
loop_
 _atom_site_type_symbol
 _atom_site_label
 _atom_site_symmetry_multiplicity
 _atom_site_fract_x
 _atom_site_fract_y
 _atom_site_fract_z
 _atom_site_occupancy
  Pr  Pr0  1  0.999365  0.499587  0.250000  1
  Pr  Pr1  1  0.499577  0.999300  0.750000  1
  Pr  Pr2  1  0.500496  0.000936  0.250000  1
  Pr  Pr3  1  0.999863  0.999904  0.750000  1
  Pr  Pr4  1  0.999891  0.999902  0.250000  1
  Th  Th5  1  0.499880  0.499858  0.750000  1
  Th  Th6  1  0.499907  0.500007  0.250000  1
  Th  Th7  1  0.000061  0.499923  0.750000  1
  Si  Si8  1  0.833566  0.166786  0.997674  1
  Si  Si9  1  0.166475  0.833085  0.998789  1
  Si  Si10  1  0.331752  0.166004  0.999787  1
  Si  Si11  1  0.166475  0.833085  0.501211  1
  Si  Si12  1  0.668350  0.834064  0.000469  1
  Si  Si13  1  0.833566  0.166786  0.502326  1
  Si  Si14  1  0.835050  0.669891  0.998572  1
  Si  Si15  1  0.668350  0.834064  0.499531  1
  Si  Si16  1  0.165017  0.330287  0.998785  1
  Si  Si17  1  0.331752  0.166004  0.500213  1
  Si  Si18  1  0.165017  0.330287  0.501215  1
  Si  Si19  1  0.835050  0.669891  0.501428  1
  Pd  Pd20  1  0.666678  0.336501  0.996427  1
  Pd  Pd21  1  0.333593  0.663674  0.998608  1
  Pd  Pd22  1  0.333593  0.663674  0.501392  1
  Pd  Pd23  1  0.666678  0.336501  0.503573  1
