# generated using pymatgen
data_Be8ZnCrIr2
_symmetry_space_group_name_H-M   'P 1'
_cell_length_a   4.33023900
_cell_length_b   4.33023927
_cell_length_c   7.08238800
_cell_angle_alpha   90.00000000
_cell_angle_beta   90.00000000
_cell_angle_gamma   120.00000559
_symmetry_Int_Tables_number   1
_chemical_formula_structural   Be8ZnCrIr2
_chemical_formula_sum   'Be8 Zn1 Cr1 Ir2'
_cell_volume   115.00959758
_cell_formula_units_Z   1
loop_
 _symmetry_equiv_pos_site_id
 _symmetry_equiv_pos_as_xyz
  1  'x, y, z'
loop_
 _atom_site_type_symbol
 _atom_site_label
 _atom_site_symmetry_multiplicity
 _atom_site_fract_x
 _atom_site_fract_y
 _atom_site_fract_z
 _atom_site_occupancy
  Be  Be0  1  0.167091  0.334180  0.748484  1
  Be  Be1  1  0.167091  0.832909  0.748484  1
  Be  Be2  1  0.340171  0.170086  0.251177  1
  Be  Be3  1  0.829914  0.659829  0.251177  1
  Be  Be4  1  0.000000  0.000000  0.998983  1
  Be  Be5  1  0.665820  0.832909  0.748484  1
  Be  Be6  1  0.829914  0.170086  0.251177  1
  Be  Be7  1  0.000000  0.000000  0.496765  1
  Zn  Zn8  1  0.333333  0.666667  0.063807  1
  Cr  Cr9  1  0.666667  0.333333  0.560910  1
  Ir  Ir10  1  0.333333  0.666667  0.446517  1
  Ir  Ir11  1  0.666667  0.333333  0.934038  1
