# generated using pymatgen
data_Lu3ScAl18AgRh5
_symmetry_space_group_name_H-M   'P 1'
_cell_length_a   7.54193269
_cell_length_b   7.53897379
_cell_length_c   9.38601531
_cell_angle_alpha   89.97157937
_cell_angle_beta   89.94351231
_cell_angle_gamma   119.40701364
_symmetry_Int_Tables_number   1
_chemical_formula_structural   Lu3ScAl18AgRh5
_chemical_formula_sum   'Lu3 Sc1 Al18 Ag1 Rh5'
_cell_volume   464.91167215
_cell_formula_units_Z   1
loop_
 _symmetry_equiv_pos_site_id
 _symmetry_equiv_pos_as_xyz
  1  'x, y, z'
loop_
 _atom_site_type_symbol
 _atom_site_label
 _atom_site_symmetry_multiplicity
 _atom_site_fract_x
 _atom_site_fract_y
 _atom_site_fract_z
 _atom_site_occupancy
  Lu  Lu0  1  0.004547  0.325042  0.748752  1
  Lu  Lu1  1  0.675468  0.995938  0.251135  1
  Lu  Lu2  1  0.324476  0.004155  0.748631  1
  Sc  Sc3  1  0.996029  0.675271  0.251020  1
  Al  Al4  1  0.133758  0.132876  0.256719  1
  Al  Al5  1  0.864507  0.863760  0.743029  1
  Al  Al6  1  0.000177  0.347772  0.083566  1
  Al  Al7  1  0.999369  0.655420  0.922435  1
  Al  Al8  1  0.001098  0.664011  0.571738  1
  Al  Al9  1  0.333707  0.996026  0.422363  1
  Al  Al10  1  0.998711  0.338722  0.422405  1
  Al  Al11  1  0.663538  0.000743  0.574736  1
  Al  Al12  1  0.654773  0.999006  0.920037  1
  Al  Al13  1  0.342076  0.997853  0.082939  1
  Al  Al14  1  0.332608  0.332534  0.551861  1
  Al  Al15  1  0.669836  0.667786  0.444204  1
  Al  Al16  1  0.660904  0.658727  0.061486  1
  Al  Al17  1  0.341809  0.341772  0.942198  1
  Al  Al18  1  0.338396  0.553926  0.251433  1
  Al  Al19  1  0.661177  0.447713  0.748704  1
  Al  Al20  1  0.556240  0.340778  0.251526  1
  Al  Al21  1  0.447167  0.660445  0.748685  1
  Ag  Ag22  1  0.999895  0.000728  0.999982  1
  Rh  Rh23  1  0.671753  0.327200  0.000258  1
  Rh  Rh24  1  0.328144  0.672143  0.000354  1
  Rh  Rh25  1  0.328194  0.672066  0.499869  1
  Rh  Rh26  1  0.671821  0.327335  0.499990  1
  Rh  Rh27  1  0.999822  0.000251  0.499947  1
