# generated using pymatgen
data_PrHo15Cd4(OsPd)2
_symmetry_space_group_name_H-M   'P 1'
_cell_length_a   9.65618239
_cell_length_b   9.65618317
_cell_length_c   9.74532600
_cell_angle_alpha   59.69415244
_cell_angle_beta   59.69414975
_cell_angle_gamma   59.13574241
_symmetry_Int_Tables_number   1
_chemical_formula_structural   PrHo15Cd4(OsPd)2
_chemical_formula_sum   'Pr1 Ho15 Cd4 Os2 Pd2'
_cell_volume   635.29877673
_cell_formula_units_Z   1
loop_
 _symmetry_equiv_pos_site_id
 _symmetry_equiv_pos_as_xyz
  1  'x, y, z'
loop_
 _atom_site_type_symbol
 _atom_site_label
 _atom_site_symmetry_multiplicity
 _atom_site_fract_x
 _atom_site_fract_y
 _atom_site_fract_z
 _atom_site_occupancy
  Pr  Pr0  1  0.936024  0.936024  0.563976  1
  Ho  Ho1  1  0.351105  0.351105  0.353011  1
  Ho  Ho2  1  0.351105  0.351105  0.944781  1
  Ho  Ho3  1  0.346132  0.955266  0.349302  1
  Ho  Ho4  1  0.955266  0.346132  0.349302  1
  Ho  Ho5  1  0.816609  0.187835  0.187995  1
  Ho  Ho6  1  0.187835  0.816609  0.807561  1
  Ho  Ho7  1  0.187835  0.816609  0.187995  1
  Ho  Ho8  1  0.816609  0.187835  0.807561  1
  Ho  Ho9  1  0.187686  0.187686  0.812314  1
  Ho  Ho10  1  0.809709  0.809709  0.190291  1
  Ho  Ho11  1  0.937206  0.552737  0.568486  1
  Ho  Ho12  1  0.552737  0.937206  0.941571  1
  Ho  Ho13  1  0.552737  0.937206  0.568486  1
  Ho  Ho14  1  0.937206  0.552737  0.941571  1
  Ho  Ho15  1  0.565106  0.565106  0.934894  1
  Cd  Cd16  1  0.580859  0.580859  0.581100  1
  Cd  Cd17  1  0.580859  0.580859  0.257182  1
  Cd  Cd18  1  0.577205  0.257911  0.582441  1
  Cd  Cd19  1  0.257911  0.577205  0.582441  1
  Os  Os20  1  0.146900  0.146900  0.133547  1
  Os  Os21  1  0.146900  0.146900  0.572653  1
  Pd  Pd22  1  0.146301  0.572157  0.140770  1
  Pd  Pd23  1  0.572157  0.146301  0.140770  1
