# generated using pymatgen
data_Na2US6
_symmetry_space_group_name_H-M   'P 1'
_cell_length_a   5.20383100
_cell_length_b   5.20383100
_cell_length_c   15.29573200
_cell_angle_alpha   90.00000000
_cell_angle_beta   90.00000000
_cell_angle_gamma   90.00000000
_symmetry_Int_Tables_number   1
_chemical_formula_structural   Na2US6
_chemical_formula_sum   'Na4 U2 S12'
_cell_volume   414.20623644
_cell_formula_units_Z   2
loop_
 _symmetry_equiv_pos_site_id
 _symmetry_equiv_pos_as_xyz
  1  'x, y, z'
loop_
 _atom_site_type_symbol
 _atom_site_label
 _atom_site_symmetry_multiplicity
 _atom_site_fract_x
 _atom_site_fract_y
 _atom_site_fract_z
 _atom_site_occupancy
  Na  Na0  1  0.000000  0.000000  0.134970  1
  Na  Na1  1  0.500000  0.500000  0.634970  1
  Na  Na2  1  0.500000  0.500000  0.365030  1
  Na  Na3  1  0.000000  0.000000  0.865030  1
  U  U4  1  0.000000  0.000000  0.500000  1
  U  U5  1  0.500000  0.500000  0.000000  1
  S  S6  1  0.303634  0.500000  0.163058  1
  S  S7  1  0.696366  0.500000  0.163058  1
  S  S8  1  0.000000  0.803634  0.663058  1
  S  S9  1  0.000000  0.196366  0.663058  1
  S  S10  1  0.196366  0.000000  0.336942  1
  S  S11  1  0.803634  0.000000  0.336942  1
  S  S12  1  0.500000  0.696366  0.836942  1
  S  S13  1  0.500000  0.303634  0.836942  1
  S  S14  1  0.000000  0.500000  0.981280  1
  S  S15  1  0.000000  0.500000  0.481280  1
  S  S16  1  0.500000  0.000000  0.518720  1
  S  S17  1  0.500000  0.000000  0.018720  1
