# generated using pymatgen
data_Ta2CrF12
_symmetry_space_group_name_H-M   'P 1'
_cell_length_a   5.34579655
_cell_length_b   5.62036127
_cell_length_c   9.24622980
_cell_angle_alpha   104.08985859
_cell_angle_beta   88.48138326
_cell_angle_gamma   117.47097438
_symmetry_Int_Tables_number   1
_chemical_formula_structural   Ta2CrF12
_chemical_formula_sum   'Ta2 Cr1 F12'
_cell_volume   237.87517452
_cell_formula_units_Z   1
loop_
 _symmetry_equiv_pos_site_id
 _symmetry_equiv_pos_as_xyz
  1  'x, y, z'
loop_
 _atom_site_type_symbol
 _atom_site_label
 _atom_site_symmetry_multiplicity
 _atom_site_fract_x
 _atom_site_fract_y
 _atom_site_fract_z
 _atom_site_occupancy
  Ta  Ta0  1  0.776793  0.509146  0.266825  1
  Ta  Ta1  1  0.223207  0.490854  0.733175  1
  Cr  Cr2  1  0.000000  0.000000  0.000000  1
  F  F3  1  0.828332  0.269492  0.720862  1
  F  F4  1  0.171668  0.730508  0.279138  1
  F  F5  1  0.178508  0.746002  0.918513  1
  F  F6  1  0.713282  0.732073  0.433166  1
  F  F7  1  0.286718  0.267927  0.566834  1
  F  F8  1  0.794597  0.271614  0.372147  1
  F  F9  1  0.205403  0.728386  0.627853  1
  F  F10  1  0.376300  0.284288  0.196714  1
  F  F11  1  0.623700  0.715712  0.803286  1
  F  F12  1  0.767922  0.734715  0.128529  1
  F  F13  1  0.232078  0.265285  0.871471  1
  F  F14  1  0.821492  0.253998  0.081487  1
