# generated using pymatgen
data_La3TbDy(Sn5Ir2)2
_symmetry_space_group_name_H-M   'P 1'
_cell_length_a   14.18614521
_cell_length_b   14.18614521
_cell_length_c   4.65740000
_cell_angle_alpha   90.00000000
_cell_angle_beta   90.00000000
_cell_angle_gamma   89.98051656
_symmetry_Int_Tables_number   1
_chemical_formula_structural   La3TbDy(Sn5Ir2)2
_chemical_formula_sum   'La6 Tb2 Dy2 Sn20 Ir8'
_cell_volume   937.28639988
_cell_formula_units_Z   2
loop_
 _symmetry_equiv_pos_site_id
 _symmetry_equiv_pos_as_xyz
  1  'x, y, z'
loop_
 _atom_site_type_symbol
 _atom_site_label
 _atom_site_symmetry_multiplicity
 _atom_site_fract_x
 _atom_site_fract_y
 _atom_site_fract_z
 _atom_site_occupancy
  La  La0  1  0.500000  0.500000  0.000000  1
  La  La1  1  0.000000  0.000000  0.000000  1
  La  La2  1  0.886889  0.386889  0.500000  1
  La  La3  1  0.113111  0.613111  0.500000  1
  La  La4  1  0.386944  0.113056  0.500000  1
  La  La5  1  0.613056  0.886944  0.500000  1
  Tb  Tb6  1  0.175605  0.324395  0.500000  1
  Tb  Tb7  1  0.824395  0.675605  0.500000  1
  Dy  Dy8  1  0.675487  0.175487  0.500000  1
  Dy  Dy9  1  0.324513  0.824513  0.500000  1
  Sn  Sn10  1  0.570055  0.070055  0.000000  1
  Sn  Sn11  1  0.429945  0.929945  0.000000  1
  Sn  Sn12  1  0.069978  0.430022  0.000000  1
  Sn  Sn13  1  0.930022  0.569978  0.000000  1
  Sn  Sn14  1  0.655388  0.698407  0.000000  1
  Sn  Sn15  1  0.344612  0.301593  0.000000  1
  Sn  Sn16  1  0.155522  0.801660  0.000000  1
  Sn  Sn17  1  0.844478  0.198340  0.000000  1
  Sn  Sn18  1  0.301660  0.655522  0.000000  1
  Sn  Sn19  1  0.698340  0.344478  0.000000  1
  Sn  Sn20  1  0.198407  0.155388  0.000000  1
  Sn  Sn21  1  0.801593  0.844612  0.000000  1
  Sn  Sn22  1  0.663460  0.506346  0.500000  1
  Sn  Sn23  1  0.336540  0.493654  0.500000  1
  Sn  Sn24  1  0.163495  0.993593  0.500000  1
  Sn  Sn25  1  0.836505  0.006407  0.500000  1
  Sn  Sn26  1  0.493593  0.663495  0.500000  1
  Sn  Sn27  1  0.506407  0.336505  0.500000  1
  Sn  Sn28  1  0.006346  0.163460  0.500000  1
  Sn  Sn29  1  0.993654  0.836540  0.500000  1
  Ir  Ir30  1  0.747241  0.529381  0.000000  1
  Ir  Ir31  1  0.252759  0.470619  0.000000  1
  Ir  Ir32  1  0.247325  0.970431  0.000000  1
  Ir  Ir33  1  0.752675  0.029569  0.000000  1
  Ir  Ir34  1  0.470431  0.747325  0.000000  1
  Ir  Ir35  1  0.529569  0.252675  0.000000  1
  Ir  Ir36  1  0.029381  0.247241  0.000000  1
  Ir  Ir37  1  0.970619  0.752759  0.000000  1
