# generated using pymatgen
data_YLu4(Cd2Pt)2
_symmetry_space_group_name_H-M   'P 1'
_cell_length_a   3.54753700
_cell_length_b   7.95259200
_cell_length_c   18.32105300
_cell_angle_alpha   90.00000000
_cell_angle_beta   90.00000000
_cell_angle_gamma   90.00000000
_symmetry_Int_Tables_number   1
_chemical_formula_structural   YLu4(Cd2Pt)2
_chemical_formula_sum   'Y2 Lu8 Cd8 Pt4'
_cell_volume   516.87564254
_cell_formula_units_Z   2
loop_
 _symmetry_equiv_pos_site_id
 _symmetry_equiv_pos_as_xyz
  1  'x, y, z'
loop_
 _atom_site_type_symbol
 _atom_site_label
 _atom_site_symmetry_multiplicity
 _atom_site_fract_x
 _atom_site_fract_y
 _atom_site_fract_z
 _atom_site_occupancy
  Y  Y0  1  0.000000  0.000000  0.000000  1
  Y  Y1  1  0.000000  0.500000  0.500000  1
  Lu  Lu2  1  0.000000  0.115326  0.414167  1
  Lu  Lu3  1  0.000000  0.884674  0.585833  1
  Lu  Lu4  1  0.000000  0.384674  0.914167  1
  Lu  Lu5  1  0.000000  0.615326  0.085833  1
  Lu  Lu6  1  0.000000  0.244070  0.220063  1
  Lu  Lu7  1  0.000000  0.755930  0.779937  1
  Lu  Lu8  1  0.000000  0.255930  0.720063  1
  Lu  Lu9  1  0.000000  0.744070  0.279937  1
  Cd  Cd10  1  0.500000  0.425870  0.351802  1
  Cd  Cd11  1  0.500000  0.574130  0.648198  1
  Cd  Cd12  1  0.500000  0.074130  0.851802  1
  Cd  Cd13  1  0.500000  0.925870  0.148198  1
  Cd  Cd14  1  0.500000  0.291780  0.066363  1
  Cd  Cd15  1  0.500000  0.708220  0.933637  1
  Cd  Cd16  1  0.500000  0.208220  0.566363  1
  Cd  Cd17  1  0.500000  0.791780  0.433637  1
  Pt  Pt18  1  0.500000  0.027418  0.303655  1
  Pt  Pt19  1  0.500000  0.972582  0.696345  1
  Pt  Pt20  1  0.500000  0.472582  0.803655  1
  Pt  Pt21  1  0.500000  0.527418  0.196345  1
