# generated using pymatgen
data_Y3Ho5Mo2(OsC4)2
_symmetry_space_group_name_H-M   'P 1'
_cell_length_a   5.09382900
_cell_length_b   6.59050778
_cell_length_c   9.88806937
_cell_angle_alpha   89.17354070
_cell_angle_beta   90.00000000
_cell_angle_gamma   90.00000000
_symmetry_Int_Tables_number   1
_chemical_formula_structural   Y3Ho5Mo2(OsC4)2
_chemical_formula_sum   'Y3 Ho5 Mo2 Os2 C8'
_cell_volume   331.91704934
_cell_formula_units_Z   1
loop_
 _symmetry_equiv_pos_site_id
 _symmetry_equiv_pos_as_xyz
  1  'x, y, z'
loop_
 _atom_site_type_symbol
 _atom_site_label
 _atom_site_symmetry_multiplicity
 _atom_site_fract_x
 _atom_site_fract_y
 _atom_site_fract_z
 _atom_site_occupancy
  Y  Y0  1  0.750000  0.462220  0.781862  1
  Y  Y1  1  0.750000  0.968655  0.716083  1
  Y  Y2  1  0.250000  0.031398  0.283850  1
  Ho  Ho3  1  0.250000  0.677642  0.557890  1
  Ho  Ho4  1  0.750000  0.322431  0.441869  1
  Ho  Ho5  1  0.750000  0.824880  0.058332  1
  Ho  Ho6  1  0.250000  0.175101  0.941839  1
  Ho  Ho7  1  0.250000  0.537989  0.218204  1
  Mo  Mo8  1  0.250000  0.716509  0.867533  1
  Mo  Mo9  1  0.750000  0.283741  0.132740  1
  Os  Os10  1  0.750000  0.779751  0.366440  1
  Os  Os11  1  0.250000  0.220328  0.633235  1
  C  C12  1  0.250000  0.449311  0.757092  1
  C  C13  1  0.750000  0.550785  0.242718  1
  C  C14  1  0.750000  0.046200  0.260377  1
  C  C15  1  0.250000  0.953896  0.739653  1
  C  C16  1  0.250000  0.823468  0.051994  1
  C  C17  1  0.750000  0.175279  0.948737  1
  C  C18  1  0.750000  0.676216  0.548468  1
  C  C19  1  0.250000  0.324203  0.451084  1
