# generated using pymatgen
data_Lu8Si15BW12
_symmetry_space_group_name_H-M   'P 1'
_cell_length_a   6.66352536
_cell_length_b   6.84148250
_cell_length_c   12.78547500
_cell_angle_alpha   90.00000000
_cell_angle_beta   90.00000000
_cell_angle_gamma   89.40207512
_symmetry_Int_Tables_number   1
_chemical_formula_structural   Lu8Si15BW12
_chemical_formula_sum   'Lu8 Si15 B1 W12'
_cell_volume   582.83750915
_cell_formula_units_Z   1
loop_
 _symmetry_equiv_pos_site_id
 _symmetry_equiv_pos_as_xyz
  1  'x, y, z'
loop_
 _atom_site_type_symbol
 _atom_site_label
 _atom_site_symmetry_multiplicity
 _atom_site_fract_x
 _atom_site_fract_y
 _atom_site_fract_z
 _atom_site_occupancy
  Lu  Lu0  1  0.498046  0.661094  0.597642  1
  Lu  Lu1  1  0.996232  0.829245  0.904601  1
  Lu  Lu2  1  0.504732  0.331720  0.091880  1
  Lu  Lu3  1  0.006292  0.168689  0.407828  1
  Lu  Lu4  1  0.504732  0.331720  0.408120  1
  Lu  Lu5  1  0.006292  0.168689  0.092172  1
  Lu  Lu6  1  0.498046  0.661094  0.902358  1
  Lu  Lu7  1  0.996232  0.829245  0.595399  1
  Si  Si8  1  0.664032  0.961767  0.457201  1
  Si  Si9  1  0.165328  0.541315  0.044359  1
  Si  Si10  1  0.334056  0.037176  0.954430  1
  Si  Si11  1  0.840112  0.456595  0.546117  1
  Si  Si12  1  0.334056  0.037176  0.545570  1
  Si  Si13  1  0.840112  0.456595  0.953883  1
  Si  Si14  1  0.664032  0.961767  0.042799  1
  Si  Si15  1  0.165328  0.541315  0.455641  1
  Si  Si16  1  0.960528  0.128376  0.750000  1
  Si  Si17  1  0.535136  0.624496  0.250000  1
  Si  Si18  1  0.035089  0.873130  0.250000  1
  Si  Si19  1  0.698700  0.870085  0.750000  1
  Si  Si20  1  0.203815  0.631560  0.750000  1
  Si  Si21  1  0.302164  0.137054  0.250000  1
  Si  Si22  1  0.802120  0.361463  0.250000  1
  B  B23  1  0.459144  0.367011  0.750000  1
  W  W24  1  0.651978  0.178770  0.629346  1
  W  W25  1  0.179929  0.337874  0.872119  1
  W  W26  1  0.333539  0.835583  0.124785  1
  W  W27  1  0.829609  0.662432  0.376423  1
  W  W28  1  0.333539  0.835583  0.375215  1
  W  W29  1  0.829609  0.662432  0.123577  1
  W  W30  1  0.651978  0.178770  0.870654  1
  W  W31  1  0.179929  0.337874  0.627881  1
  W  W32  1  0.831204  0.496976  0.750000  1
  W  W33  1  0.332766  0.004509  0.750000  1
  W  W34  1  0.164979  0.498871  0.250000  1
  W  W35  1  0.666584  0.001952  0.250000  1
