# generated using pymatgen
data_YEr3TcB12Rh
_symmetry_space_group_name_H-M   'P 1'
_cell_length_a   3.66595500
_cell_length_b   9.11788180
_cell_length_c   11.51277108
_cell_angle_alpha   90.35394064
_cell_angle_beta   90.00000000
_cell_angle_gamma   90.00000000
_symmetry_Int_Tables_number   1
_chemical_formula_structural   YEr3TcB12Rh
_chemical_formula_sum   'Y2 Er6 Tc2 B24 Rh2'
_cell_volume   384.81560089
_cell_formula_units_Z   2
loop_
 _symmetry_equiv_pos_site_id
 _symmetry_equiv_pos_as_xyz
  1  'x, y, z'
loop_
 _atom_site_type_symbol
 _atom_site_label
 _atom_site_symmetry_multiplicity
 _atom_site_fract_x
 _atom_site_fract_y
 _atom_site_fract_z
 _atom_site_occupancy
  Y  Y0  1  0.500000  0.318342  0.411052  1
  Y  Y1  1  0.500000  0.681658  0.588948  1
  Er  Er2  1  0.500000  0.173610  0.917578  1
  Er  Er3  1  0.500000  0.826390  0.082422  1
  Er  Er4  1  0.500000  0.441487  0.126530  1
  Er  Er5  1  0.500000  0.558513  0.873470  1
  Er  Er6  1  0.500000  0.054216  0.628996  1
  Er  Er7  1  0.500000  0.945784  0.371004  1
  Tc  Tc8  1  0.500000  0.138355  0.179383  1
  Tc  Tc9  1  0.500000  0.861645  0.820617  1
  B  B10  1  0.000000  0.105816  0.471524  1
  B  B11  1  0.000000  0.894184  0.528476  1
  B  B12  1  0.000000  0.393834  0.970473  1
  B  B13  1  0.000000  0.606166  0.029527  1
  B  B14  1  0.000000  0.131382  0.314593  1
  B  B15  1  0.000000  0.868618  0.685407  1
  B  B16  1  0.000000  0.367787  0.817170  1
  B  B17  1  0.000000  0.632213  0.182830  1
  B  B18  1  0.000000  0.053069  0.066974  1
  B  B19  1  0.000000  0.946931  0.933026  1
  B  B20  1  0.000000  0.445334  0.566345  1
  B  B21  1  0.000000  0.554666  0.433655  1
  B  B22  1  0.000000  0.483350  0.287081  1
  B  B23  1  0.000000  0.516650  0.712919  1
  B  B24  1  0.000000  0.017352  0.787483  1
  B  B25  1  0.000000  0.982648  0.212517  1
  B  B26  1  0.000000  0.248220  0.080678  1
  B  B27  1  0.000000  0.751780  0.919322  1
  B  B28  1  0.000000  0.250252  0.579476  1
  B  B29  1  0.000000  0.749748  0.420524  1
  B  B30  1  0.000000  0.292397  0.234214  1
  B  B31  1  0.000000  0.707603  0.765786  1
  B  B32  1  0.000000  0.208447  0.735521  1
  B  B33  1  0.000000  0.791553  0.264479  1
  Rh  Rh34  1  0.500000  0.361908  0.679291  1
  Rh  Rh35  1  0.500000  0.638092  0.320709  1
