# generated using pymatgen
data_Tb3Dy2(GeB4)2
_symmetry_space_group_name_H-M   'P 1'
_cell_length_a   7.27232403
_cell_length_b   7.27232403
_cell_length_c   8.18239500
_cell_angle_alpha   90.00000000
_cell_angle_beta   90.00000000
_cell_angle_gamma   90.01051006
_symmetry_Int_Tables_number   1
_chemical_formula_structural   Tb3Dy2(GeB4)2
_chemical_formula_sum   'Tb6 Dy4 Ge4 B16'
_cell_volume   432.73983623
_cell_formula_units_Z   2
loop_
 _symmetry_equiv_pos_site_id
 _symmetry_equiv_pos_as_xyz
  1  'x, y, z'
loop_
 _atom_site_type_symbol
 _atom_site_label
 _atom_site_symmetry_multiplicity
 _atom_site_fract_x
 _atom_site_fract_y
 _atom_site_fract_z
 _atom_site_occupancy
  Tb  Tb0  1  0.680349  0.180398  0.221319  1
  Tb  Tb1  1  0.319602  0.819651  0.778681  1
  Tb  Tb2  1  0.319602  0.819651  0.221319  1
  Tb  Tb3  1  0.819737  0.680263  0.221095  1
  Tb  Tb4  1  0.819737  0.680263  0.778905  1
  Tb  Tb5  1  0.680349  0.180398  0.778681  1
  Dy  Dy6  1  0.180333  0.319667  0.779912  1
  Dy  Dy7  1  0.180333  0.319667  0.220088  1
  Dy  Dy8  1  0.000143  0.000254  0.500000  1
  Dy  Dy9  1  0.499746  0.499857  0.500000  1
  Ge  Ge10  1  0.120087  0.619532  0.500000  1
  Ge  Ge11  1  0.880468  0.379913  0.500000  1
  Ge  Ge12  1  0.379836  0.120164  0.500000  1
  Ge  Ge13  1  0.619657  0.880343  0.500000  1
  B  B14  1  0.172040  0.039704  0.000000  1
  B  B15  1  0.828178  0.960688  0.000000  1
  B  B16  1  0.960951  0.172143  0.000000  1
  B  B17  1  0.327857  0.539049  0.000000  1
  B  B18  1  0.039389  0.828101  0.000000  1
  B  B19  1  0.671899  0.460611  0.000000  1
  B  B20  1  0.539312  0.671822  0.000000  1
  B  B21  1  0.460296  0.327960  0.000000  1
  B  B22  1  0.090477  0.590144  0.000000  1
  B  B23  1  0.909856  0.409523  0.000000  1
  B  B24  1  0.409460  0.090540  0.000000  1
  B  B25  1  0.590468  0.909532  0.000000  1
  B  B26  1  0.000190  0.000272  0.160997  1
  B  B27  1  0.000190  0.000272  0.839003  1
  B  B28  1  0.499728  0.499810  0.839003  1
  B  B29  1  0.499728  0.499810  0.160997  1
