# generated using pymatgen
data_Y3Mn5(P3Ir2)2
_symmetry_space_group_name_H-M   'P 1'
_cell_length_a   3.85917600
_cell_length_b   10.71925500
_cell_length_c   12.74580700
_cell_angle_alpha   90.00000000
_cell_angle_beta   90.00000000
_cell_angle_gamma   90.00000000
_symmetry_Int_Tables_number   1
_chemical_formula_structural   Y3Mn5(P3Ir2)2
_chemical_formula_sum   'Y6 Mn10 P12 Ir8'
_cell_volume   527.26206444
_cell_formula_units_Z   2
loop_
 _symmetry_equiv_pos_site_id
 _symmetry_equiv_pos_as_xyz
  1  'x, y, z'
loop_
 _atom_site_type_symbol
 _atom_site_label
 _atom_site_symmetry_multiplicity
 _atom_site_fract_x
 _atom_site_fract_y
 _atom_site_fract_z
 _atom_site_occupancy
  Y  Y0  1  0.000000  0.500000  0.523306  1
  Y  Y1  1  0.500000  0.000000  0.476694  1
  Y  Y2  1  0.500000  0.816583  0.201795  1
  Y  Y3  1  0.500000  0.183417  0.201795  1
  Y  Y4  1  0.000000  0.683417  0.798205  1
  Y  Y5  1  0.000000  0.316583  0.798205  1
  Mn  Mn6  1  0.000000  0.500000  0.991485  1
  Mn  Mn7  1  0.500000  0.000000  0.008515  1
  Mn  Mn8  1  0.500000  0.883850  0.710877  1
  Mn  Mn9  1  0.500000  0.116150  0.710877  1
  Mn  Mn10  1  0.000000  0.616150  0.289123  1
  Mn  Mn11  1  0.000000  0.383850  0.289123  1
  Mn  Mn12  1  0.500000  0.328150  0.996109  1
  Mn  Mn13  1  0.500000  0.671850  0.996109  1
  Mn  Mn14  1  0.000000  0.171850  0.003891  1
  Mn  Mn15  1  0.000000  0.828150  0.003891  1
  P  P16  1  0.500000  0.303382  0.623574  1
  P  P17  1  0.500000  0.696618  0.623574  1
  P  P18  1  0.000000  0.196618  0.376426  1
  P  P19  1  0.000000  0.803382  0.376426  1
  P  P20  1  0.500000  0.500000  0.886550  1
  P  P21  1  0.000000  0.000000  0.113450  1
  P  P22  1  0.500000  0.847158  0.887040  1
  P  P23  1  0.500000  0.152842  0.887040  1
  P  P24  1  0.000000  0.652842  0.112960  1
  P  P25  1  0.000000  0.347158  0.112960  1
  P  P26  1  0.500000  0.500000  0.339828  1
  P  P27  1  0.000000  0.000000  0.660172  1
  Ir  Ir28  1  0.500000  0.300533  0.428902  1
  Ir  Ir29  1  0.500000  0.699467  0.428902  1
  Ir  Ir30  1  0.000000  0.199467  0.571098  1
  Ir  Ir31  1  0.000000  0.800533  0.571098  1
  Ir  Ir32  1  0.500000  0.500000  0.154998  1
  Ir  Ir33  1  0.000000  0.000000  0.845002  1
  Ir  Ir34  1  0.500000  0.500000  0.699405  1
  Ir  Ir35  1  0.000000  0.000000  0.300595  1
