# generated using pymatgen
data_SmErI18
_symmetry_space_group_name_H-M   'P 1'
_cell_length_a   10.45133290
_cell_length_b   10.46840216
_cell_length_c   10.45136594
_cell_angle_alpha   88.92811481
_cell_angle_beta   89.05742545
_cell_angle_gamma   88.88047466
_symmetry_Int_Tables_number   1
_chemical_formula_structural   SmErI18
_chemical_formula_sum   'Sm1 Er1 I18'
_cell_volume   1142.90463023
_cell_formula_units_Z   1
loop_
 _symmetry_equiv_pos_site_id
 _symmetry_equiv_pos_as_xyz
  1  'x, y, z'
loop_
 _atom_site_type_symbol
 _atom_site_label
 _atom_site_symmetry_multiplicity
 _atom_site_fract_x
 _atom_site_fract_y
 _atom_site_fract_z
 _atom_site_occupancy
  Sm  Sm0  1  0.000000  0.000000  0.000000  1
  Er  Er1  1  0.500000  0.500000  0.500000  1
  I  I2  1  0.788388  0.464291  0.505508  1
  I  I3  1  0.504264  0.787780  0.463967  1
  I  I4  1  0.464387  0.505231  0.788137  1
  I  I5  1  0.211612  0.535709  0.494492  1
  I  I6  1  0.495736  0.212220  0.536033  1
  I  I7  1  0.535613  0.494769  0.211863  1
  I  I8  1  0.895442  0.374132  0.751145  1
  I  I9  1  0.749658  0.894354  0.374106  1
  I  I10  1  0.374361  0.750174  0.895491  1
  I  I11  1  0.104558  0.625868  0.248855  1
  I  I12  1  0.250342  0.105646  0.625894  1
  I  I13  1  0.625639  0.249826  0.104509  1
  I  I14  1  0.013855  0.974889  0.704001  1
  I  I15  1  0.703945  0.014006  0.972898  1
  I  I16  1  0.973266  0.704352  0.012290  1
  I  I17  1  0.986145  0.025111  0.295999  1
  I  I18  1  0.296055  0.985994  0.027102  1
  I  I19  1  0.026734  0.295648  0.987710  1
