# generated using pymatgen
data_Dy2Y2Al15(SiRh2)3
_symmetry_space_group_name_H-M   'P 1'
_cell_length_a   7.53194993
_cell_length_b   7.49423295
_cell_length_c   9.40974307
_cell_angle_alpha   89.99361175
_cell_angle_beta   89.92708490
_cell_angle_gamma   119.75666454
_symmetry_Int_Tables_number   1
_chemical_formula_structural   Dy2Y2Al15(SiRh2)3
_chemical_formula_sum   'Dy2 Y2 Al15 Si3 Rh6'
_cell_volume   461.10749277
_cell_formula_units_Z   1
loop_
 _symmetry_equiv_pos_site_id
 _symmetry_equiv_pos_as_xyz
  1  'x, y, z'
loop_
 _atom_site_type_symbol
 _atom_site_label
 _atom_site_symmetry_multiplicity
 _atom_site_fract_x
 _atom_site_fract_y
 _atom_site_fract_z
 _atom_site_occupancy
  Dy  Dy0  1  0.994415  0.664472  0.247439  1
  Dy  Dy1  1  0.006078  0.340843  0.753508  1
  Y  Y2  1  0.674743  0.000329  0.247977  1
  Y  Y3  1  0.320504  0.993097  0.749863  1
  Al  Al4  1  0.128859  0.126397  0.250048  1
  Al  Al5  1  0.871640  0.871305  0.749383  1
  Al  Al6  1  0.338612  0.002841  0.424012  1
  Al  Al7  1  0.001363  0.330463  0.429845  1
  Al  Al8  1  0.665911  0.001785  0.575237  1
  Al  Al9  1  0.662231  0.998038  0.922657  1
  Al  Al10  1  0.338382  0.002992  0.076321  1
  Al  Al11  1  0.333193  0.331657  0.554716  1
  Al  Al12  1  0.664385  0.667804  0.446444  1
  Al  Al13  1  0.663872  0.667471  0.054941  1
  Al  Al14  1  0.335430  0.332156  0.945714  1
  Al  Al15  1  0.338036  0.549854  0.250234  1
  Al  Al16  1  0.661477  0.450581  0.750353  1
  Al  Al17  1  0.548383  0.342984  0.250220  1
  Al  Al18  1  0.454734  0.658055  0.749693  1
  Si  Si19  1  0.002305  0.328907  0.074872  1
  Si  Si20  1  0.997179  0.671499  0.930848  1
  Si  Si21  1  0.997882  0.665572  0.564732  1
  Rh  Rh22  1  0.689074  0.337519  0.001330  1
  Rh  Rh23  1  0.311074  0.663016  0.997697  1
  Rh  Rh24  1  0.319403  0.670555  0.502493  1
  Rh  Rh25  1  0.679834  0.336150  0.499831  1
  Rh  Rh26  1  0.000040  0.000432  0.999356  1
  Rh  Rh27  1  0.000960  0.993228  0.500237  1
