# generated using pymatgen
data_YbFeClO2
_symmetry_space_group_name_H-M   'P 1'
_cell_length_a   5.41563584
_cell_length_b   5.41563574
_cell_length_c   8.68211410
_cell_angle_alpha   103.33252083
_cell_angle_beta   103.33252055
_cell_angle_gamma   41.58205253
_symmetry_Int_Tables_number   1
_chemical_formula_structural   YbFeClO2
_chemical_formula_sum   'Yb2 Fe2 Cl2 O4'
_cell_volume   163.77964996
_cell_formula_units_Z   2
loop_
 _symmetry_equiv_pos_site_id
 _symmetry_equiv_pos_as_xyz
  1  'x, y, z'
loop_
 _atom_site_type_symbol
 _atom_site_label
 _atom_site_symmetry_multiplicity
 _atom_site_fract_x
 _atom_site_fract_y
 _atom_site_fract_z
 _atom_site_occupancy
  Yb  Yb0  1  0.607056  0.607056  0.292499  1
  Yb  Yb1  1  0.392944  0.392944  0.707500  1
  Fe  Fe2  1  0.139577  0.139577  0.003207  1
  Fe  Fe3  1  0.860423  0.860423  0.996792  1
  Cl  Cl4  1  0.333532  0.333532  0.374479  1
  Cl  Cl5  1  0.666468  0.666468  0.625520  1
  O  O6  1  0.685911  0.685911  0.062675  1
  O  O7  1  0.023534  0.023534  0.164886  1
  O  O8  1  0.976467  0.976467  0.835114  1
  O  O9  1  0.314089  0.314089  0.937324  1
