# generated using pymatgen
data_ErCdNiPt3
_symmetry_space_group_name_H-M   'P 1'
_cell_length_a   5.16358131
_cell_length_b   5.16358170
_cell_length_c   5.16358205
_cell_angle_alpha   63.02896184
_cell_angle_beta   63.02895374
_cell_angle_gamma   63.02896497
_symmetry_Int_Tables_number   1
_chemical_formula_structural   ErCdNiPt3
_chemical_formula_sum   'Er1 Cd1 Ni1 Pt3'
_cell_volume   103.89530993
_cell_formula_units_Z   1
loop_
 _symmetry_equiv_pos_site_id
 _symmetry_equiv_pos_as_xyz
  1  'x, y, z'
loop_
 _atom_site_type_symbol
 _atom_site_label
 _atom_site_symmetry_multiplicity
 _atom_site_fract_x
 _atom_site_fract_y
 _atom_site_fract_z
 _atom_site_occupancy
  Er  Er0  1  0.249719  0.249719  0.249719  1
  Cd  Cd1  1  0.998533  0.998533  0.998533  1
  Ni  Ni2  1  0.625969  0.625969  0.625969  1
  Pt  Pt3  1  0.625812  0.625812  0.124155  1
  Pt  Pt4  1  0.625812  0.124155  0.625812  1
  Pt  Pt5  1  0.124155  0.625812  0.625812  1
