# generated using pymatgen
data_BiPd8
_symmetry_space_group_name_H-M   'P 1'
_cell_length_a   4.94697074
_cell_length_b   4.93460538
_cell_length_c   6.98064835
_cell_angle_alpha   62.06854031
_cell_angle_beta   89.58329598
_cell_angle_gamma   80.11592518
_symmetry_Int_Tables_number   1
_chemical_formula_structural   BiPd8
_chemical_formula_sum   'Bi1 Pd8'
_cell_volume   147.79689556
_cell_formula_units_Z   1
loop_
 _symmetry_equiv_pos_site_id
 _symmetry_equiv_pos_as_xyz
  1  'x, y, z'
loop_
 _atom_site_type_symbol
 _atom_site_label
 _atom_site_symmetry_multiplicity
 _atom_site_fract_x
 _atom_site_fract_y
 _atom_site_fract_z
 _atom_site_occupancy
  Bi  Bi0  1  0.045905  0.297502  0.243031  1
  Pd  Pd1  1  0.708665  0.292978  0.578711  1
  Pd  Pd2  1  0.383456  0.303206  0.907641  1
  Pd  Pd3  1  0.269839  0.960037  0.693640  1
  Pd  Pd4  1  0.490282  0.641327  0.129152  1
  Pd  Pd5  1  0.601637  0.955009  0.357263  1
  Pd  Pd6  1  0.822449  0.635771  0.792522  1
  Pd  Pd7  1  0.932832  0.972160  0.014030  1
  Pd  Pd8  1  0.159310  0.623022  0.472026  1
