# generated using pymatgen
data_SrTl2V3F12
_symmetry_space_group_name_H-M   'P 1'
_cell_length_a   7.64809300
_cell_length_b   7.59993018
_cell_length_c   10.59591600
_cell_angle_alpha   89.91591764
_cell_angle_beta   90.00000000
_cell_angle_gamma   90.00000000
_symmetry_Int_Tables_number   1
_chemical_formula_structural   SrTl2V3F12
_chemical_formula_sum   'Sr2 Tl4 V6 F24'
_cell_volume   615.88666650
_cell_formula_units_Z   2
loop_
 _symmetry_equiv_pos_site_id
 _symmetry_equiv_pos_as_xyz
  1  'x, y, z'
loop_
 _atom_site_type_symbol
 _atom_site_label
 _atom_site_symmetry_multiplicity
 _atom_site_fract_x
 _atom_site_fract_y
 _atom_site_fract_z
 _atom_site_occupancy
  Sr  Sr0  1  0.750000  0.227357  0.754519  1
  Sr  Sr1  1  0.250000  0.772643  0.245481  1
  Tl  Tl2  1  0.750000  0.973093  0.098977  1
  Tl  Tl3  1  0.250000  0.026907  0.901023  1
  Tl  Tl4  1  0.250000  0.467744  0.644342  1
  Tl  Tl5  1  0.750000  0.532256  0.355658  1
  V  V6  1  0.500000  0.000000  0.500000  1
  V  V7  1  0.000000  0.000000  0.500000  1
  V  V8  1  0.000000  0.500000  0.000000  1
  V  V9  1  0.500000  0.500000  0.000000  1
  V  V10  1  0.750000  0.698730  0.719928  1
  V  V11  1  0.250000  0.301270  0.280072  1
  F  F12  1  0.750000  0.086353  0.510637  1
  F  F13  1  0.250000  0.913647  0.489363  1
  F  F14  1  0.750000  0.490902  0.609197  1
  F  F15  1  0.250000  0.509098  0.390803  1
  F  F16  1  0.250000  0.475994  0.940402  1
  F  F17  1  0.750000  0.524006  0.059598  1
  F  F18  1  0.250000  0.093509  0.170803  1
  F  F19  1  0.750000  0.906491  0.829197  1
  F  F20  1  0.963023  0.838381  0.349238  1
  F  F21  1  0.463023  0.161619  0.650762  1
  F  F22  1  0.036977  0.161619  0.650762  1
  F  F23  1  0.536977  0.838381  0.349238  1
  F  F24  1  0.943810  0.799112  0.619948  1
  F  F25  1  0.443810  0.200888  0.380052  1
  F  F26  1  0.056190  0.200888  0.380052  1
  F  F27  1  0.556190  0.799112  0.619948  1
  F  F28  1  0.046451  0.752533  0.057318  1
  F  F29  1  0.546451  0.247467  0.942682  1
  F  F30  1  0.953549  0.247467  0.942682  1
  F  F31  1  0.453549  0.752533  0.057318  1
  F  F32  1  0.430786  0.435671  0.182441  1
  F  F33  1  0.930786  0.564329  0.817559  1
  F  F34  1  0.569214  0.564329  0.817559  1
  F  F35  1  0.069214  0.435671  0.182441  1
