# generated using pymatgen
data_Er8B24MoOsRu2
_symmetry_space_group_name_H-M   'P 1'
_cell_length_a   3.63453100
_cell_length_b   9.12853419
_cell_length_c   11.51234424
_cell_angle_alpha   89.90225827
_cell_angle_beta   90.00000000
_cell_angle_gamma   90.00000000
_symmetry_Int_Tables_number   1
_chemical_formula_structural   Er8B24MoOsRu2
_chemical_formula_sum   'Er8 B24 Mo1 Os1 Ru2'
_cell_volume   381.95531612
_cell_formula_units_Z   1
loop_
 _symmetry_equiv_pos_site_id
 _symmetry_equiv_pos_as_xyz
  1  'x, y, z'
loop_
 _atom_site_type_symbol
 _atom_site_label
 _atom_site_symmetry_multiplicity
 _atom_site_fract_x
 _atom_site_fract_y
 _atom_site_fract_z
 _atom_site_occupancy
  Er  Er0  1  0.000000  0.322486  0.413362  1
  Er  Er1  1  0.000000  0.677366  0.584868  1
  Er  Er2  1  0.000000  0.820690  0.087313  1
  Er  Er3  1  0.000000  0.176943  0.914679  1
  Er  Er4  1  0.000000  0.945473  0.372374  1
  Er  Er5  1  0.000000  0.058112  0.628448  1
  Er  Er6  1  0.000000  0.442810  0.126905  1
  Er  Er7  1  0.000000  0.556203  0.870911  1
  B  B8  1  0.500000  0.551045  0.435928  1
  B  B9  1  0.500000  0.446288  0.568064  1
  B  B10  1  0.500000  0.053467  0.066930  1
  B  B11  1  0.500000  0.946593  0.933325  1
  B  B12  1  0.500000  0.750925  0.421945  1
  B  B13  1  0.500000  0.252319  0.580719  1
  B  B14  1  0.500000  0.248216  0.080200  1
  B  B15  1  0.500000  0.751333  0.919114  1
  B  B16  1  0.500000  0.794828  0.264437  1
  B  B17  1  0.500000  0.208495  0.734317  1
  B  B18  1  0.500000  0.290809  0.233146  1
  B  B19  1  0.500000  0.708905  0.765778  1
  B  B20  1  0.500000  0.631858  0.183054  1
  B  B21  1  0.500000  0.367723  0.815044  1
  B  B22  1  0.500000  0.131683  0.314017  1
  B  B23  1  0.500000  0.869310  0.685646  1
  B  B24  1  0.500000  0.983377  0.212549  1
  B  B25  1  0.500000  0.017609  0.787978  1
  B  B26  1  0.500000  0.478088  0.286883  1
  B  B27  1  0.500000  0.516440  0.712946  1
  B  B28  1  0.500000  0.605578  0.027797  1
  B  B29  1  0.500000  0.392979  0.969790  1
  B  B30  1  0.500000  0.107437  0.470803  1
  B  B31  1  0.500000  0.896170  0.530407  1
  Mo  Mo32  1  0.000000  0.637563  0.321339  1
  Os  Os33  1  0.000000  0.862376  0.821011  1
  Ru  Ru34  1  0.000000  0.360934  0.680446  1
  Ru  Ru35  1  0.000000  0.137574  0.177528  1
