# generated using pymatgen
data_Ac4P3S
_symmetry_space_group_name_H-M   'P 1'
_cell_length_a   4.41402008
_cell_length_b   7.63595365
_cell_length_c   11.67757569
_cell_angle_alpha   40.19813101
_cell_angle_beta   100.91471609
_cell_angle_gamma   106.88876571
_symmetry_Int_Tables_number   1
_chemical_formula_structural   Ac4P3S
_chemical_formula_sum   'Ac4 P3 S1'
_cell_volume   242.74504800
_cell_formula_units_Z   1
loop_
 _symmetry_equiv_pos_site_id
 _symmetry_equiv_pos_as_xyz
  1  'x, y, z'
loop_
 _atom_site_type_symbol
 _atom_site_label
 _atom_site_symmetry_multiplicity
 _atom_site_fract_x
 _atom_site_fract_y
 _atom_site_fract_z
 _atom_site_occupancy
  Ac  Ac0  1  0.904379  0.696716  0.416640  1
  Ac  Ac1  1  0.406111  0.197327  0.911268  1
  Ac  Ac2  1  0.653338  0.444032  0.160378  1
  Ac  Ac3  1  0.152173  0.941695  0.666061  1
  P  P4  1  0.527725  0.823335  0.537143  1
  P  P5  1  0.030026  0.316400  0.040341  1
  P  P6  1  0.779469  0.070177  0.788144  1
  S  S7  1  0.278916  0.569928  0.288639  1
