# generated using pymatgen
data_Ho4BeCo3I2
_symmetry_space_group_name_H-M   'P 1'
_cell_length_a   3.92001300
_cell_length_b   3.92001325
_cell_length_c   16.78413900
_cell_angle_alpha   90.00000000
_cell_angle_beta   90.00000000
_cell_angle_gamma   119.99997254
_symmetry_Int_Tables_number   1
_chemical_formula_structural   Ho4BeCo3I2
_chemical_formula_sum   'Ho4 Be1 Co3 I2'
_cell_volume   223.35972284
_cell_formula_units_Z   1
loop_
 _symmetry_equiv_pos_site_id
 _symmetry_equiv_pos_as_xyz
  1  'x, y, z'
loop_
 _atom_site_type_symbol
 _atom_site_label
 _atom_site_symmetry_multiplicity
 _atom_site_fract_x
 _atom_site_fract_y
 _atom_site_fract_z
 _atom_site_occupancy
  Ho  Ho0  1  0.000000  0.000000  0.103854  1
  Ho  Ho1  1  0.000000  0.000000  0.896070  1
  Ho  Ho2  1  0.000000  0.000000  0.601025  1
  Ho  Ho3  1  0.000000  0.000000  0.399302  1
  Be  Be4  1  0.333333  0.666667  0.500573  1
  Co  Co5  1  0.666667  0.333333  0.499011  1
  Co  Co6  1  0.666667  0.333333  0.002001  1
  Co  Co7  1  0.333333  0.666667  0.998151  1
  I  I8  1  0.333333  0.666667  0.249950  1
  I  I9  1  0.666667  0.333333  0.750064  1
