# generated using pymatgen
data_Sr2Se(S2O7)4
_symmetry_space_group_name_H-M   'P 1'
_cell_length_a   13.24635700
_cell_length_b   7.09495065
_cell_length_c   13.59632100
_cell_angle_alpha   65.86382484
_cell_angle_beta   90.00000000
_cell_angle_gamma   90.00000000
_symmetry_Int_Tables_number   1
_chemical_formula_structural   Sr2Se(S2O7)4
_chemical_formula_sum   'Sr4 Se2 S16 O56'
_cell_volume   1166.10155675
_cell_formula_units_Z   2
loop_
 _symmetry_equiv_pos_site_id
 _symmetry_equiv_pos_as_xyz
  1  'x, y, z'
loop_
 _atom_site_type_symbol
 _atom_site_label
 _atom_site_symmetry_multiplicity
 _atom_site_fract_x
 _atom_site_fract_y
 _atom_site_fract_z
 _atom_site_occupancy
  Sr  Sr0  1  0.865574  0.142553  0.159175  1
  Sr  Sr1  1  0.634426  0.142553  0.659175  1
  Sr  Sr2  1  0.134426  0.857447  0.840825  1
  Sr  Sr3  1  0.365574  0.857447  0.340825  1
  Se  Se4  1  0.500000  0.500000  0.000000  1
  Se  Se5  1  0.000000  0.500000  0.500000  1
  S  S6  1  0.654497  0.211504  0.939515  1
  S  S7  1  0.845503  0.211504  0.439515  1
  S  S8  1  0.345503  0.788496  0.060485  1
  S  S9  1  0.154497  0.788496  0.560485  1
  S  S10  1  0.971952  0.686022  0.102073  1
  S  S11  1  0.528048  0.686022  0.602073  1
  S  S12  1  0.028048  0.313978  0.897927  1
  S  S13  1  0.471952  0.313978  0.397927  1
  S  S14  1  0.726817  0.620833  0.909027  1
  S  S15  1  0.773183  0.620833  0.409027  1
  S  S16  1  0.273183  0.379167  0.090973  1
  S  S17  1  0.226817  0.379167  0.590973  1
  S  S18  1  0.586054  0.232371  0.235397  1
  S  S19  1  0.913946  0.232371  0.735397  1
  S  S20  1  0.413946  0.767629  0.764603  1
  S  S21  1  0.086054  0.767629  0.264603  1
  O  O22  1  0.626199  0.131922  0.862277  1
  O  O23  1  0.873801  0.131922  0.362277  1
  O  O24  1  0.373801  0.868078  0.137723  1
  O  O25  1  0.126199  0.868078  0.637723  1
  O  O26  1  0.585742  0.273168  0.341023  1
  O  O27  1  0.914258  0.273168  0.841023  1
  O  O28  1  0.414258  0.726832  0.658977  1
  O  O29  1  0.085742  0.726832  0.158977  1
  O  O30  1  0.533694  0.043301  0.252097  1
  O  O31  1  0.966306  0.043301  0.752097  1
  O  O32  1  0.466306  0.956699  0.747903  1
  O  O33  1  0.033694  0.956699  0.247903  1
  O  O34  1  0.562250  0.234275  0.001747  1
  O  O35  1  0.937750  0.234275  0.501747  1
  O  O36  1  0.437750  0.765725  0.998253  1
  O  O37  1  0.062250  0.765725  0.498253  1
  O  O38  1  0.897592  0.808704  0.127593  1
  O  O39  1  0.602408  0.808704  0.627593  1
  O  O40  1  0.102408  0.191296  0.872407  1
  O  O41  1  0.397592  0.191296  0.372407  1
  O  O42  1  0.686453  0.451016  0.862311  1
  O  O43  1  0.813547  0.451016  0.362311  1
  O  O44  1  0.313547  0.548984  0.137689  1
  O  O45  1  0.186453  0.548984  0.637689  1
  O  O46  1  0.526050  0.420899  0.158995  1
  O  O47  1  0.973950  0.420899  0.658995  1
  O  O48  1  0.473950  0.579101  0.841005  1
  O  O49  1  0.026050  0.579101  0.341005  1
  O  O50  1  0.735634  0.113878  0.013021  1
  O  O51  1  0.764366  0.113878  0.513021  1
  O  O52  1  0.264366  0.886122  0.986979  1
  O  O53  1  0.235634  0.886122  0.486979  1
  O  O54  1  0.635831  0.650792  0.970251  1
  O  O55  1  0.864169  0.650792  0.470251  1
  O  O56  1  0.364169  0.349208  0.029749  1
  O  O57  1  0.135831  0.349208  0.529749  1
  O  O58  1  0.743746  0.800767  0.811585  1
  O  O59  1  0.756254  0.800767  0.311585  1
  O  O60  1  0.256254  0.199233  0.188415  1
  O  O61  1  0.243746  0.199233  0.688415  1
  O  O62  1  0.808903  0.527826  0.981616  1
  O  O63  1  0.691097  0.527826  0.481616  1
  O  O64  1  0.191097  0.472174  0.018384  1
  O  O65  1  0.308903  0.472174  0.518384  1
  O  O66  1  0.958648  0.465041  0.156880  1
  O  O67  1  0.541352  0.465041  0.656880  1
  O  O68  1  0.041352  0.534959  0.843120  1
  O  O69  1  0.458648  0.534959  0.343120  1
  O  O70  1  0.004502  0.763857  0.991335  1
  O  O71  1  0.495498  0.763857  0.491335  1
  O  O72  1  0.995498  0.236143  0.008665  1
  O  O73  1  0.504502  0.236143  0.508665  1
  O  O74  1  0.690504  0.246491  0.203481  1
  O  O75  1  0.809496  0.246491  0.703481  1
  O  O76  1  0.309496  0.753509  0.796519  1
  O  O77  1  0.190504  0.753509  0.296519  1
