# generated using pymatgen
data_CaLa2Pr(RhO3)4
_symmetry_space_group_name_H-M   'P 1'
_cell_length_a   5.48046248
_cell_length_b   5.83659566
_cell_length_c   7.85201200
_cell_angle_alpha   90.00000000
_cell_angle_beta   90.00000000
_cell_angle_gamma   90.10917894
_symmetry_Int_Tables_number   1
_chemical_formula_structural   CaLa2Pr(RhO3)4
_chemical_formula_sum   'Ca1 La2 Pr1 Rh4 O12'
_cell_volume   251.16376389
_cell_formula_units_Z   1
loop_
 _symmetry_equiv_pos_site_id
 _symmetry_equiv_pos_as_xyz
  1  'x, y, z'
loop_
 _atom_site_type_symbol
 _atom_site_label
 _atom_site_symmetry_multiplicity
 _atom_site_fract_x
 _atom_site_fract_y
 _atom_site_fract_z
 _atom_site_occupancy
  Ca  Ca0  1  0.979355  0.933005  0.250000  1
  La  La1  1  0.018749  0.064314  0.750000  1
  La  La2  1  0.519989  0.434714  0.250000  1
  Pr  Pr3  1  0.479346  0.569827  0.750000  1
  Rh  Rh4  1  0.500395  0.001391  0.495662  1
  Rh  Rh5  1  0.999094  0.500844  0.496424  1
  Rh  Rh6  1  0.999094  0.500844  0.003576  1
  Rh  Rh7  1  0.500395  0.001391  0.004338  1
  O  O8  1  0.814032  0.193785  0.446314  1
  O  O9  1  0.309661  0.302856  0.550102  1
  O  O10  1  0.686752  0.696630  0.047530  1
  O  O11  1  0.198098  0.795674  0.944375  1
  O  O12  1  0.198098  0.795674  0.555625  1
  O  O13  1  0.686752  0.696630  0.452470  1
  O  O14  1  0.309661  0.302856  0.949898  1
  O  O15  1  0.814032  0.193785  0.053686  1
  O  O16  1  0.387981  0.035402  0.250000  1
  O  O17  1  0.897733  0.466971  0.750000  1
  O  O18  1  0.101043  0.545416  0.250000  1
  O  O19  1  0.599742  0.967991  0.750000  1
