# generated using pymatgen
data_V3PbS6
_symmetry_space_group_name_H-M   'P 1'
_cell_length_a   5.58042800
_cell_length_b   5.58042801
_cell_length_c   14.87050400
_cell_angle_alpha   90.00000000
_cell_angle_beta   90.00000000
_cell_angle_gamma   119.99998809
_symmetry_Int_Tables_number   1
_chemical_formula_structural   V3PbS6
_chemical_formula_sum   'V6 Pb2 S12'
_cell_volume   401.04341610
_cell_formula_units_Z   2
loop_
 _symmetry_equiv_pos_site_id
 _symmetry_equiv_pos_as_xyz
  1  'x, y, z'
loop_
 _atom_site_type_symbol
 _atom_site_label
 _atom_site_symmetry_multiplicity
 _atom_site_fract_x
 _atom_site_fract_y
 _atom_site_fract_z
 _atom_site_occupancy
  V  V0  1  0.000000  0.000000  0.250000  1
  V  V1  1  0.000000  0.000000  0.750000  1
  V  V2  1  0.333333  0.666667  0.250000  1
  V  V3  1  0.666667  0.333333  0.750000  1
  V  V4  1  0.666667  0.333333  0.250000  1
  V  V5  1  0.333333  0.666667  0.750000  1
  Pb  Pb6  1  0.000000  0.000000  0.500000  1
  Pb  Pb7  1  0.000000  0.000000  0.000000  1
  S  S8  1  0.337084  0.000000  0.152075  1
  S  S9  1  0.000000  0.337084  0.152075  1
  S  S10  1  0.662916  0.662916  0.152075  1
  S  S11  1  0.337084  0.337084  0.652075  1
  S  S12  1  0.662916  0.662916  0.347925  1
  S  S13  1  0.662916  0.000000  0.652075  1
  S  S14  1  0.000000  0.662916  0.652075  1
  S  S15  1  0.000000  0.662916  0.847925  1
  S  S16  1  0.337084  0.337084  0.847925  1
  S  S17  1  0.000000  0.337084  0.347925  1
  S  S18  1  0.337084  0.000000  0.347925  1
  S  S19  1  0.662916  0.000000  0.847925  1
