# generated using pymatgen
data_Pm2MgMnO6
_symmetry_space_group_name_H-M   'P 1'
_cell_length_a   5.41811487
_cell_length_b   5.41811490
_cell_length_c   5.41811593
_cell_angle_alpha   61.55695444
_cell_angle_beta   61.55695726
_cell_angle_gamma   61.55695540
_symmetry_Int_Tables_number   1
_chemical_formula_structural   Pm2MgMnO6
_chemical_formula_sum   'Pm2 Mg1 Mn1 O6'
_cell_volume   116.39734588
_cell_formula_units_Z   1
loop_
 _symmetry_equiv_pos_site_id
 _symmetry_equiv_pos_as_xyz
  1  'x, y, z'
loop_
 _atom_site_type_symbol
 _atom_site_label
 _atom_site_symmetry_multiplicity
 _atom_site_fract_x
 _atom_site_fract_y
 _atom_site_fract_z
 _atom_site_occupancy
  Pm  Pm0  1  0.246484  0.246484  0.246484  1
  Pm  Pm1  1  0.753516  0.753516  0.753516  1
  Mg  Mg2  1  0.500000  0.500000  0.500000  1
  Mn  Mn3  1  0.000000  0.000000  0.000000  1
  O  O4  1  0.766162  0.320359  0.162856  1
  O  O5  1  0.679641  0.837145  0.233839  1
  O  O6  1  0.162855  0.766162  0.320359  1
  O  O7  1  0.837146  0.233839  0.679641  1
  O  O8  1  0.320360  0.162856  0.766161  1
  O  O9  1  0.233839  0.679642  0.837144  1
