# generated using pymatgen
data_Lu8ZnIn3
_symmetry_space_group_name_H-M   'P 1'
_cell_length_a   10.41090400
_cell_length_b   10.41090371
_cell_length_c   6.66947500
_cell_angle_alpha   90.00000000
_cell_angle_beta   90.00000000
_cell_angle_gamma   120.00000094
_symmetry_Int_Tables_number   1
_chemical_formula_structural   Lu8ZnIn3
_chemical_formula_sum   'Lu16 Zn2 In6'
_cell_volume   626.03576940
_cell_formula_units_Z   2
loop_
 _symmetry_equiv_pos_site_id
 _symmetry_equiv_pos_as_xyz
  1  'x, y, z'
loop_
 _atom_site_type_symbol
 _atom_site_label
 _atom_site_symmetry_multiplicity
 _atom_site_fract_x
 _atom_site_fract_y
 _atom_site_fract_z
 _atom_site_occupancy
  Lu  Lu0  1  0.521007  0.042014  0.528313  1
  Lu  Lu1  1  0.957986  0.478993  0.528313  1
  Lu  Lu2  1  0.521007  0.478993  0.528313  1
  Lu  Lu3  1  0.478993  0.957986  0.028313  1
  Lu  Lu4  1  0.042014  0.521007  0.028313  1
  Lu  Lu5  1  0.478993  0.521007  0.028313  1
  Lu  Lu6  1  0.173334  0.346668  0.739588  1
  Lu  Lu7  1  0.653332  0.826666  0.739588  1
  Lu  Lu8  1  0.173334  0.826666  0.739588  1
  Lu  Lu9  1  0.826666  0.653332  0.239588  1
  Lu  Lu10  1  0.346668  0.173334  0.239588  1
  Lu  Lu11  1  0.826666  0.173334  0.239588  1
  Lu  Lu12  1  0.666667  0.333333  0.880272  1
  Lu  Lu13  1  0.333333  0.666667  0.380272  1
  Lu  Lu14  1  0.000000  0.000000  0.504631  1
  Lu  Lu15  1  0.000000  0.000000  0.004631  1
  Zn  Zn16  1  0.666667  0.333333  0.314219  1
  Zn  Zn17  1  0.333333  0.666667  0.814219  1
  In  In18  1  0.835196  0.670392  0.758339  1
  In  In19  1  0.329608  0.164804  0.758339  1
  In  In20  1  0.835196  0.164804  0.758339  1
  In  In21  1  0.164804  0.329608  0.258339  1
  In  In22  1  0.670392  0.835196  0.258339  1
  In  In23  1  0.164804  0.835196  0.258339  1
