# generated using pymatgen
data_Rb3Ac(SbAu)4
_symmetry_space_group_name_H-M   'P 1'
_cell_length_a   4.68498900
_cell_length_b   4.68498919
_cell_length_c   20.95177900
_cell_angle_alpha   90.00000000
_cell_angle_beta   90.00000000
_cell_angle_gamma   119.99999159
_symmetry_Int_Tables_number   1
_chemical_formula_structural   Rb3Ac(SbAu)4
_chemical_formula_sum   'Rb3 Ac1 Sb4 Au4'
_cell_volume   398.26188210
_cell_formula_units_Z   1
loop_
 _symmetry_equiv_pos_site_id
 _symmetry_equiv_pos_as_xyz
  1  'x, y, z'
loop_
 _atom_site_type_symbol
 _atom_site_label
 _atom_site_symmetry_multiplicity
 _atom_site_fract_x
 _atom_site_fract_y
 _atom_site_fract_z
 _atom_site_occupancy
  Rb  Rb0  1  0.000000  0.000000  0.500000  1
  Rb  Rb1  1  0.000000  0.000000  0.241215  1
  Rb  Rb2  1  0.000000  0.000000  0.758785  1
  Ac  Ac3  1  0.000000  0.000000  0.000000  1
  Sb  Sb4  1  0.333333  0.666667  0.369095  1
  Sb  Sb5  1  0.666667  0.333333  0.630905  1
  Sb  Sb6  1  0.666667  0.333333  0.893010  1
  Sb  Sb7  1  0.333333  0.666667  0.106990  1
  Au  Au8  1  0.666667  0.333333  0.367550  1
  Au  Au9  1  0.333333  0.666667  0.632450  1
  Au  Au10  1  0.333333  0.666667  0.900092  1
  Au  Au11  1  0.666667  0.333333  0.099908  1
