# generated using pymatgen
data_KBaHg3Bi
_symmetry_space_group_name_H-M   'P 1'
_cell_length_a   6.82709477
_cell_length_b   6.73758562
_cell_length_c   6.73758600
_cell_angle_alpha   133.87160797
_cell_angle_beta   104.41249325
_cell_angle_gamma   93.09718729
_symmetry_Int_Tables_number   1
_chemical_formula_structural   KBaHg3Bi
_chemical_formula_sum   'K1 Ba1 Hg3 Bi1'
_cell_volume   204.68044927
_cell_formula_units_Z   1
loop_
 _symmetry_equiv_pos_site_id
 _symmetry_equiv_pos_as_xyz
  1  'x, y, z'
loop_
 _atom_site_type_symbol
 _atom_site_label
 _atom_site_symmetry_multiplicity
 _atom_site_fract_x
 _atom_site_fract_y
 _atom_site_fract_z
 _atom_site_occupancy
  K  K0  1  0.291690  0.044823  0.246868  1
  Ba  Ba1  1  0.716850  0.963004  0.753847  1
  Hg  Hg2  1  0.729761  0.669192  0.060570  1
  Hg  Hg3  1  0.879356  0.331204  0.548152  1
  Hg  Hg4  1  0.096219  0.654011  0.442208  1
  Bi  Bi5  1  0.286123  0.337765  0.948356  1
