# generated using pymatgen
data_Tb2Er2MgSn4
_symmetry_space_group_name_H-M   'P 1'
_cell_length_a   7.66265800
_cell_length_b   8.22831000
_cell_length_c   15.23038500
_cell_angle_alpha   90.00000000
_cell_angle_beta   90.00000000
_cell_angle_gamma   90.00000000
_symmetry_Int_Tables_number   1
_chemical_formula_structural   Tb2Er2MgSn4
_chemical_formula_sum   'Tb8 Er8 Mg4 Sn16'
_cell_volume   960.28682310
_cell_formula_units_Z   4
loop_
 _symmetry_equiv_pos_site_id
 _symmetry_equiv_pos_as_xyz
  1  'x, y, z'
loop_
 _atom_site_type_symbol
 _atom_site_label
 _atom_site_symmetry_multiplicity
 _atom_site_fract_x
 _atom_site_fract_y
 _atom_site_fract_z
 _atom_site_occupancy
  Tb  Tb0  1  0.998887  0.184627  0.090964  1
  Tb  Tb1  1  0.001113  0.815373  0.909036  1
  Tb  Tb2  1  0.501113  0.684627  0.909036  1
  Tb  Tb3  1  0.001113  0.815373  0.590964  1
  Tb  Tb4  1  0.498887  0.315373  0.090964  1
  Tb  Tb5  1  0.998887  0.184627  0.409036  1
  Tb  Tb6  1  0.498887  0.315373  0.409036  1
  Tb  Tb7  1  0.501113  0.684627  0.590964  1
  Er  Er8  1  0.335221  0.169164  0.628815  1
  Er  Er9  1  0.664779  0.830836  0.371185  1
  Er  Er10  1  0.164779  0.669164  0.371185  1
  Er  Er11  1  0.664779  0.830836  0.128815  1
  Er  Er12  1  0.835221  0.330836  0.628815  1
  Er  Er13  1  0.335221  0.169164  0.871185  1
  Er  Er14  1  0.835221  0.330836  0.871185  1
  Er  Er15  1  0.164779  0.669164  0.128815  1
  Mg  Mg16  1  0.159004  0.504924  0.750000  1
  Mg  Mg17  1  0.840996  0.495076  0.250000  1
  Mg  Mg18  1  0.340996  0.004924  0.250000  1
  Mg  Mg19  1  0.659004  0.995076  0.750000  1
  Sn  Sn20  1  0.022265  0.092829  0.750000  1
  Sn  Sn21  1  0.977735  0.907171  0.250000  1
  Sn  Sn22  1  0.477735  0.592829  0.250000  1
  Sn  Sn23  1  0.522265  0.407171  0.750000  1
  Sn  Sn24  1  0.181536  0.462339  0.538588  1
  Sn  Sn25  1  0.818464  0.537661  0.461412  1
  Sn  Sn26  1  0.318464  0.962339  0.461412  1
  Sn  Sn27  1  0.818464  0.537661  0.038588  1
  Sn  Sn28  1  0.681536  0.037661  0.538588  1
  Sn  Sn29  1  0.181536  0.462339  0.961412  1
  Sn  Sn30  1  0.681536  0.037661  0.961412  1
  Sn  Sn31  1  0.318464  0.962339  0.038588  1
  Sn  Sn32  1  0.302197  0.848322  0.750000  1
  Sn  Sn33  1  0.697803  0.151678  0.250000  1
  Sn  Sn34  1  0.197803  0.348322  0.250000  1
  Sn  Sn35  1  0.802197  0.651678  0.750000  1
