# generated using pymatgen
data_Tb6Er4In7HgPd4
_symmetry_space_group_name_H-M   'P 1'
_cell_length_a   3.63188600
_cell_length_b   8.13802255
_cell_length_c   18.26409547
_cell_angle_alpha   90.12363803
_cell_angle_beta   90.00000000
_cell_angle_gamma   90.00000000
_symmetry_Int_Tables_number   1
_chemical_formula_structural   Tb6Er4In7HgPd4
_chemical_formula_sum   'Tb6 Er4 In7 Hg1 Pd4'
_cell_volume   539.81910991
_cell_formula_units_Z   1
loop_
 _symmetry_equiv_pos_site_id
 _symmetry_equiv_pos_as_xyz
  1  'x, y, z'
loop_
 _atom_site_type_symbol
 _atom_site_label
 _atom_site_symmetry_multiplicity
 _atom_site_fract_x
 _atom_site_fract_y
 _atom_site_fract_z
 _atom_site_occupancy
  Tb  Tb0  1  0.000000  0.499909  0.500642  1
  Tb  Tb1  1  0.000000  0.996078  0.997341  1
  Tb  Tb2  1  0.000000  0.739250  0.281981  1
  Tb  Tb3  1  0.000000  0.260762  0.716781  1
  Tb  Tb4  1  0.000000  0.759593  0.785932  1
  Tb  Tb5  1  0.000000  0.239844  0.218260  1
  Er  Er6  1  0.000000  0.616966  0.083891  1
  Er  Er7  1  0.000000  0.389646  0.915378  1
  Er  Er8  1  0.000000  0.881560  0.585052  1
  Er  Er9  1  0.000000  0.117504  0.415511  1
  In  In10  1  0.500000  0.293277  0.065423  1
  In  In11  1  0.500000  0.795758  0.434556  1
  In  In12  1  0.500000  0.202987  0.565411  1
  In  In13  1  0.500000  0.584085  0.651077  1
  In  In14  1  0.500000  0.418862  0.350013  1
  In  In15  1  0.500000  0.918235  0.149450  1
  In  In16  1  0.500000  0.086695  0.849100  1
  Hg  Hg17  1  0.500000  0.704700  0.935771  1
  Pd  Pd18  1  0.500000  0.524063  0.194911  1
  Pd  Pd19  1  0.500000  0.472326  0.803188  1
  Pd  Pd20  1  0.500000  0.973804  0.695783  1
  Pd  Pd21  1  0.500000  0.024099  0.304547  1
