# generated using pymatgen
data_Sm7Y(Er3Pb4)4
_symmetry_space_group_name_H-M   'P 1'
_cell_length_a   8.22594772
_cell_length_b   8.31831632
_cell_length_c   15.68109900
_cell_angle_alpha   90.10835371
_cell_angle_beta   90.20120558
_cell_angle_gamma   90.12665246
_symmetry_Int_Tables_number   1
_chemical_formula_structural   Sm7Y(Er3Pb4)4
_chemical_formula_sum   'Sm7 Y1 Er12 Pb16'
_cell_volume   1072.98425973
_cell_formula_units_Z   1
loop_
 _symmetry_equiv_pos_site_id
 _symmetry_equiv_pos_as_xyz
  1  'x, y, z'
loop_
 _atom_site_type_symbol
 _atom_site_label
 _atom_site_symmetry_multiplicity
 _atom_site_fract_x
 _atom_site_fract_y
 _atom_site_fract_z
 _atom_site_occupancy
  Sm  Sm0  1  0.530780  0.322011  0.901404  1
  Sm  Sm1  1  0.029707  0.177386  0.598154  1
  Sm  Sm2  1  0.469861  0.677640  0.401952  1
  Sm  Sm3  1  0.968535  0.823128  0.098442  1
  Sm  Sm4  1  0.468512  0.677386  0.098364  1
  Sm  Sm5  1  0.969632  0.822689  0.401789  1
  Sm  Sm6  1  0.530222  0.322273  0.598684  1
  Y  Y7  1  0.033455  0.176470  0.900350  1
  Er  Er8  1  0.372230  0.841967  0.878325  1
  Er  Er9  1  0.871725  0.658082  0.622922  1
  Er  Er10  1  0.629118  0.158203  0.378111  1
  Er  Er11  1  0.127390  0.341521  0.121673  1
  Er  Er12  1  0.627731  0.157935  0.121448  1
  Er  Er13  1  0.128622  0.341792  0.377777  1
  Er  Er14  1  0.370670  0.841964  0.622334  1
  Er  Er15  1  0.871797  0.658179  0.877865  1
  Er  Er16  1  0.204844  0.505141  0.750354  1
  Er  Er17  1  0.705065  0.995041  0.750339  1
  Er  Er18  1  0.795097  0.494645  0.249903  1
  Er  Er19  1  0.295247  0.005517  0.249660  1
  Pb  Pb20  1  0.286522  0.038361  0.042178  1
  Pb  Pb21  1  0.788707  0.462445  0.457257  1
  Pb  Pb22  1  0.711079  0.960876  0.543433  1
  Pb  Pb23  1  0.210857  0.535866  0.956416  1
  Pb  Pb24  1  0.714849  0.964487  0.956176  1
  Pb  Pb25  1  0.211196  0.538046  0.543484  1
  Pb  Pb26  1  0.288405  0.038497  0.456990  1
  Pb  Pb27  1  0.787488  0.463010  0.043069  1
  Pb  Pb28  1  0.567307  0.627302  0.750408  1
  Pb  Pb29  1  0.067398  0.872692  0.750562  1
  Pb  Pb30  1  0.433130  0.372812  0.249530  1
  Pb  Pb31  1  0.932771  0.127464  0.249673  1
  Pb  Pb32  1  0.341582  0.152094  0.749981  1
  Pb  Pb33  1  0.843675  0.346917  0.750637  1
  Pb  Pb34  1  0.657403  0.847837  0.250137  1
  Pb  Pb35  1  0.157390  0.652325  0.250219  1
