# generated using pymatgen
data_KGaGeSe4
_symmetry_space_group_name_H-M   'P 1'
_cell_length_a   17.15636200
_cell_length_b   7.36617571
_cell_length_c   7.66178478
_cell_angle_alpha   68.85119003
_cell_angle_beta   90.00000000
_cell_angle_gamma   90.00000000
_symmetry_Int_Tables_number   1
_chemical_formula_structural   KGaGeSe4
_chemical_formula_sum   'K4 Ga4 Ge4 Se16'
_cell_volume   903.05519754
_cell_formula_units_Z   4
loop_
 _symmetry_equiv_pos_site_id
 _symmetry_equiv_pos_as_xyz
  1  'x, y, z'
loop_
 _atom_site_type_symbol
 _atom_site_label
 _atom_site_symmetry_multiplicity
 _atom_site_fract_x
 _atom_site_fract_y
 _atom_site_fract_z
 _atom_site_occupancy
  K  K0  1  0.395601  0.975452  0.180337  1
  K  K1  1  0.895601  0.024548  0.819663  1
  K  K2  1  0.603927  0.518199  0.816988  1
  K  K3  1  0.103927  0.481801  0.183012  1
  Ga  Ga4  1  0.583924  0.165889  0.474404  1
  Ga  Ga5  1  0.083924  0.834111  0.525596  1
  Ga  Ga6  1  0.273485  0.594552  0.715486  1
  Ga  Ga7  1  0.773485  0.405448  0.284514  1
  Ge  Ge8  1  0.419879  0.335431  0.530085  1
  Ge  Ge9  1  0.919879  0.664569  0.469915  1
  Ge  Ge10  1  0.724079  0.909741  0.271005  1
  Ge  Ge11  1  0.224079  0.090259  0.728995  1
  Se  Se12  1  0.592475  0.883416  0.379322  1
  Se  Se13  1  0.092475  0.116584  0.620678  1
  Se  Se14  1  0.411094  0.611607  0.621201  1
  Se  Se15  1  0.911094  0.388393  0.378799  1
  Se  Se16  1  0.799029  0.775701  0.556727  1
  Se  Se17  1  0.299029  0.224299  0.443273  1
  Se  Se18  1  0.201874  0.727302  0.429648  1
  Se  Se19  1  0.701874  0.272698  0.570352  1
  Se  Se20  1  0.762852  0.228435  0.069965  1
  Se  Se21  1  0.262852  0.771565  0.930035  1
  Se  Se22  1  0.239037  0.267340  0.933125  1
  Se  Se23  1  0.739037  0.732660  0.066875  1
  Se  Se24  1  0.996370  0.912976  0.249494  1
  Se  Se25  1  0.496370  0.087024  0.750506  1
  Se  Se26  1  0.996371  0.592590  0.747636  1
  Se  Se27  1  0.496371  0.407410  0.252364  1
