# generated using pymatgen
data_Nd3Mg2CdAg2Ir
_symmetry_space_group_name_H-M   'P 1'
_cell_length_a   7.98004678
_cell_length_b   7.95721185
_cell_length_c   4.00040500
_cell_angle_alpha   90.00000000
_cell_angle_beta   90.00000000
_cell_angle_gamma   120.14765111
_symmetry_Int_Tables_number   1
_chemical_formula_structural   Nd3Mg2CdAg2Ir
_chemical_formula_sum   'Nd3 Mg2 Cd1 Ag2 Ir1'
_cell_volume   219.66095621
_cell_formula_units_Z   1
loop_
 _symmetry_equiv_pos_site_id
 _symmetry_equiv_pos_as_xyz
  1  'x, y, z'
loop_
 _atom_site_type_symbol
 _atom_site_label
 _atom_site_symmetry_multiplicity
 _atom_site_fract_x
 _atom_site_fract_y
 _atom_site_fract_z
 _atom_site_occupancy
  Nd  Nd0  1  0.564720  0.970767  0.000000  1
  Nd  Nd1  1  0.033920  0.605510  0.000000  1
  Nd  Nd2  1  0.400565  0.421611  0.000000  1
  Mg  Mg3  1  0.001151  0.252470  0.500000  1
  Mg  Mg4  1  0.746216  0.748679  0.500000  1
  Cd  Cd5  1  0.253572  0.003329  0.500000  1
  Ag  Ag6  1  0.674463  0.339024  0.500000  1
  Ag  Ag7  1  0.990089  0.999166  0.000000  1
  Ir  Ir8  1  0.335305  0.659443  0.500000  1
