# generated using pymatgen
data_Lu8Tl3Ag
_symmetry_space_group_name_H-M   'P 1'
_cell_length_a   10.43583200
_cell_length_b   10.43583146
_cell_length_c   6.71777600
_cell_angle_alpha   90.00000000
_cell_angle_beta   90.00000000
_cell_angle_gamma   120.00000171
_symmetry_Int_Tables_number   1
_chemical_formula_structural   Lu8Tl3Ag
_chemical_formula_sum   'Lu16 Tl6 Ag2'
_cell_volume   633.59286565
_cell_formula_units_Z   2
loop_
 _symmetry_equiv_pos_site_id
 _symmetry_equiv_pos_as_xyz
  1  'x, y, z'
loop_
 _atom_site_type_symbol
 _atom_site_label
 _atom_site_symmetry_multiplicity
 _atom_site_fract_x
 _atom_site_fract_y
 _atom_site_fract_z
 _atom_site_occupancy
  Lu  Lu0  1  0.520022  0.040046  0.528246  1
  Lu  Lu1  1  0.959954  0.479978  0.528246  1
  Lu  Lu2  1  0.520022  0.479978  0.528246  1
  Lu  Lu3  1  0.479978  0.959954  0.028246  1
  Lu  Lu4  1  0.040046  0.520022  0.028246  1
  Lu  Lu5  1  0.479978  0.520022  0.028246  1
  Lu  Lu6  1  0.172289  0.344579  0.742628  1
  Lu  Lu7  1  0.655421  0.827711  0.742628  1
  Lu  Lu8  1  0.172289  0.827711  0.742628  1
  Lu  Lu9  1  0.827711  0.655421  0.242628  1
  Lu  Lu10  1  0.344579  0.172289  0.242628  1
  Lu  Lu11  1  0.827711  0.172289  0.242628  1
  Lu  Lu12  1  0.666667  0.333333  0.877427  1
  Lu  Lu13  1  0.333333  0.666667  0.377427  1
  Lu  Lu14  1  0.000000  0.000000  0.506775  1
  Lu  Lu15  1  0.000000  0.000000  0.006775  1
  Tl  Tl16  1  0.835349  0.670696  0.760348  1
  Tl  Tl17  1  0.329304  0.164651  0.760348  1
  Tl  Tl18  1  0.835349  0.164651  0.760348  1
  Tl  Tl19  1  0.164651  0.329304  0.260348  1
  Tl  Tl20  1  0.670696  0.835349  0.260348  1
  Tl  Tl21  1  0.164651  0.835349  0.260348  1
  Ag  Ag22  1  0.666667  0.333333  0.299972  1
  Ag  Ag23  1  0.333333  0.666667  0.799972  1
