# generated using pymatgen
data_Sc3(Zn2Ge)2
_symmetry_space_group_name_H-M   'P 1'
_cell_length_a   6.64107000
_cell_length_b   6.64106972
_cell_length_c   4.09504300
_cell_angle_alpha   90.00000000
_cell_angle_beta   90.00000000
_cell_angle_gamma   120.00000142
_symmetry_Int_Tables_number   1
_chemical_formula_structural   Sc3(Zn2Ge)2
_chemical_formula_sum   'Sc3 Zn4 Ge2'
_cell_volume   156.41024244
_cell_formula_units_Z   1
loop_
 _symmetry_equiv_pos_site_id
 _symmetry_equiv_pos_as_xyz
  1  'x, y, z'
loop_
 _atom_site_type_symbol
 _atom_site_label
 _atom_site_symmetry_multiplicity
 _atom_site_fract_x
 _atom_site_fract_y
 _atom_site_fract_z
 _atom_site_occupancy
  Sc  Sc0  1  0.425915  0.425915  0.000000  1
  Sc  Sc1  1  0.574085  0.000000  0.000000  1
  Sc  Sc2  1  0.000000  0.574085  0.000000  1
  Zn  Zn3  1  0.000000  0.000000  0.000000  1
  Zn  Zn4  1  0.760324  0.760324  0.500000  1
  Zn  Zn5  1  0.239676  0.000000  0.500000  1
  Zn  Zn6  1  0.000000  0.239676  0.500000  1
  Ge  Ge7  1  0.666667  0.333333  0.500000  1
  Ge  Ge8  1  0.333333  0.666667  0.500000  1
