# generated using pymatgen
data_NaCe2AgF11
_symmetry_space_group_name_H-M   'P 1'
_cell_length_a   5.98896289
_cell_length_b   6.17569988
_cell_length_c   8.34984801
_cell_angle_alpha   109.95089188
_cell_angle_beta   96.59908103
_cell_angle_gamma   106.26940868
_symmetry_Int_Tables_number   1
_chemical_formula_structural   NaCe2AgF11
_chemical_formula_sum   'Na1 Ce2 Ag1 F11'
_cell_volume   270.97910753
_cell_formula_units_Z   1
loop_
 _symmetry_equiv_pos_site_id
 _symmetry_equiv_pos_as_xyz
  1  'x, y, z'
loop_
 _atom_site_type_symbol
 _atom_site_label
 _atom_site_symmetry_multiplicity
 _atom_site_fract_x
 _atom_site_fract_y
 _atom_site_fract_z
 _atom_site_occupancy
  Na  Na0  1  0.000000  0.000000  0.000000  1
  Ce  Ce1  1  0.507457  0.738560  0.231519  1
  Ce  Ce2  1  0.492543  0.261440  0.768481  1
  Ag  Ag3  1  0.000000  0.500000  0.500000  1
  F  F4  1  0.252579  0.844765  0.110864  1
  F  F5  1  0.332471  0.338469  0.016523  1
  F  F6  1  0.667529  0.661531  0.983477  1
  F  F7  1  0.784827  0.488720  0.678965  1
  F  F8  1  0.801944  0.064284  0.277959  1
  F  F9  1  0.198056  0.935716  0.722041  1
  F  F10  1  0.747421  0.155235  0.889136  1
  F  F11  1  0.215173  0.511280  0.321035  1
  F  F12  1  0.751054  0.602775  0.352759  1
  F  F13  1  0.248946  0.397225  0.647241  1
  F  F14  1  0.500000  0.000000  0.500000  1
