# generated using pymatgen
data_Ca5DyU2O12
_symmetry_space_group_name_H-M   'P 1'
_cell_length_a   6.79548048
_cell_length_b   6.78509655
_cell_length_c   6.78693791
_cell_angle_alpha   92.03118227
_cell_angle_beta   91.68009553
_cell_angle_gamma   91.77312240
_symmetry_Int_Tables_number   1
_chemical_formula_structural   Ca5DyU2O12
_chemical_formula_sum   'Ca5 Dy1 U2 O12'
_cell_volume   312.44076830
_cell_formula_units_Z   1
loop_
 _symmetry_equiv_pos_site_id
 _symmetry_equiv_pos_as_xyz
  1  'x, y, z'
loop_
 _atom_site_type_symbol
 _atom_site_label
 _atom_site_symmetry_multiplicity
 _atom_site_fract_x
 _atom_site_fract_y
 _atom_site_fract_z
 _atom_site_occupancy
  Ca  Ca0  1  0.748494  0.938743  0.442856  1
  Ca  Ca1  1  0.554430  0.251207  0.062449  1
  Ca  Ca2  1  0.252268  0.059442  0.555215  1
  Ca  Ca3  1  0.062617  0.558918  0.252739  1
  Ca  Ca4  1  0.443755  0.747257  0.939494  1
  Dy  Dy5  1  0.936708  0.439677  0.747829  1
  U  U6  1  0.998744  0.999625  0.999141  1
  U  U7  1  0.498777  0.499934  0.500355  1
  O  O8  1  0.292574  0.060848  0.926010  1
  O  O9  1  0.063314  0.923487  0.293586  1
  O  O10  1  0.925334  0.303435  0.056525  1
  O  O11  1  0.705199  0.937703  0.073927  1
  O  O12  1  0.934880  0.091077  0.701965  1
  O  O13  1  0.070012  0.693909  0.925511  1
  O  O14  1  0.197407  0.411596  0.548399  1
  O  O15  1  0.412109  0.541188  0.205187  1
  O  O16  1  0.460064  0.793649  0.588114  1
  O  O17  1  0.599243  0.457512  0.796572  1
  O  O18  1  0.803980  0.584792  0.470716  1
  O  O19  1  0.540091  0.206002  0.413410  1
