# generated using pymatgen
data_Yb3Er(AgPb)2
_symmetry_space_group_name_H-M   'P 1'
_cell_length_a   7.51645301
_cell_length_b   5.36286000
_cell_length_c   10.71580400
_cell_angle_alpha   90.00000000
_cell_angle_beta   90.00333113
_cell_angle_gamma   90.00000000
_symmetry_Int_Tables_number   1
_chemical_formula_structural   Yb3Er(AgPb)2
_chemical_formula_sum   'Yb6 Er2 Ag4 Pb4'
_cell_volume   431.95068521
_cell_formula_units_Z   2
loop_
 _symmetry_equiv_pos_site_id
 _symmetry_equiv_pos_as_xyz
  1  'x, y, z'
loop_
 _atom_site_type_symbol
 _atom_site_label
 _atom_site_symmetry_multiplicity
 _atom_site_fract_x
 _atom_site_fract_y
 _atom_site_fract_z
 _atom_site_occupancy
  Yb  Yb0  1  0.000265  0.249999  0.377224  1
  Yb  Yb1  1  0.500054  0.249999  0.377269  1
  Yb  Yb2  1  0.501389  0.750000  0.624995  1
  Yb  Yb3  1  0.998391  0.750000  0.625130  1
  Yb  Yb4  1  0.499773  0.249999  0.872643  1
  Yb  Yb5  1  0.999994  0.249999  0.872674  1
  Er  Er6  1  0.003000  0.750000  0.125010  1
  Er  Er7  1  0.497193  0.750000  0.125106  1
  Ag  Ag8  1  0.750195  0.249999  0.124753  1
  Ag  Ag9  1  0.250066  0.750000  0.368301  1
  Ag  Ag10  1  0.749876  0.249999  0.624735  1
  Ag  Ag11  1  0.250032  0.750000  0.881967  1
  Pb  Pb12  1  0.249653  0.249999  0.125024  1
  Pb  Pb13  1  0.750200  0.750000  0.368545  1
  Pb  Pb14  1  0.250017  0.249999  0.624990  1
  Pb  Pb15  1  0.749902  0.750000  0.881633  1
