# generated using pymatgen
data_Yb7Mg(Tc3Ge4)4
_symmetry_space_group_name_H-M   'P 1'
_cell_length_a   6.90199239
_cell_length_b   6.92934415
_cell_length_c   12.76173100
_cell_angle_alpha   90.19178988
_cell_angle_beta   89.98074089
_cell_angle_gamma   90.05623288
_symmetry_Int_Tables_number   1
_chemical_formula_structural   Yb7Mg(Tc3Ge4)4
_chemical_formula_sum   'Yb7 Mg1 Tc12 Ge16'
_cell_volume   610.34238052
_cell_formula_units_Z   1
loop_
 _symmetry_equiv_pos_site_id
 _symmetry_equiv_pos_as_xyz
  1  'x, y, z'
loop_
 _atom_site_type_symbol
 _atom_site_label
 _atom_site_symmetry_multiplicity
 _atom_site_fract_x
 _atom_site_fract_y
 _atom_site_fract_z
 _atom_site_occupancy
  Yb  Yb0  1  0.485639  0.665475  0.588824  1
  Yb  Yb1  1  0.986883  0.835704  0.911460  1
  Yb  Yb2  1  0.514860  0.336766  0.089012  1
  Yb  Yb3  1  0.013164  0.162727  0.413493  1
  Yb  Yb4  1  0.513586  0.335142  0.412783  1
  Yb  Yb5  1  0.014551  0.165246  0.088577  1
  Yb  Yb6  1  0.484508  0.663406  0.909051  1
  Mg  Mg7  1  0.969878  0.829882  0.591930  1
  Tc  Tc8  1  0.679656  0.143915  0.626545  1
  Tc  Tc9  1  0.176483  0.353773  0.870029  1
  Tc  Tc10  1  0.326154  0.853075  0.128500  1
  Tc  Tc11  1  0.826928  0.649756  0.373102  1
  Tc  Tc12  1  0.323225  0.853554  0.371816  1
  Tc  Tc13  1  0.825074  0.648201  0.129266  1
  Tc  Tc14  1  0.678018  0.146019  0.870174  1
  Tc  Tc15  1  0.175774  0.351791  0.628722  1
  Tc  Tc16  1  0.831437  0.498042  0.749193  1
  Tc  Tc17  1  0.329608  0.001148  0.749149  1
  Tc  Tc18  1  0.171058  0.503327  0.250301  1
  Tc  Tc19  1  0.670003  0.998533  0.250902  1
  Ge  Ge20  1  0.663694  0.950721  0.450595  1
  Ge  Ge21  1  0.163017  0.550681  0.050360  1
  Ge  Ge22  1  0.338617  0.051451  0.948528  1
  Ge  Ge23  1  0.838384  0.452973  0.550189  1
  Ge  Ge24  1  0.331287  0.046311  0.550895  1
  Ge  Ge25  1  0.838021  0.449272  0.948645  1
  Ge  Ge26  1  0.662486  0.949684  0.050200  1
  Ge  Ge27  1  0.162553  0.551941  0.451119  1
  Ge  Ge28  1  0.477789  0.359710  0.748714  1
  Ge  Ge29  1  0.977166  0.135237  0.748900  1
  Ge  Ge30  1  0.525544  0.638839  0.251500  1
  Ge  Ge31  1  0.025252  0.862847  0.249620  1
  Ge  Ge32  1  0.684392  0.847715  0.749437  1
  Ge  Ge33  1  0.179798  0.654704  0.746678  1
  Ge  Ge34  1  0.316834  0.152587  0.250553  1
  Ge  Ge35  1  0.818676  0.349846  0.251239  1
