# generated using pymatgen
data_Ba2Mn11CrO24
_symmetry_space_group_name_H-M   'P 1'
_cell_length_a   8.30942669
_cell_length_b   8.30942696
_cell_length_c   9.97567146
_cell_angle_alpha   53.94725055
_cell_angle_beta   53.94725129
_cell_angle_gamma   64.81970175
_symmetry_Int_Tables_number   1
_chemical_formula_structural   Ba2Mn11CrO24
_chemical_formula_sum   'Ba2 Mn11 Cr1 O24'
_cell_volume   446.90409919
_cell_formula_units_Z   1
loop_
 _symmetry_equiv_pos_site_id
 _symmetry_equiv_pos_as_xyz
  1  'x, y, z'
loop_
 _atom_site_type_symbol
 _atom_site_label
 _atom_site_symmetry_multiplicity
 _atom_site_fract_x
 _atom_site_fract_y
 _atom_site_fract_z
 _atom_site_occupancy
  Ba  Ba0  1  0.718890  0.281942  0.000205  1
  Ba  Ba1  1  0.281942  0.718890  0.000205  1
  Mn  Mn2  1  0.001595  0.671437  0.815529  1
  Mn  Mn3  1  0.671437  0.001595  0.815529  1
  Mn  Mn4  1  0.999580  0.331269  0.181698  1
  Mn  Mn5  1  0.664543  0.664543  0.185408  1
  Mn  Mn6  1  0.331269  0.999580  0.181698  1
  Mn  Mn7  1  0.149896  0.149896  0.515415  1
  Mn  Mn8  1  0.479804  0.815656  0.519095  1
  Mn  Mn9  1  0.815656  0.479804  0.519095  1
  Mn  Mn10  1  0.850280  0.850280  0.481905  1
  Mn  Mn11  1  0.185762  0.516084  0.480546  1
  Mn  Mn12  1  0.516084  0.185762  0.480546  1
  Cr  Cr13  1  0.336459  0.336459  0.815546  1
  O  O14  1  0.345330  0.345330  0.607988  1
  O  O15  1  0.009064  0.670035  0.615313  1
  O  O16  1  0.670035  0.009064  0.615313  1
  O  O17  1  0.994683  0.325548  0.381232  1
  O  O18  1  0.651864  0.651864  0.391718  1
  O  O19  1  0.325548  0.994683  0.381232  1
  O  O20  1  0.346398  0.346398  0.345684  1
  O  O21  1  0.012554  0.671155  0.357109  1
  O  O22  1  0.671155  0.012554  0.357109  1
  O  O23  1  0.997296  0.319282  0.641996  1
  O  O24  1  0.654504  0.654504  0.646509  1
  O  O25  1  0.319282  0.997296  0.641996  1
  O  O26  1  0.631643  0.287613  0.722177  1
  O  O27  1  0.287613  0.631643  0.722177  1
  O  O28  1  0.959506  0.959506  0.711875  1
  O  O29  1  0.711088  0.374416  0.278435  1
  O  O30  1  0.374416  0.711088  0.278435  1
  O  O31  1  0.043929  0.043929  0.281388  1
  O  O32  1  0.958543  0.626448  0.063621  1
  O  O33  1  0.626448  0.958543  0.063621  1
  O  O34  1  0.296788  0.296788  0.055743  1
  O  O35  1  0.373050  0.032860  0.951152  1
  O  O36  1  0.032860  0.373050  0.951152  1
  O  O37  1  0.703206  0.703206  0.944604  1
