# generated using pymatgen
data_Ho20FeNi3Bi8
_symmetry_space_group_name_H-M   'P 1'
_cell_length_a   7.98007423
_cell_length_b   8.90500500
_cell_length_c   12.31539209
_cell_angle_alpha   90.00000000
_cell_angle_beta   90.06519683
_cell_angle_gamma   90.00000000
_symmetry_Int_Tables_number   1
_chemical_formula_structural   Ho20FeNi3Bi8
_chemical_formula_sum   'Ho20 Fe1 Ni3 Bi8'
_cell_volume   875.16322671
_cell_formula_units_Z   1
loop_
 _symmetry_equiv_pos_site_id
 _symmetry_equiv_pos_as_xyz
  1  'x, y, z'
loop_
 _atom_site_type_symbol
 _atom_site_label
 _atom_site_symmetry_multiplicity
 _atom_site_fract_x
 _atom_site_fract_y
 _atom_site_fract_z
 _atom_site_occupancy
  Ho  Ho0  1  0.840560  0.750000  0.792425  1
  Ho  Ho1  1  0.157787  0.250000  0.205336  1
  Ho  Ho2  1  0.346030  0.250000  0.701707  1
  Ho  Ho3  1  0.651283  0.750000  0.301649  1
  Ho  Ho4  1  0.383120  0.750000  0.691919  1
  Ho  Ho5  1  0.620760  0.250000  0.305887  1
  Ho  Ho6  1  0.880452  0.250000  0.808453  1
  Ho  Ho7  1  0.119526  0.750000  0.190323  1
  Ho  Ho8  1  0.947764  0.750000  0.502292  1
  Ho  Ho9  1  0.048181  0.250000  0.497606  1
  Ho  Ho10  1  0.451362  0.250000  0.000227  1
  Ho  Ho11  1  0.549205  0.750000  0.001653  1
  Ho  Ho12  1  0.675880  0.033687  0.563162  1
  Ho  Ho13  1  0.323733  0.955705  0.437751  1
  Ho  Ho14  1  0.177840  0.959107  0.934727  1
  Ho  Ho15  1  0.323733  0.544295  0.437751  1
  Ho  Ho16  1  0.823193  0.041837  0.064084  1
  Ho  Ho17  1  0.675880  0.466313  0.563162  1
  Ho  Ho18  1  0.823193  0.458163  0.064084  1
  Ho  Ho19  1  0.177840  0.540893  0.934727  1
  Fe  Fe20  1  0.571184  0.750000  0.512188  1
  Ni  Ni21  1  0.428962  0.250000  0.488366  1
  Ni  Ni22  1  0.070618  0.250000  0.991340  1
  Ni  Ni23  1  0.930115  0.750000  0.006871  1
  Bi  Bi24  1  0.571657  0.489546  0.827913  1
  Bi  Bi25  1  0.428083  0.509888  0.173628  1
  Bi  Bi26  1  0.071688  0.508181  0.673587  1
  Bi  Bi27  1  0.428083  0.990112  0.173628  1
  Bi  Bi28  1  0.929473  0.492034  0.326027  1
  Bi  Bi29  1  0.571657  0.010454  0.827913  1
  Bi  Bi30  1  0.929473  0.007966  0.326027  1
  Bi  Bi31  1  0.071688  0.991819  0.673587  1
