# generated using pymatgen
data_Rb3InCu17P6
_symmetry_space_group_name_H-M   'P 1'
_cell_length_a   9.34950966
_cell_length_b   9.34951046
_cell_length_c   10.94783533
_cell_angle_alpha   59.02320630
_cell_angle_beta   59.02320291
_cell_angle_gamma   36.23894794
_symmetry_Int_Tables_number   1
_chemical_formula_structural   Rb3InCu17P6
_chemical_formula_sum   'Rb3 In1 Cu17 P6'
_cell_volume   475.59003249
_cell_formula_units_Z   1
loop_
 _symmetry_equiv_pos_site_id
 _symmetry_equiv_pos_as_xyz
  1  'x, y, z'
loop_
 _atom_site_type_symbol
 _atom_site_label
 _atom_site_symmetry_multiplicity
 _atom_site_fract_x
 _atom_site_fract_y
 _atom_site_fract_z
 _atom_site_occupancy
  Rb  Rb0  1  0.500000  0.500000  0.000000  1
  Rb  Rb1  1  0.836059  0.836059  0.995070  1
  Rb  Rb2  1  0.163941  0.163941  0.004930  1
  In  In3  1  0.000000  0.000000  0.500000  1
  Cu  Cu4  1  0.444295  0.944307  0.667158  1
  Cu  Cu5  1  0.761652  0.302306  0.673635  1
  Cu  Cu6  1  0.122474  0.581262  0.674208  1
  Cu  Cu7  1  0.944307  0.444295  0.667158  1
  Cu  Cu8  1  0.302306  0.761652  0.673635  1
  Cu  Cu9  1  0.581262  0.122474  0.674208  1
  Cu  Cu10  1  0.555705  0.055693  0.332842  1
  Cu  Cu11  1  0.877526  0.418738  0.325792  1
  Cu  Cu12  1  0.238348  0.697694  0.326365  1
  Cu  Cu13  1  0.055693  0.555705  0.332842  1
  Cu  Cu14  1  0.418738  0.877526  0.325792  1
  Cu  Cu15  1  0.697694  0.238348  0.326365  1
  Cu  Cu16  1  0.166608  0.166608  0.499875  1
  Cu  Cu17  1  0.500000  0.500000  0.500000  1
  Cu  Cu18  1  0.833392  0.833392  0.500125  1
  Cu  Cu19  1  0.670230  0.670230  0.500002  1
  Cu  Cu20  1  0.329770  0.329770  0.499998  1
  P  P21  1  0.077444  0.077444  0.768357  1
  P  P22  1  0.408763  0.408763  0.773524  1
  P  P23  1  0.743335  0.743335  0.768830  1
  P  P24  1  0.256665  0.256665  0.231170  1
  P  P25  1  0.591237  0.591237  0.226476  1
  P  P26  1  0.922556  0.922556  0.231643  1
