# generated using pymatgen
data_Ho10Tl3Cd5Pd4
_symmetry_space_group_name_H-M   'P 1'
_cell_length_a   3.65597200
_cell_length_b   7.92709792
_cell_length_c   18.25322400
_cell_angle_alpha   90.04916376
_cell_angle_beta   90.00000000
_cell_angle_gamma   90.00000000
_symmetry_Int_Tables_number   1
_chemical_formula_structural   Ho10Tl3Cd5Pd4
_chemical_formula_sum   'Ho10 Tl3 Cd5 Pd4'
_cell_volume   529.00101735
_cell_formula_units_Z   1
loop_
 _symmetry_equiv_pos_site_id
 _symmetry_equiv_pos_as_xyz
  1  'x, y, z'
loop_
 _atom_site_type_symbol
 _atom_site_label
 _atom_site_symmetry_multiplicity
 _atom_site_fract_x
 _atom_site_fract_y
 _atom_site_fract_z
 _atom_site_occupancy
  Ho  Ho0  1  0.000000  0.497347  0.499588  1
  Ho  Ho1  1  0.000000  0.000731  0.000441  1
  Ho  Ho2  1  0.000000  0.743302  0.282023  1
  Ho  Ho3  1  0.000000  0.256044  0.717352  1
  Ho  Ho4  1  0.000000  0.757216  0.781183  1
  Ho  Ho5  1  0.000000  0.243477  0.218286  1
  Ho  Ho6  1  0.000000  0.616810  0.085943  1
  Ho  Ho7  1  0.000000  0.384937  0.914368  1
  Ho  Ho8  1  0.000000  0.885089  0.585652  1
  Ho  Ho9  1  0.000000  0.117502  0.415554  1
  Tl  Tl10  1  0.500000  0.715180  0.933984  1
  Tl  Tl11  1  0.500000  0.286811  0.066001  1
  Tl  Tl12  1  0.500000  0.786942  0.434026  1
  Cd  Cd13  1  0.500000  0.212709  0.567003  1
  Cd  Cd14  1  0.500000  0.572797  0.648219  1
  Cd  Cd15  1  0.500000  0.419103  0.350485  1
  Cd  Cd16  1  0.500000  0.920477  0.149726  1
  Cd  Cd17  1  0.500000  0.079483  0.850692  1
  Pd  Pd18  1  0.500000  0.531616  0.197253  1
  Pd  Pd19  1  0.500000  0.470742  0.803241  1
  Pd  Pd20  1  0.500000  0.970202  0.696251  1
  Pd  Pd21  1  0.500000  0.031485  0.302728  1
