# generated using pymatgen
data_TcIrI18
_symmetry_space_group_name_H-M   'P 1'
_cell_length_a   10.03703706
_cell_length_b   10.03703789
_cell_length_c   10.03704001
_cell_angle_alpha   90.32293400
_cell_angle_beta   90.32292920
_cell_angle_gamma   90.32293725
_symmetry_Int_Tables_number   1
_chemical_formula_structural   TcIrI18
_chemical_formula_sum   'Tc1 Ir1 I18'
_cell_volume   1011.10433881
_cell_formula_units_Z   1
loop_
 _symmetry_equiv_pos_site_id
 _symmetry_equiv_pos_as_xyz
  1  'x, y, z'
loop_
 _atom_site_type_symbol
 _atom_site_label
 _atom_site_symmetry_multiplicity
 _atom_site_fract_x
 _atom_site_fract_y
 _atom_site_fract_z
 _atom_site_occupancy
  Tc  Tc0  1  0.500000  0.500000  0.500000  1
  Ir  Ir1  1  0.000000  0.000000  0.000000  1
  I  I2  1  0.749839  0.127252  0.619449  1
  I  I3  1  0.996434  0.012077  0.732213  1
  I  I4  1  0.619449  0.749839  0.127252  1
  I  I5  1  0.987923  0.267787  0.003566  1
  I  I6  1  0.732213  0.996434  0.012077  1
  I  I7  1  0.012077  0.732213  0.996434  1
  I  I8  1  0.003566  0.987923  0.267787  1
  I  I9  1  0.872748  0.380551  0.250161  1
  I  I10  1  0.267787  0.003566  0.987923  1
  I  I11  1  0.250161  0.872748  0.380551  1
  I  I12  1  0.127252  0.619449  0.749839  1
  I  I13  1  0.380551  0.250161  0.872748  1
  I  I14  1  0.769186  0.530521  0.481991  1
  I  I15  1  0.530521  0.481991  0.769186  1
  I  I16  1  0.230814  0.469479  0.518009  1
  I  I17  1  0.469479  0.518009  0.230814  1
  I  I18  1  0.481991  0.769186  0.530521  1
  I  I19  1  0.518009  0.230814  0.469479  1
