# generated using pymatgen
data_Co4Ni4Mo9W7C4
_symmetry_space_group_name_H-M   'P 1'
_cell_length_a   8.00410665
_cell_length_b   8.00414593
_cell_length_c   8.00444617
_cell_angle_alpha   60.00068185
_cell_angle_beta   59.97691561
_cell_angle_gamma   59.98207254
_symmetry_Int_Tables_number   1
_chemical_formula_structural   Co4Ni4Mo9W7C4
_chemical_formula_sum   'Co4 Ni4 Mo9 W7 C4'
_cell_volume   362.50308977
_cell_formula_units_Z   1
loop_
 _symmetry_equiv_pos_site_id
 _symmetry_equiv_pos_as_xyz
  1  'x, y, z'
loop_
 _atom_site_type_symbol
 _atom_site_label
 _atom_site_symmetry_multiplicity
 _atom_site_fract_x
 _atom_site_fract_y
 _atom_site_fract_z
 _atom_site_occupancy
  Co  Co0  1  0.240358  0.919089  0.919933  1
  Co  Co1  1  0.920663  0.919354  0.919503  1
  Co  Co2  1  0.920048  0.920066  0.240366  1
  Co  Co3  1  0.330046  0.007502  0.331612  1
  Ni  Ni4  1  0.916428  0.249846  0.917086  1
  Ni  Ni5  1  0.332839  0.333660  0.000714  1
  Ni  Ni6  1  0.000493  0.332745  0.333019  1
  Ni  Ni7  1  0.333587  0.332866  0.332797  1
  Mo  Mo8  1  0.684016  0.688556  0.313706  1
  Mo  Mo9  1  0.689560  0.310820  0.689684  1
  Mo  Mo10  1  0.313966  0.688452  0.313315  1
  Mo  Mo11  1  0.564051  0.936178  0.564076  1
  Mo  Mo12  1  0.564539  0.935659  0.935132  1
  Mo  Mo13  1  0.938105  0.564547  0.558892  1
  Mo  Mo14  1  0.938791  0.563617  0.939274  1
  Mo  Mo15  1  0.310497  0.310823  0.689367  1
  Mo  Mo16  1  0.557943  0.563609  0.939243  1
  W  W17  1  0.124150  0.627025  0.124639  1
  W  W18  1  0.126930  0.120577  0.625858  1
  W  W19  1  0.625698  0.119907  0.127033  1
  W  W20  1  0.127359  0.120039  0.126697  1
  W  W21  1  0.935649  0.936417  0.563865  1
  W  W22  1  0.690188  0.310183  0.309366  1
  W  W23  1  0.313304  0.689244  0.684769  1
  C  C24  1  0.624379  0.128099  0.623575  1
  C  C25  1  0.625641  0.623494  0.125302  1
  C  C26  1  0.125476  0.623963  0.625534  1
  C  C27  1  0.625299  0.623665  0.625642  1
