# generated using pymatgen
data_La5Nd3CdPd24
_symmetry_space_group_name_H-M   'P 1'
_cell_length_a   8.58079573
_cell_length_b   8.58079547
_cell_length_c   8.58079600
_cell_angle_alpha   90.05341769
_cell_angle_beta   90.05341769
_cell_angle_gamma   90.05342129
_symmetry_Int_Tables_number   1
_chemical_formula_structural   La5Nd3CdPd24
_chemical_formula_sum   'La5 Nd3 Cd1 Pd24'
_cell_volume   631.80364071
_cell_formula_units_Z   1
loop_
 _symmetry_equiv_pos_site_id
 _symmetry_equiv_pos_as_xyz
  1  'x, y, z'
loop_
 _atom_site_type_symbol
 _atom_site_label
 _atom_site_symmetry_multiplicity
 _atom_site_fract_x
 _atom_site_fract_y
 _atom_site_fract_z
 _atom_site_occupancy
  La  La0  1  0.749127  0.749127  0.749127  1
  La  La1  1  0.749137  0.250650  0.250650  1
  La  La2  1  0.250650  0.250650  0.749137  1
  La  La3  1  0.250650  0.749137  0.250650  1
  La  La4  1  0.250789  0.250789  0.250789  1
  Nd  Nd5  1  0.749684  0.749684  0.250434  1
  Nd  Nd6  1  0.749684  0.250434  0.749684  1
  Nd  Nd7  1  0.250434  0.749684  0.749684  1
  Cd  Cd8  1  0.999941  0.999941  0.999941  1
  Pd  Pd9  1  0.999143  0.999143  0.315548  1
  Pd  Pd10  1  0.732730  0.000222  0.499889  1
  Pd  Pd11  1  0.732730  0.499889  0.000222  1
  Pd  Pd12  1  0.499889  0.000222  0.732730  1
  Pd  Pd13  1  0.000222  0.732730  0.499889  1
  Pd  Pd14  1  0.500470  0.999278  0.267258  1
  Pd  Pd15  1  0.999278  0.267258  0.500470  1
  Pd  Pd16  1  0.499889  0.732730  0.000222  1
  Pd  Pd17  1  0.255649  0.500621  0.500621  1
  Pd  Pd18  1  0.499864  0.499864  0.744406  1
  Pd  Pd19  1  0.500621  0.500621  0.255649  1
  Pd  Pd20  1  0.500621  0.255649  0.500621  1
  Pd  Pd21  1  0.499864  0.744406  0.499864  1
  Pd  Pd22  1  0.744406  0.499864  0.499864  1
  Pd  Pd23  1  0.315548  0.999143  0.999143  1
  Pd  Pd24  1  0.000367  0.000367  0.684618  1
  Pd  Pd25  1  0.999278  0.500470  0.267258  1
  Pd  Pd26  1  0.999143  0.315548  0.999143  1
  Pd  Pd27  1  0.000367  0.684618  0.000367  1
  Pd  Pd28  1  0.684618  0.000367  0.000367  1
  Pd  Pd29  1  0.267258  0.500470  0.999278  1
  Pd  Pd30  1  0.267258  0.999278  0.500470  1
  Pd  Pd31  1  0.000222  0.499889  0.732730  1
  Pd  Pd32  1  0.500470  0.267258  0.999278  1
