# generated using pymatgen
data_Er2Lu11Th3(CdIr)4
_symmetry_space_group_name_H-M   'P 1'
_cell_length_a   9.58464967
_cell_length_b   9.57937254
_cell_length_c   9.58874600
_cell_angle_alpha   59.96763295
_cell_angle_beta   59.98586815
_cell_angle_gamma   59.91384607
_symmetry_Int_Tables_number   1
_chemical_formula_structural   Er2Lu11Th3(CdIr)4
_chemical_formula_sum   'Er2 Lu11 Th3 Cd4 Ir4'
_cell_volume   621.90496243
_cell_formula_units_Z   1
loop_
 _symmetry_equiv_pos_site_id
 _symmetry_equiv_pos_as_xyz
  1  'x, y, z'
loop_
 _atom_site_type_symbol
 _atom_site_label
 _atom_site_symmetry_multiplicity
 _atom_site_fract_x
 _atom_site_fract_y
 _atom_site_fract_z
 _atom_site_occupancy
  Er  Er0  1  0.818785  0.818380  0.181418  1
  Er  Er1  1  0.186026  0.186523  0.813726  1
  Lu  Lu2  1  0.196698  0.602092  0.600605  1
  Lu  Lu3  1  0.061393  0.438351  0.439389  1
  Lu  Lu4  1  0.434814  0.064258  0.064500  1
  Lu  Lu5  1  0.434814  0.064258  0.436428  1
  Lu  Lu6  1  0.061393  0.438351  0.060865  1
  Lu  Lu7  1  0.435408  0.437143  0.063724  1
  Lu  Lu8  1  0.062910  0.061387  0.437851  1
  Lu  Lu9  1  0.187341  0.814290  0.812194  1
  Lu  Lu10  1  0.817126  0.184959  0.183098  1
  Lu  Lu11  1  0.817126  0.184959  0.814817  1
  Lu  Lu12  1  0.187341  0.814290  0.186175  1
  Th  Th13  1  0.598676  0.601139  0.600065  1
  Th  Th14  1  0.598676  0.601139  0.200120  1
  Th  Th15  1  0.599434  0.197074  0.601745  1
  Cd  Cd16  1  0.837150  0.829593  0.831061  1
  Cd  Cd17  1  0.837150  0.829593  0.502195  1
  Cd  Cd18  1  0.834701  0.500735  0.832282  1
  Cd  Cd19  1  0.499242  0.830880  0.834938  1
  Ir  Ir20  1  0.389992  0.392672  0.393117  1
  Ir  Ir21  1  0.389992  0.392672  0.824219  1
  Ir  Ir22  1  0.389310  0.824979  0.392856  1
  Ir  Ir23  1  0.824499  0.390280  0.392610  1
