# generated using pymatgen
data_HoTm3(TcB4)4
_symmetry_space_group_name_H-M   'P 1'
_cell_length_a   3.57969000
_cell_length_b   5.94149675
_cell_length_c   11.49814605
_cell_angle_alpha   89.96579104
_cell_angle_beta   90.00000000
_cell_angle_gamma   90.00000000
_symmetry_Int_Tables_number   1
_chemical_formula_structural   HoTm3(TcB4)4
_chemical_formula_sum   'Ho1 Tm3 Tc4 B16'
_cell_volume   244.55076521
_cell_formula_units_Z   1
loop_
 _symmetry_equiv_pos_site_id
 _symmetry_equiv_pos_as_xyz
  1  'x, y, z'
loop_
 _atom_site_type_symbol
 _atom_site_label
 _atom_site_symmetry_multiplicity
 _atom_site_fract_x
 _atom_site_fract_y
 _atom_site_fract_z
 _atom_site_occupancy
  Ho  Ho0  1  0.500000  0.372625  0.150098  1
  Tm  Tm1  1  0.500000  0.127399  0.649909  1
  Tm  Tm2  1  0.500000  0.872553  0.350232  1
  Tm  Tm3  1  0.500000  0.627388  0.849956  1
  Tc  Tc4  1  0.500000  0.133247  0.911568  1
  Tc  Tc5  1  0.500000  0.866641  0.087776  1
  Tc  Tc6  1  0.500000  0.633676  0.588130  1
  Tc  Tc7  1  0.500000  0.366416  0.412537  1
  B  B8  1  0.000000  0.476838  0.693067  1
  B  B9  1  0.000000  0.523706  0.307544  1
  B  B10  1  0.000000  0.976762  0.806720  1
  B  B11  1  0.000000  0.022821  0.192991  1
  B  B12  1  0.000000  0.288076  0.814463  1
  B  B13  1  0.000000  0.712696  0.185400  1
  B  B14  1  0.000000  0.788116  0.685322  1
  B  B15  1  0.000000  0.211796  0.315132  1
  B  B16  1  0.000000  0.364843  0.968219  1
  B  B17  1  0.000000  0.635179  0.030955  1
  B  B18  1  0.000000  0.865159  0.531416  1
  B  B19  1  0.000000  0.134835  0.468972  1
  B  B20  1  0.000000  0.385890  0.547825  1
  B  B21  1  0.000000  0.614322  0.452613  1
  B  B22  1  0.000000  0.885626  0.951977  1
  B  B23  1  0.000000  0.113388  0.047178  1
