# generated using pymatgen
data_Li3Dy5(P3Rh4)4
_symmetry_space_group_name_H-M   'P 1'
_cell_length_a   12.69779700
_cell_length_b   12.69779695
_cell_length_c   3.94366900
_cell_angle_alpha   90.00000000
_cell_angle_beta   90.00000000
_cell_angle_gamma   119.99999754
_symmetry_Int_Tables_number   1
_chemical_formula_structural   Li3Dy5(P3Rh4)4
_chemical_formula_sum   'Li3 Dy5 P12 Rh16'
_cell_volume   550.66548542
_cell_formula_units_Z   1
loop_
 _symmetry_equiv_pos_site_id
 _symmetry_equiv_pos_as_xyz
  1  'x, y, z'
loop_
 _atom_site_type_symbol
 _atom_site_label
 _atom_site_symmetry_multiplicity
 _atom_site_fract_x
 _atom_site_fract_y
 _atom_site_fract_z
 _atom_site_occupancy
  Li  Li0  1  0.000000  0.441888  0.500000  1
  Li  Li1  1  0.558112  0.558112  0.500000  1
  Li  Li2  1  0.441888  0.000000  0.500000  1
  Dy  Dy3  1  0.333333  0.666667  0.500000  1
  Dy  Dy4  1  0.666667  0.333333  0.500000  1
  Dy  Dy5  1  0.000000  0.808724  0.000000  1
  Dy  Dy6  1  0.191276  0.191276  0.000000  1
  Dy  Dy7  1  0.808724  0.000000  0.000000  1
  P  P8  1  0.000000  0.631527  0.500000  1
  P  P9  1  0.368473  0.368473  0.500000  1
  P  P10  1  0.631527  0.000000  0.500000  1
  P  P11  1  0.516548  0.689741  0.000000  1
  P  P12  1  0.310259  0.826807  0.000000  1
  P  P13  1  0.173193  0.483452  0.000000  1
  P  P14  1  0.483452  0.173193  0.000000  1
  P  P15  1  0.689741  0.516548  0.000000  1
  P  P16  1  0.826807  0.310259  0.000000  1
  P  P17  1  0.000000  0.180436  0.500000  1
  P  P18  1  0.819564  0.819564  0.500000  1
  P  P19  1  0.180436  0.000000  0.500000  1
  Rh  Rh20  1  0.510187  0.870433  0.000000  1
  Rh  Rh21  1  0.129567  0.639755  0.000000  1
  Rh  Rh22  1  0.360245  0.489813  0.000000  1
  Rh  Rh23  1  0.489813  0.360245  0.000000  1
  Rh  Rh24  1  0.870433  0.510187  0.000000  1
  Rh  Rh25  1  0.639755  0.129567  0.000000  1
  Rh  Rh26  1  0.000000  0.282274  0.000000  1
  Rh  Rh27  1  0.717726  0.717726  0.000000  1
  Rh  Rh28  1  0.282274  0.000000  0.000000  1
  Rh  Rh29  1  0.624505  0.804008  0.500000  1
  Rh  Rh30  1  0.195992  0.820498  0.500000  1
  Rh  Rh31  1  0.179502  0.375495  0.500000  1
  Rh  Rh32  1  0.375495  0.179502  0.500000  1
  Rh  Rh33  1  0.804008  0.624505  0.500000  1
  Rh  Rh34  1  0.820498  0.195992  0.500000  1
  Rh  Rh35  1  0.000000  0.000000  0.500000  1
