# generated using pymatgen
data_La10AlTcSb4
_symmetry_space_group_name_H-M   'P 1'
_cell_length_a   8.38263400
_cell_length_b   9.55599400
_cell_length_c   12.73148800
_cell_angle_alpha   90.00000000
_cell_angle_beta   90.00000000
_cell_angle_gamma   90.00000000
_symmetry_Int_Tables_number   1
_chemical_formula_structural   La10AlTcSb4
_chemical_formula_sum   'La20 Al2 Tc2 Sb8'
_cell_volume   1019.84821000
_cell_formula_units_Z   2
loop_
 _symmetry_equiv_pos_site_id
 _symmetry_equiv_pos_as_xyz
  1  'x, y, z'
loop_
 _atom_site_type_symbol
 _atom_site_label
 _atom_site_symmetry_multiplicity
 _atom_site_fract_x
 _atom_site_fract_y
 _atom_site_fract_z
 _atom_site_occupancy
  La  La0  1  0.172321  0.750000  0.219759  1
  La  La1  1  0.672321  0.250000  0.280241  1
  La  La2  1  0.846274  0.250000  0.794657  1
  La  La3  1  0.346274  0.750000  0.705343  1
  La  La4  1  0.466334  0.750000  0.000172  1
  La  La5  1  0.966334  0.250000  0.499828  1
  La  La6  1  0.533853  0.250000  0.000483  1
  La  La7  1  0.033853  0.750000  0.499517  1
  La  La8  1  0.629624  0.750000  0.301600  1
  La  La9  1  0.129624  0.250000  0.198400  1
  La  La10  1  0.357421  0.250000  0.710685  1
  La  La11  1  0.857421  0.750000  0.789315  1
  La  La12  1  0.813628  0.981610  0.062234  1
  La  La13  1  0.313628  0.018390  0.437766  1
  La  La14  1  0.187244  0.451762  0.936832  1
  La  La15  1  0.687244  0.548238  0.563168  1
  La  La16  1  0.187244  0.048238  0.936832  1
  La  La17  1  0.687244  0.951762  0.563168  1
  La  La18  1  0.813628  0.518390  0.062234  1
  La  La19  1  0.313628  0.481610  0.437766  1
  Al  Al20  1  0.573382  0.250000  0.516772  1
  Al  Al21  1  0.073382  0.750000  0.983228  1
  Tc  Tc22  1  0.408029  0.750000  0.478487  1
  Tc  Tc23  1  0.908029  0.250000  0.021513  1
  Sb  Sb24  1  0.931873  0.992846  0.328010  1
  Sb  Sb25  1  0.431873  0.007154  0.171990  1
  Sb  Sb26  1  0.073637  0.493485  0.674909  1
  Sb  Sb27  1  0.573637  0.506515  0.825091  1
  Sb  Sb28  1  0.073637  0.006515  0.674909  1
  Sb  Sb29  1  0.573637  0.993485  0.825091  1
  Sb  Sb30  1  0.931873  0.507154  0.328010  1
  Sb  Sb31  1  0.431873  0.492846  0.171990  1
