# generated using pymatgen
data_Ce2Er2(Ga8Pt3)3
_symmetry_space_group_name_H-M   'P 1'
_cell_length_a   7.61901394
_cell_length_b   7.63169154
_cell_length_c   13.35397400
_cell_angle_alpha   84.41438240
_cell_angle_beta   78.86725636
_cell_angle_gamma   60.00887993
_symmetry_Int_Tables_number   1
_chemical_formula_structural   Ce2Er2(Ga8Pt3)3
_chemical_formula_sum   'Ce2 Er2 Ga24 Pt9'
_cell_volume   659.85600380
_cell_formula_units_Z   1
loop_
 _symmetry_equiv_pos_site_id
 _symmetry_equiv_pos_as_xyz
  1  'x, y, z'
loop_
 _atom_site_type_symbol
 _atom_site_label
 _atom_site_symmetry_multiplicity
 _atom_site_fract_x
 _atom_site_fract_y
 _atom_site_fract_z
 _atom_site_occupancy
  Ce  Ce0  1  0.396014  0.167592  0.808357  1
  Ce  Ce1  1  0.603986  0.832408  0.191643  1
  Er  Er2  1  0.732813  0.498783  0.808303  1
  Er  Er3  1  0.267187  0.501217  0.191697  1
  Ga  Ga4  1  0.686440  0.831451  0.938751  1
  Ga  Ga5  1  0.313560  0.168549  0.061249  1
  Ga  Ga6  1  0.145096  0.833825  0.560040  1
  Ga  Ga7  1  0.854904  0.166175  0.439960  1
  Ga  Ga8  1  0.480039  0.167565  0.557124  1
  Ga  Ga9  1  0.519961  0.832435  0.442876  1
  Ga  Ga10  1  0.218858  0.167360  0.327169  1
  Ga  Ga11  1  0.781142  0.832640  0.672831  1
  Ga  Ga12  1  0.438947  0.504958  0.673442  1
  Ga  Ga13  1  0.561053  0.495042  0.326558  1
  Ga  Ga14  1  0.107591  0.163027  0.671844  1
  Ga  Ga15  1  0.892409  0.836973  0.328156  1
  Ga  Ga16  1  0.357439  0.498138  0.940372  1
  Ga  Ga17  1  0.642561  0.501862  0.059628  1
  Ga  Ga18  1  0.016508  0.170746  0.944313  1
  Ga  Ga19  1  0.983492  0.829254  0.055687  1
  Ga  Ga20  1  0.185961  0.500186  0.442410  1
  Ga  Ga21  1  0.814039  0.499814  0.557590  1
  Ga  Ga22  1  0.734208  0.166936  0.181991  1
  Ga  Ga23  1  0.265792  0.833064  0.818009  1
  Ga  Ga24  1  0.059521  0.632890  0.816794  1
  Ga  Ga25  1  0.940479  0.367110  0.183206  1
  Ga  Ga26  1  0.859881  0.041655  0.816909  1
  Ga  Ga27  1  0.140119  0.958345  0.183091  1
  Pt  Pt28  1  0.119561  0.494915  0.639069  1
  Pt  Pt29  1  0.880439  0.505085  0.360931  1
  Pt  Pt30  1  0.659825  0.168505  0.999804  1
  Pt  Pt31  1  0.340175  0.831495  0.000196  1
  Pt  Pt32  1  0.539827  0.167136  0.360558  1
  Pt  Pt33  1  0.460173  0.832864  0.639442  1
  Pt  Pt34  1  0.781138  0.172708  0.637840  1
  Pt  Pt35  1  0.218862  0.827292  0.362160  1
  Pt  Pt36  1  0.000000  0.500000  0.000000  1
