# generated using pymatgen
data_ErPa3Pd3PtPb2
_symmetry_space_group_name_H-M   'P 1'
_cell_length_a   7.88891280
_cell_length_b   7.91491159
_cell_length_c   3.66029800
_cell_angle_alpha   90.00000000
_cell_angle_beta   90.00000000
_cell_angle_gamma   89.63208049
_symmetry_Int_Tables_number   1
_chemical_formula_structural   ErPa3Pd3PtPb2
_chemical_formula_sum   'Er1 Pa3 Pd3 Pt1 Pb2'
_cell_volume   228.54446844
_cell_formula_units_Z   1
loop_
 _symmetry_equiv_pos_site_id
 _symmetry_equiv_pos_as_xyz
  1  'x, y, z'
loop_
 _atom_site_type_symbol
 _atom_site_label
 _atom_site_symmetry_multiplicity
 _atom_site_fract_x
 _atom_site_fract_y
 _atom_site_fract_z
 _atom_site_occupancy
  Er  Er0  1  0.324734  0.829982  0.500000  1
  Pa  Pa1  1  0.666942  0.172400  0.500000  1
  Pa  Pa2  1  0.177648  0.322786  0.500000  1
  Pa  Pa3  1  0.827955  0.672539  0.500000  1
  Pd  Pd4  1  0.118205  0.617343  0.000000  1
  Pd  Pd5  1  0.634392  0.874452  0.000000  1
  Pd  Pd6  1  0.869138  0.368997  0.000000  1
  Pt  Pt7  1  0.380259  0.132329  0.000000  1
  Pb  Pb8  1  0.003756  0.995936  0.000000  1
  Pb  Pb9  1  0.496972  0.513237  0.000000  1
