# generated using pymatgen
data_Ce12Fe6Si5Bi
_symmetry_space_group_name_H-M   'P 1'
_cell_length_a   7.48166100
_cell_length_b   7.48166033
_cell_length_c   9.59643700
_cell_angle_alpha   90.00000000
_cell_angle_beta   90.00000000
_cell_angle_gamma   119.99999855
_symmetry_Int_Tables_number   1
_chemical_formula_structural   Ce12Fe6Si5Bi
_chemical_formula_sum   'Ce12 Fe6 Si5 Bi1'
_cell_volume   465.19674538
_cell_formula_units_Z   1
loop_
 _symmetry_equiv_pos_site_id
 _symmetry_equiv_pos_as_xyz
  1  'x, y, z'
loop_
 _atom_site_type_symbol
 _atom_site_label
 _atom_site_symmetry_multiplicity
 _atom_site_fract_x
 _atom_site_fract_y
 _atom_site_fract_z
 _atom_site_occupancy
  Ce  Ce0  1  0.000000  0.579594  0.501740  1
  Ce  Ce1  1  0.579594  0.000000  0.501740  1
  Ce  Ce2  1  0.420406  0.420406  0.501740  1
  Ce  Ce3  1  0.000000  0.430865  0.002704  1
  Ce  Ce4  1  0.430865  0.000000  0.002704  1
  Ce  Ce5  1  0.569135  0.569135  0.002704  1
  Ce  Ce6  1  0.000000  0.737429  0.181247  1
  Ce  Ce7  1  0.737429  0.000000  0.181247  1
  Ce  Ce8  1  0.262571  0.262571  0.181247  1
  Ce  Ce9  1  0.000000  0.266151  0.662025  1
  Ce  Ce10  1  0.266151  0.000000  0.662025  1
  Ce  Ce11  1  0.733849  0.733849  0.662025  1
  Fe  Fe12  1  0.000000  0.350019  0.343942  1
  Fe  Fe13  1  0.350019  0.000000  0.343942  1
  Fe  Fe14  1  0.649981  0.649981  0.343942  1
  Fe  Fe15  1  0.000000  0.636341  0.840236  1
  Fe  Fe16  1  0.636341  0.000000  0.840236  1
  Fe  Fe17  1  0.363659  0.363659  0.840236  1
  Si  Si18  1  0.666667  0.333333  0.276399  1
  Si  Si19  1  0.333333  0.666667  0.276399  1
  Si  Si20  1  0.333333  0.666667  0.772313  1
  Si  Si21  1  0.666667  0.333333  0.772313  1
  Si  Si22  1  0.000000  0.000000  0.417701  1
  Bi  Bi23  1  0.000000  0.000000  0.918450  1
