# generated using pymatgen
data_Dy12Tc2IrRh
_symmetry_space_group_name_H-M   'P 1'
_cell_length_a   6.32931760
_cell_length_b   7.32047127
_cell_length_c   9.21977700
_cell_angle_alpha   90.00000000
_cell_angle_beta   90.00000000
_cell_angle_gamma   89.87896534
_symmetry_Int_Tables_number   1
_chemical_formula_structural   Dy12Tc2IrRh
_chemical_formula_sum   'Dy12 Tc2 Ir1 Rh1'
_cell_volume   427.18439316
_cell_formula_units_Z   1
loop_
 _symmetry_equiv_pos_site_id
 _symmetry_equiv_pos_as_xyz
  1  'x, y, z'
loop_
 _atom_site_type_symbol
 _atom_site_label
 _atom_site_symmetry_multiplicity
 _atom_site_fract_x
 _atom_site_fract_y
 _atom_site_fract_z
 _atom_site_occupancy
  Dy  Dy0  1  0.327746  0.678046  0.067664  1
  Dy  Dy1  1  0.171466  0.178664  0.433532  1
  Dy  Dy2  1  0.667618  0.321307  0.560834  1
  Dy  Dy3  1  0.834017  0.823566  0.940008  1
  Dy  Dy4  1  0.667618  0.321307  0.939166  1
  Dy  Dy5  1  0.834017  0.823566  0.559992  1
  Dy  Dy6  1  0.327746  0.678046  0.432336  1
  Dy  Dy7  1  0.171466  0.178664  0.066468  1
  Dy  Dy8  1  0.871241  0.537758  0.250000  1
  Dy  Dy9  1  0.627305  0.037537  0.250000  1
  Dy  Dy10  1  0.135613  0.459224  0.750000  1
  Dy  Dy11  1  0.363748  0.959383  0.750000  1
  Tc  Tc12  1  0.035817  0.887348  0.250000  1
  Tc  Tc13  1  0.464071  0.386875  0.250000  1
  Ir  Ir14  1  0.953507  0.114648  0.750000  1
  Rh  Rh15  1  0.547005  0.614059  0.750000  1
