# generated using pymatgen
data_Rb2Pt(NO3)4
_symmetry_space_group_name_H-M   'P 1'
_cell_length_a   16.03296700
_cell_length_b   8.19361861
_cell_length_c   9.74070200
_cell_angle_alpha   88.66602983
_cell_angle_beta   90.00000000
_cell_angle_gamma   90.00000000
_symmetry_Int_Tables_number   1
_chemical_formula_structural   Rb2Pt(NO3)4
_chemical_formula_sum   'Rb8 Pt4 N16 O48'
_cell_volume   1279.26990594
_cell_formula_units_Z   4
loop_
 _symmetry_equiv_pos_site_id
 _symmetry_equiv_pos_as_xyz
  1  'x, y, z'
loop_
 _atom_site_type_symbol
 _atom_site_label
 _atom_site_symmetry_multiplicity
 _atom_site_fract_x
 _atom_site_fract_y
 _atom_site_fract_z
 _atom_site_occupancy
  Rb  Rb0  1  0.839528  0.223481  0.015771  1
  Rb  Rb1  1  0.660472  0.223481  0.515771  1
  Rb  Rb2  1  0.093719  0.254296  0.548416  1
  Rb  Rb3  1  0.906281  0.745704  0.451584  1
  Rb  Rb4  1  0.160472  0.776519  0.984229  1
  Rb  Rb5  1  0.406281  0.254296  0.048416  1
  Rb  Rb6  1  0.593719  0.745704  0.951584  1
  Rb  Rb7  1  0.339528  0.776519  0.484229  1
  Pt  Pt8  1  0.879957  0.730058  0.823645  1
  Pt  Pt9  1  0.620043  0.730058  0.323645  1
  Pt  Pt10  1  0.120043  0.269942  0.176355  1
  Pt  Pt11  1  0.379957  0.269942  0.676355  1
  N  N12  1  0.193660  0.568212  0.285896  1
  N  N13  1  0.963101  0.431045  0.238369  1
  N  N14  1  0.806340  0.431788  0.714104  1
  N  N15  1  0.040901  0.956020  0.240602  1
  N  N16  1  0.459099  0.956020  0.740602  1
  N  N17  1  0.765234  0.898041  0.207243  1
  N  N18  1  0.734766  0.898041  0.707243  1
  N  N19  1  0.463101  0.568955  0.261631  1
  N  N20  1  0.306340  0.568212  0.785896  1
  N  N21  1  0.540901  0.043980  0.259398  1
  N  N22  1  0.693660  0.431788  0.214104  1
  N  N23  1  0.959099  0.043980  0.759398  1
  N  N24  1  0.234766  0.101959  0.792757  1
  N  N25  1  0.536899  0.431045  0.738369  1
  N  N26  1  0.265234  0.101959  0.292757  1
  N  N27  1  0.036899  0.568955  0.761631  1
  O  O28  1  0.998502  0.454880  0.349496  1
  O  O29  1  0.107667  0.517991  0.792036  1
  O  O30  1  0.838822  0.945844  0.214544  1
  O  O31  1  0.199373  0.489068  0.395131  1
  O  O32  1  0.527142  0.189355  0.284680  1
  O  O33  1  0.472858  0.810645  0.715320  1
  O  O34  1  0.800627  0.510932  0.604869  1
  O  O35  1  0.585847  0.962616  0.355061  1
  O  O36  1  0.085847  0.037384  0.144939  1
  O  O37  1  0.161178  0.054156  0.785456  1
  O  O38  1  0.501498  0.454880  0.849496  1
  O  O39  1  0.338822  0.054156  0.285456  1
  O  O40  1  0.501349  0.655532  0.358535  1
  O  O41  1  0.516314  0.973261  0.155658  1
  O  O42  1  0.218678  0.711384  0.268138  1
  O  O43  1  0.840937  0.496828  0.825166  1
  O  O44  1  0.661178  0.945844  0.714544  1
  O  O45  1  0.759799  0.802654  0.813109  1
  O  O46  1  0.240201  0.197346  0.186891  1
  O  O47  1  0.716733  0.933608  0.112129  1
  O  O48  1  0.998651  0.655532  0.858535  1
  O  O49  1  0.783267  0.933608  0.612129  1
  O  O50  1  0.283267  0.066392  0.887871  1
  O  O51  1  0.983686  0.973261  0.655658  1
  O  O52  1  0.498651  0.344468  0.641465  1
  O  O53  1  0.340937  0.503172  0.674834  1
  O  O54  1  0.914153  0.962616  0.855061  1
  O  O55  1  0.718678  0.288616  0.231862  1
  O  O56  1  0.159063  0.503172  0.174834  1
  O  O57  1  0.659063  0.496828  0.325166  1
  O  O58  1  0.972858  0.189355  0.784680  1
  O  O59  1  0.300627  0.489068  0.895131  1
  O  O60  1  0.498502  0.545120  0.150504  1
  O  O61  1  0.740201  0.802654  0.313109  1
  O  O62  1  0.699373  0.510932  0.104869  1
  O  O63  1  0.016314  0.026739  0.344342  1
  O  O64  1  0.414153  0.037384  0.644939  1
  O  O65  1  0.892333  0.482009  0.207964  1
  O  O66  1  0.281322  0.711384  0.768138  1
  O  O67  1  0.027142  0.810645  0.215320  1
  O  O68  1  0.216733  0.066392  0.387871  1
  O  O69  1  0.392333  0.517991  0.292036  1
  O  O70  1  0.483686  0.026739  0.844342  1
  O  O71  1  0.001498  0.545120  0.650504  1
  O  O72  1  0.259799  0.197346  0.686891  1
  O  O73  1  0.001349  0.344468  0.141465  1
  O  O74  1  0.781322  0.288616  0.731862  1
  O  O75  1  0.607667  0.482009  0.707964  1
