# generated using pymatgen
data_Ho3LuZn4Si3Ge
_symmetry_space_group_name_H-M   'P 1'
_cell_length_a   4.16741600
_cell_length_b   4.16741589
_cell_length_c   15.41300300
_cell_angle_alpha   90.00000000
_cell_angle_beta   90.00000000
_cell_angle_gamma   120.00000085
_symmetry_Int_Tables_number   1
_chemical_formula_structural   Ho3LuZn4Si3Ge
_chemical_formula_sum   'Ho3 Lu1 Zn4 Si3 Ge1'
_cell_volume   231.82036713
_cell_formula_units_Z   1
loop_
 _symmetry_equiv_pos_site_id
 _symmetry_equiv_pos_as_xyz
  1  'x, y, z'
loop_
 _atom_site_type_symbol
 _atom_site_label
 _atom_site_symmetry_multiplicity
 _atom_site_fract_x
 _atom_site_fract_y
 _atom_site_fract_z
 _atom_site_occupancy
  Ho  Ho0  1  0.000000  0.000000  0.747998  1
  Ho  Ho1  1  0.000000  0.000000  0.003141  1
  Ho  Ho2  1  0.000000  0.000000  0.498664  1
  Lu  Lu3  1  0.000000  0.000000  0.250394  1
  Zn  Zn4  1  0.333333  0.666667  0.144309  1
  Zn  Zn5  1  0.666667  0.333333  0.854153  1
  Zn  Zn6  1  0.666667  0.333333  0.639834  1
  Zn  Zn7  1  0.333333  0.666667  0.356595  1
  Si  Si8  1  0.333333  0.666667  0.617309  1
  Si  Si9  1  0.666667  0.333333  0.381493  1
  Si  Si10  1  0.666667  0.333333  0.119561  1
  Ge  Ge11  1  0.333333  0.666667  0.886551  1
