# generated using pymatgen
data_Ce5Dy5(Pb3Cl)2
_symmetry_space_group_name_H-M   'P 1'
_cell_length_a   9.41356300
_cell_length_b   9.41356267
_cell_length_c   6.76445800
_cell_angle_alpha   90.00000000
_cell_angle_beta   90.00000000
_cell_angle_gamma   119.99263950
_symmetry_Int_Tables_number   1
_chemical_formula_structural   Ce5Dy5(Pb3Cl)2
_chemical_formula_sum   'Ce5 Dy5 Pb6 Cl2'
_cell_volume   519.16319258
_cell_formula_units_Z   1
loop_
 _symmetry_equiv_pos_site_id
 _symmetry_equiv_pos_as_xyz
  1  'x, y, z'
loop_
 _atom_site_type_symbol
 _atom_site_label
 _atom_site_symmetry_multiplicity
 _atom_site_fract_x
 _atom_site_fract_y
 _atom_site_fract_z
 _atom_site_occupancy
  Ce  Ce0  1  0.261633  0.261633  0.250000  1
  Ce  Ce1  1  0.333415  0.666080  0.500635  1
  Ce  Ce2  1  0.666080  0.333415  0.500635  1
  Ce  Ce3  1  0.666080  0.333415  0.999365  1
  Ce  Ce4  1  0.333415  0.666080  0.999365  1
  Dy  Dy5  1  0.263369  0.999718  0.750000  1
  Dy  Dy6  1  0.739247  0.000979  0.250000  1
  Dy  Dy7  1  0.999718  0.263369  0.750000  1
  Dy  Dy8  1  0.000979  0.739247  0.250000  1
  Dy  Dy9  1  0.736803  0.736803  0.750000  1
  Pb  Pb10  1  0.614923  0.000107  0.750000  1
  Pb  Pb11  1  0.387403  0.996736  0.250000  1
  Pb  Pb12  1  0.000107  0.614923  0.750000  1
  Pb  Pb13  1  0.996736  0.387403  0.250000  1
  Pb  Pb14  1  0.385532  0.385532  0.750000  1
  Pb  Pb15  1  0.619113  0.619113  0.250000  1
  Cl  Cl16  1  0.997724  0.997724  0.503536  1
  Cl  Cl17  1  0.997724  0.997724  0.996464  1
