# generated using pymatgen
data_YCo2P3RuRh2
_symmetry_space_group_name_H-M   'P 1'
_cell_length_a   3.80620100
_cell_length_b   10.67638400
_cell_length_c   12.14757600
_cell_angle_alpha   90.00000000
_cell_angle_beta   90.00000000
_cell_angle_gamma   90.00000000
_symmetry_Int_Tables_number   1
_chemical_formula_structural   YCo2P3RuRh2
_chemical_formula_sum   'Y4 Co8 P12 Ru4 Rh8'
_cell_volume   493.63452822
_cell_formula_units_Z   4
loop_
 _symmetry_equiv_pos_site_id
 _symmetry_equiv_pos_as_xyz
  1  'x, y, z'
loop_
 _atom_site_type_symbol
 _atom_site_label
 _atom_site_symmetry_multiplicity
 _atom_site_fract_x
 _atom_site_fract_y
 _atom_site_fract_z
 _atom_site_occupancy
  Y  Y0  1  0.250000  0.915587  0.208128  1
  Y  Y1  1  0.750000  0.084413  0.791872  1
  Y  Y2  1  0.750000  0.415587  0.291872  1
  Y  Y3  1  0.250000  0.584413  0.708128  1
  Co  Co4  1  0.250000  0.613429  0.198347  1
  Co  Co5  1  0.750000  0.386571  0.801653  1
  Co  Co6  1  0.750000  0.113429  0.301653  1
  Co  Co7  1  0.250000  0.886571  0.698347  1
  Co  Co8  1  0.250000  0.035950  0.432790  1
  Co  Co9  1  0.750000  0.964050  0.567210  1
  Co  Co10  1  0.750000  0.535950  0.067210  1
  Co  Co11  1  0.250000  0.464050  0.932790  1
  P  P12  1  0.250000  0.070073  0.610153  1
  P  P13  1  0.750000  0.929927  0.389847  1
  P  P14  1  0.750000  0.570073  0.889847  1
  P  P15  1  0.250000  0.429927  0.110153  1
  P  P16  1  0.250000  0.225262  0.373197  1
  P  P17  1  0.750000  0.774738  0.626803  1
  P  P18  1  0.750000  0.725262  0.126803  1
  P  P19  1  0.250000  0.274738  0.873197  1
  P  P20  1  0.250000  0.898485  0.883283  1
  P  P21  1  0.750000  0.101515  0.116717  1
  P  P22  1  0.750000  0.398485  0.616717  1
  P  P23  1  0.250000  0.601515  0.383283  1
  Ru  Ru24  1  0.250000  0.784477  0.492368  1
  Ru  Ru25  1  0.750000  0.215523  0.507632  1
  Ru  Ru26  1  0.750000  0.284477  0.007632  1
  Ru  Ru27  1  0.250000  0.715523  0.992368  1
  Rh  Rh28  1  0.250000  0.091787  0.983789  1
  Rh  Rh29  1  0.750000  0.908213  0.016211  1
  Rh  Rh30  1  0.750000  0.591787  0.516211  1
  Rh  Rh31  1  0.250000  0.408213  0.483789  1
  Rh  Rh32  1  0.250000  0.272660  0.680878  1
  Rh  Rh33  1  0.750000  0.727340  0.319122  1
  Rh  Rh34  1  0.750000  0.772660  0.819122  1
  Rh  Rh35  1  0.250000  0.227340  0.180878  1
