# generated using pymatgen
data_Gd4ErTmIn10
_symmetry_space_group_name_H-M   'P 1'
_cell_length_a   6.46604000
_cell_length_b   6.46604149
_cell_length_c   10.29956800
_cell_angle_alpha   90.00000000
_cell_angle_beta   90.00000000
_cell_angle_gamma   102.51082335
_symmetry_Int_Tables_number   1
_chemical_formula_structural   Gd4ErTmIn10
_chemical_formula_sum   'Gd4 Er1 Tm1 In10'
_cell_volume   420.39660494
_cell_formula_units_Z   1
loop_
 _symmetry_equiv_pos_site_id
 _symmetry_equiv_pos_as_xyz
  1  'x, y, z'
loop_
 _atom_site_type_symbol
 _atom_site_label
 _atom_site_symmetry_multiplicity
 _atom_site_fract_x
 _atom_site_fract_y
 _atom_site_fract_z
 _atom_site_occupancy
  Gd  Gd0  1  0.204144  0.795610  0.499738  1
  Gd  Gd1  1  0.204144  0.795610  0.000262  1
  Gd  Gd2  1  0.795610  0.204144  0.499738  1
  Gd  Gd3  1  0.795610  0.204144  0.000262  1
  Er  Er4  1  0.376538  0.376538  0.750000  1
  Tm  Tm5  1  0.623474  0.623474  0.250000  1
  In  In6  1  0.006982  0.006982  0.250000  1
  In  In7  1  0.992750  0.992750  0.750000  1
  In  In8  1  0.310175  0.310175  0.047210  1
  In  In9  1  0.689303  0.689303  0.951741  1
  In  In10  1  0.310175  0.310175  0.452790  1
  In  In11  1  0.689303  0.689303  0.548259  1
  In  In12  1  0.502087  0.066941  0.250000  1
  In  In13  1  0.935042  0.497722  0.750000  1
  In  In14  1  0.497722  0.935042  0.750000  1
  In  In15  1  0.066941  0.502087  0.250000  1
