# generated using pymatgen
data_Ce4Nd5Tm7(CdIr)4
_symmetry_space_group_name_H-M   'P 1'
_cell_length_a   9.68994206
_cell_length_b   9.69377172
_cell_length_c   9.69377204
_cell_angle_alpha   59.80759613
_cell_angle_beta   60.01306665
_cell_angle_gamma   60.01306628
_symmetry_Int_Tables_number   1
_chemical_formula_structural   Ce4Nd5Tm7(CdIr)4
_chemical_formula_sum   'Ce4 Nd5 Tm7 Cd4 Ir4'
_cell_volume   643.04561888
_cell_formula_units_Z   1
loop_
 _symmetry_equiv_pos_site_id
 _symmetry_equiv_pos_as_xyz
  1  'x, y, z'
loop_
 _atom_site_type_symbol
 _atom_site_label
 _atom_site_symmetry_multiplicity
 _atom_site_fract_x
 _atom_site_fract_y
 _atom_site_fract_z
 _atom_site_occupancy
  Ce  Ce0  1  0.350600  0.348962  0.348962  1
  Ce  Ce1  1  0.348206  0.352143  0.951444  1
  Ce  Ce2  1  0.348206  0.951444  0.352143  1
  Ce  Ce3  1  0.951476  0.348962  0.348962  1
  Nd  Nd4  1  0.557121  0.942879  0.942879  1
  Nd  Nd5  1  0.562829  0.937812  0.559224  1
  Nd  Nd6  1  0.940136  0.559224  0.937812  1
  Nd  Nd7  1  0.562829  0.559224  0.937812  1
  Nd  Nd8  1  0.940136  0.937812  0.559224  1
  Tm  Tm9  1  0.815029  0.184971  0.184971  1
  Tm  Tm10  1  0.184240  0.815760  0.815760  1
  Tm  Tm11  1  0.184513  0.813748  0.187233  1
  Tm  Tm12  1  0.814505  0.187233  0.813748  1
  Tm  Tm13  1  0.184513  0.187233  0.813748  1
  Tm  Tm14  1  0.814505  0.813748  0.187233  1
  Tm  Tm15  1  0.944306  0.555694  0.555694  1
  Cd  Cd16  1  0.583252  0.578856  0.578856  1
  Cd  Cd17  1  0.579425  0.580076  0.261072  1
  Cd  Cd18  1  0.579425  0.261072  0.580076  1
  Cd  Cd19  1  0.259036  0.578856  0.578856  1
  Ir  Ir20  1  0.142994  0.142238  0.142238  1
  Ir  Ir21  1  0.140092  0.147043  0.572771  1
  Ir  Ir22  1  0.140092  0.572771  0.147043  1
  Ir  Ir23  1  0.572529  0.142238  0.142238  1
