# generated using pymatgen
data_Sc2Mn4Nb2SiP3
_symmetry_space_group_name_H-M   'P 1'
_cell_length_a   3.57026000
_cell_length_b   6.36395296
_cell_length_c   7.45681913
_cell_angle_alpha   90.03432874
_cell_angle_beta   90.00000000
_cell_angle_gamma   90.00000000
_symmetry_Int_Tables_number   1
_chemical_formula_structural   Sc2Mn4Nb2SiP3
_chemical_formula_sum   'Sc2 Mn4 Nb2 Si1 P3'
_cell_volume   169.42610851
_cell_formula_units_Z   1
loop_
 _symmetry_equiv_pos_site_id
 _symmetry_equiv_pos_as_xyz
  1  'x, y, z'
loop_
 _atom_site_type_symbol
 _atom_site_label
 _atom_site_symmetry_multiplicity
 _atom_site_fract_x
 _atom_site_fract_y
 _atom_site_fract_z
 _atom_site_occupancy
  Sc  Sc0  1  0.250000  0.532102  0.671564  1
  Sc  Sc1  1  0.250000  0.031528  0.826977  1
  Mn  Mn2  1  0.750000  0.863635  0.556060  1
  Mn  Mn3  1  0.250000  0.135258  0.441146  1
  Mn  Mn4  1  0.750000  0.366610  0.939138  1
  Mn  Mn5  1  0.250000  0.640665  0.062076  1
  Nb  Nb6  1  0.750000  0.469222  0.327226  1
  Nb  Nb7  1  0.750000  0.962852  0.176014  1
  Si  Si8  1  0.250000  0.266767  0.130113  1
  P  P9  1  0.750000  0.732555  0.872426  1
  P  P10  1  0.250000  0.766295  0.370842  1
  P  P11  1  0.750000  0.232507  0.626416  1
