# generated using pymatgen
data_Pr4Ho2CoBr10
_symmetry_space_group_name_H-M   'P 1'
_cell_length_a   7.54568984
_cell_length_b   9.39796165
_cell_length_c   9.45560889
_cell_angle_alpha   108.65629133
_cell_angle_beta   106.80280614
_cell_angle_gamma   96.36969016
_symmetry_Int_Tables_number   1
_chemical_formula_structural   Pr4Ho2CoBr10
_chemical_formula_sum   'Pr4 Ho2 Co1 Br10'
_cell_volume   592.68584656
_cell_formula_units_Z   1
loop_
 _symmetry_equiv_pos_site_id
 _symmetry_equiv_pos_as_xyz
  1  'x, y, z'
loop_
 _atom_site_type_symbol
 _atom_site_label
 _atom_site_symmetry_multiplicity
 _atom_site_fract_x
 _atom_site_fract_y
 _atom_site_fract_z
 _atom_site_occupancy
  Pr  Pr0  1  0.126315  0.763700  0.048697  1
  Pr  Pr1  1  0.632548  0.813736  0.855727  1
  Pr  Pr2  1  0.878069  0.237652  0.956276  1
  Pr  Pr3  1  0.981477  0.103274  0.307346  1
  Ho  Ho4  1  0.355502  0.175503  0.130447  1
  Ho  Ho5  1  0.026452  0.906274  0.708307  1
  Co  Co6  1  0.000179  0.999182  0.001106  1
  Br  Br7  1  0.439551  0.082840  0.825622  1
  Br  Br8  1  0.746299  0.541728  0.918867  1
  Br  Br9  1  0.263742  0.450085  0.086747  1
  Br  Br10  1  0.916072  0.163693  0.634584  1
  Br  Br11  1  0.655536  0.730537  0.536971  1
  Br  Br12  1  0.548834  0.925169  0.176036  1
  Br  Br13  1  0.088228  0.830647  0.379187  1
  Br  Br14  1  0.773577  0.346948  0.254705  1
  Br  Br15  1  0.189538  0.649859  0.730761  1
  Br  Br16  1  0.378079  0.279173  0.448613  1
