# generated using pymatgen
data_Dy8Er12Sn15Bi
_symmetry_space_group_name_H-M   'P 1'
_cell_length_a   8.03498124
_cell_length_b   8.13718057
_cell_length_c   15.37885418
_cell_angle_alpha   90.07018430
_cell_angle_beta   90.51584929
_cell_angle_gamma   89.98532615
_symmetry_Int_Tables_number   1
_chemical_formula_structural   Dy8Er12Sn15Bi
_chemical_formula_sum   'Dy8 Er12 Sn15 Bi1'
_cell_volume   1005.46014196
_cell_formula_units_Z   1
loop_
 _symmetry_equiv_pos_site_id
 _symmetry_equiv_pos_as_xyz
  1  'x, y, z'
loop_
 _atom_site_type_symbol
 _atom_site_label
 _atom_site_symmetry_multiplicity
 _atom_site_fract_x
 _atom_site_fract_y
 _atom_site_fract_z
 _atom_site_occupancy
  Dy  Dy0  1  0.528166  0.326234  0.900404  1
  Dy  Dy1  1  0.022312  0.178120  0.597340  1
  Dy  Dy2  1  0.478274  0.677781  0.402983  1
  Dy  Dy3  1  0.966702  0.819305  0.100808  1
  Dy  Dy4  1  0.475939  0.672226  0.098855  1
  Dy  Dy5  1  0.978029  0.821980  0.402673  1
  Dy  Dy6  1  0.521496  0.320930  0.596697  1
  Dy  Dy7  1  0.021001  0.181169  0.899511  1
  Er  Er8  1  0.372802  0.835018  0.876642  1
  Er  Er9  1  0.868512  0.663467  0.622203  1
  Er  Er10  1  0.632767  0.162694  0.376602  1
  Er  Er11  1  0.128105  0.342638  0.123367  1
  Er  Er12  1  0.634052  0.162114  0.122558  1
  Er  Er13  1  0.132807  0.338025  0.376827  1
  Er  Er14  1  0.367613  0.837788  0.622717  1
  Er  Er15  1  0.869701  0.662321  0.877936  1
  Er  Er16  1  0.199751  0.503087  0.749650  1
  Er  Er17  1  0.699696  0.996417  0.750061  1
  Er  Er18  1  0.800243  0.496723  0.250962  1
  Er  Er19  1  0.300869  0.003134  0.253387  1
  Sn  Sn20  1  0.793717  0.462121  0.458376  1
  Sn  Sn21  1  0.707079  0.962691  0.541251  1
  Sn  Sn22  1  0.209979  0.535337  0.957925  1
  Sn  Sn23  1  0.712857  0.965276  0.957599  1
  Sn  Sn24  1  0.206749  0.537702  0.541482  1
  Sn  Sn25  1  0.294302  0.038443  0.458844  1
  Sn  Sn26  1  0.790702  0.463715  0.042249  1
  Sn  Sn27  1  0.566873  0.619618  0.749198  1
  Sn  Sn28  1  0.066909  0.880292  0.751084  1
  Sn  Sn29  1  0.434322  0.378576  0.248786  1
  Sn  Sn30  1  0.934854  0.119814  0.249230  1
  Sn  Sn31  1  0.332711  0.148301  0.749836  1
  Sn  Sn32  1  0.831983  0.352974  0.748297  1
  Sn  Sn33  1  0.665102  0.850934  0.250565  1
  Sn  Sn34  1  0.167030  0.649007  0.250735  1
  Bi  Bi35  1  0.285996  0.034027  0.042360  1
