# generated using pymatgen
data_Nd4Er(InSb)2
_symmetry_space_group_name_H-M   'P 1'
_cell_length_a   9.03567309
_cell_length_b   9.03567405
_cell_length_c   8.34082400
_cell_angle_alpha   90.00000000
_cell_angle_beta   90.00000000
_cell_angle_gamma   125.01995705
_symmetry_Int_Tables_number   1
_chemical_formula_structural   Nd4Er(InSb)2
_chemical_formula_sum   'Nd8 Er2 In4 Sb4'
_cell_volume   557.68450949
_cell_formula_units_Z   2
loop_
 _symmetry_equiv_pos_site_id
 _symmetry_equiv_pos_as_xyz
  1  'x, y, z'
loop_
 _atom_site_type_symbol
 _atom_site_label
 _atom_site_symmetry_multiplicity
 _atom_site_fract_x
 _atom_site_fract_y
 _atom_site_fract_z
 _atom_site_occupancy
  Nd  Nd0  1  0.032845  0.310335  0.332339  1
  Nd  Nd1  1  0.967155  0.689665  0.667661  1
  Nd  Nd2  1  0.467155  0.189665  0.832339  1
  Nd  Nd3  1  0.810335  0.532845  0.167661  1
  Nd  Nd4  1  0.532845  0.810335  0.167661  1
  Nd  Nd5  1  0.189665  0.467155  0.832339  1
  Nd  Nd6  1  0.689665  0.967155  0.667661  1
  Nd  Nd7  1  0.310335  0.032845  0.332339  1
  Er  Er8  1  0.000000  0.000000  0.000000  1
  Er  Er9  1  0.500000  0.500000  0.500000  1
  In  In10  1  0.372097  0.372097  0.128455  1
  In  In11  1  0.627903  0.627903  0.871545  1
  In  In12  1  0.127903  0.127903  0.628455  1
  In  In13  1  0.872097  0.872097  0.371545  1
  Sb  Sb14  1  0.800490  0.199510  0.000000  1
  Sb  Sb15  1  0.199510  0.800490  0.000000  1
  Sb  Sb16  1  0.699510  0.300490  0.500000  1
  Sb  Sb17  1  0.300490  0.699510  0.500000  1
