# generated using pymatgen
data_Dy2YTh(Al3Rh)6
_symmetry_space_group_name_H-M   'P 1'
_cell_length_a   7.58455800
_cell_length_b   7.59951202
_cell_length_c   9.49047400
_cell_angle_alpha   90.00000000
_cell_angle_beta   90.00000000
_cell_angle_gamma   119.39698141
_symmetry_Int_Tables_number   1
_chemical_formula_structural   Dy2YTh(Al3Rh)6
_chemical_formula_sum   'Dy2 Y1 Th1 Al18 Rh6'
_cell_volume   476.58627438
_cell_formula_units_Z   1
loop_
 _symmetry_equiv_pos_site_id
 _symmetry_equiv_pos_as_xyz
  1  'x, y, z'
loop_
 _atom_site_type_symbol
 _atom_site_label
 _atom_site_symmetry_multiplicity
 _atom_site_fract_x
 _atom_site_fract_y
 _atom_site_fract_z
 _atom_site_occupancy
  Dy  Dy0  1  0.004419  0.328568  0.250000  1
  Dy  Dy1  1  0.328534  0.005051  0.250000  1
  Y  Y2  1  0.671373  0.994492  0.750000  1
  Th  Th3  1  0.994787  0.670882  0.750000  1
  Al  Al4  1  0.130459  0.131965  0.750000  1
  Al  Al5  1  0.872511  0.874870  0.250000  1
  Al  Al6  1  0.001289  0.330812  0.572167  1
  Al  Al7  1  0.999063  0.664421  0.417857  1
  Al  Al8  1  0.999063  0.664421  0.082143  1
  Al  Al9  1  0.339993  0.005299  0.927684  1
  Al  Al10  1  0.001289  0.330812  0.927833  1
  Al  Al11  1  0.664720  0.000567  0.076334  1
  Al  Al12  1  0.664720  0.000567  0.423666  1
  Al  Al13  1  0.339993  0.005299  0.572316  1
  Al  Al14  1  0.332311  0.332395  0.054082  1
  Al  Al15  1  0.663322  0.666672  0.955700  1
  Al  Al16  1  0.663322  0.666672  0.544300  1
  Al  Al17  1  0.332311  0.332395  0.445918  1
  Al  Al18  1  0.343542  0.548331  0.750000  1
  Al  Al19  1  0.658075  0.448318  0.250000  1
  Al  Al20  1  0.544942  0.336529  0.750000  1
  Al  Al21  1  0.449383  0.660844  0.250000  1
  Rh  Rh22  1  0.673191  0.329454  0.500172  1
  Rh  Rh23  1  0.326660  0.671657  0.500329  1
  Rh  Rh24  1  0.326660  0.671657  0.999671  1
  Rh  Rh25  1  0.673191  0.329454  0.999828  1
  Rh  Rh26  1  0.000439  0.998798  0.500386  1
  Rh  Rh27  1  0.000439  0.998798  0.999614  1
