# generated using pymatgen
data_SrNd6RhI12
_symmetry_space_group_name_H-M   'P 1'
_cell_length_a   10.06886683
_cell_length_b   10.06886649
_cell_length_c   10.06886700
_cell_angle_alpha   106.62859277
_cell_angle_beta   106.62858625
_cell_angle_gamma   106.62860038
_symmetry_Int_Tables_number   1
_chemical_formula_structural   SrNd6RhI12
_chemical_formula_sum   'Sr1 Nd6 Rh1 I12'
_cell_volume   858.60180081
_cell_formula_units_Z   1
loop_
 _symmetry_equiv_pos_site_id
 _symmetry_equiv_pos_as_xyz
  1  'x, y, z'
loop_
 _atom_site_type_symbol
 _atom_site_label
 _atom_site_symmetry_multiplicity
 _atom_site_fract_x
 _atom_site_fract_y
 _atom_site_fract_z
 _atom_site_occupancy
  Sr  Sr0  1  0.997996  0.997996  0.997996  1
  Nd  Nd1  1  0.518872  0.595100  0.800005  1
  Nd  Nd2  1  0.800005  0.518872  0.595100  1
  Nd  Nd3  1  0.595100  0.800005  0.518872  1
  Nd  Nd4  1  0.478950  0.402554  0.197833  1
  Nd  Nd5  1  0.197833  0.478950  0.402554  1
  Nd  Nd6  1  0.402554  0.197833  0.478950  1
  Rh  Rh7  1  0.498985  0.498985  0.498985  1
  I  I8  1  0.274361  0.821453  0.425704  1
  I  I9  1  0.425704  0.274361  0.821453  1
  I  I10  1  0.821453  0.425704  0.274361  1
  I  I11  1  0.723420  0.176550  0.572119  1
  I  I12  1  0.572119  0.723420  0.176550  1
  I  I13  1  0.176550  0.572119  0.723420  1
  I  I14  1  0.045372  0.126986  0.354293  1
  I  I15  1  0.354293  0.045372  0.126986  1
  I  I16  1  0.126986  0.354293  0.045372  1
  I  I17  1  0.952197  0.870528  0.642094  1
  I  I18  1  0.642094  0.952197  0.870528  1
  I  I19  1  0.870528  0.642094  0.952197  1
