# generated using pymatgen
data_Lu12GaFe3Cu
_symmetry_space_group_name_H-M   'P 1'
_cell_length_a   8.05738495
_cell_length_b   8.05738251
_cell_length_c   8.05738500
_cell_angle_alpha   107.58955704
_cell_angle_beta   109.84251952
_cell_angle_gamma   110.99999032
_symmetry_Int_Tables_number   1
_chemical_formula_structural   Lu12GaFe3Cu
_chemical_formula_sum   'Lu12 Ga1 Fe3 Cu1'
_cell_volume   402.31330611
_cell_formula_units_Z   1
loop_
 _symmetry_equiv_pos_site_id
 _symmetry_equiv_pos_as_xyz
  1  'x, y, z'
loop_
 _atom_site_type_symbol
 _atom_site_label
 _atom_site_symmetry_multiplicity
 _atom_site_fract_x
 _atom_site_fract_y
 _atom_site_fract_z
 _atom_site_occupancy
  Lu  Lu0  1  0.308431  0.310094  0.618636  1
  Lu  Lu1  1  0.691569  0.689906  0.381364  1
  Lu  Lu2  1  0.691459  0.310094  0.001662  1
  Lu  Lu3  1  0.308541  0.689906  0.998338  1
  Lu  Lu4  1  0.186176  0.417137  0.230960  1
  Lu  Lu5  1  0.813824  0.582863  0.769040  1
  Lu  Lu6  1  0.186162  0.954749  0.768588  1
  Lu  Lu7  1  0.931379  0.188891  0.742654  1
  Lu  Lu8  1  0.813838  0.045251  0.231412  1
  Lu  Lu9  1  0.068621  0.811109  0.257346  1
  Lu  Lu10  1  0.446237  0.188891  0.257511  1
  Lu  Lu11  1  0.553763  0.811109  0.742489  1
  Ga  Ga12  1  0.000000  0.500000  0.500000  1
  Fe  Fe13  1  0.378672  0.378074  0.999402  1
  Fe  Fe14  1  0.621328  0.621926  0.000598  1
  Fe  Fe15  1  0.000000  0.000000  0.000000  1
  Cu  Cu16  1  0.500000  0.000000  0.500000  1
