# generated using pymatgen
data_Li2Y5Tl9
_symmetry_space_group_name_H-M   'P 1'
_cell_length_a   10.31266600
_cell_length_b   10.31266600
_cell_length_c   15.42166700
_cell_angle_alpha   90.00000000
_cell_angle_beta   90.00000000
_cell_angle_gamma   90.00000000
_symmetry_Int_Tables_number   1
_chemical_formula_structural   Li2Y5Tl9
_chemical_formula_sum   'Li8 Y20 Tl36'
_cell_volume   1640.11094128
_cell_formula_units_Z   4
loop_
 _symmetry_equiv_pos_site_id
 _symmetry_equiv_pos_as_xyz
  1  'x, y, z'
loop_
 _atom_site_type_symbol
 _atom_site_label
 _atom_site_symmetry_multiplicity
 _atom_site_fract_x
 _atom_site_fract_y
 _atom_site_fract_z
 _atom_site_occupancy
  Li  Li0  1  0.500000  0.500000  0.887303  1
  Li  Li1  1  0.000000  0.000000  0.396114  1
  Li  Li2  1  0.500000  0.500000  0.396114  1
  Li  Li3  1  0.000000  0.000000  0.603886  1
  Li  Li4  1  0.500000  0.500000  0.603886  1
  Li  Li5  1  0.000000  0.000000  0.887303  1
  Li  Li6  1  0.000000  0.000000  0.112697  1
  Li  Li7  1  0.500000  0.500000  0.112697  1
  Y  Y8  1  0.775111  0.275111  0.625753  1
  Y  Y9  1  0.777718  0.277718  0.126875  1
  Y  Y10  1  0.275111  0.224889  0.374247  1
  Y  Y11  1  0.722282  0.222282  0.873125  1
  Y  Y12  1  0.000000  0.500000  0.326337  1
  Y  Y13  1  0.777718  0.722282  0.126875  1
  Y  Y14  1  0.724889  0.775111  0.374247  1
  Y  Y15  1  0.500000  0.000000  0.147598  1
  Y  Y16  1  0.277718  0.777718  0.873125  1
  Y  Y17  1  0.724889  0.224889  0.374247  1
  Y  Y18  1  0.277718  0.222282  0.873125  1
  Y  Y19  1  0.775111  0.724889  0.625753  1
  Y  Y20  1  0.222282  0.277718  0.126875  1
  Y  Y21  1  0.224889  0.724889  0.625753  1
  Y  Y22  1  0.275111  0.775111  0.374247  1
  Y  Y23  1  0.722282  0.777718  0.873125  1
  Y  Y24  1  0.224889  0.275111  0.625753  1
  Y  Y25  1  0.222282  0.722282  0.126875  1
  Y  Y26  1  0.500000  0.000000  0.673663  1
  Y  Y27  1  0.000000  0.500000  0.852402  1
  Tl  Tl28  1  0.756100  0.500000  0.480342  1
  Tl  Tl29  1  0.289241  0.500000  0.263358  1
  Tl  Tl30  1  0.500000  0.000000  0.375040  1
  Tl  Tl31  1  0.000000  0.500000  0.107002  1
  Tl  Tl32  1  0.219937  0.000000  0.235787  1
  Tl  Tl33  1  0.500000  0.756100  0.519658  1
  Tl  Tl34  1  0.500000  0.261499  0.017299  1
  Tl  Tl35  1  0.000000  0.761499  0.982701  1
  Tl  Tl36  1  0.210759  0.000000  0.736642  1
  Tl  Tl37  1  0.500000  0.280063  0.235787  1
  Tl  Tl38  1  0.000000  0.780063  0.764213  1
  Tl  Tl39  1  0.000000  0.210759  0.263358  1
  Tl  Tl40  1  0.789241  0.000000  0.736642  1
  Tl  Tl41  1  0.000000  0.500000  0.624960  1
  Tl  Tl42  1  0.780063  0.000000  0.235787  1
  Tl  Tl43  1  0.500000  0.738501  0.017299  1
  Tl  Tl44  1  0.000000  0.743900  0.480342  1
  Tl  Tl45  1  0.000000  0.238501  0.982701  1
  Tl  Tl46  1  0.500000  0.289241  0.736642  1
  Tl  Tl47  1  0.500000  0.000000  0.892998  1
  Tl  Tl48  1  0.261499  0.500000  0.982701  1
  Tl  Tl49  1  0.280063  0.500000  0.764213  1
  Tl  Tl50  1  0.500000  0.243900  0.519658  1
  Tl  Tl51  1  0.000000  0.789241  0.263358  1
  Tl  Tl52  1  0.743900  0.000000  0.519658  1
  Tl  Tl53  1  0.256100  0.000000  0.519658  1
  Tl  Tl54  1  0.000000  0.219937  0.764213  1
  Tl  Tl55  1  0.719937  0.500000  0.764213  1
  Tl  Tl56  1  0.710759  0.500000  0.263358  1
  Tl  Tl57  1  0.500000  0.719937  0.235787  1
  Tl  Tl58  1  0.738501  0.500000  0.982701  1
  Tl  Tl59  1  0.761499  0.000000  0.017299  1
  Tl  Tl60  1  0.238501  0.000000  0.017299  1
  Tl  Tl61  1  0.500000  0.710759  0.736642  1
  Tl  Tl62  1  0.243900  0.500000  0.480342  1
  Tl  Tl63  1  0.000000  0.256100  0.480342  1
