# generated using pymatgen
data_Ho10Co3Ag2Ir
_symmetry_space_group_name_H-M   'P 1'
_cell_length_a   8.48644407
_cell_length_b   8.48644463
_cell_length_c   8.52566503
_cell_angle_alpha   127.10730611
_cell_angle_beta   127.10732185
_cell_angle_gamma   77.74892711
_symmetry_Int_Tables_number   1
_chemical_formula_structural   Ho10Co3Ag2Ir
_chemical_formula_sum   'Ho10 Co3 Ag2 Ir1'
_cell_volume   379.24074556
_cell_formula_units_Z   1
loop_
 _symmetry_equiv_pos_site_id
 _symmetry_equiv_pos_as_xyz
  1  'x, y, z'
loop_
 _atom_site_type_symbol
 _atom_site_label
 _atom_site_symmetry_multiplicity
 _atom_site_fract_x
 _atom_site_fract_y
 _atom_site_fract_z
 _atom_site_occupancy
  Ho  Ho0  1  0.701650  0.526913  0.496336  1
  Ho  Ho1  1  0.478174  0.978174  0.188628  1
  Ho  Ho2  1  0.793635  0.293635  0.821282  1
  Ho  Ho3  1  0.527647  0.027647  0.821282  1
  Ho  Ho4  1  0.998896  0.001307  0.000203  1
  Ho  Ho5  1  0.026913  0.201650  0.496336  1
  Ho  Ho6  1  0.294686  0.469423  0.496336  1
  Ho  Ho7  1  0.210454  0.710454  0.188628  1
  Ho  Ho8  1  0.969423  0.794686  0.496336  1
  Ho  Ho9  1  0.501307  0.498896  0.000203  1
  Co  Co10  1  0.860690  0.360690  0.221381  1
  Co  Co11  1  0.636749  0.864677  0.501426  1
  Co  Co12  1  0.364677  0.136749  0.501426  1
  Ag  Ag13  1  0.249543  0.249543  0.999087  1
  Ag  Ag14  1  0.749543  0.749543  0.999087  1
  Ir  Ir15  1  0.136012  0.636012  0.772022  1
