# generated using pymatgen
data_Nd3In3HgPdPt
_symmetry_space_group_name_H-M   'P 1'
_cell_length_a   7.87978600
_cell_length_b   7.87978476
_cell_length_c   4.11878300
_cell_angle_alpha   90.00000000
_cell_angle_beta   90.00000000
_cell_angle_gamma   119.99999680
_symmetry_Int_Tables_number   1
_chemical_formula_structural   Nd3In3HgPdPt
_chemical_formula_sum   'Nd3 In3 Hg1 Pd1 Pt1'
_cell_volume   221.47684849
_cell_formula_units_Z   1
loop_
 _symmetry_equiv_pos_site_id
 _symmetry_equiv_pos_as_xyz
  1  'x, y, z'
loop_
 _atom_site_type_symbol
 _atom_site_label
 _atom_site_symmetry_multiplicity
 _atom_site_fract_x
 _atom_site_fract_y
 _atom_site_fract_z
 _atom_site_occupancy
  Nd  Nd0  1  0.018629  0.601039  0.500000  1
  Nd  Nd1  1  0.582411  0.981371  0.500000  1
  Nd  Nd2  1  0.398961  0.417589  0.500000  1
  In  In3  1  0.004224  0.249479  0.000000  1
  In  In4  1  0.245256  0.995776  0.000000  1
  In  In5  1  0.750521  0.754744  0.000000  1
  Hg  Hg6  1  0.666667  0.333333  0.000000  1
  Pd  Pd7  1  0.000000  0.000000  0.500000  1
  Pt  Pt8  1  0.333333  0.666667  0.000000  1
