# generated using pymatgen
data_TbCeRh2F14
_symmetry_space_group_name_H-M   'P 1'
_cell_length_a   5.60266555
_cell_length_b   8.97178686
_cell_length_c   11.96791340
_cell_angle_alpha   62.24807282
_cell_angle_beta   90.03907440
_cell_angle_gamma   90.23920526
_symmetry_Int_Tables_number   1
_chemical_formula_structural   TbCeRh2F14
_chemical_formula_sum   'Tb2 Ce2 Rh4 F28'
_cell_volume   532.37465948
_cell_formula_units_Z   2
loop_
 _symmetry_equiv_pos_site_id
 _symmetry_equiv_pos_as_xyz
  1  'x, y, z'
loop_
 _atom_site_type_symbol
 _atom_site_label
 _atom_site_symmetry_multiplicity
 _atom_site_fract_x
 _atom_site_fract_y
 _atom_site_fract_z
 _atom_site_occupancy
  Tb  Tb0  1  0.757821  0.193355  0.234811  1
  Tb  Tb1  1  0.242179  0.806645  0.765189  1
  Ce  Ce2  1  0.258718  0.808600  0.265433  1
  Ce  Ce3  1  0.741282  0.191400  0.734567  1
  Rh  Rh4  1  0.755934  0.726895  0.040971  1
  Rh  Rh5  1  0.244066  0.273105  0.959029  1
  Rh  Rh6  1  0.256305  0.270569  0.456936  1
  Rh  Rh7  1  0.743695  0.729431  0.543064  1
  F  F8  1  0.943491  0.705928  0.416408  1
  F  F9  1  0.056509  0.294072  0.583592  1
  F  F10  1  0.444639  0.291257  0.086158  1
  F  F11  1  0.555361  0.708743  0.913842  1
  F  F12  1  0.469969  0.730137  0.136469  1
  F  F13  1  0.530031  0.269863  0.863531  1
  F  F14  1  0.971128  0.269701  0.361962  1
  F  F15  1  0.028872  0.730299  0.638038  1
  F  F16  1  0.950891  0.745555  0.172095  1
  F  F17  1  0.049109  0.254445  0.827905  1
  F  F18  1  0.450701  0.251891  0.327722  1
  F  F19  1  0.549299  0.748109  0.672278  1
  F  F20  1  0.765116  0.482457  0.140393  1
  F  F21  1  0.234884  0.517543  0.859607  1
  F  F22  1  0.268328  0.517498  0.357872  1
  F  F23  1  0.731672  0.482502  0.642128  1
  F  F24  1  0.951990  0.279662  0.048016  1
  F  F25  1  0.048010  0.720338  0.951984  1
  F  F26  1  0.447956  0.719637  0.455402  1
  F  F27  1  0.552044  0.280363  0.544598  1
  F  F28  1  0.744100  0.973615  0.446848  1
  F  F29  1  0.255900  0.026385  0.553152  1
  F  F30  1  0.241395  0.027071  0.052047  1
  F  F31  1  0.758605  0.972929  0.947953  1
  F  F32  1  0.585345  0.967825  0.231462  1
  F  F33  1  0.414655  0.032175  0.768538  1
  F  F34  1  0.086572  0.025334  0.269411  1
  F  F35  1  0.913428  0.974666  0.730589  1
