# generated using pymatgen
data_Tb6YbCe3(Al2Ru3)2
_symmetry_space_group_name_H-M   'P 1'
_cell_length_a   8.46546506
_cell_length_b   8.44970400
_cell_length_c   8.48707928
_cell_angle_alpha   110.15079537
_cell_angle_beta   110.28433964
_cell_angle_gamma   110.00270162
_symmetry_Int_Tables_number   1
_chemical_formula_structural   Tb6YbCe3(Al2Ru3)2
_chemical_formula_sum   'Tb6 Yb1 Ce3 Al4 Ru6'
_cell_volume   455.28501761
_cell_formula_units_Z   1
loop_
 _symmetry_equiv_pos_site_id
 _symmetry_equiv_pos_as_xyz
  1  'x, y, z'
loop_
 _atom_site_type_symbol
 _atom_site_label
 _atom_site_symmetry_multiplicity
 _atom_site_fract_x
 _atom_site_fract_y
 _atom_site_fract_z
 _atom_site_occupancy
  Tb  Tb0  1  0.782416  0.782205  0.782927  1
  Tb  Tb1  1  0.313919  0.566649  0.751440  1
  Tb  Tb2  1  0.753040  0.314715  0.566796  1
  Tb  Tb3  1  0.566262  0.752302  0.314418  1
  Tb  Tb4  1  0.720122  0.507560  0.996252  1
  Tb  Tb5  1  0.994688  0.720042  0.506904  1
  Yb  Yb6  1  0.507768  0.996409  0.720441  1
  Ce  Ce7  1  0.253389  0.199217  0.941919  1
  Ce  Ce8  1  0.941152  0.252299  0.198680  1
  Ce  Ce9  1  0.199634  0.943020  0.254342  1
  Al  Al10  1  0.412369  0.413926  0.413150  1
  Al  Al11  1  0.090332  0.495848  0.002451  1
  Al  Al12  1  0.004881  0.092859  0.497060  1
  Al  Al13  1  0.496869  0.003538  0.093531  1
  Ru  Ru14  1  0.912355  0.120075  0.754752  1
  Ru  Ru15  1  0.754458  0.904515  0.121720  1
  Ru  Ru16  1  0.119853  0.753156  0.905068  1
  Ru  Ru17  1  0.216559  0.587738  0.361460  1
  Ru  Ru18  1  0.365945  0.225389  0.590590  1
  Ru  Ru19  1  0.593990  0.368540  0.226096  1
