# generated using pymatgen
data_NaTlReF6
_symmetry_space_group_name_H-M   'P 1'
_cell_length_a   6.31246600
_cell_length_b   8.35376200
_cell_length_c   11.81318500
_cell_angle_alpha   90.00000000
_cell_angle_beta   90.00000000
_cell_angle_gamma   90.00000000
_symmetry_Int_Tables_number   1
_chemical_formula_structural   NaTlReF6
_chemical_formula_sum   'Na4 Tl4 Re4 F24'
_cell_volume   622.94277792
_cell_formula_units_Z   4
loop_
 _symmetry_equiv_pos_site_id
 _symmetry_equiv_pos_as_xyz
  1  'x, y, z'
loop_
 _atom_site_type_symbol
 _atom_site_label
 _atom_site_symmetry_multiplicity
 _atom_site_fract_x
 _atom_site_fract_y
 _atom_site_fract_z
 _atom_site_occupancy
  Na  Na0  1  0.445127  0.501633  0.648553  1
  Na  Na1  1  0.554873  0.001633  0.351447  1
  Na  Na2  1  0.945127  0.001633  0.851447  1
  Na  Na3  1  0.054873  0.501633  0.148553  1
  Tl  Tl4  1  0.034901  0.753050  0.456477  1
  Tl  Tl5  1  0.534901  0.253050  0.043523  1
  Tl  Tl6  1  0.465099  0.753050  0.956477  1
  Tl  Tl7  1  0.965099  0.253050  0.543523  1
  Re  Re8  1  0.453263  0.001062  0.637762  1
  Re  Re9  1  0.046737  0.001062  0.137762  1
  Re  Re10  1  0.546737  0.501062  0.362238  1
  Re  Re11  1  0.953263  0.501062  0.862238  1
  F  F12  1  0.629398  0.272305  0.368255  1
  F  F13  1  0.186334  0.051744  0.717495  1
  F  F14  1  0.787106  0.960079  0.044975  1
  F  F15  1  0.468408  0.731068  0.358759  1
  F  F16  1  0.370602  0.772305  0.631745  1
  F  F17  1  0.531592  0.231068  0.641241  1
  F  F18  1  0.108961  0.466424  0.718254  1
  F  F19  1  0.287106  0.460079  0.455025  1
  F  F20  1  0.701535  0.532737  0.508187  1
  F  F21  1  0.686334  0.551744  0.782505  1
  F  F22  1  0.391039  0.466424  0.218254  1
  F  F23  1  0.891039  0.966424  0.281746  1
  F  F24  1  0.212894  0.460079  0.955025  1
  F  F25  1  0.712894  0.960079  0.544975  1
  F  F26  1  0.201535  0.032737  0.991813  1
  F  F27  1  0.968408  0.231068  0.141241  1
  F  F28  1  0.798465  0.532737  0.008187  1
  F  F29  1  0.813666  0.551744  0.282505  1
  F  F30  1  0.031592  0.731068  0.858759  1
  F  F31  1  0.313666  0.051744  0.217495  1
  F  F32  1  0.298465  0.032737  0.491813  1
  F  F33  1  0.870602  0.272305  0.868255  1
  F  F34  1  0.608961  0.966424  0.781746  1
  F  F35  1  0.129398  0.772305  0.131745  1
