# generated using pymatgen
data_TbDy5Al24Os5Rh3
_symmetry_space_group_name_H-M   'P 1'
_cell_length_a   8.80297451
_cell_length_b   8.78264077
_cell_length_c   9.58455415
_cell_angle_alpha   90.20746563
_cell_angle_beta   89.97115662
_cell_angle_gamma   119.38572283
_symmetry_Int_Tables_number   1
_chemical_formula_structural   TbDy5Al24Os5Rh3
_chemical_formula_sum   'Tb1 Dy5 Al24 Os5 Rh3'
_cell_volume   645.66743118
_cell_formula_units_Z   1
loop_
 _symmetry_equiv_pos_site_id
 _symmetry_equiv_pos_as_xyz
  1  'x, y, z'
loop_
 _atom_site_type_symbol
 _atom_site_label
 _atom_site_symmetry_multiplicity
 _atom_site_fract_x
 _atom_site_fract_y
 _atom_site_fract_z
 _atom_site_occupancy
  Tb  Tb0  1  0.186424  0.385954  0.250984  1
  Dy  Dy1  1  0.813439  0.613582  0.749004  1
  Dy  Dy2  1  0.615526  0.812236  0.251501  1
  Dy  Dy3  1  0.384498  0.187807  0.748498  1
  Dy  Dy4  1  0.191165  0.804222  0.251244  1
  Dy  Dy5  1  0.808883  0.195886  0.748755  1
  Al  Al6  1  0.332348  0.666539  0.023370  1
  Al  Al7  1  0.667721  0.333616  0.976504  1
  Al  Al8  1  0.667240  0.332434  0.522250  1
  Al  Al9  1  0.332826  0.667731  0.477873  1
  Al  Al10  1  0.162894  0.326567  0.576379  1
  Al  Al11  1  0.837118  0.673451  0.423794  1
  Al  Al12  1  0.674205  0.838142  0.576739  1
  Al  Al13  1  0.837422  0.673738  0.076417  1
  Al  Al14  1  0.325850  0.161794  0.423340  1
  Al  Al15  1  0.162589  0.326276  0.923418  1
  Al  Al16  1  0.165171  0.836277  0.575752  1
  Al  Al17  1  0.325603  0.163798  0.077256  1
  Al  Al18  1  0.834700  0.163656  0.424325  1
  Al  Al19  1  0.674449  0.836117  0.922656  1
  Al  Al20  1  0.837247  0.165928  0.076154  1
  Al  Al21  1  0.162608  0.833990  0.923764  1
  Al  Al22  1  0.560523  0.124074  0.250079  1
  Al  Al23  1  0.439478  0.875906  0.749928  1
  Al  Al24  1  0.873877  0.438636  0.249593  1
  Al  Al25  1  0.125943  0.561429  0.750407  1
  Al  Al26  1  0.560335  0.439382  0.249544  1
  Al  Al27  1  0.439905  0.560668  0.750452  1
  Al  Al28  1  0.998137  0.000645  0.250082  1
  Al  Al29  1  0.001738  0.999121  0.749917  1
  Os  Os30  1  0.999894  0.500070  0.999869  1
  Os  Os31  1  0.500043  0.000083  0.500043  1
  Os  Os32  1  0.999897  0.500080  0.500132  1
  Os  Os33  1  0.999986  0.999984  0.999972  1
  Os  Os34  1  0.999987  0.999982  0.500028  1
  Rh  Rh35  1  0.500039  0.000072  0.999971  1
  Rh  Rh36  1  0.500133  0.500062  0.999912  1
  Rh  Rh37  1  0.500156  0.500066  0.500092  1
