# generated using pymatgen
data_Y6Zn18Ag5P
_symmetry_space_group_name_H-M   'P 1'
_cell_length_a   9.12006425
_cell_length_b   9.13005176
_cell_length_c   9.13005200
_cell_angle_alpha   59.99999913
_cell_angle_beta   59.96376642
_cell_angle_gamma   59.96377558
_symmetry_Int_Tables_number   1
_chemical_formula_structural   Y6Zn18Ag5P
_chemical_formula_sum   'Y6 Zn18 Ag5 P1'
_cell_volume   537.26846511
_cell_formula_units_Z   1
loop_
 _symmetry_equiv_pos_site_id
 _symmetry_equiv_pos_as_xyz
  1  'x, y, z'
loop_
 _atom_site_type_symbol
 _atom_site_label
 _atom_site_symmetry_multiplicity
 _atom_site_fract_x
 _atom_site_fract_y
 _atom_site_fract_z
 _atom_site_occupancy
  Y  Y0  1  0.710941  0.289041  0.289041  1
  Y  Y1  1  0.710941  0.289041  0.710978  1
  Y  Y2  1  0.710941  0.710978  0.289041  1
  Y  Y3  1  0.290261  0.709924  0.709924  1
  Y  Y4  1  0.290261  0.709924  0.289891  1
  Y  Y5  1  0.290261  0.289891  0.709924  1
  Zn  Zn6  1  0.876754  0.368593  0.877326  1
  Zn  Zn7  1  0.876754  0.877326  0.368593  1
  Zn  Zn8  1  0.876754  0.877326  0.877326  1
  Zn  Zn9  1  0.503957  0.998979  0.998979  1
  Zn  Zn10  1  0.503957  0.998979  0.498085  1
  Zn  Zn11  1  0.503957  0.498085  0.998979  1
  Zn  Zn12  1  0.998363  0.501821  0.501821  1
  Zn  Zn13  1  0.998363  0.501821  0.997994  1
  Zn  Zn14  1  0.998363  0.997994  0.501821  1
  Zn  Zn15  1  0.996547  0.001151  0.001151  1
  Zn  Zn16  1  0.011378  0.329540  0.329540  1
  Zn  Zn17  1  0.329709  0.012006  0.329141  1
  Zn  Zn18  1  0.329709  0.329141  0.012006  1
  Zn  Zn19  1  0.329709  0.329141  0.329141  1
  Zn  Zn20  1  0.987269  0.670911  0.670911  1
  Zn  Zn21  1  0.670052  0.987722  0.671114  1
  Zn  Zn22  1  0.670052  0.671114  0.987722  1
  Zn  Zn23  1  0.670052  0.671114  0.671114  1
  Ag  Ag24  1  0.639909  0.120031  0.120031  1
  Ag  Ag25  1  0.120514  0.638197  0.120645  1
  Ag  Ag26  1  0.120514  0.120645  0.638197  1
  Ag  Ag27  1  0.120514  0.120645  0.120645  1
  Ag  Ag28  1  0.361946  0.879351  0.879351  1
  P  P29  1  0.501300  0.499566  0.499566  1
