# generated using pymatgen
data_Li4Y(HoSi2)3
_symmetry_space_group_name_H-M   'P 1'
_cell_length_a   9.24801404
_cell_length_b   9.24801398
_cell_length_c   6.66875500
_cell_angle_alpha   90.00000000
_cell_angle_beta   90.00000000
_cell_angle_gamma   153.49060769
_symmetry_Int_Tables_number   1
_chemical_formula_structural   Li4Y(HoSi2)3
_chemical_formula_sum   'Li4 Y1 Ho3 Si6'
_cell_volume   254.57275279
_cell_formula_units_Z   1
loop_
 _symmetry_equiv_pos_site_id
 _symmetry_equiv_pos_as_xyz
  1  'x, y, z'
loop_
 _atom_site_type_symbol
 _atom_site_label
 _atom_site_symmetry_multiplicity
 _atom_site_fract_x
 _atom_site_fract_y
 _atom_site_fract_z
 _atom_site_occupancy
  Li  Li0  1  0.809821  0.190179  0.559016  1
  Li  Li1  1  0.190204  0.809796  0.441043  1
  Li  Li2  1  0.190204  0.809796  0.058957  1
  Li  Li3  1  0.809821  0.190179  0.940984  1
  Y  Y4  1  0.552171  0.447829  0.250000  1
  Ho  Ho5  1  0.447797  0.552203  0.750000  1
  Ho  Ho6  1  0.344401  0.655599  0.250000  1
  Ho  Ho7  1  0.655632  0.344368  0.750000  1
  Si  Si8  1  0.940299  0.059701  0.071950  1
  Si  Si9  1  0.059534  0.940466  0.927228  1
  Si  Si10  1  0.059534  0.940466  0.572772  1
  Si  Si11  1  0.940299  0.059701  0.428050  1
  Si  Si12  1  0.719994  0.280006  0.250000  1
  Si  Si13  1  0.280288  0.719712  0.750000  1
