# generated using pymatgen
data_Tm7Pa(Nb3Ge4)4
_symmetry_space_group_name_H-M   'P 1'
_cell_length_a   6.99139964
_cell_length_b   7.16156617
_cell_length_c   13.54366260
_cell_angle_alpha   90.04473725
_cell_angle_beta   90.18025661
_cell_angle_gamma   89.96714433
_symmetry_Int_Tables_number   1
_chemical_formula_structural   Tm7Pa(Nb3Ge4)4
_chemical_formula_sum   'Tm7 Pa1 Nb12 Ge16'
_cell_volume   678.11899535
_cell_formula_units_Z   1
loop_
 _symmetry_equiv_pos_site_id
 _symmetry_equiv_pos_as_xyz
  1  'x, y, z'
loop_
 _atom_site_type_symbol
 _atom_site_label
 _atom_site_symmetry_multiplicity
 _atom_site_fract_x
 _atom_site_fract_y
 _atom_site_fract_z
 _atom_site_occupancy
  Tm  Tm0  1  0.493490  0.325241  0.094187  1
  Tm  Tm1  1  0.995588  0.175254  0.406094  1
  Tm  Tm2  1  0.504365  0.675221  0.594388  1
  Tm  Tm3  1  0.004145  0.825555  0.904855  1
  Tm  Tm4  1  0.504678  0.674646  0.904162  1
  Tm  Tm5  1  0.003940  0.824795  0.594503  1
  Tm  Tm6  1  0.495805  0.324825  0.407109  1
  Pa  Pa7  1  0.996379  0.174610  0.094047  1
  Nb  Nb8  1  0.664334  0.011539  0.749534  1
  Nb  Nb9  1  0.165818  0.488655  0.750180  1
  Nb  Nb10  1  0.332363  0.989713  0.249388  1
  Nb  Nb11  1  0.835144  0.507972  0.248610  1
  Nb  Nb12  1  0.840866  0.330660  0.626474  1
  Nb  Nb13  1  0.339905  0.168793  0.873900  1
  Nb  Nb14  1  0.158138  0.668387  0.126697  1
  Nb  Nb15  1  0.658384  0.828739  0.373411  1
  Nb  Nb16  1  0.160725  0.669113  0.374115  1
  Nb  Nb17  1  0.662606  0.833716  0.126302  1
  Nb  Nb18  1  0.842348  0.329583  0.874947  1
  Nb  Nb19  1  0.340739  0.169466  0.626487  1
  Ge  Ge20  1  0.805409  0.641480  0.749460  1
  Ge  Ge21  1  0.304776  0.858911  0.749574  1
  Ge  Ge22  1  0.196630  0.360954  0.252530  1
  Ge  Ge23  1  0.691288  0.140977  0.251495  1
  Ge  Ge24  1  0.540400  0.379716  0.750070  1
  Ge  Ge25  1  0.039406  0.119941  0.749734  1
  Ge  Ge26  1  0.460630  0.621245  0.249536  1
  Ge  Ge27  1  0.960391  0.878831  0.251464  1
  Ge  Ge28  1  0.676264  0.037916  0.542021  1
  Ge  Ge29  1  0.177572  0.463052  0.956824  1
  Ge  Ge30  1  0.327070  0.957742  0.040998  1
  Ge  Ge31  1  0.823993  0.538101  0.458182  1
  Ge  Ge32  1  0.323729  0.962230  0.458396  1
  Ge  Ge33  1  0.820354  0.541800  0.041403  1
  Ge  Ge34  1  0.676148  0.038535  0.956628  1
  Ge  Ge35  1  0.176183  0.462087  0.542299  1
