# generated using pymatgen
data_Ho6Al24Fe5Cu3
_symmetry_space_group_name_H-M   'P 1'
_cell_length_a   8.68664983
_cell_length_b   8.72343249
_cell_length_c   9.30029067
_cell_angle_alpha   90.00463114
_cell_angle_beta   90.01495491
_cell_angle_gamma   119.64071306
_symmetry_Int_Tables_number   1
_chemical_formula_structural   Ho6Al24Fe5Cu3
_chemical_formula_sum   'Ho6 Al24 Fe5 Cu3'
_cell_volume   612.53063427
_cell_formula_units_Z   1
loop_
 _symmetry_equiv_pos_site_id
 _symmetry_equiv_pos_as_xyz
  1  'x, y, z'
loop_
 _atom_site_type_symbol
 _atom_site_label
 _atom_site_symmetry_multiplicity
 _atom_site_fract_x
 _atom_site_fract_y
 _atom_site_fract_z
 _atom_site_occupancy
  Ho  Ho0  1  0.191084  0.385024  0.248643  1
  Ho  Ho1  1  0.808916  0.614976  0.751357  1
  Ho  Ho2  1  0.613278  0.809914  0.253064  1
  Ho  Ho3  1  0.386722  0.190086  0.746936  1
  Ho  Ho4  1  0.196200  0.807390  0.249531  1
  Ho  Ho5  1  0.803800  0.192610  0.750469  1
  Al  Al6  1  0.338302  0.675886  0.020899  1
  Al  Al7  1  0.661698  0.324114  0.979101  1
  Al  Al8  1  0.671764  0.330003  0.520743  1
  Al  Al9  1  0.328236  0.669997  0.479257  1
  Al  Al10  1  0.151518  0.320130  0.573876  1
  Al  Al11  1  0.848482  0.679870  0.426124  1
  Al  Al12  1  0.678774  0.847159  0.575449  1
  Al  Al13  1  0.841345  0.683905  0.079372  1
  Al  Al14  1  0.321226  0.152841  0.424551  1
  Al  Al15  1  0.158655  0.316095  0.920628  1
  Al  Al16  1  0.161776  0.837378  0.574537  1
  Al  Al17  1  0.320587  0.152625  0.076398  1
  Al  Al18  1  0.838224  0.162622  0.425463  1
  Al  Al19  1  0.679413  0.847375  0.923602  1
  Al  Al20  1  0.831693  0.153409  0.078438  1
  Al  Al21  1  0.168307  0.846591  0.921562  1
  Al  Al22  1  0.559025  0.118186  0.249967  1
  Al  Al23  1  0.440975  0.881814  0.750033  1
  Al  Al24  1  0.878345  0.439216  0.256476  1
  Al  Al25  1  0.121655  0.560784  0.743524  1
  Al  Al26  1  0.562429  0.438129  0.250163  1
  Al  Al27  1  0.437571  0.561871  0.749837  1
  Al  Al28  1  0.000364  0.002191  0.250687  1
  Al  Al29  1  0.999636  0.997809  0.749313  1
  Fe  Fe30  1  0.500000  0.000000  0.000000  1
  Fe  Fe31  1  0.500000  0.000000  0.500000  1
  Fe  Fe32  1  0.000000  0.500000  0.500000  1
  Fe  Fe33  1  0.000000  0.000000  0.000000  1
  Fe  Fe34  1  0.000000  0.000000  0.500000  1
  Cu  Cu35  1  0.000000  0.500000  0.000000  1
  Cu  Cu36  1  0.500000  0.500000  0.000000  1
  Cu  Cu37  1  0.500000  0.500000  0.500000  1
