# generated using pymatgen
data_Th2Al3ZnCu6
_symmetry_space_group_name_H-M   'P 1'
_cell_length_a   4.21910000
_cell_length_b   5.18522954
_cell_length_c   9.03264248
_cell_angle_alpha   89.29959033
_cell_angle_beta   90.00000000
_cell_angle_gamma   90.00000000
_symmetry_Int_Tables_number   1
_chemical_formula_structural   Th2Al3ZnCu6
_chemical_formula_sum   'Th2 Al3 Zn1 Cu6'
_cell_volume   197.59237233
_cell_formula_units_Z   1
loop_
 _symmetry_equiv_pos_site_id
 _symmetry_equiv_pos_as_xyz
  1  'x, y, z'
loop_
 _atom_site_type_symbol
 _atom_site_label
 _atom_site_symmetry_multiplicity
 _atom_site_fract_x
 _atom_site_fract_y
 _atom_site_fract_z
 _atom_site_occupancy
  Th  Th0  1  0.000000  0.243360  0.750570  1
  Th  Th1  1  0.000000  0.756640  0.249430  1
  Al  Al2  1  0.500000  0.731235  0.747010  1
  Al  Al3  1  0.500000  0.268765  0.252990  1
  Al  Al4  1  0.500000  0.000000  0.000000  1
  Zn  Zn5  1  0.500000  0.000000  0.500000  1
  Cu  Cu6  1  0.000000  0.258033  0.083716  1
  Cu  Cu7  1  0.000000  0.742967  0.582431  1
  Cu  Cu8  1  0.000000  0.741967  0.916284  1
  Cu  Cu9  1  0.000000  0.257033  0.417569  1
  Cu  Cu10  1  0.500000  0.500000  0.500000  1
  Cu  Cu11  1  0.500000  0.500000  0.000000  1
