# generated using pymatgen
data_Tb11Nd8HoPb16
_symmetry_space_group_name_H-M   'P 1'
_cell_length_a   8.34450900
_cell_length_b   8.41236756
_cell_length_c   15.93709400
_cell_angle_alpha   90.00000000
_cell_angle_beta   90.00000000
_cell_angle_gamma   90.02092989
_symmetry_Int_Tables_number   1
_chemical_formula_structural   Tb11Nd8HoPb16
_chemical_formula_sum   'Tb11 Nd8 Ho1 Pb16'
_cell_volume   1118.73733726
_cell_formula_units_Z   1
loop_
 _symmetry_equiv_pos_site_id
 _symmetry_equiv_pos_as_xyz
  1  'x, y, z'
loop_
 _atom_site_type_symbol
 _atom_site_label
 _atom_site_symmetry_multiplicity
 _atom_site_fract_x
 _atom_site_fract_y
 _atom_site_fract_z
 _atom_site_occupancy
  Tb  Tb0  1  0.633320  0.158421  0.622044  1
  Tb  Tb1  1  0.133331  0.341612  0.877870  1
  Tb  Tb2  1  0.366915  0.841796  0.122218  1
  Tb  Tb3  1  0.866500  0.658466  0.377785  1
  Tb  Tb4  1  0.366915  0.841796  0.377782  1
  Tb  Tb5  1  0.866500  0.658466  0.122215  1
  Tb  Tb6  1  0.633320  0.158421  0.877956  1
  Tb  Tb7  1  0.133331  0.341612  0.622130  1
  Tb  Tb8  1  0.799142  0.495459  0.750000  1
  Tb  Tb9  1  0.299189  0.004468  0.750000  1
  Tb  Tb10  1  0.200842  0.504453  0.250000  1
  Nd  Nd11  1  0.476251  0.677487  0.597479  1
  Nd  Nd12  1  0.976358  0.822351  0.902593  1
  Nd  Nd13  1  0.523777  0.322436  0.097482  1
  Nd  Nd14  1  0.023426  0.177511  0.402526  1
  Nd  Nd15  1  0.523777  0.322436  0.402518  1
  Nd  Nd16  1  0.023426  0.177511  0.097474  1
  Nd  Nd17  1  0.476251  0.677487  0.902521  1
  Nd  Nd18  1  0.976358  0.822351  0.597407  1
  Ho  Ho19  1  0.701075  0.995085  0.250000  1
  Pb  Pb20  1  0.706413  0.960147  0.456458  1
  Pb  Pb21  1  0.206305  0.540001  0.043279  1
  Pb  Pb22  1  0.293691  0.039979  0.956805  1
  Pb  Pb23  1  0.793666  0.460088  0.543178  1
  Pb  Pb24  1  0.293691  0.039979  0.543195  1
  Pb  Pb25  1  0.793666  0.460088  0.956822  1
  Pb  Pb26  1  0.706413  0.960147  0.043542  1
  Pb  Pb27  1  0.206305  0.540001  0.456721  1
  Pb  Pb28  1  0.437567  0.371354  0.750000  1
  Pb  Pb29  1  0.937548  0.128523  0.750000  1
  Pb  Pb30  1  0.562646  0.628971  0.250000  1
  Pb  Pb31  1  0.061932  0.871712  0.250000  1
  Pb  Pb32  1  0.664234  0.850013  0.750000  1
  Pb  Pb33  1  0.164245  0.650120  0.750000  1
  Pb  Pb34  1  0.335934  0.150090  0.250000  1
  Pb  Pb35  1  0.835744  0.349155  0.250000  1
