# generated using pymatgen
data_Ho5Pu(Cu3Sb4)2
_symmetry_space_group_name_H-M   'P 1'
_cell_length_a   8.29061685
_cell_length_b   8.29061547
_cell_length_c   8.29061598
_cell_angle_alpha   109.41507063
_cell_angle_beta   109.58357355
_cell_angle_gamma   109.41507634
_symmetry_Int_Tables_number   1
_chemical_formula_structural   Ho5Pu(Cu3Sb4)2
_chemical_formula_sum   'Ho5 Pu1 Cu6 Sb8'
_cell_volume   438.66933102
_cell_formula_units_Z   1
loop_
 _symmetry_equiv_pos_site_id
 _symmetry_equiv_pos_as_xyz
  1  'x, y, z'
loop_
 _atom_site_type_symbol
 _atom_site_label
 _atom_site_symmetry_multiplicity
 _atom_site_fract_x
 _atom_site_fract_y
 _atom_site_fract_z
 _atom_site_occupancy
  Ho  Ho0  1  0.625000  0.750000  0.375000  1
  Ho  Ho1  1  0.250084  0.124742  0.874665  1
  Ho  Ho2  1  0.749923  0.375258  0.625342  1
  Ho  Ho3  1  0.125335  0.875419  0.250077  1
  Ho  Ho4  1  0.374658  0.624581  0.749916  1
  Pu  Pu5  1  0.875000  0.250000  0.125000  1
  Cu  Cu6  1  0.375000  0.250000  0.625000  1
  Cu  Cu7  1  0.125000  0.750000  0.875000  1
  Cu  Cu8  1  0.253505  0.628487  0.376889  1
  Cu  Cu9  1  0.748402  0.871513  0.125018  1
  Cu  Cu10  1  0.623111  0.376616  0.251598  1
  Cu  Cu11  1  0.874982  0.123384  0.746495  1
  Sb  Sb12  1  0.659886  0.499406  0.999990  1
  Sb  Sb13  1  0.500584  0.000594  0.660480  1
  Sb  Sb14  1  0.001798  0.662511  0.501141  1
  Sb  Sb15  1  0.838631  0.837489  0.839287  1
  Sb  Sb16  1  0.498859  0.000657  0.161369  1
  Sb  Sb17  1  0.160713  0.499343  0.998202  1
  Sb  Sb18  1  0.000010  0.159896  0.499416  1
  Sb  Sb19  1  0.339520  0.340104  0.340114  1
