# generated using pymatgen
data_LiGa2Ni3
_symmetry_space_group_name_H-M   'P 1'
_cell_length_a   4.07313700
_cell_length_b   4.07313702
_cell_length_c   4.99520000
_cell_angle_alpha   90.00000000
_cell_angle_beta   90.00000000
_cell_angle_gamma   119.99997550
_symmetry_Int_Tables_number   1
_chemical_formula_structural   LiGa2Ni3
_chemical_formula_sum   'Li1 Ga2 Ni3'
_cell_volume   71.76978706
_cell_formula_units_Z   1
loop_
 _symmetry_equiv_pos_site_id
 _symmetry_equiv_pos_as_xyz
  1  'x, y, z'
loop_
 _atom_site_type_symbol
 _atom_site_label
 _atom_site_symmetry_multiplicity
 _atom_site_fract_x
 _atom_site_fract_y
 _atom_site_fract_z
 _atom_site_occupancy
  Li  Li0  1  0.000000  0.000000  0.000000  1
  Ga  Ga1  1  0.333333  0.666667  0.312301  1
  Ga  Ga2  1  0.666667  0.333333  0.687699  1
  Ni  Ni3  1  0.666667  0.333333  0.181195  1
  Ni  Ni4  1  0.333333  0.666667  0.818805  1
  Ni  Ni5  1  0.000000  0.000000  0.500000  1
