# generated using pymatgen
data_Dy20TcNi3Sb8
_symmetry_space_group_name_H-M   'P 1'
_cell_length_a   7.90658671
_cell_length_b   8.83645500
_cell_length_c   12.17425001
_cell_angle_alpha   90.00000000
_cell_angle_beta   89.69305718
_cell_angle_gamma   90.00000000
_symmetry_Int_Tables_number   1
_chemical_formula_structural   Dy20TcNi3Sb8
_chemical_formula_sum   'Dy20 Tc1 Ni3 Sb8'
_cell_volume   850.55635268
_cell_formula_units_Z   1
loop_
 _symmetry_equiv_pos_site_id
 _symmetry_equiv_pos_as_xyz
  1  'x, y, z'
loop_
 _atom_site_type_symbol
 _atom_site_label
 _atom_site_symmetry_multiplicity
 _atom_site_fract_x
 _atom_site_fract_y
 _atom_site_fract_z
 _atom_site_occupancy
  Dy  Dy0  1  0.320810  0.538363  0.433024  1
  Dy  Dy1  1  0.874338  0.250000  0.802402  1
  Dy  Dy2  1  0.179698  0.539832  0.935861  1
  Dy  Dy3  1  0.320810  0.961637  0.433024  1
  Dy  Dy4  1  0.127150  0.750000  0.200304  1
  Dy  Dy5  1  0.844839  0.750000  0.793761  1
  Dy  Dy6  1  0.375240  0.750000  0.694126  1
  Dy  Dy7  1  0.954236  0.750000  0.500960  1
  Dy  Dy8  1  0.456001  0.250000  0.997007  1
  Dy  Dy9  1  0.680361  0.459694  0.565835  1
  Dy  Dy10  1  0.818241  0.040828  0.066675  1
  Dy  Dy11  1  0.665174  0.750000  0.284744  1
  Dy  Dy12  1  0.543248  0.750000  0.001670  1
  Dy  Dy13  1  0.045170  0.250000  0.500290  1
  Dy  Dy14  1  0.680361  0.040306  0.565835  1
  Dy  Dy15  1  0.179698  0.960168  0.935861  1
  Dy  Dy16  1  0.624796  0.250000  0.305358  1
  Dy  Dy17  1  0.339928  0.250000  0.708616  1
  Dy  Dy18  1  0.818241  0.459172  0.066675  1
  Dy  Dy19  1  0.154811  0.250000  0.204441  1
  Tc  Tc20  1  0.919665  0.750000  0.017796  1
  Ni  Ni21  1  0.572922  0.750000  0.507287  1
  Ni  Ni22  1  0.078962  0.250000  0.985147  1
  Ni  Ni23  1  0.429584  0.250000  0.490420  1
  Sb  Sb24  1  0.928028  0.489491  0.329701  1
  Sb  Sb25  1  0.428085  0.506156  0.173606  1
  Sb  Sb26  1  0.428085  0.993844  0.173606  1
  Sb  Sb27  1  0.569672  0.492351  0.825669  1
  Sb  Sb28  1  0.072073  0.508641  0.672462  1
  Sb  Sb29  1  0.569672  0.007649  0.825669  1
  Sb  Sb30  1  0.928028  0.010509  0.329701  1
  Sb  Sb31  1  0.072073  0.991359  0.672462  1
