# generated using pymatgen
data_Hf8Tc4Os3Pt
_symmetry_space_group_name_H-M   'P 1'
_cell_length_a   6.50569100
_cell_length_b   4.62273200
_cell_length_c   9.24317200
_cell_angle_alpha   90.00000000
_cell_angle_beta   89.99949045
_cell_angle_gamma   90.00000000
_symmetry_Int_Tables_number   1
_chemical_formula_structural   Hf8Tc4Os3Pt
_chemical_formula_sum   'Hf8 Tc4 Os3 Pt1'
_cell_volume   277.97976447
_cell_formula_units_Z   1
loop_
 _symmetry_equiv_pos_site_id
 _symmetry_equiv_pos_as_xyz
  1  'x, y, z'
loop_
 _atom_site_type_symbol
 _atom_site_label
 _atom_site_symmetry_multiplicity
 _atom_site_fract_x
 _atom_site_fract_y
 _atom_site_fract_z
 _atom_site_occupancy
  Hf  Hf0  1  0.993879  0.750001  0.125000  1
  Hf  Hf1  1  0.506208  0.750001  0.125002  1
  Hf  Hf2  1  0.997098  0.250001  0.379075  1
  Hf  Hf3  1  0.502952  0.250001  0.379072  1
  Hf  Hf4  1  0.499536  0.750001  0.625015  1
  Hf  Hf5  1  0.000377  0.750001  0.625016  1
  Hf  Hf6  1  0.502864  0.250001  0.870919  1
  Hf  Hf7  1  0.997032  0.250001  0.870923  1
  Tc  Tc8  1  0.750032  0.250001  0.124994  1
  Tc  Tc9  1  0.250023  0.750001  0.373219  1
  Tc  Tc10  1  0.749962  0.250001  0.624997  1
  Tc  Tc11  1  0.249959  0.750001  0.876784  1
  Os  Os12  1  0.750022  0.750001  0.374733  1
  Os  Os13  1  0.249962  0.250001  0.625022  1
  Os  Os14  1  0.749958  0.750001  0.875230  1
  Pt  Pt15  1  0.250035  0.250001  0.124995  1
