# generated using pymatgen
data_Hf8Ti(Ga4Mo)3
_symmetry_space_group_name_H-M   'P 1'
_cell_length_a   5.45573002
_cell_length_b   8.46822804
_cell_length_c   9.04284600
_cell_angle_alpha   90.00000000
_cell_angle_beta   90.00000000
_cell_angle_gamma   89.98915166
_symmetry_Int_Tables_number   1
_chemical_formula_structural   Hf8Ti(Ga4Mo)3
_chemical_formula_sum   'Hf8 Ti1 Ga12 Mo3'
_cell_volume   417.78278704
_cell_formula_units_Z   1
loop_
 _symmetry_equiv_pos_site_id
 _symmetry_equiv_pos_as_xyz
  1  'x, y, z'
loop_
 _atom_site_type_symbol
 _atom_site_label
 _atom_site_symmetry_multiplicity
 _atom_site_fract_x
 _atom_site_fract_y
 _atom_site_fract_z
 _atom_site_occupancy
  Hf  Hf0  1  0.748218  0.469574  0.623705  1
  Hf  Hf1  1  0.251590  0.529565  0.378790  1
  Hf  Hf2  1  0.748410  0.970435  0.378790  1
  Hf  Hf3  1  0.251782  0.030426  0.623705  1
  Hf  Hf4  1  0.748128  0.365402  0.182081  1
  Hf  Hf5  1  0.251913  0.633285  0.815835  1
  Hf  Hf6  1  0.748087  0.866715  0.815835  1
  Hf  Hf7  1  0.251872  0.134598  0.182081  1
  Ti  Ti8  1  0.000000  0.750000  0.110909  1
  Ga  Ga9  1  0.000000  0.750000  0.568911  1
  Ga  Ga10  1  0.500000  0.250000  0.428174  1
  Ga  Ga11  1  0.000000  0.250000  0.430406  1
  Ga  Ga12  1  0.500000  0.750000  0.571174  1
  Ga  Ga13  1  0.748762  0.045570  0.076379  1
  Ga  Ga14  1  0.250643  0.954566  0.922735  1
  Ga  Ga15  1  0.749357  0.545434  0.922735  1
  Ga  Ga16  1  0.251238  0.454430  0.076379  1
  Ga  Ga17  1  0.751587  0.134708  0.656194  1
  Ga  Ga18  1  0.249782  0.865846  0.344006  1
  Ga  Ga19  1  0.750218  0.634154  0.344006  1
  Ga  Ga20  1  0.248413  0.365292  0.656194  1
  Mo  Mo21  1  0.500000  0.250000  0.888648  1
  Mo  Mo22  1  0.000000  0.250000  0.892009  1
  Mo  Mo23  1  0.500000  0.750000  0.110318  1
