# generated using pymatgen
data_ErTm4ReRuO12
_symmetry_space_group_name_H-M   'P 1'
_cell_length_a   6.76729998
_cell_length_b   6.76917532
_cell_length_c   7.41815020
_cell_angle_alpha   73.84272301
_cell_angle_beta   73.83707153
_cell_angle_gamma   49.15000034
_symmetry_Int_Tables_number   1
_chemical_formula_structural   ErTm4ReRuO12
_chemical_formula_sum   'Er1 Tm4 Re1 Ru1 O12'
_cell_volume   244.71309721
_cell_formula_units_Z   1
loop_
 _symmetry_equiv_pos_site_id
 _symmetry_equiv_pos_as_xyz
  1  'x, y, z'
loop_
 _atom_site_type_symbol
 _atom_site_label
 _atom_site_symmetry_multiplicity
 _atom_site_fract_x
 _atom_site_fract_y
 _atom_site_fract_z
 _atom_site_occupancy
  Er  Er0  1  0.817534  0.786546  0.358424  1
  Tm  Tm1  1  0.213528  0.182507  0.641825  1
  Tm  Tm2  1  0.190978  0.180203  0.175454  1
  Tm  Tm3  1  0.819892  0.808995  0.824577  1
  Tm  Tm4  1  0.510883  0.489008  0.500204  1
  Re  Re5  1  0.702076  0.298125  0.999839  1
  Ru  Ru6  1  0.267218  0.733015  0.999802  1
  O  O7  1  0.413245  0.938007  0.913002  1
  O  O8  1  0.062799  0.586000  0.085766  1
  O  O9  1  0.588081  0.091830  0.086885  1
  O  O10  1  0.908730  0.411665  0.912266  1
  O  O11  1  0.608977  0.090491  0.568369  1
  O  O12  1  0.910675  0.388852  0.432864  1
  O  O13  1  0.410728  0.898681  0.424333  1
  O  O14  1  0.985942  0.014758  0.820519  1
  O  O15  1  0.985654  0.014712  0.178820  1
  O  O16  1  0.497062  0.496637  0.795209  1
  O  O17  1  0.503523  0.502916  0.204724  1
  O  O18  1  0.102477  0.587051  0.577117  1
