# generated using pymatgen
data_Er3Tm2SnSb2
_symmetry_space_group_name_H-M   'P 1'
_cell_length_a   8.86848154
_cell_length_b   8.86295084
_cell_length_c   6.34330800
_cell_angle_alpha   90.00000000
_cell_angle_beta   90.00000000
_cell_angle_gamma   119.97936562
_symmetry_Int_Tables_number   1
_chemical_formula_structural   Er3Tm2SnSb2
_chemical_formula_sum   'Er6 Tm4 Sn2 Sb4'
_cell_volume   431.88120161
_cell_formula_units_Z   2
loop_
 _symmetry_equiv_pos_site_id
 _symmetry_equiv_pos_as_xyz
  1  'x, y, z'
loop_
 _atom_site_type_symbol
 _atom_site_label
 _atom_site_symmetry_multiplicity
 _atom_site_fract_x
 _atom_site_fract_y
 _atom_site_fract_z
 _atom_site_occupancy
  Er  Er0  1  0.001085  0.757674  0.750000  1
  Er  Er1  1  0.001085  0.243411  0.250000  1
  Er  Er2  1  0.755816  0.756794  0.250000  1
  Er  Er3  1  0.755816  0.999022  0.750000  1
  Er  Er4  1  0.243578  0.241640  0.750000  1
  Er  Er5  1  0.243578  0.001938  0.250000  1
  Tm  Tm6  1  0.333898  0.666949  0.500000  1
  Tm  Tm7  1  0.665083  0.332541  0.000000  1
  Tm  Tm8  1  0.665083  0.332541  0.500000  1
  Tm  Tm9  1  0.333898  0.666949  0.000000  1
  Sn  Sn10  1  0.391771  0.998963  0.750000  1
  Sn  Sn11  1  0.391771  0.392808  0.250000  1
  Sb  Sb12  1  0.999381  0.608765  0.250000  1
  Sb  Sb13  1  0.999381  0.390617  0.750000  1
  Sb  Sb14  1  0.609388  0.609114  0.750000  1
  Sb  Sb15  1  0.609388  0.000275  0.250000  1
