# generated using pymatgen
data_Er3Sn3Ru2Au
_symmetry_space_group_name_H-M   'P 1'
_cell_length_a   7.74571000
_cell_length_b   7.74571119
_cell_length_c   3.73127700
_cell_angle_alpha   90.00000000
_cell_angle_beta   90.00000000
_cell_angle_gamma   119.99999493
_symmetry_Int_Tables_number   1
_chemical_formula_structural   Er3Sn3Ru2Au
_chemical_formula_sum   'Er3 Sn3 Ru2 Au1'
_cell_volume   193.87002992
_cell_formula_units_Z   1
loop_
 _symmetry_equiv_pos_site_id
 _symmetry_equiv_pos_as_xyz
  1  'x, y, z'
loop_
 _atom_site_type_symbol
 _atom_site_label
 _atom_site_symmetry_multiplicity
 _atom_site_fract_x
 _atom_site_fract_y
 _atom_site_fract_z
 _atom_site_occupancy
  Er  Er0  1  0.408525  0.389492  0.500000  1
  Er  Er1  1  0.610508  0.019033  0.500000  1
  Er  Er2  1  0.980967  0.591475  0.500000  1
  Sn  Sn3  1  0.738836  0.733009  0.000000  1
  Sn  Sn4  1  0.266991  0.005828  0.000000  1
  Sn  Sn5  1  0.994172  0.261164  0.000000  1
  Ru  Ru6  1  0.666667  0.333333  0.000000  1
  Ru  Ru7  1  0.000000  0.000000  0.500000  1
  Au  Au8  1  0.333333  0.666667  0.000000  1
