# generated using pymatgen
data_YTmUCo2Si7
_symmetry_space_group_name_H-M   'P 1'
_cell_length_a   3.99734430
_cell_length_b   4.01658000
_cell_length_c   12.33106245
_cell_angle_alpha   90.00000000
_cell_angle_beta   99.32790243
_cell_angle_gamma   90.00000000
_symmetry_Int_Tables_number   1
_chemical_formula_structural   YTmUCo2Si7
_chemical_formula_sum   'Y1 Tm1 U1 Co2 Si7'
_cell_volume   195.36530932
_cell_formula_units_Z   1
loop_
 _symmetry_equiv_pos_site_id
 _symmetry_equiv_pos_as_xyz
  1  'x, y, z'
loop_
 _atom_site_type_symbol
 _atom_site_label
 _atom_site_symmetry_multiplicity
 _atom_site_fract_x
 _atom_site_fract_y
 _atom_site_fract_z
 _atom_site_occupancy
  Y  Y0  1  0.684211  0.000000  0.368421  1
  Tm  Tm1  1  0.316345  0.000000  0.632690  1
  U  U2  1  0.999862  0.500000  0.999723  1
  Co  Co3  1  0.127874  0.500000  0.255749  1
  Co  Co4  1  0.871710  0.500000  0.743421  1
  Si  Si5  1  0.499994  0.000000  0.999989  1
  Si  Si6  1  0.413154  0.500000  0.826309  1
  Si  Si7  1  0.586482  0.500000  0.172963  1
  Si  Si8  1  0.086571  0.000000  0.173143  1
  Si  Si9  1  0.913017  0.000000  0.826033  1
  Si  Si10  1  0.221727  0.500000  0.443454  1
  Si  Si11  1  0.779053  0.500000  0.558106  1
