# generated using pymatgen
data_Rb2Ta3Br7O5
_symmetry_space_group_name_H-M   'P 1'
_cell_length_a   10.24914901
_cell_length_b   10.24914885
_cell_length_c   11.46092501
_cell_angle_alpha   72.29338800
_cell_angle_beta   72.29338934
_cell_angle_gamma   51.57255987
_symmetry_Int_Tables_number   1
_chemical_formula_structural   Rb2Ta3Br7O5
_chemical_formula_sum   'Rb4 Ta6 Br14 O10'
_cell_volume   887.70856036
_cell_formula_units_Z   2
loop_
 _symmetry_equiv_pos_site_id
 _symmetry_equiv_pos_as_xyz
  1  'x, y, z'
loop_
 _atom_site_type_symbol
 _atom_site_label
 _atom_site_symmetry_multiplicity
 _atom_site_fract_x
 _atom_site_fract_y
 _atom_site_fract_z
 _atom_site_occupancy
  Rb  Rb0  1  0.841829  0.758049  0.856929  1
  Rb  Rb1  1  0.158171  0.241951  0.143071  1
  Rb  Rb2  1  0.241951  0.158171  0.643071  1
  Rb  Rb3  1  0.758049  0.841829  0.356929  1
  Ta  Ta4  1  0.461551  0.538449  0.750000  1
  Ta  Ta5  1  0.216803  0.787246  0.026097  1
  Ta  Ta6  1  0.212754  0.783197  0.473903  1
  Ta  Ta7  1  0.787246  0.216803  0.526097  1
  Ta  Ta8  1  0.538449  0.461551  0.250000  1
  Ta  Ta9  1  0.783197  0.212754  0.973903  1
  Br  Br10  1  0.934568  0.360393  0.883285  1
  Br  Br11  1  0.065432  0.639607  0.116715  1
  Br  Br12  1  0.586589  0.707750  0.670792  1
  Br  Br13  1  0.075842  0.924158  0.250000  1
  Br  Br14  1  0.364682  0.936407  0.953484  1
  Br  Br15  1  0.063593  0.635318  0.546516  1
  Br  Br16  1  0.936407  0.364682  0.453484  1
  Br  Br17  1  0.707750  0.586589  0.170792  1
  Br  Br18  1  0.413411  0.292250  0.329208  1
  Br  Br19  1  0.360393  0.934568  0.383285  1
  Br  Br20  1  0.924158  0.075842  0.750000  1
  Br  Br21  1  0.639607  0.065432  0.616715  1
  Br  Br22  1  0.292250  0.413411  0.829208  1
  Br  Br23  1  0.635318  0.063593  0.046516  1
  O  O24  1  0.703796  0.298135  0.379295  1
  O  O25  1  0.607530  0.390123  0.871393  1
  O  O26  1  0.392470  0.609877  0.128607  1
  O  O27  1  0.701865  0.296204  0.120705  1
  O  O28  1  0.298135  0.703796  0.879296  1
  O  O29  1  0.000000  0.000000  0.000000  1
  O  O30  1  0.296204  0.701865  0.620705  1
  O  O31  1  0.390123  0.607530  0.371393  1
  O  O32  1  0.609877  0.392470  0.628607  1
  O  O33  1  0.000000  0.000000  0.500000  1
