# generated using pymatgen
data_Dy7Er9Cd4(OsPt)2
_symmetry_space_group_name_H-M   'P 1'
_cell_length_a   9.61078387
_cell_length_b   9.61078288
_cell_length_c   9.67124600
_cell_angle_alpha   59.79166356
_cell_angle_beta   59.79166699
_cell_angle_gamma   59.69349605
_symmetry_Int_Tables_number   1
_chemical_formula_structural   Dy7Er9Cd4(OsPt)2
_chemical_formula_sum   'Dy7 Er9 Cd4 Os2 Pt2'
_cell_volume   628.20366356
_cell_formula_units_Z   1
loop_
 _symmetry_equiv_pos_site_id
 _symmetry_equiv_pos_as_xyz
  1  'x, y, z'
loop_
 _atom_site_type_symbol
 _atom_site_label
 _atom_site_symmetry_multiplicity
 _atom_site_fract_x
 _atom_site_fract_y
 _atom_site_fract_z
 _atom_site_occupancy
  Dy  Dy0  1  0.808685  0.808685  0.191315  1
  Dy  Dy1  1  0.938789  0.556067  0.566500  1
  Dy  Dy2  1  0.556067  0.938789  0.938644  1
  Dy  Dy3  1  0.556067  0.938789  0.566500  1
  Dy  Dy4  1  0.938789  0.556066  0.938644  1
  Dy  Dy5  1  0.563647  0.563647  0.936353  1
  Dy  Dy6  1  0.940458  0.940458  0.559541  1
  Er  Er7  1  0.349801  0.349801  0.351641  1
  Er  Er8  1  0.349801  0.349801  0.948758  1
  Er  Er9  1  0.345926  0.955129  0.349473  1
  Er  Er10  1  0.955129  0.345926  0.349473  1
  Er  Er11  1  0.814903  0.187711  0.190277  1
  Er  Er12  1  0.187711  0.814903  0.807109  1
  Er  Er13  1  0.187711  0.814903  0.190277  1
  Er  Er14  1  0.814903  0.187711  0.807109  1
  Er  Er15  1  0.187866  0.187866  0.812134  1
  Cd  Cd16  1  0.579789  0.579789  0.581725  1
  Cd  Cd17  1  0.579789  0.579789  0.258697  1
  Cd  Cd18  1  0.580956  0.255563  0.581741  1
  Cd  Cd19  1  0.255563  0.580956  0.581741  1
  Os  Os20  1  0.144145  0.144145  0.137765  1
  Os  Os21  1  0.144145  0.144145  0.573945  1
  Pt  Pt22  1  0.145476  0.573886  0.140320  1
  Pt  Pt23  1  0.573886  0.145476  0.140320  1
