# generated using pymatgen
data_Hf2Fe9TcP6
_symmetry_space_group_name_H-M   'P 1'
_cell_length_a   3.63792200
_cell_length_b   10.09779100
_cell_length_c   11.63996700
_cell_angle_alpha   90.00000000
_cell_angle_beta   90.00000000
_cell_angle_gamma   90.00000000
_symmetry_Int_Tables_number   1
_chemical_formula_structural   Hf2Fe9TcP6
_chemical_formula_sum   'Hf4 Fe18 Tc2 P12'
_cell_volume   427.59390874
_cell_formula_units_Z   2
loop_
 _symmetry_equiv_pos_site_id
 _symmetry_equiv_pos_as_xyz
  1  'x, y, z'
loop_
 _atom_site_type_symbol
 _atom_site_label
 _atom_site_symmetry_multiplicity
 _atom_site_fract_x
 _atom_site_fract_y
 _atom_site_fract_z
 _atom_site_occupancy
  Hf  Hf0  1  0.250000  0.579383  0.703612  1
  Hf  Hf1  1  0.250000  0.920617  0.203612  1
  Hf  Hf2  1  0.750000  0.420922  0.295570  1
  Hf  Hf3  1  0.750000  0.079078  0.795570  1
  Fe  Fe4  1  0.750000  0.291354  0.008425  1
  Fe  Fe5  1  0.750000  0.208646  0.508425  1
  Fe  Fe6  1  0.250000  0.403746  0.486712  1
  Fe  Fe7  1  0.250000  0.096254  0.986712  1
  Fe  Fe8  1  0.750000  0.591141  0.515706  1
  Fe  Fe9  1  0.750000  0.908859  0.015706  1
  Fe  Fe10  1  0.250000  0.223571  0.173647  1
  Fe  Fe11  1  0.250000  0.276429  0.673647  1
  Fe  Fe12  1  0.750000  0.776423  0.825076  1
  Fe  Fe13  1  0.750000  0.723577  0.325076  1
  Fe  Fe14  1  0.250000  0.882782  0.703125  1
  Fe  Fe15  1  0.250000  0.617218  0.203125  1
  Fe  Fe16  1  0.750000  0.121084  0.297839  1
  Fe  Fe17  1  0.750000  0.378916  0.797839  1
  Fe  Fe18  1  0.250000  0.459459  0.932550  1
  Fe  Fe19  1  0.250000  0.040541  0.432550  1
  Fe  Fe20  1  0.750000  0.532084  0.067662  1
  Fe  Fe21  1  0.750000  0.967916  0.567662  1
  Tc  Tc22  1  0.250000  0.706893  0.990650  1
  Tc  Tc23  1  0.250000  0.793107  0.490650  1
  P  P24  1  0.250000  0.421885  0.116428  1
  P  P25  1  0.250000  0.078115  0.616428  1
  P  P26  1  0.750000  0.574865  0.882789  1
  P  P27  1  0.750000  0.925135  0.382789  1
  P  P28  1  0.250000  0.262201  0.864349  1
  P  P29  1  0.250000  0.237799  0.364349  1
  P  P30  1  0.750000  0.734703  0.136512  1
  P  P31  1  0.750000  0.765297  0.636512  1
  P  P32  1  0.250000  0.594485  0.391496  1
  P  P33  1  0.250000  0.905515  0.891496  1
  P  P34  1  0.750000  0.397824  0.607850  1
  P  P35  1  0.750000  0.102176  0.107850  1
