# generated using pymatgen
data_HoZn2Ni2Ag
_symmetry_space_group_name_H-M   'P 1'
_cell_length_a   5.13409139
_cell_length_b   5.03995177
_cell_length_c   5.03995178
_cell_angle_alpha   61.49053108
_cell_angle_beta   59.38017080
_cell_angle_gamma   59.38016710
_symmetry_Int_Tables_number   1
_chemical_formula_structural   HoZn2Ni2Ag
_chemical_formula_sum   'Ho1 Zn2 Ni2 Ag1'
_cell_volume   92.30514154
_cell_formula_units_Z   1
loop_
 _symmetry_equiv_pos_site_id
 _symmetry_equiv_pos_as_xyz
  1  'x, y, z'
loop_
 _atom_site_type_symbol
 _atom_site_label
 _atom_site_symmetry_multiplicity
 _atom_site_fract_x
 _atom_site_fract_y
 _atom_site_fract_z
 _atom_site_occupancy
  Ho  Ho0  1  0.991591  0.008409  0.008409  1
  Zn  Zn1  1  0.377835  0.869511  0.374820  1
  Zn  Zn2  1  0.377835  0.374820  0.869511  1
  Ni  Ni3  1  0.379043  0.372836  0.372836  1
  Ni  Ni4  1  0.875283  0.372836  0.372836  1
  Ag  Ag5  1  0.748412  0.751588  0.751588  1
