# generated using pymatgen
data_Na8Li4ScAl3Bi8
_symmetry_space_group_name_H-M   'P 1'
_cell_length_a   10.20167327
_cell_length_b   10.20167263
_cell_length_c   6.52720417
_cell_angle_alpha   89.84317371
_cell_angle_beta   90.15682812
_cell_angle_gamma   99.00420922
_symmetry_Int_Tables_number   1
_chemical_formula_structural   Na8Li4ScAl3Bi8
_chemical_formula_sum   'Na8 Li4 Sc1 Al3 Bi8'
_cell_volume   670.93747556
_cell_formula_units_Z   1
loop_
 _symmetry_equiv_pos_site_id
 _symmetry_equiv_pos_as_xyz
  1  'x, y, z'
loop_
 _atom_site_type_symbol
 _atom_site_label
 _atom_site_symmetry_multiplicity
 _atom_site_fract_x
 _atom_site_fract_y
 _atom_site_fract_z
 _atom_site_occupancy
  Na  Na0  1  0.572768  0.924573  0.252643  1
  Na  Na1  1  0.673115  0.328489  0.221743  1
  Na  Na2  1  0.328489  0.673115  0.778257  1
  Na  Na3  1  0.073705  0.423397  0.251706  1
  Na  Na4  1  0.924573  0.572768  0.747357  1
  Na  Na5  1  0.423397  0.073705  0.748294  1
  Na  Na6  1  0.827228  0.175015  0.719053  1
  Na  Na7  1  0.175015  0.827228  0.280947  1
  Li  Li8  1  0.878913  0.878913  0.500000  1
  Li  Li9  1  0.121945  0.121945  0.500000  1
  Li  Li10  1  0.618874  0.618874  0.000000  1
  Li  Li11  1  0.379836  0.379836  0.000000  1
  Sc  Sc12  1  0.875818  0.875818  0.000000  1
  Al  Al13  1  0.128287  0.128287  0.000000  1
  Al  Al14  1  0.369198  0.369198  0.500000  1
  Al  Al15  1  0.627999  0.627999  0.500000  1
  Bi  Bi16  1  0.118760  0.887253  0.772287  1
  Bi  Bi17  1  0.609936  0.386823  0.723799  1
  Bi  Bi18  1  0.887253  0.118760  0.227713  1
  Bi  Bi19  1  0.386823  0.609936  0.276201  1
  Bi  Bi20  1  0.360899  0.139356  0.247830  1
  Bi  Bi21  1  0.139356  0.360899  0.752170  1
  Bi  Bi22  1  0.636138  0.861677  0.746940  1
  Bi  Bi23  1  0.861677  0.636138  0.253060  1
