# generated using pymatgen
data_Ba2MnP4Ir3
_symmetry_space_group_name_H-M   'P 1'
_cell_length_a   5.63996900
_cell_length_b   6.90022530
_cell_length_c   5.64512463
_cell_angle_alpha   65.85565145
_cell_angle_beta   89.99990857
_cell_angle_gamma   89.99995417
_symmetry_Int_Tables_number   1
_chemical_formula_structural   Ba2MnP4Ir3
_chemical_formula_sum   'Ba2 Mn1 P4 Ir3'
_cell_volume   200.47253809
_cell_formula_units_Z   1
loop_
 _symmetry_equiv_pos_site_id
 _symmetry_equiv_pos_as_xyz
  1  'x, y, z'
loop_
 _atom_site_type_symbol
 _atom_site_label
 _atom_site_symmetry_multiplicity
 _atom_site_fract_x
 _atom_site_fract_y
 _atom_site_fract_z
 _atom_site_occupancy
  Ba  Ba0  1  0.993324  0.000001  0.999999  1
  Ba  Ba1  1  0.506497  0.999999  0.500001  1
  Mn  Mn2  1  0.250353  0.499999  0.499999  1
  P  P3  1  0.486233  0.692632  0.166968  1
  P  P4  1  0.013811  0.692660  0.639968  1
  P  P5  1  0.013814  0.307340  0.360031  1
  P  P6  1  0.486236  0.307370  0.833031  1
  Ir  Ir7  1  0.249763  0.500001  0.000001  1
  Ir  Ir8  1  0.750001  0.500001  0.000000  1
  Ir  Ir9  1  0.749968  0.499997  0.500000  1
