# generated using pymatgen
data_Th2Co2Sn
_symmetry_space_group_name_H-M   'P 1'
_cell_length_a   7.61040208
_cell_length_b   7.61040272
_cell_length_c   3.74806800
_cell_angle_alpha   90.00000000
_cell_angle_beta   90.00000000
_cell_angle_gamma   149.77373640
_symmetry_Int_Tables_number   1
_chemical_formula_structural   Th2Co2Sn
_chemical_formula_sum   'Th2 Co2 Sn1'
_cell_volume   109.28228665
_cell_formula_units_Z   1
loop_
 _symmetry_equiv_pos_site_id
 _symmetry_equiv_pos_as_xyz
  1  'x, y, z'
loop_
 _atom_site_type_symbol
 _atom_site_label
 _atom_site_symmetry_multiplicity
 _atom_site_fract_x
 _atom_site_fract_y
 _atom_site_fract_z
 _atom_site_occupancy
  Th  Th0  1  0.643624  0.356378  0.500000  1
  Th  Th1  1  0.356378  0.643624  0.500000  1
  Co  Co2  1  0.814823  0.185179  0.000000  1
  Co  Co3  1  0.185179  0.814823  0.000000  1
  Sn  Sn4  1  0.000000  0.000000  0.000000  1
