# generated using pymatgen
data_Sm4Re16Si7Ge
_symmetry_space_group_name_H-M   'P 1'
_cell_length_a   4.15933100
_cell_length_b   7.34122385
_cell_length_c   15.50833637
_cell_angle_alpha   89.97049079
_cell_angle_beta   90.00000000
_cell_angle_gamma   90.00000000
_symmetry_Int_Tables_number   1
_chemical_formula_structural   Sm4Re16Si7Ge
_chemical_formula_sum   'Sm4 Re16 Si7 Ge1'
_cell_volume   473.54047376
_cell_formula_units_Z   1
loop_
 _symmetry_equiv_pos_site_id
 _symmetry_equiv_pos_as_xyz
  1  'x, y, z'
loop_
 _atom_site_type_symbol
 _atom_site_label
 _atom_site_symmetry_multiplicity
 _atom_site_fract_x
 _atom_site_fract_y
 _atom_site_fract_z
 _atom_site_occupancy
  Sm  Sm0  1  0.000000  0.578689  0.118061  1
  Sm  Sm1  1  0.000000  0.419497  0.881843  1
  Sm  Sm2  1  0.500000  0.082697  0.380616  1
  Sm  Sm3  1  0.500000  0.922188  0.620415  1
  Re  Re4  1  0.000000  0.138011  0.051628  1
  Re  Re5  1  0.000000  0.859700  0.948246  1
  Re  Re6  1  0.500000  0.635437  0.446581  1
  Re  Re7  1  0.500000  0.361695  0.552030  1
  Re  Re8  1  0.000000  0.731782  0.320125  1
  Re  Re9  1  0.000000  0.267201  0.679863  1
  Re  Re10  1  0.500000  0.232193  0.178271  1
  Re  Re11  1  0.500000  0.765893  0.821297  1
  Re  Re12  1  0.000000  0.430601  0.417706  1
  Re  Re13  1  0.000000  0.566709  0.581639  1
  Re  Re14  1  0.500000  0.930780  0.081532  1
  Re  Re15  1  0.500000  0.066960  0.918488  1
  Re  Re16  1  0.000000  0.989230  0.206119  1
  Re  Re17  1  0.000000  0.008427  0.793831  1
  Re  Re18  1  0.500000  0.488895  0.292585  1
  Re  Re19  1  0.500000  0.509004  0.706740  1
  Si  Si20  1  0.000000  0.177074  0.525236  1
  Si  Si21  1  0.500000  0.328536  0.023693  1
  Si  Si22  1  0.500000  0.669505  0.976107  1
  Si  Si23  1  0.000000  0.291966  0.272557  1
  Si  Si24  1  0.000000  0.706369  0.726710  1
  Si  Si25  1  0.500000  0.791237  0.226335  1
  Si  Si26  1  0.500000  0.207430  0.774126  1
  Ge  Ge27  1  0.000000  0.842295  0.477620  1
