# generated using pymatgen
data_KCa(AcB12)2
_symmetry_space_group_name_H-M   'P 1'
_cell_length_a   7.25763200
_cell_length_b   7.25763356
_cell_length_c   5.96300200
_cell_angle_alpha   90.00000000
_cell_angle_beta   90.00000000
_cell_angle_gamma   109.22944818
_symmetry_Int_Tables_number   1
_chemical_formula_structural   KCa(AcB12)2
_chemical_formula_sum   'K1 Ca1 Ac2 B24'
_cell_volume   296.56660921
_cell_formula_units_Z   1
loop_
 _symmetry_equiv_pos_site_id
 _symmetry_equiv_pos_as_xyz
  1  'x, y, z'
loop_
 _atom_site_type_symbol
 _atom_site_label
 _atom_site_symmetry_multiplicity
 _atom_site_fract_x
 _atom_site_fract_y
 _atom_site_fract_z
 _atom_site_occupancy
  K  K0  1  0.000000  0.000000  0.000000  1
  Ca  Ca1  1  0.500000  0.500000  0.000000  1
  Ac  Ac2  1  0.751665  0.248335  0.500000  1
  Ac  Ac3  1  0.248335  0.751665  0.500000  1
  B  B4  1  0.177220  0.325947  0.649113  1
  B  B5  1  0.924043  0.573748  0.147759  1
  B  B6  1  0.674053  0.822780  0.649113  1
  B  B7  1  0.426252  0.075957  0.147759  1
  B  B8  1  0.177220  0.325947  0.350887  1
  B  B9  1  0.924043  0.573748  0.852241  1
  B  B10  1  0.674053  0.822780  0.350887  1
  B  B11  1  0.426252  0.075957  0.852241  1
  B  B12  1  0.399609  0.399609  0.500000  1
  B  B13  1  0.147893  0.649810  0.000000  1
  B  B14  1  0.897907  0.897907  0.500000  1
  B  B15  1  0.649810  0.147892  0.000000  1
  B  B16  1  0.325947  0.177220  0.649113  1
  B  B17  1  0.075957  0.426252  0.147759  1
  B  B18  1  0.822780  0.674053  0.649113  1
  B  B19  1  0.573748  0.924043  0.147759  1
  B  B20  1  0.102093  0.102093  0.500000  1
  B  B21  1  0.852107  0.350190  0.000000  1
  B  B22  1  0.600391  0.600391  0.500000  1
  B  B23  1  0.350190  0.852108  0.000000  1
  B  B24  1  0.325947  0.177220  0.350887  1
  B  B25  1  0.075957  0.426252  0.852241  1
  B  B26  1  0.822780  0.674053  0.350887  1
  B  B27  1  0.573748  0.924043  0.852241  1
