# generated using pymatgen
data_Nd3Sm3Zr2(Co4P3)4
_symmetry_space_group_name_H-M   'P 1'
_cell_length_a   3.77722300
_cell_length_b   10.83388511
_cell_length_c   12.60510513
_cell_angle_alpha   89.98360496
_cell_angle_beta   90.00000000
_cell_angle_gamma   90.00000000
_symmetry_Int_Tables_number   1
_chemical_formula_structural   Nd3Sm3Zr2(Co4P3)4
_chemical_formula_sum   'Nd3 Sm3 Zr2 Co16 P12'
_cell_volume   515.82609123
_cell_formula_units_Z   1
loop_
 _symmetry_equiv_pos_site_id
 _symmetry_equiv_pos_as_xyz
  1  'x, y, z'
loop_
 _atom_site_type_symbol
 _atom_site_label
 _atom_site_symmetry_multiplicity
 _atom_site_fract_x
 _atom_site_fract_y
 _atom_site_fract_z
 _atom_site_occupancy
  Nd  Nd0  1  0.000000  0.500130  0.529128  1
  Nd  Nd1  1  0.500000  0.999958  0.470541  1
  Nd  Nd2  1  0.000000  0.321032  0.794392  1
  Sm  Sm3  1  0.500000  0.820741  0.205309  1
  Sm  Sm4  1  0.500000  0.179201  0.205202  1
  Sm  Sm5  1  0.000000  0.679420  0.794809  1
  Zr  Zr6  1  0.500000  0.500085  0.156451  1
  Zr  Zr7  1  0.000000  0.999726  0.843782  1
  Co  Co8  1  0.500000  0.501408  0.705298  1
  Co  Co9  1  0.000000  0.999951  0.294276  1
  Co  Co10  1  0.000000  0.500491  0.986718  1
  Co  Co11  1  0.500000  0.999637  0.014074  1
  Co  Co12  1  0.500000  0.332155  0.993695  1
  Co  Co13  1  0.500000  0.668228  0.993328  1
  Co  Co14  1  0.000000  0.167490  0.007386  1
  Co  Co15  1  0.000000  0.832057  0.007072  1
  Co  Co16  1  0.500000  0.295445  0.432653  1
  Co  Co17  1  0.500000  0.704600  0.433011  1
  Co  Co18  1  0.000000  0.204281  0.566198  1
  Co  Co19  1  0.000000  0.795488  0.566829  1
  Co  Co20  1  0.500000  0.879238  0.701569  1
  Co  Co21  1  0.500000  0.119773  0.700678  1
  Co  Co22  1  0.000000  0.620579  0.298535  1
  Co  Co23  1  0.000000  0.379421  0.298416  1
  P  P24  1  0.500000  0.501037  0.886614  1
  P  P25  1  0.000000  0.999869  0.114298  1
  P  P26  1  0.500000  0.500049  0.358929  1
  P  P27  1  0.000000  0.000049  0.641039  1
  P  P28  1  0.500000  0.305081  0.613441  1
  P  P29  1  0.500000  0.694458  0.614742  1
  P  P30  1  0.000000  0.194289  0.384922  1
  P  P31  1  0.000000  0.805535  0.385215  1
  P  P32  1  0.500000  0.839531  0.897098  1
  P  P33  1  0.500000  0.159469  0.898266  1
  P  P34  1  0.000000  0.660528  0.103169  1
  P  P35  1  0.000000  0.339569  0.102920  1
