# generated using pymatgen
data_DyHo9(IrPb3)2
_symmetry_space_group_name_H-M   'P 1'
_cell_length_a   9.18703000
_cell_length_b   9.18703055
_cell_length_c   6.84790800
_cell_angle_alpha   90.00000000
_cell_angle_beta   90.00000000
_cell_angle_gamma   119.99999802
_symmetry_Int_Tables_number   1
_chemical_formula_structural   DyHo9(IrPb3)2
_chemical_formula_sum   'Dy1 Ho9 Ir2 Pb6'
_cell_volume   500.54007288
_cell_formula_units_Z   1
loop_
 _symmetry_equiv_pos_site_id
 _symmetry_equiv_pos_as_xyz
  1  'x, y, z'
loop_
 _atom_site_type_symbol
 _atom_site_label
 _atom_site_symmetry_multiplicity
 _atom_site_fract_x
 _atom_site_fract_y
 _atom_site_fract_z
 _atom_site_occupancy
  Dy  Dy0  1  0.333333  0.666667  0.500000  1
  Ho  Ho1  1  0.999951  0.764569  0.750061  1
  Ho  Ho2  1  0.764618  0.764569  0.249939  1
  Ho  Ho3  1  0.764618  0.000049  0.750061  1
  Ho  Ho4  1  0.235431  0.000049  0.249939  1
  Ho  Ho5  1  0.666667  0.333333  0.500000  1
  Ho  Ho6  1  0.235431  0.235382  0.750061  1
  Ho  Ho7  1  0.333333  0.666667  0.000000  1
  Ho  Ho8  1  0.999951  0.235382  0.249939  1
  Ho  Ho9  1  0.666667  0.333333  0.000000  1
  Ir  Ir10  1  0.000000  0.000000  0.000000  1
  Ir  Ir11  1  0.000000  0.000000  0.500000  1
  Pb  Pb12  1  0.405931  0.405632  0.249713  1
  Pb  Pb13  1  0.594368  0.594069  0.750287  1
  Pb  Pb14  1  0.594368  0.000299  0.249713  1
  Pb  Pb15  1  0.405931  0.000299  0.750287  1
  Pb  Pb16  1  0.999701  0.594069  0.249713  1
  Pb  Pb17  1  0.999701  0.405632  0.750287  1
