# generated using pymatgen
data_LaPrAs7Rh12
_symmetry_space_group_name_H-M   'P 1'
_cell_length_a   10.02959400
_cell_length_b   10.02959483
_cell_length_c   3.99384500
_cell_angle_alpha   90.00000000
_cell_angle_beta   90.00000000
_cell_angle_gamma   120.00001045
_symmetry_Int_Tables_number   1
_chemical_formula_structural   LaPrAs7Rh12
_chemical_formula_sum   'La1 Pr1 As7 Rh12'
_cell_volume   347.92732184
_cell_formula_units_Z   1
loop_
 _symmetry_equiv_pos_site_id
 _symmetry_equiv_pos_as_xyz
  1  'x, y, z'
loop_
 _atom_site_type_symbol
 _atom_site_label
 _atom_site_symmetry_multiplicity
 _atom_site_fract_x
 _atom_site_fract_y
 _atom_site_fract_z
 _atom_site_occupancy
  La  La0  1  0.333333  0.666667  0.747380  1
  Pr  Pr1  1  0.666667  0.333333  0.252469  1
  As  As2  1  0.000000  0.000000  0.499453  1
  As  As3  1  0.884862  0.597003  0.751706  1
  As  As4  1  0.402997  0.287859  0.751706  1
  As  As5  1  0.712141  0.115138  0.751706  1
  As  As6  1  0.113985  0.401516  0.248577  1
  As  As7  1  0.598484  0.712468  0.248577  1
  As  As8  1  0.287532  0.886015  0.248577  1
  Rh  Rh9  1  0.618769  0.555930  0.750629  1
  Rh  Rh10  1  0.444070  0.062839  0.750629  1
  Rh  Rh11  1  0.937161  0.381231  0.750629  1
  Rh  Rh12  1  0.381582  0.443675  0.249015  1
  Rh  Rh13  1  0.556325  0.937906  0.249015  1
  Rh  Rh14  1  0.062094  0.618418  0.249015  1
  Rh  Rh15  1  0.114364  0.851636  0.752080  1
  Rh  Rh16  1  0.148364  0.262728  0.752080  1
  Rh  Rh17  1  0.737272  0.885636  0.752080  1
  Rh  Rh18  1  0.884856  0.147407  0.248225  1
  Rh  Rh19  1  0.852593  0.737449  0.248225  1
  Rh  Rh20  1  0.262551  0.115144  0.248225  1
