# generated using pymatgen
data_Ta12Mn3Ga8CoC4
_symmetry_space_group_name_H-M   'P 1'
_cell_length_a   8.19865437
_cell_length_b   8.19830002
_cell_length_c   8.19280074
_cell_angle_alpha   59.97703661
_cell_angle_beta   59.97830689
_cell_angle_gamma   60.00181172
_symmetry_Int_Tables_number   1
_chemical_formula_structural   Ta12Mn3Ga8CoC4
_chemical_formula_sum   'Ta12 Mn3 Ga8 Co1 C4'
_cell_volume   389.26294941
_cell_formula_units_Z   1
loop_
 _symmetry_equiv_pos_site_id
 _symmetry_equiv_pos_as_xyz
  1  'x, y, z'
loop_
 _atom_site_type_symbol
 _atom_site_label
 _atom_site_symmetry_multiplicity
 _atom_site_fract_x
 _atom_site_fract_y
 _atom_site_fract_z
 _atom_site_occupancy
  Ta  Ta0  1  0.559776  0.944316  0.551576  1
  Ta  Ta1  1  0.305632  0.690225  0.698504  1
  Ta  Ta2  1  0.698118  0.302226  0.301572  1
  Ta  Ta3  1  0.302180  0.698106  0.301550  1
  Ta  Ta4  1  0.698176  0.698088  0.301550  1
  Ta  Ta5  1  0.305659  0.305683  0.698447  1
  Ta  Ta6  1  0.551824  0.551912  0.948450  1
  Ta  Ta7  1  0.944368  0.559775  0.551496  1
  Ta  Ta8  1  0.551882  0.947774  0.948428  1
  Ta  Ta9  1  0.944341  0.944317  0.551553  1
  Ta  Ta10  1  0.690224  0.305684  0.698424  1
  Ta  Ta11  1  0.947820  0.551894  0.948450  1
  Mn  Mn12  1  0.125000  0.125000  0.125000  1
  Mn  Mn13  1  0.625000  0.125000  0.125000  1
  Mn  Mn14  1  0.125000  0.625000  0.125000  1
  Ga  Ga15  1  0.917046  0.917122  0.911526  1
  Ga  Ga16  1  0.995702  0.332927  0.338516  1
  Ga  Ga17  1  0.332997  0.995640  0.338515  1
  Ga  Ga18  1  0.332631  0.332560  0.002319  1
  Ga  Ga19  1  0.917003  0.254360  0.911485  1
  Ga  Ga20  1  0.917369  0.917440  0.247681  1
  Ga  Ga21  1  0.254298  0.917073  0.911484  1
  Ga  Ga22  1  0.332954  0.332878  0.338474  1
  Co  Co23  1  0.125000  0.125000  0.625000  1
  C  C24  1  0.625000  0.625000  0.625000  1
  C  C25  1  0.125000  0.625000  0.625000  1
  C  C26  1  0.625000  0.125000  0.625000  1
  C  C27  1  0.625000  0.625000  0.125000  1
