# generated using pymatgen
data_K6SrCl8
_symmetry_space_group_name_H-M   'P 1'
_cell_length_a   9.04528647
_cell_length_b   9.04528670
_cell_length_c   9.04528700
_cell_angle_alpha   60.00000255
_cell_angle_beta   60.00000171
_cell_angle_gamma   60.00000409
_symmetry_Int_Tables_number   1
_chemical_formula_structural   K6SrCl8
_chemical_formula_sum   'K6 Sr1 Cl8'
_cell_volume   523.30157656
_cell_formula_units_Z   1
loop_
 _symmetry_equiv_pos_site_id
 _symmetry_equiv_pos_as_xyz
  1  'x, y, z'
loop_
 _atom_site_type_symbol
 _atom_site_label
 _atom_site_symmetry_multiplicity
 _atom_site_fract_x
 _atom_site_fract_y
 _atom_site_fract_z
 _atom_site_occupancy
  K  K0  1  0.500001  0.000000  0.000000  1
  K  K1  1  0.000000  0.500001  0.000000  1
  K  K2  1  0.500000  0.500000  0.000000  1
  K  K3  1  0.000000  0.000000  0.500001  1
  K  K4  1  0.500000  0.000000  0.500000  1
  K  K5  1  0.000000  0.500000  0.500000  1
  Sr  Sr6  1  0.000000  0.000000  0.000000  1
  Cl  Cl7  1  0.773652  0.226347  0.226347  1
  Cl  Cl8  1  0.226347  0.773652  0.226347  1
  Cl  Cl9  1  0.773652  0.773652  0.226347  1
  Cl  Cl10  1  0.250000  0.250000  0.250000  1
  Cl  Cl11  1  0.750000  0.750000  0.750000  1
  Cl  Cl12  1  0.226347  0.226347  0.773652  1
  Cl  Cl13  1  0.773652  0.226347  0.773652  1
  Cl  Cl14  1  0.226347  0.773652  0.773652  1
