# generated using pymatgen
data_Nd10As9Cl
_symmetry_space_group_name_H-M   'P 1'
_cell_length_a   7.23105176
_cell_length_b   8.39531757
_cell_length_c   9.31435100
_cell_angle_alpha   102.77880901
_cell_angle_beta   97.58061705
_cell_angle_gamma   106.95573278
_symmetry_Int_Tables_number   1
_chemical_formula_structural   Nd10As9Cl
_chemical_formula_sum   'Nd10 As9 Cl1'
_cell_volume   515.64336615
_cell_formula_units_Z   1
loop_
 _symmetry_equiv_pos_site_id
 _symmetry_equiv_pos_as_xyz
  1  'x, y, z'
loop_
 _atom_site_type_symbol
 _atom_site_label
 _atom_site_symmetry_multiplicity
 _atom_site_fract_x
 _atom_site_fract_y
 _atom_site_fract_z
 _atom_site_occupancy
  Nd  Nd0  1  0.901775  0.549153  0.799704  1
  Nd  Nd1  1  0.690583  0.154358  0.397757  1
  Nd  Nd2  1  0.501247  0.748737  0.001499  1
  Nd  Nd3  1  0.693549  0.639878  0.396490  1
  Nd  Nd4  1  0.306451  0.360122  0.603510  1
  Nd  Nd5  1  0.101981  0.946542  0.191261  1
  Nd  Nd6  1  0.498753  0.251263  0.998501  1
  Nd  Nd7  1  0.309417  0.845642  0.602243  1
  Nd  Nd8  1  0.098225  0.450847  0.200296  1
  Nd  Nd9  1  0.898019  0.053458  0.808739  1
  As  As10  1  0.800366  0.601919  0.101974  1
  As  As11  1  0.598812  0.197955  0.698798  1
  As  As12  1  0.401188  0.802045  0.301202  1
  As  As13  1  0.801578  0.099529  0.102467  1
  As  As14  1  0.199634  0.398081  0.898026  1
  As  As15  1  0.603422  0.702219  0.699573  1
  As  As16  1  0.396578  0.297781  0.300427  1
  As  As17  1  0.198422  0.900471  0.897533  1
  As  As18  1  0.000000  0.500000  0.500000  1
  Cl  Cl19  1  0.000000  0.000000  0.500000  1
