# generated using pymatgen
data_Ce3Er(HgRh2)2
_symmetry_space_group_name_H-M   'P 1'
_cell_length_a   7.67542993
_cell_length_b   7.67542993
_cell_length_c   3.65109300
_cell_angle_alpha   90.00000000
_cell_angle_beta   90.00000000
_cell_angle_gamma   91.69326422
_symmetry_Int_Tables_number   1
_chemical_formula_structural   Ce3Er(HgRh2)2
_chemical_formula_sum   'Ce3 Er1 Hg2 Rh4'
_cell_volume   215.00008825
_cell_formula_units_Z   1
loop_
 _symmetry_equiv_pos_site_id
 _symmetry_equiv_pos_as_xyz
  1  'x, y, z'
loop_
 _atom_site_type_symbol
 _atom_site_label
 _atom_site_symmetry_multiplicity
 _atom_site_fract_x
 _atom_site_fract_y
 _atom_site_fract_z
 _atom_site_occupancy
  Ce  Ce0  1  0.831828  0.328415  0.499999  1
  Ce  Ce1  1  0.171585  0.668173  0.499999  1
  Ce  Ce2  1  0.669249  0.830752  0.499999  1
  Er  Er3  1  0.330519  0.169481  0.499999  1
  Hg  Hg4  1  0.005224  0.002177  0.000000  1
  Hg  Hg5  1  0.497823  0.494776  0.000000  1
  Rh  Rh6  1  0.639332  0.135178  0.000000  1
  Rh  Rh7  1  0.127708  0.372293  0.000000  1
  Rh  Rh8  1  0.861910  0.638090  0.000000  1
  Rh  Rh9  1  0.364823  0.860668  0.000000  1
