# generated using pymatgen
data_Sc8Cr12Si15Ge
_symmetry_space_group_name_H-M   'P 1'
_cell_length_a   6.39736134
_cell_length_b   6.53847784
_cell_length_c   12.21726648
_cell_angle_alpha   90.09723078
_cell_angle_beta   90.02576470
_cell_angle_gamma   89.95886738
_symmetry_Int_Tables_number   1
_chemical_formula_structural   Sc8Cr12Si15Ge
_chemical_formula_sum   'Sc8 Cr12 Si15 Ge1'
_cell_volume   511.03518544
_cell_formula_units_Z   1
loop_
 _symmetry_equiv_pos_site_id
 _symmetry_equiv_pos_as_xyz
  1  'x, y, z'
loop_
 _atom_site_type_symbol
 _atom_site_label
 _atom_site_symmetry_multiplicity
 _atom_site_fract_x
 _atom_site_fract_y
 _atom_site_fract_z
 _atom_site_occupancy
  Sc  Sc0  1  0.007457  0.166879  0.093402  1
  Sc  Sc1  1  0.506048  0.332436  0.404674  1
  Sc  Sc2  1  0.492477  0.666125  0.906983  1
  Sc  Sc3  1  0.992483  0.834007  0.593883  1
  Sc  Sc4  1  0.992500  0.833390  0.907161  1
  Sc  Sc5  1  0.487754  0.668713  0.594559  1
  Sc  Sc6  1  0.507892  0.333695  0.093553  1
  Sc  Sc7  1  0.008577  0.166050  0.405457  1
  Cr  Cr8  1  0.671057  0.002982  0.249651  1
  Cr  Cr9  1  0.170534  0.498162  0.249839  1
  Cr  Cr10  1  0.829329  0.500807  0.752176  1
  Cr  Cr11  1  0.329076  0.998200  0.750044  1
  Cr  Cr12  1  0.830685  0.660892  0.123879  1
  Cr  Cr13  1  0.330749  0.840740  0.375009  1
  Cr  Cr14  1  0.670230  0.159991  0.876359  1
  Cr  Cr15  1  0.173234  0.339689  0.625034  1
  Cr  Cr16  1  0.170050  0.338961  0.876096  1
  Cr  Cr17  1  0.666322  0.154329  0.626272  1
  Cr  Cr18  1  0.331385  0.838560  0.123738  1
  Cr  Cr19  1  0.833014  0.664555  0.373162  1
  Si  Si20  1  0.808655  0.367557  0.249695  1
  Si  Si21  1  0.308061  0.133329  0.248963  1
  Si  Si22  1  0.692299  0.864324  0.751130  1
  Si  Si23  1  0.190277  0.633240  0.750749  1
  Si  Si24  1  0.035335  0.862130  0.248737  1
  Si  Si25  1  0.534609  0.639346  0.249720  1
  Si  Si26  1  0.466719  0.361508  0.750959  1
  Si  Si27  1  0.966010  0.138784  0.750211  1
  Si  Si28  1  0.837299  0.454990  0.953205  1
  Si  Si29  1  0.336090  0.045339  0.546727  1
  Si  Si30  1  0.663356  0.955530  0.047441  1
  Si  Si31  1  0.165980  0.546193  0.451457  1
  Si  Si32  1  0.163097  0.544245  0.047470  1
  Si  Si33  1  0.663160  0.955099  0.452675  1
  Si  Si34  1  0.337608  0.044393  0.952635  1
  Ge  Ge35  1  0.830588  0.454828  0.547298  1
