# generated using pymatgen
data_Dy11Ni(Hg3Ir)3
_symmetry_space_group_name_H-M   'P 1'
_cell_length_a   3.66880200
_cell_length_b   13.03783790
_cell_length_c   12.97373588
_cell_angle_alpha   112.51470805
_cell_angle_beta   90.00000000
_cell_angle_gamma   90.00000000
_symmetry_Int_Tables_number   1
_chemical_formula_structural   Dy11Ni(Hg3Ir)3
_chemical_formula_sum   'Dy11 Ni1 Hg9 Ir3'
_cell_volume   573.27638753
_cell_formula_units_Z   1
loop_
 _symmetry_equiv_pos_site_id
 _symmetry_equiv_pos_as_xyz
  1  'x, y, z'
loop_
 _atom_site_type_symbol
 _atom_site_label
 _atom_site_symmetry_multiplicity
 _atom_site_fract_x
 _atom_site_fract_y
 _atom_site_fract_z
 _atom_site_occupancy
  Dy  Dy0  1  0.000000  0.915811  0.582912  1
  Dy  Dy1  1  0.000000  0.084240  0.416189  1
  Dy  Dy2  1  0.000000  0.582777  0.915219  1
  Dy  Dy3  1  0.000000  0.417347  0.085890  1
  Dy  Dy4  1  0.000000  0.166580  0.835738  1
  Dy  Dy5  1  0.000000  0.832308  0.165117  1
  Dy  Dy6  1  0.000000  0.368395  0.631755  1
  Dy  Dy7  1  0.000000  0.633616  0.368132  1
  Dy  Dy8  1  0.000000  0.700830  0.700463  1
  Dy  Dy9  1  0.000000  0.296108  0.297571  1
  Dy  Dy10  1  0.000000  0.000949  0.000185  1
  Ni  Ni11  1  0.500000  0.452235  0.255257  1
  Hg  Hg12  1  0.500000  0.147496  0.632718  1
  Hg  Hg13  1  0.500000  0.853676  0.368285  1
  Hg  Hg14  1  0.500000  0.628844  0.151945  1
  Hg  Hg15  1  0.500000  0.368070  0.855453  1
  Hg  Hg16  1  0.500000  0.941285  0.789531  1
  Hg  Hg17  1  0.500000  0.058342  0.210168  1
  Hg  Hg18  1  0.500000  0.789262  0.941098  1
  Hg  Hg19  1  0.500000  0.215534  0.065941  1
  Hg  Hg20  1  0.500000  0.497958  0.491911  1
  Ir  Ir21  1  0.500000  0.742771  0.546794  1
  Ir  Ir22  1  0.500000  0.256672  0.449375  1
  Ir  Ir23  1  0.500000  0.548894  0.742353  1
