# generated using pymatgen
data_Ca2TbDy(NiB4)4
_symmetry_space_group_name_H-M   'P 1'
_cell_length_a   6.85072963
_cell_length_b   6.85072955
_cell_length_c   6.85073100
_cell_angle_alpha   112.89751694
_cell_angle_beta   112.89751801
_cell_angle_gamma   102.81666378
_symmetry_Int_Tables_number   1
_chemical_formula_structural   Ca2TbDy(NiB4)4
_chemical_formula_sum   'Ca2 Tb1 Dy1 Ni4 B16'
_cell_volume   245.04378612
_cell_formula_units_Z   1
loop_
 _symmetry_equiv_pos_site_id
 _symmetry_equiv_pos_as_xyz
  1  'x, y, z'
loop_
 _atom_site_type_symbol
 _atom_site_label
 _atom_site_symmetry_multiplicity
 _atom_site_fract_x
 _atom_site_fract_y
 _atom_site_fract_z
 _atom_site_occupancy
  Ca  Ca0  1  0.797768  0.797768  0.000000  1
  Ca  Ca1  1  0.202232  0.202232  0.000000  1
  Tb  Tb2  1  0.750000  0.250000  0.500000  1
  Dy  Dy3  1  0.250000  0.750000  0.500000  1
  Ni  Ni4  1  0.272724  0.500047  0.772678  1
  Ni  Ni5  1  0.727369  0.500047  0.227322  1
  Ni  Ni6  1  0.499953  0.727276  0.227322  1
  Ni  Ni7  1  0.499953  0.272631  0.772678  1
  B  B8  1  0.276987  0.112455  0.389448  1
  B  B9  1  0.723006  0.887538  0.610552  1
  B  B10  1  0.276987  0.887538  0.164532  1
  B  B11  1  0.723006  0.112455  0.835468  1
  B  B12  1  0.112462  0.723013  0.835468  1
  B  B13  1  0.887545  0.276994  0.164532  1
  B  B14  1  0.112462  0.276994  0.389448  1
  B  B15  1  0.887545  0.723013  0.610552  1
  B  B16  1  0.113211  0.113173  0.530183  1
  B  B17  1  0.582989  0.583027  0.469817  1
  B  B18  1  0.113211  0.583027  0.000038  1
  B  B19  1  0.582989  0.113173  0.999962  1
  B  B20  1  0.886827  0.886789  0.469817  1
  B  B21  1  0.416973  0.417011  0.530183  1
  B  B22  1  0.886827  0.417011  0.000038  1
  B  B23  1  0.416973  0.886789  0.999962  1
