# generated using pymatgen
data_Li3GaPd
_symmetry_space_group_name_H-M   'P 1'
_cell_length_a   5.26277785
_cell_length_b   5.26277784
_cell_length_c   5.26277753
_cell_angle_alpha   48.43816019
_cell_angle_beta   48.43815856
_cell_angle_gamma   48.43817574
_symmetry_Int_Tables_number   1
_chemical_formula_structural   Li3GaPd
_chemical_formula_sum   'Li3 Ga1 Pd1'
_cell_volume   74.83553594
_cell_formula_units_Z   1
loop_
 _symmetry_equiv_pos_site_id
 _symmetry_equiv_pos_as_xyz
  1  'x, y, z'
loop_
 _atom_site_type_symbol
 _atom_site_label
 _atom_site_symmetry_multiplicity
 _atom_site_fract_x
 _atom_site_fract_y
 _atom_site_fract_z
 _atom_site_occupancy
  Li  Li0  1  0.000362  0.000362  0.000362  1
  Li  Li1  1  0.596781  0.596781  0.596781  1
  Li  Li2  1  0.402404  0.402404  0.402404  1
  Ga  Ga3  1  0.809417  0.809417  0.809417  1
  Pd  Pd4  1  0.191036  0.191036  0.191036  1
