# generated using pymatgen
data_TiRe(IrRh2)2
_symmetry_space_group_name_H-M   'P 1'
_cell_length_a   5.49394807
_cell_length_b   5.49394693
_cell_length_c   4.40002800
_cell_angle_alpha   90.00000000
_cell_angle_beta   90.00000000
_cell_angle_gamma   119.98232412
_symmetry_Int_Tables_number   1
_chemical_formula_structural   TiRe(IrRh2)2
_chemical_formula_sum   'Ti1 Re1 Ir2 Rh4'
_cell_volume   115.03563863
_cell_formula_units_Z   1
loop_
 _symmetry_equiv_pos_site_id
 _symmetry_equiv_pos_as_xyz
  1  'x, y, z'
loop_
 _atom_site_type_symbol
 _atom_site_label
 _atom_site_symmetry_multiplicity
 _atom_site_fract_x
 _atom_site_fract_y
 _atom_site_fract_z
 _atom_site_occupancy
  Ti  Ti0  1  0.334714  0.665286  0.750000  1
  Re  Re1  1  0.665897  0.334103  0.250000  1
  Ir  Ir2  1  0.832890  0.664070  0.750000  1
  Ir  Ir3  1  0.335930  0.167110  0.750000  1
  Rh  Rh4  1  0.164567  0.331398  0.250000  1
  Rh  Rh5  1  0.668602  0.835433  0.250000  1
  Rh  Rh6  1  0.165266  0.834734  0.250000  1
  Rh  Rh7  1  0.832133  0.167867  0.750000  1
