# generated using pymatgen
data_YPa(TaN3)2
_symmetry_space_group_name_H-M   'P 1'
_cell_length_a   5.52791200
_cell_length_b   5.74352100
_cell_length_c   7.96196000
_cell_angle_alpha   90.00000000
_cell_angle_beta   90.00000000
_cell_angle_gamma   90.00000000
_symmetry_Int_Tables_number   1
_chemical_formula_structural   YPa(TaN3)2
_chemical_formula_sum   'Y2 Pa2 Ta4 N12'
_cell_volume   252.78967149
_cell_formula_units_Z   2
loop_
 _symmetry_equiv_pos_site_id
 _symmetry_equiv_pos_as_xyz
  1  'x, y, z'
loop_
 _atom_site_type_symbol
 _atom_site_label
 _atom_site_symmetry_multiplicity
 _atom_site_fract_x
 _atom_site_fract_y
 _atom_site_fract_z
 _atom_site_occupancy
  Y  Y0  1  0.511877  0.552836  0.750000  1
  Y  Y1  1  0.988123  0.052836  0.750000  1
  Pa  Pa2  1  0.486467  0.436214  0.250000  1
  Pa  Pa3  1  0.013533  0.936214  0.250000  1
  Ta  Ta4  1  0.505763  0.994412  0.506813  1
  Ta  Ta5  1  0.994237  0.494412  0.993187  1
  Ta  Ta6  1  0.994237  0.494412  0.506813  1
  Ta  Ta7  1  0.505763  0.994412  0.993187  1
  N  N8  1  0.692144  0.306584  0.547171  1
  N  N9  1  0.302937  0.698784  0.069976  1
  N  N10  1  0.197063  0.198784  0.069976  1
  N  N11  1  0.397088  0.964107  0.750000  1
  N  N12  1  0.878123  0.547285  0.250000  1
  N  N13  1  0.302937  0.698784  0.430024  1
  N  N14  1  0.807856  0.806584  0.952829  1
  N  N15  1  0.692144  0.306584  0.952829  1
  N  N16  1  0.807856  0.806584  0.547171  1
  N  N17  1  0.102912  0.464107  0.750000  1
  N  N18  1  0.197063  0.198784  0.430024  1
  N  N19  1  0.621877  0.047285  0.250000  1
