# generated using pymatgen
data_Ac(PIr)2
_symmetry_space_group_name_H-M   'P 1'
_cell_length_a   6.86748400
_cell_length_b   6.86748434
_cell_length_c   7.23237800
_cell_angle_alpha   90.00000000
_cell_angle_beta   90.00000000
_cell_angle_gamma   119.99999835
_symmetry_Int_Tables_number   1
_chemical_formula_structural   Ac(PIr)2
_chemical_formula_sum   'Ac3 P6 Ir6'
_cell_volume   295.39768644
_cell_formula_units_Z   3
loop_
 _symmetry_equiv_pos_site_id
 _symmetry_equiv_pos_as_xyz
  1  'x, y, z'
loop_
 _atom_site_type_symbol
 _atom_site_label
 _atom_site_symmetry_multiplicity
 _atom_site_fract_x
 _atom_site_fract_y
 _atom_site_fract_z
 _atom_site_occupancy
  Ac  Ac0  1  0.394972  0.394972  0.500000  1
  Ac  Ac1  1  0.605028  0.000000  0.166667  1
  Ac  Ac2  1  0.000000  0.605028  0.833333  1
  P  P3  1  0.867387  0.211057  0.551476  1
  P  P4  1  0.211057  0.867387  0.448524  1
  P  P5  1  0.132613  0.343670  0.115191  1
  P  P6  1  0.788943  0.656330  0.218142  1
  P  P7  1  0.343670  0.132613  0.884809  1
  P  P8  1  0.656330  0.788943  0.781858  1
  Ir  Ir9  1  0.871973  0.871973  0.500000  1
  Ir  Ir10  1  0.128027  0.000000  0.166667  1
  Ir  Ir11  1  0.508172  0.508172  0.000000  1
  Ir  Ir12  1  0.000000  0.491828  0.333333  1
  Ir  Ir13  1  0.491828  0.000000  0.666667  1
  Ir  Ir14  1  0.000000  0.128027  0.833333  1
