# generated using pymatgen
data_Ho5Ge3P9Ir16Ru3
_symmetry_space_group_name_H-M   'P 1'
_cell_length_a   12.77766000
_cell_length_b   12.77766123
_cell_length_c   3.97257900
_cell_angle_alpha   90.00000000
_cell_angle_beta   90.00000000
_cell_angle_gamma   120.00000649
_symmetry_Int_Tables_number   1
_chemical_formula_structural   Ho5Ge3P9Ir16Ru3
_chemical_formula_sum   'Ho5 Ge3 P9 Ir16 Ru3'
_cell_volume   561.70183565
_cell_formula_units_Z   1
loop_
 _symmetry_equiv_pos_site_id
 _symmetry_equiv_pos_as_xyz
  1  'x, y, z'
loop_
 _atom_site_type_symbol
 _atom_site_label
 _atom_site_symmetry_multiplicity
 _atom_site_fract_x
 _atom_site_fract_y
 _atom_site_fract_z
 _atom_site_occupancy
  Ho  Ho0  1  0.666667  0.333333  0.000000  1
  Ho  Ho1  1  0.333333  0.666667  0.000000  1
  Ho  Ho2  1  0.816510  0.815682  0.500000  1
  Ho  Ho3  1  0.184318  0.000828  0.500000  1
  Ho  Ho4  1  0.999172  0.183490  0.500000  1
  Ge  Ge5  1  0.679920  0.164011  0.500000  1
  Ge  Ge6  1  0.835989  0.515909  0.500000  1
  Ge  Ge7  1  0.484091  0.320080  0.500000  1
  P  P8  1  0.169436  0.686093  0.500000  1
  P  P9  1  0.516657  0.830564  0.500000  1
  P  P10  1  0.313907  0.483343  0.500000  1
  P  P11  1  0.175900  0.179383  0.000000  1
  P  P12  1  0.820617  0.996517  0.000000  1
  P  P13  1  0.003483  0.824100  0.000000  1
  P  P14  1  0.639025  0.635966  0.000000  1
  P  P15  1  0.364034  0.003058  0.000000  1
  P  P16  1  0.996942  0.360975  0.000000  1
  Ir  Ir17  1  0.882598  0.355686  0.500000  1
  Ir  Ir18  1  0.644314  0.526912  0.500000  1
  Ir  Ir19  1  0.473088  0.117402  0.500000  1
  Ir  Ir20  1  0.357888  0.862529  0.500000  1
  Ir  Ir21  1  0.504640  0.642112  0.500000  1
  Ir  Ir22  1  0.137471  0.495360  0.500000  1
  Ir  Ir23  1  0.810377  0.175008  0.000000  1
  Ir  Ir24  1  0.824992  0.635367  0.000000  1
  Ir  Ir25  1  0.364633  0.189623  0.000000  1
  Ir  Ir26  1  0.185569  0.811188  0.000000  1
  Ir  Ir27  1  0.625617  0.814431  0.000000  1
  Ir  Ir28  1  0.188812  0.374383  0.000000  1
  Ir  Ir29  1  0.275226  0.284671  0.500000  1
  Ir  Ir30  1  0.715329  0.990555  0.500000  1
  Ir  Ir31  1  0.009445  0.724774  0.500000  1
  Ir  Ir32  1  0.000000  0.000000  0.000000  1
  Ru  Ru33  1  0.451578  0.460143  0.000000  1
  Ru  Ru34  1  0.539857  0.991435  0.000000  1
  Ru  Ru35  1  0.008565  0.548422  0.000000  1
