# generated using pymatgen
data_Tb6Gd4(GaSb)3
_symmetry_space_group_name_H-M   'P 1'
_cell_length_a   8.81780100
_cell_length_b   8.81606384
_cell_length_c   6.49030300
_cell_angle_alpha   90.00000000
_cell_angle_beta   90.00000000
_cell_angle_gamma   120.00651464
_symmetry_Int_Tables_number   1
_chemical_formula_structural   Tb6Gd4(GaSb)3
_chemical_formula_sum   'Tb6 Gd4 Ga3 Sb3'
_cell_volume   436.92018687
_cell_formula_units_Z   1
loop_
 _symmetry_equiv_pos_site_id
 _symmetry_equiv_pos_as_xyz
  1  'x, y, z'
loop_
 _atom_site_type_symbol
 _atom_site_label
 _atom_site_symmetry_multiplicity
 _atom_site_fract_x
 _atom_site_fract_y
 _atom_site_fract_z
 _atom_site_occupancy
  Tb  Tb0  1  0.010549  0.768155  0.750000  1
  Tb  Tb1  1  0.012113  0.248753  0.250000  1
  Tb  Tb2  1  0.763361  0.751247  0.250000  1
  Tb  Tb3  1  0.754638  0.000000  0.750000  1
  Tb  Tb4  1  0.242394  0.231845  0.750000  1
  Tb  Tb5  1  0.235396  0.000000  0.250000  1
  Gd  Gd6  1  0.327497  0.666827  0.496853  1
  Gd  Gd7  1  0.660672  0.333173  0.003147  1
  Gd  Gd8  1  0.660672  0.333173  0.496853  1
  Gd  Gd9  1  0.327497  0.666827  0.003147  1
  Ga  Ga10  1  0.397986  0.000000  0.750000  1
  Ga  Ga11  1  0.395607  0.396665  0.250000  1
  Ga  Ga12  1  0.998942  0.603335  0.250000  1
  Sb  Sb13  1  0.997409  0.392326  0.750000  1
  Sb  Sb14  1  0.605083  0.607674  0.750000  1
  Sb  Sb15  1  0.610183  0.000000  0.250000  1
