# generated using pymatgen
data_Tm4Lu4B24Rh3W
_symmetry_space_group_name_H-M   'P 1'
_cell_length_a   3.60535200
_cell_length_b   9.09714770
_cell_length_c   11.46253735
_cell_angle_alpha   90.23182418
_cell_angle_beta   90.00000000
_cell_angle_gamma   90.00000000
_symmetry_Int_Tables_number   1
_chemical_formula_structural   Tm4Lu4B24Rh3W
_chemical_formula_sum   'Tm4 Lu4 B24 Rh3 W1'
_cell_volume   375.95003300
_cell_formula_units_Z   1
loop_
 _symmetry_equiv_pos_site_id
 _symmetry_equiv_pos_as_xyz
  1  'x, y, z'
loop_
 _atom_site_type_symbol
 _atom_site_label
 _atom_site_symmetry_multiplicity
 _atom_site_fract_x
 _atom_site_fract_y
 _atom_site_fract_z
 _atom_site_occupancy
  Tm  Tm0  1  0.500000  0.318921  0.411083  1
  Tm  Tm1  1  0.500000  0.677505  0.585096  1
  Tm  Tm2  1  0.500000  0.179022  0.916422  1
  Tm  Tm3  1  0.500000  0.822819  0.086547  1
  Lu  Lu4  1  0.500000  0.445594  0.125558  1
  Lu  Lu5  1  0.500000  0.556743  0.872038  1
  Lu  Lu6  1  0.500000  0.055633  0.628586  1
  Lu  Lu7  1  0.500000  0.944980  0.374510  1
  B  B8  1  0.000000  0.105121  0.473374  1
  B  B9  1  0.000000  0.893775  0.529894  1
  B  B10  1  0.000000  0.396930  0.969649  1
  B  B11  1  0.000000  0.606696  0.027993  1
  B  B12  1  0.000000  0.131888  0.318161  1
  B  B13  1  0.000000  0.866748  0.683187  1
  B  B14  1  0.000000  0.368487  0.816730  1
  B  B15  1  0.000000  0.632741  0.183112  1
  B  B16  1  0.000000  0.051472  0.063864  1
  B  B17  1  0.000000  0.945993  0.933146  1
  B  B18  1  0.000000  0.445318  0.565334  1
  B  B19  1  0.000000  0.553347  0.434387  1
  B  B20  1  0.000000  0.483277  0.287284  1
  B  B21  1  0.000000  0.517681  0.712564  1
  B  B22  1  0.000000  0.017684  0.786974  1
  B  B23  1  0.000000  0.978829  0.214328  1
  B  B24  1  0.000000  0.252768  0.077820  1
  B  B25  1  0.000000  0.750290  0.919920  1
  B  B26  1  0.000000  0.249464  0.579323  1
  B  B27  1  0.000000  0.749745  0.421147  1
  B  B28  1  0.000000  0.296991  0.236449  1
  B  B29  1  0.000000  0.705207  0.763355  1
  B  B30  1  0.000000  0.206662  0.736439  1
  B  B31  1  0.000000  0.792684  0.265733  1
  Rh  Rh32  1  0.500000  0.860142  0.820275  1
  Rh  Rh33  1  0.500000  0.360482  0.679719  1
  Rh  Rh34  1  0.500000  0.639646  0.320667  1
  W  W35  1  0.500000  0.138714  0.179331  1
