# generated using pymatgen
data_Tb3Ho14Er3Pb16
_symmetry_space_group_name_H-M   'P 1'
_cell_length_a   8.19276429
_cell_length_b   8.26154309
_cell_length_c   15.61042200
_cell_angle_alpha   89.99757267
_cell_angle_beta   90.01521777
_cell_angle_gamma   89.99191416
_symmetry_Int_Tables_number   1
_chemical_formula_structural   Tb3Ho14Er3Pb16
_chemical_formula_sum   'Tb3 Ho14 Er3 Pb16'
_cell_volume   1056.58941610
_cell_formula_units_Z   1
loop_
 _symmetry_equiv_pos_site_id
 _symmetry_equiv_pos_as_xyz
  1  'x, y, z'
loop_
 _atom_site_type_symbol
 _atom_site_label
 _atom_site_symmetry_multiplicity
 _atom_site_fract_x
 _atom_site_fract_y
 _atom_site_fract_z
 _atom_site_occupancy
  Tb  Tb0  1  0.964291  0.823953  0.400129  1
  Tb  Tb1  1  0.535778  0.323886  0.599743  1
  Tb  Tb2  1  0.035674  0.175855  0.900176  1
  Ho  Ho3  1  0.377524  0.841360  0.879069  1
  Ho  Ho4  1  0.877010  0.658566  0.620893  1
  Ho  Ho5  1  0.622779  0.158410  0.378891  1
  Ho  Ho6  1  0.122837  0.341682  0.121273  1
  Ho  Ho7  1  0.622651  0.158449  0.121097  1
  Ho  Ho8  1  0.122836  0.341535  0.379013  1
  Ho  Ho9  1  0.377425  0.841468  0.620830  1
  Ho  Ho10  1  0.877291  0.658640  0.879090  1
  Ho  Ho11  1  0.536176  0.323982  0.899977  1
  Ho  Ho12  1  0.036004  0.175840  0.600012  1
  Ho  Ho13  1  0.463957  0.675911  0.399925  1
  Ho  Ho14  1  0.963864  0.824008  0.100165  1
  Ho  Ho15  1  0.463852  0.675813  0.100099  1
  Ho  Ho16  1  0.209014  0.504196  0.749936  1
  Er  Er17  1  0.709019  0.995537  0.749975  1
  Er  Er18  1  0.790850  0.495715  0.249892  1
  Er  Er19  1  0.291068  0.004264  0.249919  1
  Pb  Pb20  1  0.281431  0.032938  0.043512  1
  Pb  Pb21  1  0.781066  0.466613  0.456654  1
  Pb  Pb22  1  0.718792  0.966718  0.542979  1
  Pb  Pb23  1  0.219307  0.533699  0.957305  1
  Pb  Pb24  1  0.717942  0.966204  0.957142  1
  Pb  Pb25  1  0.218021  0.534253  0.542217  1
  Pb  Pb26  1  0.282236  0.034197  0.457125  1
  Pb  Pb27  1  0.781243  0.466556  0.043162  1
  Pb  Pb28  1  0.572478  0.626164  0.749745  1
  Pb  Pb29  1  0.072096  0.874137  0.749792  1
  Pb  Pb30  1  0.428000  0.374162  0.250294  1
  Pb  Pb31  1  0.927946  0.125968  0.250332  1
  Pb  Pb32  1  0.348024  0.153362  0.749976  1
  Pb  Pb33  1  0.847848  0.346206  0.749568  1
  Pb  Pb34  1  0.651526  0.845801  0.250125  1
  Pb  Pb35  1  0.152141  0.653950  0.249966  1
