# generated using pymatgen
data_Pa2C2Se
_symmetry_space_group_name_H-M   'P 1'
_cell_length_a   7.12047057
_cell_length_b   7.12047079
_cell_length_c   6.50105292
_cell_angle_alpha   79.62165640
_cell_angle_beta   79.62165740
_cell_angle_gamma   33.31178566
_symmetry_Int_Tables_number   1
_chemical_formula_structural   Pa2C2Se
_chemical_formula_sum   'Pa4 C4 Se2'
_cell_volume   177.79133586
_cell_formula_units_Z   2
loop_
 _symmetry_equiv_pos_site_id
 _symmetry_equiv_pos_as_xyz
  1  'x, y, z'
loop_
 _atom_site_type_symbol
 _atom_site_label
 _atom_site_symmetry_multiplicity
 _atom_site_fract_x
 _atom_site_fract_y
 _atom_site_fract_z
 _atom_site_occupancy
  Pa  Pa0  1  0.840411  0.449542  0.354210  1
  Pa  Pa1  1  0.550458  0.159589  0.145790  1
  Pa  Pa2  1  0.159589  0.550458  0.645790  1
  Pa  Pa3  1  0.449542  0.840411  0.854210  1
  C  C4  1  0.345481  0.095581  0.469149  1
  C  C5  1  0.904419  0.654519  0.030851  1
  C  C6  1  0.654519  0.904419  0.530851  1
  C  C7  1  0.095581  0.345481  0.969149  1
  Se  Se8  1  0.204161  0.795839  0.250000  1
  Se  Se9  1  0.795839  0.204161  0.750000  1
