# generated using pymatgen
data_La14Nd6Ir11Os
_symmetry_space_group_name_H-M   'P 1'
_cell_length_a   11.41415616
_cell_length_b   11.40202268
_cell_length_c   6.63423300
_cell_angle_alpha   90.00000000
_cell_angle_beta   90.00000000
_cell_angle_gamma   90.11887800
_symmetry_Int_Tables_number   1
_chemical_formula_structural   La14Nd6Ir11Os
_chemical_formula_sum   'La14 Nd6 Ir11 Os1'
_cell_volume   863.40686180
_cell_formula_units_Z   1
loop_
 _symmetry_equiv_pos_site_id
 _symmetry_equiv_pos_as_xyz
  1  'x, y, z'
loop_
 _atom_site_type_symbol
 _atom_site_label
 _atom_site_symmetry_multiplicity
 _atom_site_fract_x
 _atom_site_fract_y
 _atom_site_fract_z
 _atom_site_occupancy
  La  La0  1  0.091207  0.292875  0.111961  1
  La  La1  1  0.791964  0.410950  0.112410  1
  La  La2  1  0.208036  0.589050  0.112410  1
  La  La3  1  0.908793  0.707125  0.111961  1
  La  La4  1  0.409478  0.790905  0.390104  1
  La  La5  1  0.590522  0.209095  0.390104  1
  La  La6  1  0.290422  0.091864  0.390284  1
  La  La7  1  0.709578  0.908136  0.390284  1
  La  La8  1  0.408134  0.210082  0.888601  1
  La  La9  1  0.709739  0.091713  0.889243  1
  La  La10  1  0.290261  0.908287  0.889243  1
  La  La11  1  0.591866  0.789918  0.888601  1
  La  La12  1  0.087797  0.705580  0.607020  1
  La  La13  1  0.912203  0.294420  0.607020  1
  Nd  Nd14  1  0.208200  0.411076  0.608847  1
  Nd  Nd15  1  0.791800  0.588924  0.608847  1
  Nd  Nd16  1  0.000000  0.000000  0.002021  1
  Nd  Nd17  1  0.500000  0.500000  0.999141  1
  Nd  Nd18  1  0.500000  0.500000  0.501475  1
  Nd  Nd19  1  0.000000  0.000000  0.502163  1
  Ir  Ir20  1  0.153956  0.847667  0.250018  1
  Ir  Ir21  1  0.349204  0.345330  0.249606  1
  Ir  Ir22  1  0.650796  0.654670  0.249606  1
  Ir  Ir23  1  0.846044  0.152333  0.250018  1
  Ir  Ir24  1  0.346592  0.652590  0.748727  1
  Ir  Ir25  1  0.153997  0.153052  0.750297  1
  Ir  Ir26  1  0.846003  0.846948  0.750297  1
  Ir  Ir27  1  0.653408  0.347410  0.748727  1
  Ir  Ir28  1  0.500000  0.000000  0.122965  1
  Ir  Ir29  1  0.500000  0.000000  0.623682  1
  Ir  Ir30  1  0.000000  0.500000  0.878892  1
  Os  Os31  1  0.000000  0.500000  0.375422  1
