# generated using pymatgen
data_TmPaB6Mo
_symmetry_space_group_name_H-M   'P 1'
_cell_length_a   3.74221400
_cell_length_b   9.14445400
_cell_length_c   11.50893900
_cell_angle_alpha   90.00000000
_cell_angle_beta   90.00000000
_cell_angle_gamma   90.00000000
_symmetry_Int_Tables_number   1
_chemical_formula_structural   TmPaB6Mo
_chemical_formula_sum   'Tm4 Pa4 B24 Mo4'
_cell_volume   393.84169057
_cell_formula_units_Z   4
loop_
 _symmetry_equiv_pos_site_id
 _symmetry_equiv_pos_as_xyz
  1  'x, y, z'
loop_
 _atom_site_type_symbol
 _atom_site_label
 _atom_site_symmetry_multiplicity
 _atom_site_fract_x
 _atom_site_fract_y
 _atom_site_fract_z
 _atom_site_occupancy
  Tm  Tm0  1  0.000000  0.945073  0.373594  1
  Tm  Tm1  1  0.000000  0.054927  0.626406  1
  Tm  Tm2  1  0.000000  0.445073  0.126406  1
  Tm  Tm3  1  0.000000  0.554927  0.873594  1
  Pa  Pa4  1  0.000000  0.322004  0.413552  1
  Pa  Pa5  1  0.000000  0.677996  0.586448  1
  Pa  Pa6  1  0.000000  0.822004  0.086448  1
  Pa  Pa7  1  0.000000  0.177996  0.913552  1
  B  B8  1  0.500000  0.553341  0.432991  1
  B  B9  1  0.500000  0.446659  0.567009  1
  B  B10  1  0.500000  0.053341  0.067009  1
  B  B11  1  0.500000  0.946659  0.932991  1
  B  B12  1  0.500000  0.749672  0.420256  1
  B  B13  1  0.500000  0.250328  0.579744  1
  B  B14  1  0.500000  0.249672  0.079744  1
  B  B15  1  0.500000  0.750328  0.920256  1
  B  B16  1  0.500000  0.793400  0.264802  1
  B  B17  1  0.500000  0.206600  0.735198  1
  B  B18  1  0.500000  0.293400  0.235198  1
  B  B19  1  0.500000  0.706600  0.764802  1
  B  B20  1  0.500000  0.632083  0.184648  1
  B  B21  1  0.500000  0.367917  0.815352  1
  B  B22  1  0.500000  0.132083  0.315352  1
  B  B23  1  0.500000  0.867917  0.684648  1
  B  B24  1  0.500000  0.981757  0.213028  1
  B  B25  1  0.500000  0.018243  0.786972  1
  B  B26  1  0.500000  0.481757  0.286972  1
  B  B27  1  0.500000  0.518243  0.713028  1
  B  B28  1  0.500000  0.607793  0.029828  1
  B  B29  1  0.500000  0.392207  0.970172  1
  B  B30  1  0.500000  0.107793  0.470172  1
  B  B31  1  0.500000  0.892207  0.529828  1
  Mo  Mo32  1  0.000000  0.638681  0.321203  1
  Mo  Mo33  1  0.000000  0.361319  0.678797  1
  Mo  Mo34  1  0.000000  0.138681  0.178797  1
  Mo  Mo35  1  0.000000  0.861319  0.821203  1
