# generated using pymatgen
data_Sr8Cd15GeAu12
_symmetry_space_group_name_H-M   'P 1'
_cell_length_a   15.31360900
_cell_length_b   15.31360975
_cell_length_c   4.57278400
_cell_angle_alpha   90.00000000
_cell_angle_beta   90.00000000
_cell_angle_gamma   120.00000053
_symmetry_Int_Tables_number   1
_chemical_formula_structural   Sr8Cd15GeAu12
_chemical_formula_sum   'Sr8 Cd15 Ge1 Au12'
_cell_volume   928.68075665
_cell_formula_units_Z   1
loop_
 _symmetry_equiv_pos_site_id
 _symmetry_equiv_pos_as_xyz
  1  'x, y, z'
loop_
 _atom_site_type_symbol
 _atom_site_label
 _atom_site_symmetry_multiplicity
 _atom_site_fract_x
 _atom_site_fract_y
 _atom_site_fract_z
 _atom_site_occupancy
  Sr  Sr0  1  0.450377  0.000000  0.000000  1
  Sr  Sr1  1  0.000000  0.450377  0.000000  1
  Sr  Sr2  1  0.549623  0.549623  0.000000  1
  Sr  Sr3  1  0.333333  0.666667  0.000000  1
  Sr  Sr4  1  0.666667  0.333333  0.000000  1
  Sr  Sr5  1  0.826966  0.000000  0.500000  1
  Sr  Sr6  1  0.000000  0.826966  0.500000  1
  Sr  Sr7  1  0.173034  0.173034  0.500000  1
  Cd  Cd8  1  0.178664  0.375996  0.000000  1
  Cd  Cd9  1  0.624004  0.802668  0.000000  1
  Cd  Cd10  1  0.375996  0.178664  0.000000  1
  Cd  Cd11  1  0.197332  0.821336  0.000000  1
  Cd  Cd12  1  0.802668  0.624004  0.000000  1
  Cd  Cd13  1  0.821336  0.197332  0.000000  1
  Cd  Cd14  1  0.276528  0.000000  0.500000  1
  Cd  Cd15  1  0.000000  0.276528  0.500000  1
  Cd  Cd16  1  0.723472  0.723472  0.500000  1
  Cd  Cd17  1  0.346349  0.470103  0.500000  1
  Cd  Cd18  1  0.529897  0.876246  0.500000  1
  Cd  Cd19  1  0.470103  0.346349  0.500000  1
  Cd  Cd20  1  0.123754  0.653651  0.500000  1
  Cd  Cd21  1  0.876246  0.529897  0.500000  1
  Cd  Cd22  1  0.653651  0.123754  0.500000  1
  Ge  Ge23  1  0.000000  0.000000  0.000000  1
  Au  Au24  1  0.169356  0.492699  0.500000  1
  Au  Au25  1  0.507301  0.676657  0.500000  1
  Au  Au26  1  0.492699  0.169356  0.500000  1
  Au  Au27  1  0.323343  0.830644  0.500000  1
  Au  Au28  1  0.676657  0.507301  0.500000  1
  Au  Au29  1  0.830644  0.323343  0.500000  1
  Au  Au30  1  0.166692  0.000000  0.000000  1
  Au  Au31  1  0.000000  0.166692  0.000000  1
  Au  Au32  1  0.833308  0.833308  0.000000  1
  Au  Au33  1  0.655971  0.000000  0.000000  1
  Au  Au34  1  0.000000  0.655971  0.000000  1
  Au  Au35  1  0.344029  0.344029  0.000000  1
