# generated using pymatgen
data_Zr8V9Si16Mo3
_symmetry_space_group_name_H-M   'P 1'
_cell_length_a   6.66908280
_cell_length_b   6.66908348
_cell_length_c   12.35920801
_cell_angle_alpha   89.95650611
_cell_angle_beta   90.04349596
_cell_angle_gamma   90.10322043
_symmetry_Int_Tables_number   1
_chemical_formula_structural   Zr8V9Si16Mo3
_chemical_formula_sum   'Zr8 V9 Si16 Mo3'
_cell_volume   549.69520704
_cell_formula_units_Z   1
loop_
 _symmetry_equiv_pos_site_id
 _symmetry_equiv_pos_as_xyz
  1  'x, y, z'
loop_
 _atom_site_type_symbol
 _atom_site_label
 _atom_site_symmetry_multiplicity
 _atom_site_fract_x
 _atom_site_fract_y
 _atom_site_fract_z
 _atom_site_occupancy
  Zr  Zr0  1  0.001910  0.663283  0.030049  1
  Zr  Zr1  1  0.837081  0.501787  0.280716  1
  Zr  Zr2  1  0.162359  0.498003  0.779579  1
  Zr  Zr3  1  0.501787  0.837081  0.719284  1
  Zr  Zr4  1  0.498003  0.162359  0.220421  1
  Zr  Zr5  1  0.997445  0.337511  0.530100  1
  Zr  Zr6  1  0.663283  0.001910  0.969951  1
  Zr  Zr7  1  0.337511  0.997445  0.469900  1
  V  V8  1  0.666174  0.666174  0.500000  1
  V  V9  1  0.001337  0.161561  0.127138  1
  V  V10  1  0.341599  0.502572  0.378031  1
  V  V11  1  0.662184  0.498493  0.876591  1
  V  V12  1  0.502572  0.341599  0.621969  1
  V  V13  1  0.498493  0.662184  0.123409  1
  V  V14  1  0.996597  0.837751  0.625605  1
  V  V15  1  0.161561  0.001337  0.872862  1
  V  V16  1  0.837751  0.996597  0.374395  1
  Si  Si17  1  0.290121  0.960149  0.063870  1
  Si  Si18  1  0.541560  0.788914  0.315476  1
  Si  Si19  1  0.459909  0.210077  0.813236  1
  Si  Si20  1  0.788914  0.541560  0.684524  1
  Si  Si21  1  0.210077  0.459909  0.186764  1
  Si  Si22  1  0.708540  0.038161  0.563647  1
  Si  Si23  1  0.960149  0.290121  0.936130  1
  Si  Si24  1  0.038161  0.708540  0.436353  1
  Si  Si25  1  0.707257  0.375098  0.071553  1
  Si  Si26  1  0.125251  0.206995  0.321731  1
  Si  Si27  1  0.874956  0.792393  0.820773  1
  Si  Si28  1  0.206995  0.125251  0.678269  1
  Si  Si29  1  0.792393  0.874956  0.179227  1
  Si  Si30  1  0.293696  0.625991  0.570455  1
  Si  Si31  1  0.375098  0.707257  0.928447  1
  Si  Si32  1  0.625991  0.293696  0.429545  1
  Mo  Mo33  1  0.333020  0.333020  0.000000  1
  Mo  Mo34  1  0.166869  0.833395  0.250000  1
  Mo  Mo35  1  0.833395  0.166869  0.750000  1
