# generated using pymatgen
data_Ho3Sn3HgRuRh
_symmetry_space_group_name_H-M   'P 1'
_cell_length_a   7.73780400
_cell_length_b   7.73780414
_cell_length_c   3.86118800
_cell_angle_alpha   90.00000000
_cell_angle_beta   90.00000000
_cell_angle_gamma   119.99999938
_symmetry_Int_Tables_number   1
_chemical_formula_structural   Ho3Sn3HgRuRh
_chemical_formula_sum   'Ho3 Sn3 Hg1 Ru1 Rh1'
_cell_volume   200.21058740
_cell_formula_units_Z   1
loop_
 _symmetry_equiv_pos_site_id
 _symmetry_equiv_pos_as_xyz
  1  'x, y, z'
loop_
 _atom_site_type_symbol
 _atom_site_label
 _atom_site_symmetry_multiplicity
 _atom_site_fract_x
 _atom_site_fract_y
 _atom_site_fract_z
 _atom_site_occupancy
  Ho  Ho0  1  0.022136  0.410788  0.000000  1
  Ho  Ho1  1  0.589212  0.611348  0.000000  1
  Ho  Ho2  1  0.388652  0.977864  0.000000  1
  Sn  Sn3  1  0.252112  0.259004  0.500000  1
  Sn  Sn4  1  0.006891  0.747888  0.500000  1
  Sn  Sn5  1  0.740996  0.993109  0.500000  1
  Hg  Hg6  1  0.666667  0.333333  0.500000  1
  Ru  Ru7  1  0.000000  0.000000  0.000000  1
  Rh  Rh8  1  0.333333  0.666667  0.500000  1
