# generated using pymatgen
data_Sm8Be3Si12Pd
_symmetry_space_group_name_H-M   'P 1'
_cell_length_a   7.99291500
_cell_length_b   7.99291523
_cell_length_c   8.37847300
_cell_angle_alpha   90.00000000
_cell_angle_beta   90.00000000
_cell_angle_gamma   119.99999489
_symmetry_Int_Tables_number   1
_chemical_formula_structural   Sm8Be3Si12Pd
_chemical_formula_sum   'Sm8 Be3 Si12 Pd1'
_cell_volume   463.55997453
_cell_formula_units_Z   1
loop_
 _symmetry_equiv_pos_site_id
 _symmetry_equiv_pos_as_xyz
  1  'x, y, z'
loop_
 _atom_site_type_symbol
 _atom_site_label
 _atom_site_symmetry_multiplicity
 _atom_site_fract_x
 _atom_site_fract_y
 _atom_site_fract_z
 _atom_site_occupancy
  Sm  Sm0  1  0.502027  0.004054  0.247906  1
  Sm  Sm1  1  0.500993  0.001985  0.751942  1
  Sm  Sm2  1  0.995946  0.497973  0.247906  1
  Sm  Sm3  1  0.998015  0.499007  0.751942  1
  Sm  Sm4  1  0.502027  0.497973  0.247906  1
  Sm  Sm5  1  0.500993  0.499007  0.751942  1
  Sm  Sm6  1  0.000000  0.000000  0.249632  1
  Sm  Sm7  1  0.000000  0.000000  0.750193  1
  Be  Be8  1  0.333333  0.666667  0.003234  1
  Be  Be9  1  0.666667  0.333333  0.997611  1
  Be  Be10  1  0.666667  0.333333  0.502160  1
  Si  Si11  1  0.172327  0.344654  0.000367  1
  Si  Si12  1  0.827370  0.654741  0.999473  1
  Si  Si13  1  0.655346  0.827673  0.000367  1
  Si  Si14  1  0.829024  0.658049  0.500581  1
  Si  Si15  1  0.345259  0.172630  0.999473  1
  Si  Si16  1  0.166293  0.332588  0.499511  1
  Si  Si17  1  0.172327  0.827673  0.000367  1
  Si  Si18  1  0.341951  0.170976  0.500581  1
  Si  Si19  1  0.827370  0.172630  0.999473  1
  Si  Si20  1  0.667412  0.833707  0.499511  1
  Si  Si21  1  0.829024  0.170976  0.500581  1
  Si  Si22  1  0.166293  0.833707  0.499511  1
  Pd  Pd23  1  0.333333  0.666667  0.497830  1
