# generated using pymatgen
data_Li2Ca3AgSn3
_symmetry_space_group_name_H-M   'P 1'
_cell_length_a   4.90218000
_cell_length_b   4.90218001
_cell_length_c   10.83709100
_cell_angle_alpha   90.00000000
_cell_angle_beta   90.00000000
_cell_angle_gamma   119.99998645
_symmetry_Int_Tables_number   1
_chemical_formula_structural   Li2Ca3AgSn3
_chemical_formula_sum   'Li2 Ca3 Ag1 Sn3'
_cell_volume   225.53913965
_cell_formula_units_Z   1
loop_
 _symmetry_equiv_pos_site_id
 _symmetry_equiv_pos_as_xyz
  1  'x, y, z'
loop_
 _atom_site_type_symbol
 _atom_site_label
 _atom_site_symmetry_multiplicity
 _atom_site_fract_x
 _atom_site_fract_y
 _atom_site_fract_z
 _atom_site_occupancy
  Li  Li0  1  0.666667  0.333333  0.481415  1
  Li  Li1  1  0.333333  0.666667  0.192715  1
  Ca  Ca2  1  0.000000  0.000000  0.660974  1
  Ca  Ca3  1  0.000000  0.000000  0.328075  1
  Ca  Ca4  1  0.000000  0.000000  0.996930  1
  Ag  Ag5  1  0.333333  0.666667  0.799999  1
  Sn  Sn6  1  0.666667  0.333333  0.849335  1
  Sn  Sn7  1  0.666667  0.333333  0.149917  1
  Sn  Sn8  1  0.333333  0.666667  0.496641  1
