# generated using pymatgen
data_Li4Nd16Si15Ge
_symmetry_space_group_name_H-M   'P 1'
_cell_length_a   7.32155000
_cell_length_b   7.95573630
_cell_length_c   15.17450900
_cell_angle_alpha   90.00000000
_cell_angle_beta   90.00000000
_cell_angle_gamma   89.94040493
_symmetry_Int_Tables_number   1
_chemical_formula_structural   Li4Nd16Si15Ge
_chemical_formula_sum   'Li4 Nd16 Si15 Ge1'
_cell_volume   883.88919514
_cell_formula_units_Z   1
loop_
 _symmetry_equiv_pos_site_id
 _symmetry_equiv_pos_as_xyz
  1  'x, y, z'
loop_
 _atom_site_type_symbol
 _atom_site_label
 _atom_site_symmetry_multiplicity
 _atom_site_fract_x
 _atom_site_fract_y
 _atom_site_fract_z
 _atom_site_occupancy
  Li  Li0  1  0.162229  0.532348  0.750000  1
  Li  Li1  1  0.839101  0.467266  0.250000  1
  Li  Li2  1  0.339374  0.032478  0.250000  1
  Li  Li3  1  0.659791  0.969824  0.750000  1
  Nd  Nd4  1  0.325824  0.183752  0.628382  1
  Nd  Nd5  1  0.673690  0.815904  0.371257  1
  Nd  Nd6  1  0.173762  0.683440  0.371156  1
  Nd  Nd7  1  0.673690  0.815904  0.128743  1
  Nd  Nd8  1  0.825795  0.315230  0.628307  1
  Nd  Nd9  1  0.325824  0.183752  0.871618  1
  Nd  Nd10  1  0.825795  0.315230  0.871693  1
  Nd  Nd11  1  0.173762  0.683440  0.128844  1
  Nd  Nd12  1  0.026347  0.190621  0.102812  1
  Nd  Nd13  1  0.975021  0.811395  0.899181  1
  Nd  Nd14  1  0.472998  0.689895  0.898207  1
  Nd  Nd15  1  0.975021  0.811395  0.600819  1
  Nd  Nd16  1  0.526305  0.309320  0.102514  1
  Nd  Nd17  1  0.026347  0.190621  0.397188  1
  Nd  Nd18  1  0.526305  0.309320  0.397486  1
  Nd  Nd19  1  0.472998  0.689895  0.601793  1
  Si  Si20  1  0.022071  0.073632  0.750000  1
  Si  Si21  1  0.977911  0.926332  0.250000  1
  Si  Si22  1  0.478168  0.573343  0.250000  1
  Si  Si23  1  0.520151  0.424192  0.750000  1
  Si  Si24  1  0.268165  0.874770  0.750000  1
  Si  Si25  1  0.731713  0.124787  0.250000  1
  Si  Si26  1  0.232285  0.374723  0.250000  1
  Si  Si27  1  0.149452  0.469760  0.532926  1
  Si  Si28  1  0.849681  0.530106  0.466996  1
  Si  Si29  1  0.349469  0.969408  0.466910  1
  Si  Si30  1  0.849681  0.530106  0.033004  1
  Si  Si31  1  0.649602  0.029854  0.532858  1
  Si  Si32  1  0.149452  0.469760  0.967074  1
  Si  Si33  1  0.649602  0.029854  0.967142  1
  Si  Si34  1  0.349469  0.969408  0.033090  1
  Ge  Ge35  1  0.773149  0.628934  0.750000  1
