# generated using pymatgen
data_Tm15Lu(AlRh)4
_symmetry_space_group_name_H-M   'P 1'
_cell_length_a   9.40104600
_cell_length_b   9.40104599
_cell_length_c   9.40718500
_cell_angle_alpha   59.97839964
_cell_angle_beta   59.97839971
_cell_angle_gamma   59.98857268
_symmetry_Int_Tables_number   1
_chemical_formula_structural   Tm15Lu(AlRh)4
_chemical_formula_sum   'Tm15 Lu1 Al4 Rh4'
_cell_volume   587.64856034
_cell_formula_units_Z   1
loop_
 _symmetry_equiv_pos_site_id
 _symmetry_equiv_pos_as_xyz
  1  'x, y, z'
loop_
 _atom_site_type_symbol
 _atom_site_label
 _atom_site_symmetry_multiplicity
 _atom_site_fract_x
 _atom_site_fract_y
 _atom_site_fract_z
 _atom_site_occupancy
  Tm  Tm0  1  0.435997  0.063286  0.437081  1
  Tm  Tm1  1  0.063286  0.435997  0.063636  1
  Tm  Tm2  1  0.059057  0.645836  0.647555  1
  Tm  Tm3  1  0.436744  0.436744  0.063256  1
  Tm  Tm4  1  0.645836  0.059057  0.647555  1
  Tm  Tm5  1  0.193483  0.807647  0.192229  1
  Tm  Tm6  1  0.192614  0.192614  0.807386  1
  Tm  Tm7  1  0.807145  0.807145  0.192855  1
  Tm  Tm8  1  0.435997  0.063286  0.063636  1
  Tm  Tm9  1  0.807647  0.193483  0.192229  1
  Tm  Tm10  1  0.063286  0.435997  0.437081  1
  Tm  Tm11  1  0.807647  0.193483  0.806641  1
  Tm  Tm12  1  0.193483  0.807647  0.806641  1
  Tm  Tm13  1  0.647044  0.647044  0.057047  1
  Tm  Tm14  1  0.647044  0.647044  0.648868  1
  Lu  Lu15  1  0.063008  0.063008  0.436992  1
  Al  Al16  1  0.421783  0.421783  0.421757  1
  Al  Al17  1  0.734422  0.421712  0.421933  1
  Al  Al18  1  0.421712  0.734422  0.421933  1
  Al  Al19  1  0.421783  0.421783  0.734676  1
  Rh  Rh20  1  0.857416  0.857416  0.428908  1
  Rh  Rh21  1  0.857416  0.857416  0.856258  1
  Rh  Rh22  1  0.428470  0.857682  0.856923  1
  Rh  Rh23  1  0.857682  0.428470  0.856923  1
