# generated using pymatgen
data_Yb2Ni2Sb4Pd
_symmetry_space_group_name_H-M   'P 1'
_cell_length_a   4.41712449
_cell_length_b   4.41712467
_cell_length_c   20.48934651
_cell_angle_alpha   96.18798197
_cell_angle_beta   96.18798351
_cell_angle_gamma   90.00000263
_symmetry_Int_Tables_number   1
_chemical_formula_structural   Yb2Ni2Sb4Pd
_chemical_formula_sum   'Yb4 Ni4 Sb8 Pd2'
_cell_volume   395.09527954
_cell_formula_units_Z   2
loop_
 _symmetry_equiv_pos_site_id
 _symmetry_equiv_pos_as_xyz
  1  'x, y, z'
loop_
 _atom_site_type_symbol
 _atom_site_label
 _atom_site_symmetry_multiplicity
 _atom_site_fract_x
 _atom_site_fract_y
 _atom_site_fract_z
 _atom_site_occupancy
  Yb  Yb0  1  0.058579  0.058579  0.117159  1
  Yb  Yb1  1  0.189992  0.189992  0.379985  1
  Yb  Yb2  1  0.810007  0.810007  0.620015  1
  Yb  Yb3  1  0.941420  0.941420  0.882841  1
  Ni  Ni4  1  0.656977  0.656977  0.313956  1
  Ni  Ni5  1  0.750000  0.250000  0.500000  1
  Ni  Ni6  1  0.250000  0.750000  0.500000  1
  Ni  Ni7  1  0.343023  0.343023  0.686044  1
  Sb  Sb8  1  0.539597  0.539597  0.079194  1
  Sb  Sb9  1  0.623297  0.123297  0.246597  1
  Sb  Sb10  1  0.123297  0.623297  0.246597  1
  Sb  Sb11  1  0.718104  0.718104  0.436210  1
  Sb  Sb12  1  0.281895  0.281895  0.563790  1
  Sb  Sb13  1  0.876703  0.376703  0.753404  1
  Sb  Sb14  1  0.376703  0.876703  0.753404  1
  Sb  Sb15  1  0.460403  0.460403  0.920806  1
  Pd  Pd16  1  0.500000  0.000000  0.000000  1
  Pd  Pd17  1  0.000000  0.500000  0.000000  1
