# generated using pymatgen
data_YbHo3(Si4Tc3)2
_symmetry_space_group_name_H-M   'P 1'
_cell_length_a   6.79613335
_cell_length_b   6.70676531
_cell_length_c   6.78130503
_cell_angle_alpha   70.22945020
_cell_angle_beta   90.05300972
_cell_angle_gamma   89.85626945
_symmetry_Int_Tables_number   1
_chemical_formula_structural   YbHo3(Si4Tc3)2
_chemical_formula_sum   'Yb1 Ho3 Si8 Tc6'
_cell_volume   290.87141065
_cell_formula_units_Z   1
loop_
 _symmetry_equiv_pos_site_id
 _symmetry_equiv_pos_as_xyz
  1  'x, y, z'
loop_
 _atom_site_type_symbol
 _atom_site_label
 _atom_site_symmetry_multiplicity
 _atom_site_fract_x
 _atom_site_fract_y
 _atom_site_fract_z
 _atom_site_occupancy
  Yb  Yb0  1  0.666211  0.444805  0.185778  1
  Ho  Ho1  1  0.167729  0.058651  0.807370  1
  Ho  Ho2  1  0.333261  0.557226  0.809715  1
  Ho  Ho3  1  0.831329  0.941212  0.193215  1
  Si  Si4  1  0.451234  0.121098  0.103701  1
  Si  Si5  1  0.949721  0.378843  0.897895  1
  Si  Si6  1  0.549694  0.878645  0.898356  1
  Si  Si7  1  0.047834  0.619909  0.104347  1
  Si  Si8  1  0.856886  0.135131  0.508782  1
  Si  Si9  1  0.361142  0.368560  0.486070  1
  Si  Si10  1  0.141073  0.867383  0.488891  1
  Si  Si11  1  0.641849  0.629355  0.511069  1
  Tc  Tc12  1  0.499809  0.997892  0.501569  1
  Tc  Tc13  1  0.002535  0.499739  0.502927  1
  Tc  Tc14  1  0.153480  0.242327  0.238442  1
  Tc  Tc15  1  0.653791  0.255401  0.762268  1
  Tc  Tc16  1  0.848078  0.759305  0.761192  1
  Tc  Tc17  1  0.344343  0.744517  0.238412  1
