# generated using pymatgen
data_Yb9AgPd5
_symmetry_space_group_name_H-M   'P 1'
_cell_length_a   7.59596489
_cell_length_b   7.59861783
_cell_length_c   7.59540200
_cell_angle_alpha   72.03802051
_cell_angle_beta   71.85571570
_cell_angle_gamma   71.63732973
_symmetry_Int_Tables_number   1
_chemical_formula_structural   Yb9AgPd5
_chemical_formula_sum   'Yb9 Ag1 Pd5'
_cell_volume   384.48877059
_cell_formula_units_Z   1
loop_
 _symmetry_equiv_pos_site_id
 _symmetry_equiv_pos_as_xyz
  1  'x, y, z'
loop_
 _atom_site_type_symbol
 _atom_site_label
 _atom_site_symmetry_multiplicity
 _atom_site_fract_x
 _atom_site_fract_y
 _atom_site_fract_z
 _atom_site_occupancy
  Yb  Yb0  1  0.827028  0.108017  0.341410  1
  Yb  Yb1  1  0.100356  0.339074  0.824137  1
  Yb  Yb2  1  0.344357  0.837763  0.111312  1
  Yb  Yb3  1  0.167098  0.901528  0.647770  1
  Yb  Yb4  1  0.889504  0.656020  0.175566  1
  Yb  Yb5  1  0.663738  0.164301  0.892225  1
  Yb  Yb6  1  0.501889  0.499726  0.493933  1
  Yb  Yb7  1  0.709918  0.705826  0.699074  1
  Yb  Yb8  1  0.298135  0.291974  0.307133  1
  Ag  Ag9  1  0.342558  0.543577  0.912409  1
  Pd  Pd10  1  0.456173  0.091552  0.659174  1
  Pd  Pd11  1  0.094334  0.654465  0.454232  1
  Pd  Pd12  1  0.655066  0.457342  0.088485  1
  Pd  Pd13  1  0.542875  0.905911  0.350560  1
  Pd  Pd14  1  0.906971  0.342924  0.542579  1
