# generated using pymatgen
data_DyY5Ni19P13Ir
_symmetry_space_group_name_H-M   'P 1'
_cell_length_a   12.72789436
_cell_length_b   12.73213631
_cell_length_c   3.77022800
_cell_angle_alpha   90.00000000
_cell_angle_beta   90.00000000
_cell_angle_gamma   120.01627667
_symmetry_Int_Tables_number   1
_chemical_formula_structural   DyY5Ni19P13Ir
_chemical_formula_sum   'Dy1 Y5 Ni19 P13 Ir1'
_cell_volume   529.03552215
_cell_formula_units_Z   1
loop_
 _symmetry_equiv_pos_site_id
 _symmetry_equiv_pos_as_xyz
  1  'x, y, z'
loop_
 _atom_site_type_symbol
 _atom_site_label
 _atom_site_symmetry_multiplicity
 _atom_site_fract_x
 _atom_site_fract_y
 _atom_site_fract_z
 _atom_site_occupancy
  Dy  Dy0  1  0.466580  0.185167  0.000000  1
  Y  Y1  1  0.718574  0.533651  0.000000  1
  Y  Y2  1  0.815014  0.281358  0.000000  1
  Y  Y3  1  0.530965  0.812746  0.500000  1
  Y  Y4  1  0.281861  0.469032  0.500000  1
  Y  Y5  1  0.187212  0.718103  0.500000  1
  Ni  Ni6  1  0.333345  0.666699  0.000000  1
  Ni  Ni7  1  0.194906  0.090505  0.000000  1
  Ni  Ni8  1  0.895645  0.805201  0.000000  1
  Ni  Ni9  1  0.909596  0.104347  0.000000  1
  Ni  Ni10  1  0.850555  0.928046  0.500000  1
  Ni  Ni11  1  0.077520  0.149444  0.500000  1
  Ni  Ni12  1  0.072018  0.922569  0.500000  1
  Ni  Ni13  1  0.436979  0.417328  0.000000  1
  Ni  Ni14  1  0.980458  0.563071  0.000000  1
  Ni  Ni15  1  0.582507  0.019618  0.000000  1
  Ni  Ni16  1  0.564446  0.589523  0.500000  1
  Ni  Ni17  1  0.025087  0.435506  0.500000  1
  Ni  Ni18  1  0.410483  0.975185  0.500000  1
  Ni  Ni19  1  0.078216  0.319825  0.000000  1
  Ni  Ni20  1  0.241749  0.921910  0.000000  1
  Ni  Ni21  1  0.680185  0.758386  0.000000  1
  Ni  Ni22  1  0.931939  0.686374  0.500000  1
  Ni  Ni23  1  0.754389  0.068068  0.500000  1
  Ni  Ni24  1  0.313788  0.245475  0.500000  1
  P  P25  1  0.233553  0.281944  0.000000  1
  P  P26  1  0.048487  0.766534  0.000000  1
  P  P27  1  0.718024  0.951573  0.000000  1
  P  P28  1  0.767920  0.722804  0.500000  1
  P  P29  1  0.954906  0.232070  0.500000  1
  P  P30  1  0.277485  0.045369  0.500000  1
  P  P31  1  0.476717  0.615560  0.000000  1
  P  P32  1  0.138864  0.523254  0.000000  1
  P  P33  1  0.384384  0.861162  0.000000  1
  P  P34  1  0.517104  0.388661  0.500000  1
  P  P35  1  0.871307  0.482524  0.500000  1
  P  P36  1  0.610863  0.128331  0.500000  1
  P  P37  1  0.000035  0.999993  0.000000  1
  Ir  Ir38  1  0.666338  0.333081  0.500000  1
