# generated using pymatgen
data_Gd2(GaAu2)3
_symmetry_space_group_name_H-M   'P 1'
_cell_length_a   8.77970222
_cell_length_b   8.77970112
_cell_length_c   8.77970200
_cell_angle_alpha   56.69028834
_cell_angle_beta   56.69029304
_cell_angle_gamma   56.69028136
_symmetry_Int_Tables_number   1
_chemical_formula_structural   Gd2(GaAu2)3
_chemical_formula_sum   'Gd4 Ga6 Au12'
_cell_volume   441.97143164
_cell_formula_units_Z   2
loop_
 _symmetry_equiv_pos_site_id
 _symmetry_equiv_pos_as_xyz
  1  'x, y, z'
loop_
 _atom_site_type_symbol
 _atom_site_label
 _atom_site_symmetry_multiplicity
 _atom_site_fract_x
 _atom_site_fract_y
 _atom_site_fract_z
 _atom_site_occupancy
  Gd  Gd0  1  0.909442  0.909442  0.909442  1
  Gd  Gd1  1  0.409442  0.409442  0.409442  1
  Gd  Gd2  1  0.090558  0.090558  0.090558  1
  Gd  Gd3  1  0.590558  0.590558  0.590558  1
  Ga  Ga4  1  0.553681  0.750000  0.946319  1
  Ga  Ga5  1  0.946319  0.553681  0.750000  1
  Ga  Ga6  1  0.750000  0.946319  0.553681  1
  Ga  Ga7  1  0.446319  0.250000  0.053681  1
  Ga  Ga8  1  0.053681  0.446319  0.250000  1
  Ga  Ga9  1  0.250000  0.053681  0.446319  1
  Au  Au10  1  0.491029  0.858512  0.202295  1
  Au  Au11  1  0.202295  0.491029  0.858512  1
  Au  Au12  1  0.858512  0.202295  0.491029  1
  Au  Au13  1  0.702295  0.358512  0.991029  1
  Au  Au14  1  0.991029  0.702295  0.358512  1
  Au  Au15  1  0.358512  0.991029  0.702295  1
  Au  Au16  1  0.508971  0.141488  0.797705  1
  Au  Au17  1  0.797705  0.508971  0.141488  1
  Au  Au18  1  0.141488  0.797705  0.508971  1
  Au  Au19  1  0.297705  0.641488  0.008971  1
  Au  Au20  1  0.008971  0.297705  0.641488  1
  Au  Au21  1  0.641488  0.008971  0.297705  1
