# generated using pymatgen
data_Ac3CdSn3Ir2
_symmetry_space_group_name_H-M   'P 1'
_cell_length_a   7.98310400
_cell_length_b   7.98310238
_cell_length_c   4.35291900
_cell_angle_alpha   90.00000000
_cell_angle_beta   90.00000000
_cell_angle_gamma   119.99999952
_symmetry_Int_Tables_number   1
_chemical_formula_structural   Ac3CdSn3Ir2
_chemical_formula_sum   'Ac3 Cd1 Sn3 Ir2'
_cell_volume   240.24519254
_cell_formula_units_Z   1
loop_
 _symmetry_equiv_pos_site_id
 _symmetry_equiv_pos_as_xyz
  1  'x, y, z'
loop_
 _atom_site_type_symbol
 _atom_site_label
 _atom_site_symmetry_multiplicity
 _atom_site_fract_x
 _atom_site_fract_y
 _atom_site_fract_z
 _atom_site_occupancy
  Ac  Ac0  1  0.604029  0.023883  0.000000  1
  Ac  Ac1  1  0.976117  0.580146  0.000000  1
  Ac  Ac2  1  0.419854  0.395971  0.000000  1
  Cd  Cd3  1  0.333333  0.666667  0.500000  1
  Sn  Sn4  1  0.238739  0.003687  0.500000  1
  Sn  Sn5  1  0.996313  0.235051  0.500000  1
  Sn  Sn6  1  0.764949  0.761261  0.500000  1
  Ir  Ir7  1  0.666667  0.333333  0.500000  1
  Ir  Ir8  1  0.000000  0.000000  0.000000  1
