# generated using pymatgen
data_YbBePF
_symmetry_space_group_name_H-M   'P 1'
_cell_length_a   3.69033200
_cell_length_b   3.69033200
_cell_length_c   8.34666800
_cell_angle_alpha   90.00000000
_cell_angle_beta   90.00000000
_cell_angle_gamma   90.00000000
_symmetry_Int_Tables_number   1
_chemical_formula_structural   YbBePF
_chemical_formula_sum   'Yb2 Be2 P2 F2'
_cell_volume   113.66951775
_cell_formula_units_Z   2
loop_
 _symmetry_equiv_pos_site_id
 _symmetry_equiv_pos_as_xyz
  1  'x, y, z'
loop_
 _atom_site_type_symbol
 _atom_site_label
 _atom_site_symmetry_multiplicity
 _atom_site_fract_x
 _atom_site_fract_y
 _atom_site_fract_z
 _atom_site_occupancy
  Yb  Yb0  1  0.250002  0.250002  0.158629  1
  Yb  Yb1  1  0.750000  0.750000  0.841373  1
  Be  Be2  1  0.750000  0.250002  0.500000  1
  Be  Be3  1  0.250002  0.750000  0.500000  1
  P  P4  1  0.750000  0.750000  0.347868  1
  P  P5  1  0.250002  0.250002  0.652131  1
  F  F6  1  0.750000  0.250002  0.000000  1
  F  F7  1  0.250002  0.750000  0.000000  1
