# generated using pymatgen
data_Lu5Co11(P3Ru2)4
_symmetry_space_group_name_H-M   'P 1'
_cell_length_a   12.17084954
_cell_length_b   12.19037246
_cell_length_c   3.71272200
_cell_angle_alpha   90.00000000
_cell_angle_beta   90.00000000
_cell_angle_gamma   119.89322712
_symmetry_Int_Tables_number   1
_chemical_formula_structural   Lu5Co11(P3Ru2)4
_chemical_formula_sum   'Lu5 Co11 P12 Ru8'
_cell_volume   477.55917235
_cell_formula_units_Z   1
loop_
 _symmetry_equiv_pos_site_id
 _symmetry_equiv_pos_as_xyz
  1  'x, y, z'
loop_
 _atom_site_type_symbol
 _atom_site_label
 _atom_site_symmetry_multiplicity
 _atom_site_fract_x
 _atom_site_fract_y
 _atom_site_fract_z
 _atom_site_occupancy
  Lu  Lu0  1  0.667034  0.333181  0.000000  1
  Lu  Lu1  1  0.328605  0.662929  0.000000  1
  Lu  Lu2  1  0.819839  0.819517  0.500000  1
  Lu  Lu3  1  0.179739  0.000355  0.500000  1
  Lu  Lu4  1  0.000074  0.180727  0.500000  1
  Co  Co5  1  0.129080  0.481797  0.500000  1
  Co  Co6  1  0.804743  0.172688  0.000000  1
  Co  Co7  1  0.829191  0.630900  0.000000  1
  Co  Co8  1  0.367054  0.196327  0.000000  1
  Co  Co9  1  0.172421  0.803699  0.000000  1
  Co  Co10  1  0.631852  0.827432  0.000000  1
  Co  Co11  1  0.193839  0.371798  0.000000  1
  Co  Co12  1  0.278579  0.281325  0.500000  1
  Co  Co13  1  0.719878  0.999974  0.500000  1
  Co  Co14  1  0.000981  0.718857  0.500000  1
  Co  Co15  1  0.000257  0.999679  0.000000  1
  P  P16  1  0.685947  0.162298  0.500000  1
  P  P17  1  0.840558  0.523193  0.500000  1
  P  P18  1  0.475934  0.316786  0.500000  1
  P  P19  1  0.160115  0.679749  0.500000  1
  P  P20  1  0.522843  0.839218  0.500000  1
  P  P21  1  0.309951  0.476761  0.500000  1
  P  P22  1  0.176058  0.177962  0.000000  1
  P  P23  1  0.823164  0.999754  0.000000  1
  P  P24  1  0.000292  0.822580  0.000000  1
  P  P25  1  0.638460  0.639144  0.000000  1
  P  P26  1  0.360117  0.999685  0.000000  1
  P  P27  1  0.004166  0.361884  0.000000  1
  Ru  Ru28  1  0.876622  0.354011  0.500000  1
  Ru  Ru29  1  0.648462  0.519262  0.500000  1
  Ru  Ru30  1  0.481611  0.129976  0.500000  1
  Ru  Ru31  1  0.350926  0.869151  0.500000  1
  Ru  Ru32  1  0.515034  0.646722  0.500000  1
  Ru  Ru33  1  0.444150  0.445148  0.000000  1
  Ru  Ru34  1  0.554984  0.999937  0.000000  1
  Ru  Ru35  1  0.007439  0.555597  0.000000  1
