# generated using pymatgen
data_Yb4Th4SiPt24
_symmetry_space_group_name_H-M   'P 1'
_cell_length_a   8.39173036
_cell_length_b   8.41412638
_cell_length_c   8.41412600
_cell_angle_alpha   90.00071499
_cell_angle_beta   89.93521926
_cell_angle_gamma   89.93521550
_symmetry_Int_Tables_number   1
_chemical_formula_structural   Yb4Th4SiPt24
_chemical_formula_sum   'Yb4 Th4 Si1 Pt24'
_cell_volume   594.11293480
_cell_formula_units_Z   1
loop_
 _symmetry_equiv_pos_site_id
 _symmetry_equiv_pos_as_xyz
  1  'x, y, z'
loop_
 _atom_site_type_symbol
 _atom_site_label
 _atom_site_symmetry_multiplicity
 _atom_site_fract_x
 _atom_site_fract_y
 _atom_site_fract_z
 _atom_site_occupancy
  Yb  Yb0  1  0.252186  0.252564  0.747471  1
  Yb  Yb1  1  0.252189  0.747446  0.252529  1
  Yb  Yb2  1  0.251966  0.747751  0.747780  1
  Yb  Yb3  1  0.747878  0.251807  0.251816  1
  Th  Th4  1  0.253965  0.254666  0.254647  1
  Th  Th5  1  0.745277  0.745740  0.745728  1
  Th  Th6  1  0.746043  0.746607  0.253747  1
  Th  Th7  1  0.746040  0.253732  0.746593  1
  Si  Si8  1  0.003182  0.999962  0.999963  1
  Pt  Pt9  1  0.258524  0.500415  0.999427  1
  Pt  Pt10  1  0.742077  0.498752  0.002131  1
  Pt  Pt11  1  0.000001  0.257949  0.500135  1
  Pt  Pt12  1  0.499395  0.258427  0.999937  1
  Pt  Pt13  1  0.003046  0.741760  0.499923  1
  Pt  Pt14  1  0.497397  0.741565  0.000244  1
  Pt  Pt15  1  0.499373  0.999933  0.258506  1
  Pt  Pt16  1  0.258466  0.999452  0.500413  1
  Pt  Pt17  1  0.497352  0.000249  0.741477  1
  Pt  Pt18  1  0.742132  0.002131  0.498754  1
  Pt  Pt19  1  0.999976  0.500128  0.258095  1
  Pt  Pt20  1  0.003022  0.499926  0.741608  1
  Pt  Pt21  1  0.252049  0.501725  0.501712  1
  Pt  Pt22  1  0.746428  0.497201  0.497214  1
  Pt  Pt23  1  0.499864  0.252861  0.500283  1
  Pt  Pt24  1  0.494900  0.747237  0.500011  1
  Pt  Pt25  1  0.499890  0.500270  0.252965  1
  Pt  Pt26  1  0.494945  0.500006  0.747140  1
  Pt  Pt27  1  0.283028  0.998142  0.998126  1
  Pt  Pt28  1  0.718200  0.002277  0.002277  1
  Pt  Pt29  1  0.000651  0.281993  0.999706  1
  Pt  Pt30  1  0.004934  0.717967  0.999659  1
  Pt  Pt31  1  0.000691  0.999698  0.282047  1
  Pt  Pt32  1  0.004938  0.999661  0.717936  1
