# generated using pymatgen
data_DyTm19(Ir2Os)4
_symmetry_space_group_name_H-M   'P 1'
_cell_length_a   10.71884117
_cell_length_b   10.71735800
_cell_length_c   6.33974910
_cell_angle_alpha   89.99924629
_cell_angle_beta   90.02053338
_cell_angle_gamma   89.99900577
_symmetry_Int_Tables_number   1
_chemical_formula_structural   DyTm19(Ir2Os)4
_chemical_formula_sum   'Dy1 Tm19 Ir8 Os4'
_cell_volume   728.29548345
_cell_formula_units_Z   1
loop_
 _symmetry_equiv_pos_site_id
 _symmetry_equiv_pos_as_xyz
  1  'x, y, z'
loop_
 _atom_site_type_symbol
 _atom_site_label
 _atom_site_symmetry_multiplicity
 _atom_site_fract_x
 _atom_site_fract_y
 _atom_site_fract_z
 _atom_site_occupancy
  Dy  Dy0  1  0.292883  0.086384  0.375588  1
  Tm  Tm1  1  0.293664  0.913572  0.876288  1
  Tm  Tm2  1  0.706433  0.086150  0.876335  1
  Tm  Tm3  1  0.706455  0.913818  0.376258  1
  Tm  Tm4  1  0.586219  0.793567  0.876325  1
  Tm  Tm5  1  0.586607  0.206522  0.376322  1
  Tm  Tm6  1  0.414060  0.793249  0.376284  1
  Tm  Tm7  1  0.414119  0.206513  0.876281  1
  Tm  Tm8  1  0.206319  0.413984  0.623803  1
  Tm  Tm9  1  0.206324  0.586132  0.123738  1
  Tm  Tm10  1  0.793653  0.413888  0.123709  1
  Tm  Tm11  1  0.793669  0.586153  0.623675  1
  Tm  Tm12  1  0.913862  0.706311  0.123706  1
  Tm  Tm13  1  0.913837  0.293640  0.623672  1
  Tm  Tm14  1  0.086092  0.706336  0.623744  1
  Tm  Tm15  1  0.085831  0.293904  0.123445  1
  Tm  Tm16  1  0.999570  0.999801  0.500208  1
  Tm  Tm17  1  0.999905  0.999970  0.999967  1
  Tm  Tm18  1  0.500048  0.500048  0.999985  1
  Tm  Tm19  1  0.500086  0.500033  0.500095  1
  Ir  Ir20  1  0.847487  0.152484  0.249996  1
  Ir  Ir21  1  0.847505  0.847523  0.750006  1
  Ir  Ir22  1  0.152040  0.152729  0.751414  1
  Ir  Ir23  1  0.152152  0.846952  0.249664  1
  Ir  Ir24  1  0.652475  0.347512  0.750024  1
  Ir  Ir25  1  0.652439  0.652515  0.250001  1
  Ir  Ir26  1  0.347651  0.348303  0.249555  1
  Ir  Ir27  1  0.347527  0.652484  0.750034  1
  Os  Os28  1  0.500494  0.999769  0.122242  1
  Os  Os29  1  0.500604  0.999756  0.623559  1
  Os  Os30  1  0.999989  0.499975  0.877022  1
  Os  Os31  1  0.000002  0.500022  0.377056  1
