# generated using pymatgen
data_GdHoInGa2
_symmetry_space_group_name_H-M   'P 1'
_cell_length_a   7.21220000
_cell_length_b   7.21219800
_cell_length_c   4.43364000
_cell_angle_alpha   90.00000000
_cell_angle_beta   90.00000000
_cell_angle_gamma   90.00000000
_symmetry_Int_Tables_number   1
_chemical_formula_structural   GdHoInGa2
_chemical_formula_sum   'Gd2 Ho2 In2 Ga4'
_cell_volume   230.61939543
_cell_formula_units_Z   2
loop_
 _symmetry_equiv_pos_site_id
 _symmetry_equiv_pos_as_xyz
  1  'x, y, z'
loop_
 _atom_site_type_symbol
 _atom_site_label
 _atom_site_symmetry_multiplicity
 _atom_site_fract_x
 _atom_site_fract_y
 _atom_site_fract_z
 _atom_site_occupancy
  Gd  Gd0  1  0.327681  0.828189  0.500000  1
  Gd  Gd1  1  0.827626  0.672022  0.500000  1
  Ho  Ho2  1  0.172233  0.327449  0.500000  1
  Ho  Ho3  1  0.672267  0.172546  0.500000  1
  In  In4  1  0.999718  0.001184  0.000000  1
  In  In5  1  0.499761  0.498597  0.000000  1
  Ga  Ga6  1  0.126293  0.624185  0.000000  1
  Ga  Ga7  1  0.626234  0.875828  0.000000  1
  Ga  Ga8  1  0.374071  0.127916  0.000000  1
  Ga  Ga9  1  0.874115  0.372084  0.000000  1
