# generated using pymatgen
data_Tb5ErAl24(Os3Rh)2
_symmetry_space_group_name_H-M   'P 1'
_cell_length_a   8.83332100
_cell_length_b   8.82496199
_cell_length_c   9.59117000
_cell_angle_alpha   90.00000000
_cell_angle_beta   90.00000000
_cell_angle_gamma   120.03133434
_symmetry_Int_Tables_number   1
_chemical_formula_structural   Tb5ErAl24(Os3Rh)2
_chemical_formula_sum   'Tb5 Er1 Al24 Os6 Rh2'
_cell_volume   647.29442086
_cell_formula_units_Z   1
loop_
 _symmetry_equiv_pos_site_id
 _symmetry_equiv_pos_as_xyz
  1  'x, y, z'
loop_
 _atom_site_type_symbol
 _atom_site_label
 _atom_site_symmetry_multiplicity
 _atom_site_fract_x
 _atom_site_fract_y
 _atom_site_fract_z
 _atom_site_occupancy
  Tb  Tb0  1  0.806090  0.612179  0.750000  1
  Tb  Tb1  1  0.616058  0.803429  0.250000  1
  Tb  Tb2  1  0.384010  0.196458  0.750000  1
  Tb  Tb3  1  0.187373  0.803429  0.250000  1
  Tb  Tb4  1  0.812448  0.196458  0.750000  1
  Er  Er5  1  0.195154  0.390309  0.250000  1
  Al  Al6  1  0.333134  0.666267  0.021091  1
  Al  Al7  1  0.666659  0.333319  0.979712  1
  Al  Al8  1  0.666659  0.333319  0.520288  1
  Al  Al9  1  0.333134  0.666267  0.478909  1
  Al  Al10  1  0.164135  0.328269  0.575136  1
  Al  Al11  1  0.835732  0.671464  0.423847  1
  Al  Al12  1  0.673041  0.835137  0.576353  1
  Al  Al13  1  0.835732  0.671464  0.076153  1
  Al  Al14  1  0.326403  0.164934  0.423035  1
  Al  Al15  1  0.164135  0.328269  0.924864  1
  Al  Al16  1  0.162097  0.835137  0.576353  1
  Al  Al17  1  0.326403  0.164934  0.076965  1
  Al  Al18  1  0.838530  0.164934  0.423035  1
  Al  Al19  1  0.673041  0.835137  0.923647  1
  Al  Al20  1  0.838530  0.164934  0.076965  1
  Al  Al21  1  0.162097  0.835137  0.923647  1
  Al  Al22  1  0.560025  0.120048  0.250000  1
  Al  Al23  1  0.439979  0.879960  0.750000  1
  Al  Al24  1  0.875278  0.436546  0.250000  1
  Al  Al25  1  0.125235  0.563066  0.750000  1
  Al  Al26  1  0.561267  0.436546  0.250000  1
  Al  Al27  1  0.437832  0.563066  0.750000  1
  Al  Al28  1  0.000411  0.000821  0.250000  1
  Al  Al29  1  0.000580  0.001161  0.750000  1
  Os  Os30  1  0.000254  0.499678  0.000358  1
  Os  Os31  1  0.499424  0.499678  0.000358  1
  Os  Os32  1  0.000254  0.499678  0.499642  1
  Os  Os33  1  0.499424  0.499678  0.499642  1
  Os  Os34  1  0.999904  0.999808  0.000148  1
  Os  Os35  1  0.999904  0.999808  0.499852  1
  Rh  Rh36  1  0.499817  0.999634  0.000365  1
  Rh  Rh37  1  0.499817  0.999634  0.499635  1
