# generated using pymatgen
data_Er2P7IrRu11
_symmetry_space_group_name_H-M   'P 1'
_cell_length_a   9.36765018
_cell_length_b   9.43214458
_cell_length_c   3.94477900
_cell_angle_alpha   90.00000000
_cell_angle_beta   90.00000000
_cell_angle_gamma   119.66667583
_symmetry_Int_Tables_number   1
_chemical_formula_structural   Er2P7IrRu11
_chemical_formula_sum   'Er2 P7 Ir1 Ru11'
_cell_volume   302.86099993
_cell_formula_units_Z   1
loop_
 _symmetry_equiv_pos_site_id
 _symmetry_equiv_pos_as_xyz
  1  'x, y, z'
loop_
 _atom_site_type_symbol
 _atom_site_label
 _atom_site_symmetry_multiplicity
 _atom_site_fract_x
 _atom_site_fract_y
 _atom_site_fract_z
 _atom_site_occupancy
  Er  Er0  1  0.668061  0.334958  0.500000  1
  Er  Er1  1  0.331625  0.663444  0.000000  1
  P  P2  1  0.598859  0.712669  0.500000  1
  P  P3  1  0.999277  0.999952  0.000000  1
  P  P4  1  0.278048  0.879353  0.500000  1
  P  P5  1  0.117357  0.399902  0.500000  1
  P  P6  1  0.885880  0.576991  0.000000  1
  P  P7  1  0.426756  0.310332  0.000000  1
  P  P8  1  0.696103  0.121035  0.000000  1
  Ir  Ir9  1  0.549918  0.941314  0.500000  1
  Ru  Ru10  1  0.391182  0.442057  0.500000  1
  Ru  Ru11  1  0.912187  0.124128  0.500000  1
  Ru  Ru12  1  0.210037  0.085756  0.500000  1
  Ru  Ru13  1  0.877000  0.793451  0.500000  1
  Ru  Ru14  1  0.726415  0.893523  0.000000  1
  Ru  Ru15  1  0.109908  0.837218  0.000000  1
  Ru  Ru16  1  0.163568  0.270415  0.000000  1
  Ru  Ru17  1  0.430122  0.068778  0.000000  1
  Ru  Ru18  1  0.935256  0.361544  0.000000  1
  Ru  Ru19  1  0.641005  0.575486  0.000000  1
  Ru  Ru20  1  0.051435  0.607697  0.500000  1
