# generated using pymatgen
data_Tb2EuThH9
_symmetry_space_group_name_H-M   'P 1'
_cell_length_a   6.67574708
_cell_length_b   6.67574777
_cell_length_c   6.67574763
_cell_angle_alpha   132.90412680
_cell_angle_beta   133.45342486
_cell_angle_gamma   68.37450350
_symmetry_Int_Tables_number   1
_chemical_formula_structural   Tb2EuThH9
_chemical_formula_sum   'Tb2 Eu1 Th1 H9'
_cell_volume   155.39375301
_cell_formula_units_Z   1
loop_
 _symmetry_equiv_pos_site_id
 _symmetry_equiv_pos_as_xyz
  1  'x, y, z'
loop_
 _atom_site_type_symbol
 _atom_site_label
 _atom_site_symmetry_multiplicity
 _atom_site_fract_x
 _atom_site_fract_y
 _atom_site_fract_z
 _atom_site_occupancy
  Tb  Tb0  1  0.748238  0.748238  0.000000  1
  Tb  Tb1  1  0.251762  0.251762  0.000000  1
  Eu  Eu2  1  0.500000  0.000000  0.500000  1
  Th  Th3  1  0.000000  0.500000  0.500000  1
  H  H4  1  0.897025  0.385622  0.013776  1
  H  H5  1  0.371846  0.883249  0.986224  1
  H  H6  1  0.628154  0.116751  0.013776  1
  H  H7  1  0.102975  0.116751  0.488597  1
  H  H8  1  0.371846  0.385622  0.488597  1
  H  H9  1  0.500000  0.500000  0.000000  1
  H  H10  1  0.102975  0.614378  0.986224  1
  H  H11  1  0.628154  0.614378  0.511403  1
  H  H12  1  0.897025  0.883249  0.511403  1
