# generated using pymatgen
data_La4Cd2RuAu3
_symmetry_space_group_name_H-M   'P 1'
_cell_length_a   8.08086143
_cell_length_b   8.08086143
_cell_length_c   4.00642500
_cell_angle_alpha   90.00000000
_cell_angle_beta   90.00000000
_cell_angle_gamma   90.28749803
_symmetry_Int_Tables_number   1
_chemical_formula_structural   La4Cd2RuAu3
_chemical_formula_sum   'La4 Cd2 Ru1 Au3'
_cell_volume   261.61754698
_cell_formula_units_Z   1
loop_
 _symmetry_equiv_pos_site_id
 _symmetry_equiv_pos_as_xyz
  1  'x, y, z'
loop_
 _atom_site_type_symbol
 _atom_site_label
 _atom_site_symmetry_multiplicity
 _atom_site_fract_x
 _atom_site_fract_y
 _atom_site_fract_z
 _atom_site_occupancy
  La  La0  1  0.669224  0.169224  0.500000  1
  La  La1  1  0.306096  0.806096  0.500000  1
  La  La2  1  0.176263  0.348976  0.500000  1
  La  La3  1  0.848976  0.676263  0.500000  1
  Cd  Cd4  1  0.002154  0.997269  0.000000  1
  Cd  Cd5  1  0.497269  0.502154  0.000000  1
  Ru  Ru6  1  0.135304  0.635304  0.000000  1
  Au  Au7  1  0.873610  0.373610  0.000000  1
  Au  Au8  1  0.624032  0.867072  0.000000  1
  Au  Au9  1  0.367072  0.124032  0.000000  1
