# generated using pymatgen
data_Ta2Nb4SnCl18
_symmetry_space_group_name_H-M   'P 1'
_cell_length_a   10.33096694
_cell_length_b   10.33293350
_cell_length_c   10.32902061
_cell_angle_alpha   55.78740607
_cell_angle_beta   55.82426541
_cell_angle_gamma   55.78393942
_symmetry_Int_Tables_number   1
_chemical_formula_structural   Ta2Nb4SnCl18
_chemical_formula_sum   'Ta2 Nb4 Sn1 Cl18'
_cell_volume   703.70835254
_cell_formula_units_Z   1
loop_
 _symmetry_equiv_pos_site_id
 _symmetry_equiv_pos_as_xyz
  1  'x, y, z'
loop_
 _atom_site_type_symbol
 _atom_site_label
 _atom_site_symmetry_multiplicity
 _atom_site_fract_x
 _atom_site_fract_y
 _atom_site_fract_z
 _atom_site_occupancy
  Ta  Ta0  1  0.411931  0.297369  0.648967  1
  Ta  Ta1  1  0.350799  0.588737  0.702201  1
  Nb  Nb2  1  0.703663  0.350105  0.588407  1
  Nb  Nb3  1  0.297125  0.650312  0.410403  1
  Nb  Nb4  1  0.650466  0.411147  0.296224  1
  Nb  Nb5  1  0.589455  0.703359  0.349327  1
  Sn  Sn6  1  0.996247  0.002113  0.001679  1
  Cl  Cl7  1  0.568591  0.167298  0.441684  1
  Cl  Cl8  1  0.229470  0.369608  0.900742  1
  Cl  Cl9  1  0.902305  0.227975  0.369777  1
  Cl  Cl10  1  0.369036  0.902568  0.228588  1
  Cl  Cl11  1  0.771598  0.630608  0.097490  1
  Cl  Cl12  1  0.098753  0.770469  0.632334  1
  Cl  Cl13  1  0.688314  0.954425  0.169360  1
  Cl  Cl14  1  0.952805  0.169079  0.689395  1
  Cl  Cl15  1  0.172984  0.684765  0.949498  1
  Cl  Cl16  1  0.314008  0.051147  0.827589  1
  Cl  Cl17  1  0.046055  0.830083  0.312827  1
  Cl  Cl18  1  0.830956  0.310540  0.046142  1
  Cl  Cl19  1  0.558316  0.430981  0.832877  1
  Cl  Cl20  1  0.168733  0.437413  0.571846  1
  Cl  Cl21  1  0.439186  0.570084  0.167526  1
  Cl  Cl22  1  0.428191  0.831160  0.562936  1
  Cl  Cl23  1  0.832409  0.560438  0.430314  1
  Cl  Cl24  1  0.628606  0.098218  0.771869  1
