# generated using pymatgen
data_DyHoAlHgPt2
_symmetry_space_group_name_H-M   'P 1'
_cell_length_a   4.22194000
_cell_length_b   7.10320054
_cell_length_c   8.36845597
_cell_angle_alpha   93.15018201
_cell_angle_beta   90.00000000
_cell_angle_gamma   90.00000000
_symmetry_Int_Tables_number   1
_chemical_formula_structural   DyHoAlHgPt2
_chemical_formula_sum   'Dy2 Ho2 Al2 Hg2 Pt4'
_cell_volume   250.58479734
_cell_formula_units_Z   2
loop_
 _symmetry_equiv_pos_site_id
 _symmetry_equiv_pos_as_xyz
  1  'x, y, z'
loop_
 _atom_site_type_symbol
 _atom_site_label
 _atom_site_symmetry_multiplicity
 _atom_site_fract_x
 _atom_site_fract_y
 _atom_site_fract_z
 _atom_site_occupancy
  Dy  Dy0  1  0.750000  0.038160  0.684820  1
  Dy  Dy1  1  0.250000  0.961840  0.315180  1
  Ho  Ho2  1  0.250000  0.460544  0.185477  1
  Ho  Ho3  1  0.750000  0.539456  0.814523  1
  Al  Al4  1  0.750000  0.637355  0.440155  1
  Al  Al5  1  0.250000  0.362645  0.559845  1
  Hg  Hg6  1  0.250000  0.851268  0.932547  1
  Hg  Hg7  1  0.750000  0.148732  0.067453  1
  Pt  Pt8  1  0.250000  0.732226  0.595603  1
  Pt  Pt9  1  0.750000  0.267774  0.404397  1
  Pt  Pt10  1  0.750000  0.731435  0.148503  1
  Pt  Pt11  1  0.250000  0.268565  0.851497  1
