# generated using pymatgen
data_La2Cd14Pd3
_symmetry_space_group_name_H-M   'P 1'
_cell_length_a   7.56381102
_cell_length_b   7.56381079
_cell_length_c   7.56381029
_cell_angle_alpha   82.64485219
_cell_angle_beta   82.64485336
_cell_angle_gamma   82.64486686
_symmetry_Int_Tables_number   1
_chemical_formula_structural   La2Cd14Pd3
_chemical_formula_sum   'La2 Cd14 Pd3'
_cell_volume   422.89284730
_cell_formula_units_Z   1
loop_
 _symmetry_equiv_pos_site_id
 _symmetry_equiv_pos_as_xyz
  1  'x, y, z'
loop_
 _atom_site_type_symbol
 _atom_site_label
 _atom_site_symmetry_multiplicity
 _atom_site_fract_x
 _atom_site_fract_y
 _atom_site_fract_z
 _atom_site_occupancy
  La  La0  1  0.661922  0.661922  0.661922  1
  La  La1  1  0.338078  0.338078  0.338078  1
  Cd  Cd2  1  0.348873  0.348873  0.848438  1
  Cd  Cd3  1  0.848438  0.348873  0.348873  1
  Cd  Cd4  1  0.107124  0.107124  0.107124  1
  Cd  Cd5  1  0.892876  0.892876  0.892876  1
  Cd  Cd6  1  0.298348  0.701652  0.000000  1
  Cd  Cd7  1  0.701652  0.000000  0.298348  1
  Cd  Cd8  1  0.000000  0.298348  0.701652  1
  Cd  Cd9  1  0.701652  0.298348  0.000000  1
  Cd  Cd10  1  0.298348  0.000000  0.701652  1
  Cd  Cd11  1  0.000000  0.701652  0.298348  1
  Cd  Cd12  1  0.151562  0.651127  0.651127  1
  Cd  Cd13  1  0.651127  0.651127  0.151562  1
  Cd  Cd14  1  0.651127  0.151562  0.651127  1
  Cd  Cd15  1  0.348873  0.848438  0.348873  1
  Pd  Pd16  1  0.000000  0.000000  0.500000  1
  Pd  Pd17  1  0.000000  0.500000  0.000000  1
  Pd  Pd18  1  0.500000  0.000000  0.000000  1
