# generated using pymatgen
data_Tb2Dy3Sc3As3P9Ir16
_symmetry_space_group_name_H-M   'P 1'
_cell_length_a   12.86510600
_cell_length_b   12.86510633
_cell_length_c   3.96725100
_cell_angle_alpha   90.00000000
_cell_angle_beta   90.00000000
_cell_angle_gamma   119.99999915
_symmetry_Int_Tables_number   1
_chemical_formula_structural   Tb2Dy3Sc3As3P9Ir16
_chemical_formula_sum   'Tb2 Dy3 Sc3 As3 P9 Ir16'
_cell_volume   568.65264374
_cell_formula_units_Z   1
loop_
 _symmetry_equiv_pos_site_id
 _symmetry_equiv_pos_as_xyz
  1  'x, y, z'
loop_
 _atom_site_type_symbol
 _atom_site_label
 _atom_site_symmetry_multiplicity
 _atom_site_fract_x
 _atom_site_fract_y
 _atom_site_fract_z
 _atom_site_occupancy
  Tb  Tb0  1  0.333333  0.666667  0.500000  1
  Tb  Tb1  1  0.666667  0.333333  0.500000  1
  Dy  Dy2  1  0.000000  0.813867  0.000000  1
  Dy  Dy3  1  0.186133  0.186133  0.000000  1
  Dy  Dy4  1  0.813867  0.000000  0.000000  1
  Sc  Sc5  1  0.000000  0.442174  0.500000  1
  Sc  Sc6  1  0.557826  0.557826  0.500000  1
  Sc  Sc7  1  0.442174  0.000000  0.500000  1
  As  As8  1  0.000000  0.644799  0.500000  1
  As  As9  1  0.355201  0.355201  0.500000  1
  As  As10  1  0.644799  0.000000  0.500000  1
  P  P11  1  0.517107  0.686885  0.000000  1
  P  P12  1  0.313115  0.830222  0.000000  1
  P  P13  1  0.169778  0.482893  0.000000  1
  P  P14  1  0.482893  0.169778  0.000000  1
  P  P15  1  0.686885  0.517107  0.000000  1
  P  P16  1  0.830222  0.313115  0.000000  1
  P  P17  1  0.000000  0.176873  0.500000  1
  P  P18  1  0.823127  0.823127  0.500000  1
  P  P19  1  0.176873  0.000000  0.500000  1
  Ir  Ir20  1  0.507127  0.864898  0.000000  1
  Ir  Ir21  1  0.135102  0.642228  0.000000  1
  Ir  Ir22  1  0.357772  0.492873  0.000000  1
  Ir  Ir23  1  0.492873  0.357772  0.000000  1
  Ir  Ir24  1  0.864898  0.507127  0.000000  1
  Ir  Ir25  1  0.642228  0.135102  0.000000  1
  Ir  Ir26  1  0.000000  0.275991  0.000000  1
  Ir  Ir27  1  0.724009  0.724009  0.000000  1
  Ir  Ir28  1  0.275991  0.000000  0.000000  1
  Ir  Ir29  1  0.625057  0.799689  0.500000  1
  Ir  Ir30  1  0.200311  0.825368  0.500000  1
  Ir  Ir31  1  0.174632  0.374943  0.500000  1
  Ir  Ir32  1  0.374943  0.174632  0.500000  1
  Ir  Ir33  1  0.799689  0.625057  0.500000  1
  Ir  Ir34  1  0.825368  0.200311  0.500000  1
  Ir  Ir35  1  0.000000  0.000000  0.500000  1
