# generated using pymatgen
data_La6PrTm13Sn16
_symmetry_space_group_name_H-M   'P 1'
_cell_length_a   8.10712262
_cell_length_b   8.26692870
_cell_length_c   15.57421392
_cell_angle_alpha   90.02311952
_cell_angle_beta   90.31709325
_cell_angle_gamma   89.63920948
_symmetry_Int_Tables_number   1
_chemical_formula_structural   La6PrTm13Sn16
_chemical_formula_sum   'La6 Pr1 Tm13 Sn16'
_cell_volume   1043.76271409
_cell_formula_units_Z   1
loop_
 _symmetry_equiv_pos_site_id
 _symmetry_equiv_pos_as_xyz
  1  'x, y, z'
loop_
 _atom_site_type_symbol
 _atom_site_label
 _atom_site_symmetry_multiplicity
 _atom_site_fract_x
 _atom_site_fract_y
 _atom_site_fract_z
 _atom_site_occupancy
  La  La0  1  0.014262  0.178349  0.598589  1
  La  La1  1  0.486887  0.676771  0.404464  1
  La  La2  1  0.986588  0.822159  0.094372  1
  La  La3  1  0.484808  0.675380  0.094572  1
  La  La4  1  0.986444  0.823602  0.404405  1
  La  La5  1  0.511984  0.323701  0.595674  1
  Pr  Pr6  1  0.014355  0.179321  0.902998  1
  Tm  Tm7  1  0.357766  0.836262  0.875611  1
  Tm  Tm8  1  0.855290  0.663193  0.625189  1
  Tm  Tm9  1  0.643791  0.163340  0.375646  1
  Tm  Tm10  1  0.139362  0.337550  0.121566  1
  Tm  Tm11  1  0.640449  0.164164  0.122926  1
  Tm  Tm12  1  0.143240  0.336314  0.376389  1
  Tm  Tm13  1  0.357143  0.837647  0.626723  1
  Tm  Tm14  1  0.859503  0.661474  0.877336  1
  Tm  Tm15  1  0.520270  0.322214  0.901576  1
  Tm  Tm16  1  0.192188  0.502336  0.751982  1
  Tm  Tm17  1  0.690441  0.996426  0.751820  1
  Tm  Tm18  1  0.807648  0.496013  0.249109  1
  Tm  Tm19  1  0.308629  0.004414  0.249271  1
  Sn  Sn20  1  0.308520  0.044149  0.040632  1
  Sn  Sn21  1  0.809818  0.456462  0.457680  1
  Sn  Sn22  1  0.690159  0.958520  0.543387  1
  Sn  Sn23  1  0.202754  0.534681  0.954588  1
  Sn  Sn24  1  0.689996  0.963193  0.956228  1
  Sn  Sn25  1  0.189124  0.544894  0.543420  1
  Sn  Sn26  1  0.310064  0.041828  0.458260  1
  Sn  Sn27  1  0.799491  0.453743  0.039412  1
  Sn  Sn28  1  0.556404  0.624281  0.751098  1
  Sn  Sn29  1  0.055104  0.872825  0.750938  1
  Sn  Sn30  1  0.442716  0.372780  0.249456  1
  Sn  Sn31  1  0.944279  0.128169  0.248830  1
  Sn  Sn32  1  0.328430  0.146628  0.754107  1
  Sn  Sn33  1  0.819355  0.358219  0.752196  1
  Sn  Sn34  1  0.676385  0.858212  0.249644  1
  Sn  Sn35  1  0.176354  0.640784  0.249906  1
