# generated using pymatgen
data_Pr3Th(HgPt2)2
_symmetry_space_group_name_H-M   'P 1'
_cell_length_a   7.97640503
_cell_length_b   7.97640503
_cell_length_c   3.84701000
_cell_angle_alpha   90.00000000
_cell_angle_beta   90.00000000
_cell_angle_gamma   88.59911995
_symmetry_Int_Tables_number   1
_chemical_formula_structural   Pr3Th(HgPt2)2
_chemical_formula_sum   'Pr3 Th1 Hg2 Pt4'
_cell_volume   244.68530559
_cell_formula_units_Z   1
loop_
 _symmetry_equiv_pos_site_id
 _symmetry_equiv_pos_as_xyz
  1  'x, y, z'
loop_
 _atom_site_type_symbol
 _atom_site_label
 _atom_site_symmetry_multiplicity
 _atom_site_fract_x
 _atom_site_fract_y
 _atom_site_fract_z
 _atom_site_occupancy
  Pr  Pr0  1  0.825793  0.327963  0.500001  1
  Pr  Pr1  1  0.172038  0.674208  0.500001  1
  Pr  Pr2  1  0.674503  0.825498  0.500001  1
  Th  Th3  1  0.329465  0.170536  0.500001  1
  Hg  Hg4  1  0.997920  0.999445  0.000000  1
  Hg  Hg5  1  0.500555  0.502080  0.000000  1
  Pt  Pt6  1  0.617959  0.131433  0.000000  1
  Pt  Pt7  1  0.135876  0.364124  0.000000  1
  Pt  Pt8  1  0.877325  0.622675  0.000000  1
  Pt  Pt9  1  0.368567  0.882041  0.000000  1
