# generated using pymatgen
data_Nd5TmAl23VOs8
_symmetry_space_group_name_H-M   'P 1'
_cell_length_a   8.89399100
_cell_length_b   8.92785890
_cell_length_c   9.65279657
_cell_angle_alpha   90.03398142
_cell_angle_beta   90.00000000
_cell_angle_gamma   119.87459461
_symmetry_Int_Tables_number   1
_chemical_formula_structural   Nd5TmAl23VOs8
_chemical_formula_sum   'Nd5 Tm1 Al23 V1 Os8'
_cell_volume   664.62260049
_cell_formula_units_Z   1
loop_
 _symmetry_equiv_pos_site_id
 _symmetry_equiv_pos_as_xyz
  1  'x, y, z'
loop_
 _atom_site_type_symbol
 _atom_site_label
 _atom_site_symmetry_multiplicity
 _atom_site_fract_x
 _atom_site_fract_y
 _atom_site_fract_z
 _atom_site_occupancy
  Nd  Nd0  1  0.807987  0.615974  0.751539  1
  Nd  Nd1  1  0.616624  0.808942  0.247248  1
  Nd  Nd2  1  0.382423  0.189921  0.751467  1
  Nd  Nd3  1  0.192317  0.808942  0.247248  1
  Nd  Nd4  1  0.807497  0.189921  0.751467  1
  Tm  Tm5  1  0.197289  0.394580  0.244403  1
  Al  Al6  1  0.666521  0.333042  0.983688  1
  Al  Al7  1  0.666139  0.332278  0.518069  1
  Al  Al8  1  0.332866  0.665733  0.482984  1
  Al  Al9  1  0.162635  0.325270  0.569708  1
  Al  Al10  1  0.835905  0.671810  0.424915  1
  Al  Al11  1  0.673332  0.836423  0.572741  1
  Al  Al12  1  0.835081  0.670163  0.078371  1
  Al  Al13  1  0.326184  0.164788  0.424785  1
  Al  Al14  1  0.160346  0.320693  0.929685  1
  Al  Al15  1  0.163091  0.836423  0.572741  1
  Al  Al16  1  0.327912  0.165435  0.077928  1
  Al  Al17  1  0.838602  0.164788  0.424785  1
  Al  Al18  1  0.677317  0.838592  0.927724  1
  Al  Al19  1  0.837522  0.165435  0.077928  1
  Al  Al20  1  0.161274  0.838592  0.927724  1
  Al  Al21  1  0.563275  0.126552  0.252015  1
  Al  Al22  1  0.439249  0.878498  0.749690  1
  Al  Al23  1  0.876922  0.437248  0.252806  1
  Al  Al24  1  0.119771  0.558437  0.750145  1
  Al  Al25  1  0.560325  0.437248  0.252806  1
  Al  Al26  1  0.438665  0.558437  0.750145  1
  Al  Al27  1  0.005472  0.010945  0.250847  1
  Al  Al28  1  0.999335  0.998670  0.750699  1
  V  V29  1  0.332625  0.665252  0.980877  1
  Os  Os30  1  0.493805  0.987609  0.005064  1
  Os  Os31  1  0.013757  0.504831  0.006760  1
  Os  Os32  1  0.498326  0.996651  0.500536  1
  Os  Os33  1  0.491074  0.504831  0.006760  1
  Os  Os34  1  0.003018  0.499691  0.500996  1
  Os  Os35  1  0.496673  0.499691  0.500996  1
  Os  Os36  1  0.999288  0.998575  0.002910  1
  Os  Os37  1  0.999548  0.999096  0.498801  1
