# generated using pymatgen
data_Zr4ZnRh8Au3
_symmetry_space_group_name_H-M   'P 1'
_cell_length_a   5.85484544
_cell_length_b   5.85572944
_cell_length_c   7.60038101
_cell_angle_alpha   90.00582262
_cell_angle_beta   89.99586013
_cell_angle_gamma   89.95572159
_symmetry_Int_Tables_number   1
_chemical_formula_structural   Zr4ZnRh8Au3
_chemical_formula_sum   'Zr4 Zn1 Rh8 Au3'
_cell_volume   260.57435342
_cell_formula_units_Z   1
loop_
 _symmetry_equiv_pos_site_id
 _symmetry_equiv_pos_as_xyz
  1  'x, y, z'
loop_
 _atom_site_type_symbol
 _atom_site_label
 _atom_site_symmetry_multiplicity
 _atom_site_fract_x
 _atom_site_fract_y
 _atom_site_fract_z
 _atom_site_occupancy
  Zr  Zr0  1  0.750041  0.249998  0.999992  1
  Zr  Zr1  1  0.249951  0.749999  0.999989  1
  Zr  Zr2  1  0.250044  0.750000  0.500008  1
  Zr  Zr3  1  0.749937  0.250002  0.500006  1
  Zn  Zn4  1  0.250011  0.249997  0.500012  1
  Rh  Rh5  1  0.497163  0.002804  0.254862  1
  Rh  Rh6  1  0.497149  0.497179  0.254851  1
  Rh  Rh7  1  0.002830  0.002821  0.254951  1
  Rh  Rh8  1  0.002817  0.497187  0.254963  1
  Rh  Rh9  1  0.002864  0.002801  0.745035  1
  Rh  Rh10  1  0.002857  0.497213  0.745016  1
  Rh  Rh11  1  0.497219  0.002818  0.745137  1
  Rh  Rh12  1  0.497207  0.497175  0.745147  1
  Au  Au13  1  0.249950  0.249996  0.000026  1
  Au  Au14  1  0.750026  0.750003  0.000035  1
  Au  Au15  1  0.749938  0.750005  0.499965  1
