# generated using pymatgen
data_Ho2Ga8CuPd3
_symmetry_space_group_name_H-M   'P 1'
_cell_length_a   7.56874798
_cell_length_b   7.56874780
_cell_length_c   9.49140200
_cell_angle_alpha   90.00000000
_cell_angle_beta   90.00000000
_cell_angle_gamma   118.22426559
_symmetry_Int_Tables_number   1
_chemical_formula_structural   Ho2Ga8CuPd3
_chemical_formula_sum   'Ho4 Ga16 Cu2 Pd6'
_cell_volume   479.07691636
_cell_formula_units_Z   2
loop_
 _symmetry_equiv_pos_site_id
 _symmetry_equiv_pos_as_xyz
  1  'x, y, z'
loop_
 _atom_site_type_symbol
 _atom_site_label
 _atom_site_symmetry_multiplicity
 _atom_site_fract_x
 _atom_site_fract_y
 _atom_site_fract_z
 _atom_site_occupancy
  Ho  Ho0  1  0.996651  0.676494  0.250000  1
  Ho  Ho1  1  0.003349  0.323506  0.750000  1
  Ho  Ho2  1  0.676494  0.996651  0.250000  1
  Ho  Ho3  1  0.323506  0.003349  0.750000  1
  Ga  Ga4  1  0.005890  0.331644  0.087966  1
  Ga  Ga5  1  0.994110  0.668356  0.912034  1
  Ga  Ga6  1  0.994110  0.668356  0.587966  1
  Ga  Ga7  1  0.331644  0.005890  0.412034  1
  Ga  Ga8  1  0.005890  0.331644  0.412034  1
  Ga  Ga9  1  0.668356  0.994110  0.587966  1
  Ga  Ga10  1  0.668356  0.994110  0.912034  1
  Ga  Ga11  1  0.331644  0.005890  0.087966  1
  Ga  Ga12  1  0.329806  0.329806  0.561157  1
  Ga  Ga13  1  0.670194  0.670195  0.438843  1
  Ga  Ga14  1  0.670194  0.670195  0.061157  1
  Ga  Ga15  1  0.329806  0.329806  0.938843  1
  Ga  Ga16  1  0.342307  0.544500  0.250000  1
  Ga  Ga17  1  0.657693  0.455500  0.750000  1
  Ga  Ga18  1  0.544500  0.342307  0.250000  1
  Ga  Ga19  1  0.455500  0.657693  0.750000  1
  Cu  Cu20  1  0.150746  0.150746  0.250000  1
  Cu  Cu21  1  0.849254  0.849254  0.750000  1
  Pd  Pd22  1  0.674906  0.325094  0.000000  1
  Pd  Pd23  1  0.325094  0.674906  0.000000  1
  Pd  Pd24  1  0.325094  0.674906  0.500000  1
  Pd  Pd25  1  0.674906  0.325094  0.500000  1
  Pd  Pd26  1  0.000000  0.000000  0.000000  1
  Pd  Pd27  1  0.000000  0.000000  0.500000  1
