# generated using pymatgen
data_TbDy9(SiSn3)2
_symmetry_space_group_name_H-M   'P 1'
_cell_length_a   9.23406101
_cell_length_b   9.23406191
_cell_length_c   6.45958700
_cell_angle_alpha   90.00000000
_cell_angle_beta   90.00000000
_cell_angle_gamma   119.99622977
_symmetry_Int_Tables_number   1
_chemical_formula_structural   TbDy9(SiSn3)2
_chemical_formula_sum   'Tb1 Dy9 Si2 Sn6'
_cell_volume   477.02089495
_cell_formula_units_Z   1
loop_
 _symmetry_equiv_pos_site_id
 _symmetry_equiv_pos_as_xyz
  1  'x, y, z'
loop_
 _atom_site_type_symbol
 _atom_site_label
 _atom_site_symmetry_multiplicity
 _atom_site_fract_x
 _atom_site_fract_y
 _atom_site_fract_z
 _atom_site_occupancy
  Tb  Tb0  1  0.747220  0.747220  0.750000  1
  Dy  Dy1  1  0.666657  0.333306  0.000010  1
  Dy  Dy2  1  0.333306  0.666657  0.000010  1
  Dy  Dy3  1  0.333306  0.666657  0.499990  1
  Dy  Dy4  1  0.666657  0.333306  0.499990  1
  Dy  Dy5  1  0.252660  0.000012  0.750000  1
  Dy  Dy6  1  0.000012  0.252660  0.750000  1
  Dy  Dy7  1  0.252656  0.252656  0.250000  1
  Dy  Dy8  1  0.747353  0.000019  0.250000  1
  Dy  Dy9  1  0.000019  0.747353  0.250000  1
  Si  Si10  1  0.000106  0.000106  0.000121  1
  Si  Si11  1  0.000106  0.000106  0.499879  1
  Sn  Sn12  1  0.391046  0.391046  0.750000  1
  Sn  Sn13  1  0.608837  0.000063  0.750000  1
  Sn  Sn14  1  0.000063  0.608837  0.750000  1
  Sn  Sn15  1  0.608879  0.608879  0.250000  1
  Sn  Sn16  1  0.391120  0.999999  0.250000  1
  Sn  Sn17  1  0.999999  0.391120  0.250000  1
