# generated using pymatgen
data_Sr2ScBrO3
_symmetry_space_group_name_H-M   'P 1'
_cell_length_a   4.12474100
_cell_length_b   4.12474100
_cell_length_c   15.28120200
_cell_angle_alpha   90.00000000
_cell_angle_beta   90.00000000
_cell_angle_gamma   90.00000000
_symmetry_Int_Tables_number   1
_chemical_formula_structural   Sr2ScBrO3
_chemical_formula_sum   'Sr4 Sc2 Br2 O6'
_cell_volume   259.98655170
_cell_formula_units_Z   2
loop_
 _symmetry_equiv_pos_site_id
 _symmetry_equiv_pos_as_xyz
  1  'x, y, z'
loop_
 _atom_site_type_symbol
 _atom_site_label
 _atom_site_symmetry_multiplicity
 _atom_site_fract_x
 _atom_site_fract_y
 _atom_site_fract_z
 _atom_site_occupancy
  Sr  Sr0  1  0.249999  0.249999  0.089095  1
  Sr  Sr1  1  0.249999  0.249999  0.323168  1
  Sr  Sr2  1  0.749999  0.749999  0.676831  1
  Sr  Sr3  1  0.749999  0.749999  0.910905  1
  Sc  Sc4  1  0.749999  0.749999  0.198896  1
  Sc  Sc5  1  0.249999  0.249999  0.801104  1
  Br  Br6  1  0.749999  0.749999  0.411095  1
  Br  Br7  1  0.249999  0.249999  0.588906  1
  O  O8  1  0.749999  0.749999  0.068989  1
  O  O9  1  0.749999  0.249999  0.220140  1
  O  O10  1  0.249999  0.749999  0.220140  1
  O  O11  1  0.749999  0.249999  0.779860  1
  O  O12  1  0.249999  0.749999  0.779860  1
  O  O13  1  0.249999  0.249999  0.931011  1
