# generated using pymatgen
data_Sm3Ho3(Si3Ru)8
_symmetry_space_group_name_H-M   'P 1'
_cell_length_a   10.14169352
_cell_length_b   10.14169310
_cell_length_c   8.17166906
_cell_angle_alpha   90.09061431
_cell_angle_beta   89.90938506
_cell_angle_gamma   132.47757559
_symmetry_Int_Tables_number   1
_chemical_formula_structural   Sm3Ho3(Si3Ru)8
_chemical_formula_sum   'Sm3 Ho3 Si24 Ru8'
_cell_volume   619.89430020
_cell_formula_units_Z   1
loop_
 _symmetry_equiv_pos_site_id
 _symmetry_equiv_pos_as_xyz
  1  'x, y, z'
loop_
 _atom_site_type_symbol
 _atom_site_label
 _atom_site_symmetry_multiplicity
 _atom_site_fract_x
 _atom_site_fract_y
 _atom_site_fract_z
 _atom_site_occupancy
  Sm  Sm0  1  0.502624  0.002624  0.750000  1
  Sm  Sm1  1  0.997460  0.497460  0.250000  1
  Sm  Sm2  1  0.496800  0.996800  0.250000  1
  Ho  Ho3  1  0.500004  0.500018  0.500128  1
  Ho  Ho4  1  0.000018  0.000004  0.999872  1
  Ho  Ho5  1  0.002523  0.502523  0.750000  1
  Si  Si6  1  0.795513  0.206233  0.501262  1
  Si  Si7  1  0.293676  0.704241  0.998772  1
  Si  Si8  1  0.204241  0.793676  0.501228  1
  Si  Si9  1  0.706233  0.295513  0.998738  1
  Si  Si10  1  0.332298  0.332236  0.833128  1
  Si  Si11  1  0.667611  0.667764  0.167017  1
  Si  Si12  1  0.167764  0.167611  0.332983  1
  Si  Si13  1  0.832236  0.832298  0.666872  1
  Si  Si14  1  0.121249  0.888073  0.727772  1
  Si  Si15  1  0.112842  0.879239  0.271052  1
  Si  Si16  1  0.611083  0.377267  0.228514  1
  Si  Si17  1  0.621946  0.388486  0.771594  1
  Si  Si18  1  0.877267  0.111083  0.271486  1
  Si  Si19  1  0.888486  0.121946  0.728406  1
  Si  Si20  1  0.388073  0.621249  0.772228  1
  Si  Si21  1  0.379239  0.612842  0.228948  1
  Si  Si22  1  0.345765  0.112491  0.505053  1
  Si  Si23  1  0.888289  0.656313  0.496184  1
  Si  Si24  1  0.387354  0.154095  0.005233  1
  Si  Si25  1  0.844211  0.611764  0.993871  1
  Si  Si26  1  0.654095  0.887354  0.494767  1
  Si  Si27  1  0.111764  0.344211  0.506129  1
  Si  Si28  1  0.612491  0.845765  0.994947  1
  Si  Si29  1  0.156313  0.388289  0.003816  1
  Ru  Ru30  1  0.670649  0.334148  0.500671  1
  Ru  Ru31  1  0.165967  0.829501  0.998132  1
  Ru  Ru32  1  0.329501  0.665967  0.501868  1
  Ru  Ru33  1  0.834148  0.170649  0.999329  1
  Ru  Ru34  1  0.126070  0.125997  0.626774  1
  Ru  Ru35  1  0.874051  0.874148  0.372918  1
  Ru  Ru36  1  0.374148  0.374051  0.127082  1
  Ru  Ru37  1  0.625997  0.626070  0.873226  1
