# generated using pymatgen
data_Sc2TiBeP2Os3
_symmetry_space_group_name_H-M   'P 1'
_cell_length_a   6.57689814
_cell_length_b   6.61191977
_cell_length_c   3.38521100
_cell_angle_alpha   90.00000000
_cell_angle_beta   90.00000000
_cell_angle_gamma   120.17629824
_symmetry_Int_Tables_number   1
_chemical_formula_structural   Sc2TiBeP2Os3
_chemical_formula_sum   'Sc2 Ti1 Be1 P2 Os3'
_cell_volume   127.25967159
_cell_formula_units_Z   1
loop_
 _symmetry_equiv_pos_site_id
 _symmetry_equiv_pos_as_xyz
  1  'x, y, z'
loop_
 _atom_site_type_symbol
 _atom_site_label
 _atom_site_symmetry_multiplicity
 _atom_site_fract_x
 _atom_site_fract_y
 _atom_site_fract_z
 _atom_site_occupancy
  Sc  Sc0  1  0.401350  0.402941  0.500000  1
  Sc  Sc1  1  0.598650  0.001591  0.500000  1
  Ti  Ti2  1  0.000000  0.598306  0.500000  1
  Be  Be3  1  0.000000  0.997175  0.500000  1
  P  P4  1  0.673618  0.339171  0.000000  1
  P  P5  1  0.326382  0.665554  0.000000  1
  Os  Os6  1  0.755349  0.750518  0.000000  1
  Os  Os7  1  0.244651  0.995168  0.000000  1
  Os  Os8  1  0.000000  0.249576  0.000000  1
