# generated using pymatgen
data_Tb3ThCdOs
_symmetry_space_group_name_H-M   'P 1'
_cell_length_a   9.76181408
_cell_length_b   9.76181421
_cell_length_c   9.76181500
_cell_angle_alpha   60.00000071
_cell_angle_beta   60.00000026
_cell_angle_gamma   60.00000062
_symmetry_Int_Tables_number   1
_chemical_formula_structural   Tb3ThCdOs
_chemical_formula_sum   'Tb12 Th4 Cd4 Os4'
_cell_volume   657.77391950
_cell_formula_units_Z   4
loop_
 _symmetry_equiv_pos_site_id
 _symmetry_equiv_pos_as_xyz
  1  'x, y, z'
loop_
 _atom_site_type_symbol
 _atom_site_label
 _atom_site_symmetry_multiplicity
 _atom_site_fract_x
 _atom_site_fract_y
 _atom_site_fract_z
 _atom_site_occupancy
  Tb  Tb0  1  0.061107  0.438893  0.438893  1
  Tb  Tb1  1  0.438893  0.061107  0.061107  1
  Tb  Tb2  1  0.438893  0.061107  0.438893  1
  Tb  Tb3  1  0.061107  0.438893  0.061107  1
  Tb  Tb4  1  0.438893  0.438893  0.061107  1
  Tb  Tb5  1  0.061107  0.061107  0.438893  1
  Tb  Tb6  1  0.188150  0.811850  0.811850  1
  Tb  Tb7  1  0.811850  0.188150  0.188150  1
  Tb  Tb8  1  0.811850  0.188150  0.811850  1
  Tb  Tb9  1  0.188150  0.811850  0.188150  1
  Tb  Tb10  1  0.811850  0.811850  0.188150  1
  Tb  Tb11  1  0.188150  0.188150  0.811850  1
  Th  Th12  1  0.597587  0.597587  0.597587  1
  Th  Th13  1  0.597587  0.597587  0.207240  1
  Th  Th14  1  0.597587  0.207240  0.597587  1
  Th  Th15  1  0.207240  0.597587  0.597587  1
  Cd  Cd16  1  0.831443  0.831443  0.831443  1
  Cd  Cd17  1  0.831443  0.831443  0.505672  1
  Cd  Cd18  1  0.831443  0.505672  0.831443  1
  Cd  Cd19  1  0.505672  0.831443  0.831443  1
  Os  Os20  1  0.392572  0.392572  0.392572  1
  Os  Os21  1  0.392572  0.392572  0.822284  1
  Os  Os22  1  0.392572  0.822284  0.392572  1
  Os  Os23  1  0.822284  0.392572  0.392572  1
