# generated using pymatgen
data_Rb13Ti2(In3Bi5)2
_symmetry_space_group_name_H-M   'P 1'
_cell_length_a   10.38025473
_cell_length_b   10.18584285
_cell_length_c   14.56278004
_cell_angle_alpha   80.36980686
_cell_angle_beta   77.27447364
_cell_angle_gamma   63.10820233
_symmetry_Int_Tables_number   1
_chemical_formula_structural   Rb13Ti2(In3Bi5)2
_chemical_formula_sum   'Rb13 Ti2 In6 Bi10'
_cell_volume   1335.45373912
_cell_formula_units_Z   1
loop_
 _symmetry_equiv_pos_site_id
 _symmetry_equiv_pos_as_xyz
  1  'x, y, z'
loop_
 _atom_site_type_symbol
 _atom_site_label
 _atom_site_symmetry_multiplicity
 _atom_site_fract_x
 _atom_site_fract_y
 _atom_site_fract_z
 _atom_site_occupancy
  Rb  Rb0  1  0.498610  0.853839  0.352297  1
  Rb  Rb1  1  0.501390  0.146161  0.647703  1
  Rb  Rb2  1  0.866635  0.579156  0.890329  1
  Rb  Rb3  1  0.133365  0.420844  0.109671  1
  Rb  Rb4  1  0.092049  0.789152  0.436474  1
  Rb  Rb5  1  0.907951  0.210848  0.563526  1
  Rb  Rb6  1  0.731131  0.701039  0.599178  1
  Rb  Rb7  1  0.268869  0.298961  0.400822  1
  Rb  Rb8  1  0.500000  0.500000  0.000000  1
  Rb  Rb9  1  0.307456  0.937043  0.091760  1
  Rb  Rb10  1  0.692544  0.062957  0.908240  1
  Rb  Rb11  1  0.884578  0.857077  0.169111  1
  Rb  Rb12  1  0.115422  0.142923  0.830889  1
  Ti  Ti13  1  0.378430  0.734026  0.775946  1
  Ti  Ti14  1  0.621570  0.265974  0.224054  1
  In  In15  1  0.024198  0.812237  0.709865  1
  In  In16  1  0.975802  0.187763  0.290135  1
  In  In17  1  0.601414  0.443034  0.411608  1
  In  In18  1  0.398586  0.556966  0.588392  1
  In  In19  1  0.725518  0.566097  0.166791  1
  In  In20  1  0.274482  0.433903  0.833209  1
  Bi  Bi21  1  0.422412  0.565692  0.252727  1
  Bi  Bi22  1  0.577588  0.434308  0.747273  1
  Bi  Bi23  1  0.126344  0.750131  0.906821  1
  Bi  Bi24  1  0.873656  0.249869  0.093179  1
  Bi  Bi25  1  0.710295  0.112784  0.396518  1
  Bi  Bi26  1  0.289705  0.887216  0.603482  1
  Bi  Bi27  1  0.865806  0.518819  0.355090  1
  Bi  Bi28  1  0.134194  0.481181  0.644910  1
  Bi  Bi29  1  0.508605  0.860647  0.844335  1
  Bi  Bi30  1  0.491395  0.139353  0.155665  1
