# generated using pymatgen
data_CePa3(FeGe)4
_symmetry_space_group_name_H-M   'P 1'
_cell_length_a   7.16529249
_cell_length_b   4.39248300
_cell_length_c   6.80493300
_cell_angle_alpha   90.00000000
_cell_angle_beta   94.26145021
_cell_angle_gamma   90.00000000
_symmetry_Int_Tables_number   1
_chemical_formula_structural   CePa3(FeGe)4
_chemical_formula_sum   'Ce1 Pa3 Fe4 Ge4'
_cell_volume   213.58243488
_cell_formula_units_Z   1
loop_
 _symmetry_equiv_pos_site_id
 _symmetry_equiv_pos_as_xyz
  1  'x, y, z'
loop_
 _atom_site_type_symbol
 _atom_site_label
 _atom_site_symmetry_multiplicity
 _atom_site_fract_x
 _atom_site_fract_y
 _atom_site_fract_z
 _atom_site_occupancy
  Ce  Ce0  1  0.031695  0.249999  0.722953  1
  Pa  Pa1  1  0.964892  0.750001  0.272056  1
  Pa  Pa2  1  0.515190  0.249999  0.802386  1
  Pa  Pa3  1  0.483866  0.750001  0.196384  1
  Fe  Fe4  1  0.747949  0.249999  0.045798  1
  Fe  Fe5  1  0.251345  0.750001  0.960469  1
  Fe  Fe6  1  0.370406  0.249999  0.462417  1
  Fe  Fe7  1  0.639362  0.750001  0.537981  1
  Ge  Ge8  1  0.713295  0.249999  0.407007  1
  Ge  Ge9  1  0.287817  0.750001  0.591155  1
  Ge  Ge10  1  0.195150  0.249999  0.125942  1
  Ge  Ge11  1  0.799036  0.750001  0.875453  1
