# generated using pymatgen
data_Rb8Y6SiI20
_symmetry_space_group_name_H-M   'P 1'
_cell_length_a   13.13795494
_cell_length_b   13.13795531
_cell_length_c   13.13795400
_cell_angle_alpha   60.00000330
_cell_angle_beta   60.00000236
_cell_angle_gamma   60.00000252
_symmetry_Int_Tables_number   1
_chemical_formula_structural   Rb8Y6SiI20
_chemical_formula_sum   'Rb8 Y6 Si1 I20'
_cell_volume   1603.49759965
_cell_formula_units_Z   1
loop_
 _symmetry_equiv_pos_site_id
 _symmetry_equiv_pos_as_xyz
  1  'x, y, z'
loop_
 _atom_site_type_symbol
 _atom_site_label
 _atom_site_symmetry_multiplicity
 _atom_site_fract_x
 _atom_site_fract_y
 _atom_site_fract_z
 _atom_site_occupancy
  Rb  Rb0  1  0.358971  0.358971  0.358971  1
  Rb  Rb1  1  0.641029  0.641029  0.641029  1
  Rb  Rb2  1  0.358971  0.358971  0.923086  1
  Rb  Rb3  1  0.358971  0.923086  0.358971  1
  Rb  Rb4  1  0.641029  0.641029  0.076914  1
  Rb  Rb5  1  0.641029  0.076914  0.641029  1
  Rb  Rb6  1  0.923086  0.358971  0.358971  1
  Rb  Rb7  1  0.076914  0.641029  0.641029  1
  Y  Y8  1  0.847276  0.152724  0.152724  1
  Y  Y9  1  0.152724  0.847276  0.847276  1
  Y  Y10  1  0.152724  0.847276  0.152724  1
  Y  Y11  1  0.847276  0.152724  0.847276  1
  Y  Y12  1  0.152724  0.152724  0.847276  1
  Y  Y13  1  0.847276  0.847276  0.152724  1
  Si  Si14  1  0.000000  0.000000  0.000000  1
  I  I15  1  0.332262  0.000000  0.000000  1
  I  I16  1  0.667738  0.000000  0.000000  1
  I  I17  1  0.000000  0.332262  0.667738  1
  I  I18  1  0.000000  0.667738  0.332262  1
  I  I19  1  0.000000  0.332262  0.000000  1
  I  I20  1  0.667738  0.000000  0.332262  1
  I  I21  1  0.000000  0.667738  0.000000  1
  I  I22  1  0.332262  0.000000  0.667738  1
  I  I23  1  0.000000  0.000000  0.332262  1
  I  I24  1  0.000000  0.000000  0.667738  1
  I  I25  1  0.667738  0.332262  0.000000  1
  I  I26  1  0.332262  0.667738  0.000000  1
  I  I27  1  0.678394  0.321606  0.321606  1
  I  I28  1  0.321606  0.678394  0.678394  1
  I  I29  1  0.321606  0.678394  0.321606  1
  I  I30  1  0.678394  0.321606  0.678394  1
  I  I31  1  0.321606  0.321606  0.678394  1
  I  I32  1  0.678394  0.678394  0.321606  1
  I  I33  1  0.250000  0.250000  0.250000  1
  I  I34  1  0.750000  0.750000  0.750000  1
