# generated using pymatgen
data_Ce3Eu7(Al2Ru3)2
_symmetry_space_group_name_H-M   'P 1'
_cell_length_a   8.64363018
_cell_length_b   8.64363033
_cell_length_c   8.64363100
_cell_angle_alpha   110.20786858
_cell_angle_beta   110.20786190
_cell_angle_gamma   110.20786538
_symmetry_Int_Tables_number   1
_chemical_formula_structural   Ce3Eu7(Al2Ru3)2
_chemical_formula_sum   'Ce3 Eu7 Al4 Ru6'
_cell_volume   483.09273388
_cell_formula_units_Z   1
loop_
 _symmetry_equiv_pos_site_id
 _symmetry_equiv_pos_as_xyz
  1  'x, y, z'
loop_
 _atom_site_type_symbol
 _atom_site_label
 _atom_site_symmetry_multiplicity
 _atom_site_fract_x
 _atom_site_fract_y
 _atom_site_fract_z
 _atom_site_occupancy
  Ce  Ce0  1  0.251605  0.198414  0.942383  1
  Ce  Ce1  1  0.942383  0.251605  0.198414  1
  Ce  Ce2  1  0.198414  0.942383  0.251605  1
  Eu  Eu3  1  0.786481  0.786481  0.786481  1
  Eu  Eu4  1  0.313448  0.563873  0.755861  1
  Eu  Eu5  1  0.755861  0.313448  0.563873  1
  Eu  Eu6  1  0.563873  0.755861  0.313448  1
  Eu  Eu7  1  0.718573  0.505683  0.994930  1
  Eu  Eu8  1  0.994930  0.718573  0.505683  1
  Eu  Eu9  1  0.505683  0.994930  0.718573  1
  Al  Al10  1  0.411927  0.411927  0.411927  1
  Al  Al11  1  0.087482  0.494934  0.007386  1
  Al  Al12  1  0.007386  0.087482  0.494934  1
  Al  Al13  1  0.494934  0.007386  0.087482  1
  Ru  Ru14  1  0.930800  0.132507  0.762102  1
  Ru  Ru15  1  0.762102  0.930800  0.132507  1
  Ru  Ru16  1  0.132507  0.762102  0.930800  1
  Ru  Ru17  1  0.214575  0.572413  0.354623  1
  Ru  Ru18  1  0.354623  0.214575  0.572413  1
  Ru  Ru19  1  0.572413  0.354623  0.214575  1
