# generated using pymatgen
data_Na10ZrGeAs6
_symmetry_space_group_name_H-M   'P 1'
_cell_length_a   7.60364800
_cell_length_b   8.49096560
_cell_length_c   16.13945657
_cell_angle_alpha   57.72093871
_cell_angle_beta   90.00000000
_cell_angle_gamma   90.00000000
_symmetry_Int_Tables_number   1
_chemical_formula_structural   Na10ZrGeAs6
_chemical_formula_sum   'Na20 Zr2 Ge2 As12'
_cell_volume   880.96680619
_cell_formula_units_Z   2
loop_
 _symmetry_equiv_pos_site_id
 _symmetry_equiv_pos_as_xyz
  1  'x, y, z'
loop_
 _atom_site_type_symbol
 _atom_site_label
 _atom_site_symmetry_multiplicity
 _atom_site_fract_x
 _atom_site_fract_y
 _atom_site_fract_z
 _atom_site_occupancy
  Na  Na0  1  0.491537  0.077396  0.244397  1
  Na  Na1  1  0.991537  0.922604  0.255603  1
  Na  Na2  1  0.508470  0.914324  0.759190  1
  Na  Na3  1  0.008470  0.085676  0.740810  1
  Na  Na4  1  0.030436  0.416589  0.414665  1
  Na  Na5  1  0.530436  0.583411  0.085335  1
  Na  Na6  1  0.961295  0.588218  0.585315  1
  Na  Na7  1  0.461295  0.411782  0.914685  1
  Na  Na8  1  0.522932  0.257094  0.411991  1
  Na  Na9  1  0.022932  0.742906  0.088009  1
  Na  Na10  1  0.483909  0.742263  0.587785  1
  Na  Na11  1  0.983909  0.257737  0.912215  1
  Na  Na12  1  0.660897  0.994797  0.081853  1
  Na  Na13  1  0.160897  0.005203  0.418147  1
  Na  Na14  1  0.339070  0.009143  0.918751  1
  Na  Na15  1  0.839070  0.990857  0.581249  1
  Na  Na16  1  0.853594  0.312196  0.258689  1
  Na  Na17  1  0.353594  0.687804  0.241311  1
  Na  Na18  1  0.146884  0.682824  0.741140  1
  Na  Na19  1  0.646884  0.317176  0.758860  1
  Zr  Zr20  1  0.861997  0.648697  0.918800  1
  Zr  Zr21  1  0.361997  0.351303  0.581200  1
  Ge  Ge22  1  0.137829  0.346766  0.084456  1
  Ge  Ge23  1  0.637829  0.653234  0.415544  1
  As  As24  1  0.761464  0.923200  0.418903  1
  As  As25  1  0.261464  0.076800  0.081097  1
  As  As26  1  0.235721  0.065520  0.579494  1
  As  As27  1  0.735721  0.934480  0.920506  1
  As  As28  1  0.735571  0.633733  0.273795  1
  As  As29  1  0.235571  0.366267  0.226205  1
  As  As30  1  0.259773  0.359475  0.733509  1
  As  As31  1  0.759773  0.640525  0.766491  1
  As  As32  1  0.800057  0.320812  0.077636  1
  As  As33  1  0.300057  0.679188  0.422364  1
  As  As34  1  0.208564  0.661923  0.930921  1
  As  As35  1  0.708564  0.338077  0.569079  1
