# generated using pymatgen
data_Ba2NiRhI
_symmetry_space_group_name_H-M   'P 1'
_cell_length_a   4.36274700
_cell_length_b   4.36274612
_cell_length_c   18.69863400
_cell_angle_alpha   90.00000000
_cell_angle_beta   90.00000000
_cell_angle_gamma   119.99999912
_symmetry_Int_Tables_number   1
_chemical_formula_structural   Ba2NiRhI
_chemical_formula_sum   'Ba4 Ni2 Rh2 I2'
_cell_volume   308.21976544
_cell_formula_units_Z   2
loop_
 _symmetry_equiv_pos_site_id
 _symmetry_equiv_pos_as_xyz
  1  'x, y, z'
loop_
 _atom_site_type_symbol
 _atom_site_label
 _atom_site_symmetry_multiplicity
 _atom_site_fract_x
 _atom_site_fract_y
 _atom_site_fract_z
 _atom_site_occupancy
  Ba  Ba0  1  0.000000  0.000000  0.609634  1
  Ba  Ba1  1  0.000000  0.000000  0.390258  1
  Ba  Ba2  1  0.000000  0.000000  0.109634  1
  Ba  Ba3  1  0.000000  0.000000  0.890258  1
  Ni  Ni4  1  0.666667  0.333333  0.999874  1
  Ni  Ni5  1  0.333333  0.666667  0.499874  1
  Rh  Rh6  1  0.666667  0.333333  0.500272  1
  Rh  Rh7  1  0.333333  0.666667  0.000272  1
  I  I8  1  0.666667  0.333333  0.249963  1
  I  I9  1  0.333333  0.666667  0.749963  1
