# generated using pymatgen
data_LaTb3Ni4(SnH)4
_symmetry_space_group_name_H-M   'P 1'
_cell_length_a   7.17354428
_cell_length_b   8.36243139
_cell_length_c   4.34035806
_cell_angle_alpha   90.01543868
_cell_angle_beta   90.01025408
_cell_angle_gamma   89.96916232
_symmetry_Int_Tables_number   1
_chemical_formula_structural   LaTb3Ni4(SnH)4
_chemical_formula_sum   'La1 Tb3 Ni4 Sn4 H4'
_cell_volume   260.37052773
_cell_formula_units_Z   1
loop_
 _symmetry_equiv_pos_site_id
 _symmetry_equiv_pos_as_xyz
  1  'x, y, z'
loop_
 _atom_site_type_symbol
 _atom_site_label
 _atom_site_symmetry_multiplicity
 _atom_site_fract_x
 _atom_site_fract_y
 _atom_site_fract_z
 _atom_site_occupancy
  La  La0  1  0.485495  0.808786  0.742702  1
  Tb  Tb1  1  0.514536  0.186600  0.242845  1
  Tb  Tb2  1  0.014966  0.313917  0.242917  1
  Tb  Tb3  1  0.986136  0.684925  0.742631  1
  Ni  Ni4  1  0.272740  0.598505  0.242801  1
  Ni  Ni5  1  0.781765  0.898409  0.242785  1
  Ni  Ni6  1  0.222173  0.109445  0.742844  1
  Ni  Ni7  1  0.724868  0.394800  0.742638  1
  Sn  Sn8  1  0.660715  0.562431  0.242632  1
  Sn  Sn9  1  0.154534  0.933032  0.242880  1
  Sn  Sn10  1  0.843747  0.072922  0.743059  1
  Sn  Sn11  1  0.339248  0.424626  0.742727  1
  H  H12  1  0.050699  0.578369  0.242739  1
  H  H13  1  0.560150  0.925380  0.242766  1
  H  H14  1  0.443139  0.087251  0.742711  1
  H  H15  1  0.945093  0.420602  0.742726  1
