# generated using pymatgen
data_Nd2Al9TcPt2
_symmetry_space_group_name_H-M   'P 1'
_cell_length_a   7.67468117
_cell_length_b   7.67468064
_cell_length_c   9.65887700
_cell_angle_alpha   90.00000000
_cell_angle_beta   90.00000000
_cell_angle_gamma   118.92197101
_symmetry_Int_Tables_number   1
_chemical_formula_structural   Nd2Al9TcPt2
_chemical_formula_sum   'Nd4 Al18 Tc2 Pt4'
_cell_volume   497.95932467
_cell_formula_units_Z   2
loop_
 _symmetry_equiv_pos_site_id
 _symmetry_equiv_pos_as_xyz
  1  'x, y, z'
loop_
 _atom_site_type_symbol
 _atom_site_label
 _atom_site_symmetry_multiplicity
 _atom_site_fract_x
 _atom_site_fract_y
 _atom_site_fract_z
 _atom_site_occupancy
  Nd  Nd0  1  0.993640  0.674252  0.250000  1
  Nd  Nd1  1  0.006360  0.325748  0.750000  1
  Nd  Nd2  1  0.674252  0.993640  0.250000  1
  Nd  Nd3  1  0.325748  0.006360  0.750000  1
  Al  Al4  1  0.128891  0.128891  0.250000  1
  Al  Al5  1  0.871109  0.871109  0.750000  1
  Al  Al6  1  0.002651  0.332053  0.074019  1
  Al  Al7  1  0.997349  0.667947  0.925981  1
  Al  Al8  1  0.997349  0.667947  0.574019  1
  Al  Al9  1  0.332053  0.002651  0.425981  1
  Al  Al10  1  0.002651  0.332053  0.425981  1
  Al  Al11  1  0.667947  0.997349  0.574019  1
  Al  Al12  1  0.667947  0.997349  0.925981  1
  Al  Al13  1  0.332053  0.002651  0.074019  1
  Al  Al14  1  0.329491  0.329491  0.546406  1
  Al  Al15  1  0.670509  0.670509  0.453594  1
  Al  Al16  1  0.670509  0.670509  0.046406  1
  Al  Al17  1  0.329491  0.329491  0.953594  1
  Al  Al18  1  0.341922  0.546254  0.250000  1
  Al  Al19  1  0.658078  0.453746  0.750000  1
  Al  Al20  1  0.546254  0.341922  0.250000  1
  Al  Al21  1  0.453746  0.658078  0.750000  1
  Tc  Tc22  1  0.000000  0.000000  0.000000  1
  Tc  Tc23  1  0.000000  0.000000  0.500000  1
  Pt  Pt24  1  0.671039  0.328961  0.000000  1
  Pt  Pt25  1  0.328961  0.671039  0.000000  1
  Pt  Pt26  1  0.328961  0.671039  0.500000  1
  Pt  Pt27  1  0.671039  0.328961  0.500000  1
