# generated using pymatgen
data_DyY3(Er2Rh)4
_symmetry_space_group_name_H-M   'P 1'
_cell_length_a   6.29253827
_cell_length_b   7.17587497
_cell_length_c   9.33824500
_cell_angle_alpha   90.00000000
_cell_angle_beta   90.00000000
_cell_angle_gamma   89.82317519
_symmetry_Int_Tables_number   1
_chemical_formula_structural   DyY3(Er2Rh)4
_chemical_formula_sum   'Dy1 Y3 Er8 Rh4'
_cell_volume   421.66147569
_cell_formula_units_Z   1
loop_
 _symmetry_equiv_pos_site_id
 _symmetry_equiv_pos_as_xyz
  1  'x, y, z'
loop_
 _atom_site_type_symbol
 _atom_site_label
 _atom_site_symmetry_multiplicity
 _atom_site_fract_x
 _atom_site_fract_y
 _atom_site_fract_z
 _atom_site_occupancy
  Dy  Dy0  1  0.132546  0.034661  0.250000  1
  Y  Y1  1  0.868280  0.966626  0.750000  1
  Y  Y2  1  0.368368  0.533011  0.250000  1
  Y  Y3  1  0.631394  0.466645  0.750000  1
  Er  Er4  1  0.672044  0.177560  0.062988  1
  Er  Er5  1  0.171081  0.321602  0.937302  1
  Er  Er6  1  0.829256  0.678484  0.436679  1
  Er  Er7  1  0.328187  0.822373  0.562499  1
  Er  Er8  1  0.328187  0.822373  0.937501  1
  Er  Er9  1  0.829256  0.678484  0.063321  1
  Er  Er10  1  0.171081  0.321602  0.562698  1
  Er  Er11  1  0.672044  0.177560  0.437012  1
  Rh  Rh12  1  0.058435  0.615753  0.750000  1
  Rh  Rh13  1  0.554846  0.885359  0.250000  1
  Rh  Rh14  1  0.441757  0.115156  0.750000  1
  Rh  Rh15  1  0.943237  0.382752  0.250000  1
