# generated using pymatgen
data_CaNd8HoIr6
_symmetry_space_group_name_H-M   'P 1'
_cell_length_a   11.23843500
_cell_length_b   11.23843500
_cell_length_c   6.51263000
_cell_angle_alpha   90.00000000
_cell_angle_beta   90.00000000
_cell_angle_gamma   90.00000000
_symmetry_Int_Tables_number   1
_chemical_formula_structural   CaNd8HoIr6
_chemical_formula_sum   'Ca2 Nd16 Ho2 Ir12'
_cell_volume   822.56093770
_cell_formula_units_Z   2
loop_
 _symmetry_equiv_pos_site_id
 _symmetry_equiv_pos_as_xyz
  1  'x, y, z'
loop_
 _atom_site_type_symbol
 _atom_site_label
 _atom_site_symmetry_multiplicity
 _atom_site_fract_x
 _atom_site_fract_y
 _atom_site_fract_z
 _atom_site_occupancy
  Ca  Ca0  1  0.000000  0.000000  0.500000  1
  Ca  Ca1  1  0.000000  0.000000  0.000000  1
  Nd  Nd2  1  0.289024  0.087580  0.384200  1
  Nd  Nd3  1  0.289024  0.912420  0.884200  1
  Nd  Nd4  1  0.710976  0.087580  0.884200  1
  Nd  Nd5  1  0.710976  0.912420  0.384200  1
  Nd  Nd6  1  0.588116  0.789321  0.883183  1
  Nd  Nd7  1  0.588116  0.210679  0.383183  1
  Nd  Nd8  1  0.411884  0.789321  0.383183  1
  Nd  Nd9  1  0.411884  0.210679  0.883183  1
  Nd  Nd10  1  0.210679  0.411884  0.616817  1
  Nd  Nd11  1  0.210679  0.588116  0.116817  1
  Nd  Nd12  1  0.789321  0.411884  0.116817  1
  Nd  Nd13  1  0.789321  0.588116  0.616817  1
  Nd  Nd14  1  0.912420  0.710976  0.115800  1
  Nd  Nd15  1  0.912420  0.289024  0.615800  1
  Nd  Nd16  1  0.087580  0.710976  0.615800  1
  Nd  Nd17  1  0.087580  0.289024  0.115800  1
  Ho  Ho18  1  0.500000  0.500000  0.000000  1
  Ho  Ho19  1  0.500000  0.500000  0.500000  1
  Ir  Ir20  1  0.842173  0.157827  0.250000  1
  Ir  Ir21  1  0.842173  0.842173  0.750000  1
  Ir  Ir22  1  0.157827  0.157827  0.750000  1
  Ir  Ir23  1  0.157827  0.842173  0.250000  1
  Ir  Ir24  1  0.648630  0.351370  0.750000  1
  Ir  Ir25  1  0.648630  0.648630  0.250000  1
  Ir  Ir26  1  0.351370  0.351370  0.250000  1
  Ir  Ir27  1  0.351370  0.648630  0.750000  1
  Ir  Ir28  1  0.500000  0.000000  0.117507  1
  Ir  Ir29  1  0.500000  0.000000  0.617507  1
  Ir  Ir30  1  0.000000  0.500000  0.882493  1
  Ir  Ir31  1  0.000000  0.500000  0.382493  1
