# generated using pymatgen
data_Ho20Si12S
_symmetry_space_group_name_H-M   'P 1'
_cell_length_a   6.34598910
_cell_length_b   8.41090234
_cell_length_c   14.68502500
_cell_angle_alpha   90.00000681
_cell_angle_beta   90.00000000
_cell_angle_gamma   89.92349362
_symmetry_Int_Tables_number   1
_chemical_formula_structural   Ho20Si12S
_chemical_formula_sum   'Ho20 Si12 S1'
_cell_volume   783.81977370
_cell_formula_units_Z   1
loop_
 _symmetry_equiv_pos_site_id
 _symmetry_equiv_pos_as_xyz
  1  'x, y, z'
loop_
 _atom_site_type_symbol
 _atom_site_label
 _atom_site_symmetry_multiplicity
 _atom_site_fract_x
 _atom_site_fract_y
 _atom_site_fract_z
 _atom_site_occupancy
  Ho  Ho0  1  0.500004  0.999999  0.334149  1
  Ho  Ho1  1  0.500006  0.500002  0.830874  1
  Ho  Ho2  1  0.500006  0.500002  0.169126  1
  Ho  Ho3  1  0.500004  0.999999  0.665851  1
  Ho  Ho4  1  0.000001  0.500002  0.167186  1
  Ho  Ho5  1  0.000002  0.000002  0.664804  1
  Ho  Ho6  1  0.000002  0.000002  0.335196  1
  Ho  Ho7  1  0.000001  0.500002  0.832814  1
  Ho  Ho8  1  0.753121  0.251986  0.000000  1
  Ho  Ho9  1  0.748046  0.743896  0.500000  1
  Ho  Ho10  1  0.750557  0.377510  0.380198  1
  Ho  Ho11  1  0.755941  0.873251  0.874007  1
  Ho  Ho12  1  0.755941  0.873251  0.125993  1
  Ho  Ho13  1  0.750557  0.377510  0.619802  1
  Ho  Ho14  1  0.246860  0.747995  0.000000  1
  Ho  Ho15  1  0.251959  0.256106  0.500000  1
  Ho  Ho16  1  0.244044  0.126756  0.125998  1
  Ho  Ho17  1  0.249447  0.622492  0.619800  1
  Ho  Ho18  1  0.249447  0.622492  0.380200  1
  Ho  Ho19  1  0.244044  0.126756  0.874002  1
  Si  Si20  1  0.749773  0.604942  0.000000  1
  Si  Si21  1  0.748557  0.105344  0.500000  1
  Si  Si22  1  0.753142  0.198124  0.199004  1
  Si  Si23  1  0.752013  0.696831  0.696106  1
  Si  Si24  1  0.752013  0.696831  0.303894  1
  Si  Si25  1  0.753142  0.198124  0.800996  1
  Si  Si26  1  0.250233  0.395046  0.000000  1
  Si  Si27  1  0.251446  0.894661  0.500000  1
  Si  Si28  1  0.247998  0.303173  0.303895  1
  Si  Si29  1  0.246863  0.801874  0.800996  1
  Si  Si30  1  0.246863  0.801874  0.199004  1
  Si  Si31  1  0.247998  0.303173  0.696105  1
  S  S32  1  0.499975  0.999994  0.000000  1
