# generated using pymatgen
data_Nd4AgAu3
_symmetry_space_group_name_H-M   'P 1'
_cell_length_a   4.83415300
_cell_length_b   5.85061310
_cell_length_c   7.56084013
_cell_angle_alpha   89.97904989
_cell_angle_beta   90.00000000
_cell_angle_gamma   90.00000000
_symmetry_Int_Tables_number   1
_chemical_formula_structural   Nd4AgAu3
_chemical_formula_sum   'Nd4 Ag1 Au3'
_cell_volume   213.84140377
_cell_formula_units_Z   1
loop_
 _symmetry_equiv_pos_site_id
 _symmetry_equiv_pos_as_xyz
  1  'x, y, z'
loop_
 _atom_site_type_symbol
 _atom_site_label
 _atom_site_symmetry_multiplicity
 _atom_site_fract_x
 _atom_site_fract_y
 _atom_site_fract_z
 _atom_site_occupancy
  Nd  Nd0  1  0.250000  0.351053  0.690962  1
  Nd  Nd1  1  0.250000  0.152061  0.183923  1
  Nd  Nd2  1  0.750000  0.645034  0.308525  1
  Nd  Nd3  1  0.750000  0.851722  0.817940  1
  Ag  Ag4  1  0.250000  0.851163  0.537054  1
  Au  Au5  1  0.250000  0.656327  0.040677  1
  Au  Au6  1  0.750000  0.146429  0.461810  1
  Au  Au7  1  0.750000  0.346212  0.959109  1
