# generated using pymatgen
data_Dy5Er5Si5Sn
_symmetry_space_group_name_H-M   'P 1'
_cell_length_a   8.47655990
_cell_length_b   8.50290024
_cell_length_c   6.34773500
_cell_angle_alpha   90.00000000
_cell_angle_beta   90.00000000
_cell_angle_gamma   119.84464518
_symmetry_Int_Tables_number   1
_chemical_formula_structural   Dy5Er5Si5Sn
_chemical_formula_sum   'Dy5 Er5 Si5 Sn1'
_cell_volume   396.83857592
_cell_formula_units_Z   1
loop_
 _symmetry_equiv_pos_site_id
 _symmetry_equiv_pos_as_xyz
  1  'x, y, z'
loop_
 _atom_site_type_symbol
 _atom_site_label
 _atom_site_symmetry_multiplicity
 _atom_site_fract_x
 _atom_site_fract_y
 _atom_site_fract_z
 _atom_site_occupancy
  Dy  Dy0  1  0.989952  0.749183  0.750000  1
  Dy  Dy1  1  0.998413  0.242411  0.250000  1
  Dy  Dy2  1  0.755623  0.757346  0.250000  1
  Dy  Dy3  1  0.765683  0.000137  0.750000  1
  Dy  Dy4  1  0.241296  0.000160  0.250000  1
  Er  Er5  1  0.240837  0.251046  0.750000  1
  Er  Er6  1  0.331221  0.657235  0.497158  1
  Er  Er7  1  0.673732  0.342595  0.002943  1
  Er  Er8  1  0.673732  0.342595  0.497057  1
  Er  Er9  1  0.331221  0.657235  0.002842  1
  Si  Si10  1  0.393838  0.392414  0.250000  1
  Si  Si11  1  0.001484  0.607734  0.250000  1
  Si  Si12  1  0.998944  0.394398  0.750000  1
  Si  Si13  1  0.603547  0.605043  0.750000  1
  Si  Si14  1  0.604708  0.000049  0.250000  1
  Sn  Sn15  1  0.395770  0.000423  0.750000  1
