# generated using pymatgen
data_Lu2Si6AsRh12
_symmetry_space_group_name_H-M   'P 1'
_cell_length_a   9.78621700
_cell_length_b   9.78621716
_cell_length_c   3.83261600
_cell_angle_alpha   90.00000000
_cell_angle_beta   90.00000000
_cell_angle_gamma   119.99999609
_symmetry_Int_Tables_number   1
_chemical_formula_structural   Lu2Si6AsRh12
_chemical_formula_sum   'Lu2 Si6 As1 Rh12'
_cell_volume   317.87446873
_cell_formula_units_Z   1
loop_
 _symmetry_equiv_pos_site_id
 _symmetry_equiv_pos_as_xyz
  1  'x, y, z'
loop_
 _atom_site_type_symbol
 _atom_site_label
 _atom_site_symmetry_multiplicity
 _atom_site_fract_x
 _atom_site_fract_y
 _atom_site_fract_z
 _atom_site_occupancy
  Lu  Lu0  1  0.333333  0.666667  0.249114  1
  Lu  Lu1  1  0.666667  0.333333  0.750886  1
  Si  Si2  1  0.403704  0.112796  0.248965  1
  Si  Si3  1  0.709093  0.596296  0.248965  1
  Si  Si4  1  0.887204  0.290907  0.248965  1
  Si  Si5  1  0.596296  0.887204  0.751035  1
  Si  Si6  1  0.290907  0.403704  0.751035  1
  Si  Si7  1  0.112796  0.709093  0.751035  1
  As  As8  1  0.000000  0.000000  0.500000  1
  Rh  Rh9  1  0.446018  0.380866  0.249378  1
  Rh  Rh10  1  0.934848  0.553982  0.249378  1
  Rh  Rh11  1  0.619134  0.065152  0.249378  1
  Rh  Rh12  1  0.553982  0.619134  0.750622  1
  Rh  Rh13  1  0.065152  0.446018  0.750622  1
  Rh  Rh14  1  0.380866  0.934848  0.750622  1
  Rh  Rh15  1  0.146241  0.879851  0.249641  1
  Rh  Rh16  1  0.733610  0.853759  0.249641  1
  Rh  Rh17  1  0.120149  0.266390  0.249641  1
  Rh  Rh18  1  0.853759  0.120149  0.750359  1
  Rh  Rh19  1  0.266390  0.146241  0.750359  1
  Rh  Rh20  1  0.879851  0.733610  0.750359  1
