# generated using pymatgen
data_RbBaCaReN4
_symmetry_space_group_name_H-M   'P 1'
_cell_length_a   10.86927561
_cell_length_b   10.52835855
_cell_length_c   8.16967144
_cell_angle_alpha   69.23488600
_cell_angle_beta   65.44925872
_cell_angle_gamma   45.56654050
_symmetry_Int_Tables_number   1
_chemical_formula_structural   RbBaCaReN4
_chemical_formula_sum   'Rb4 Ba4 Ca4 Re4 N16'
_cell_volume   604.30283108
_cell_formula_units_Z   4
loop_
 _symmetry_equiv_pos_site_id
 _symmetry_equiv_pos_as_xyz
  1  'x, y, z'
loop_
 _atom_site_type_symbol
 _atom_site_label
 _atom_site_symmetry_multiplicity
 _atom_site_fract_x
 _atom_site_fract_y
 _atom_site_fract_z
 _atom_site_occupancy
  Rb  Rb0  1  0.564338  0.929572  0.924327  1
  Rb  Rb1  1  0.929545  0.563047  0.584057  1
  Rb  Rb2  1  0.318742  0.682531  0.679412  1
  Rb  Rb3  1  0.116729  0.108698  0.885575  1
  Ba  Ba4  1  0.133201  0.138273  0.370817  1
  Ba  Ba5  1  0.352785  0.364259  0.143676  1
  Ba  Ba6  1  0.683458  0.317064  0.316696  1
  Ba  Ba7  1  0.892343  0.887903  0.104612  1
  Ca  Ca8  1  0.332732  0.339000  0.666748  1
  Ca  Ca9  1  0.903448  0.908918  0.598411  1
  Ca  Ca10  1  0.661446  0.665048  0.339957  1
  Ca  Ca11  1  0.581924  0.599427  0.912087  1
  Re  Re12  1  0.507783  0.002862  0.481785  1
  Re  Re13  1  0.997655  0.501490  0.014634  1
  Re  Re14  1  0.747865  0.249536  0.750692  1
  Re  Re15  1  0.248098  0.748248  0.251964  1
  N  N16  1  0.996999  0.663274  0.829988  1
  N  N17  1  0.681964  0.299959  0.983526  1
  N  N18  1  0.663043  0.021105  0.486071  1
  N  N19  1  0.526850  0.817153  0.637379  1
  N  N20  1  0.256585  0.575709  0.425244  1
  N  N21  1  0.754700  0.412048  0.573217  1
  N  N22  1  0.970224  0.030537  0.710812  1
  N  N23  1  0.560585  0.965417  0.250377  1
  N  N24  1  0.429478  0.734537  0.239119  1
  N  N25  1  0.963743  0.562225  0.223871  1
  N  N26  1  0.284616  0.696030  0.036663  1
  N  N27  1  0.819402  0.502212  0.044070  1
  N  N28  1  0.217917  0.277682  0.978306  1
  N  N29  1  0.592152  0.243195  0.726001  1
  N  N30  1  0.279015  0.216860  0.529797  1
  N  N31  1  0.030635  0.976180  0.300104  1
