# generated using pymatgen
data_Tm19MgIr11Ru
_symmetry_space_group_name_H-M   'P 1'
_cell_length_a   10.70747631
_cell_length_b   10.71183931
_cell_length_c   6.28072700
_cell_angle_alpha   90.00000000
_cell_angle_beta   90.00000000
_cell_angle_gamma   89.97255492
_symmetry_Int_Tables_number   1
_chemical_formula_structural   Tm19MgIr11Ru
_chemical_formula_sum   'Tm19 Mg1 Ir11 Ru1'
_cell_volume   720.37898979
_cell_formula_units_Z   1
loop_
 _symmetry_equiv_pos_site_id
 _symmetry_equiv_pos_as_xyz
  1  'x, y, z'
loop_
 _atom_site_type_symbol
 _atom_site_label
 _atom_site_symmetry_multiplicity
 _atom_site_fract_x
 _atom_site_fract_y
 _atom_site_fract_z
 _atom_site_occupancy
  Tm  Tm0  1  0.285308  0.083964  0.376498  1
  Tm  Tm1  1  0.292116  0.912968  0.879623  1
  Tm  Tm2  1  0.707884  0.087032  0.879623  1
  Tm  Tm3  1  0.714692  0.916036  0.376498  1
  Tm  Tm4  1  0.587562  0.793061  0.878000  1
  Tm  Tm5  1  0.586349  0.206867  0.374265  1
  Tm  Tm6  1  0.413651  0.793133  0.374265  1
  Tm  Tm7  1  0.412438  0.206939  0.878000  1
  Tm  Tm8  1  0.208133  0.412875  0.624075  1
  Tm  Tm9  1  0.208147  0.588152  0.122827  1
  Tm  Tm10  1  0.791853  0.411848  0.122827  1
  Tm  Tm11  1  0.791867  0.587125  0.624075  1
  Tm  Tm12  1  0.912559  0.709194  0.121009  1
  Tm  Tm13  1  0.915543  0.284047  0.622212  1
  Tm  Tm14  1  0.084457  0.715953  0.622212  1
  Tm  Tm15  1  0.087441  0.290806  0.121009  1
  Tm  Tm16  1  0.000000  0.000000  0.999870  1
  Tm  Tm17  1  0.500000  0.500000  0.999837  1
  Tm  Tm18  1  0.500000  0.500000  0.500154  1
  Mg  Mg19  1  0.000000  0.000000  0.499910  1
  Ir  Ir20  1  0.846428  0.154804  0.247180  1
  Ir  Ir21  1  0.845681  0.845988  0.752988  1
  Ir  Ir22  1  0.154319  0.154012  0.752988  1
  Ir  Ir23  1  0.153572  0.845196  0.247180  1
  Ir  Ir24  1  0.654149  0.346814  0.748812  1
  Ir  Ir25  1  0.653859  0.653695  0.251306  1
  Ir  Ir26  1  0.346141  0.346305  0.251306  1
  Ir  Ir27  1  0.345851  0.653186  0.748812  1
  Ir  Ir28  1  0.500000  0.000000  0.621898  1
  Ir  Ir29  1  0.000000  0.500000  0.875866  1
  Ir  Ir30  1  0.000000  0.500000  0.379407  1
  Ru  Ru31  1  0.500000  0.000000  0.125467  1
