# generated using pymatgen
data_TbDyCo12Si4P3
_symmetry_space_group_name_H-M   'P 1'
_cell_length_a   9.08602300
_cell_length_b   9.08602211
_cell_length_c   3.59571300
_cell_angle_alpha   90.00000000
_cell_angle_beta   90.00000000
_cell_angle_gamma   119.99999959
_symmetry_Int_Tables_number   1
_chemical_formula_structural   TbDyCo12Si4P3
_chemical_formula_sum   'Tb1 Dy1 Co12 Si4 P3'
_cell_volume   257.07703061
_cell_formula_units_Z   1
loop_
 _symmetry_equiv_pos_site_id
 _symmetry_equiv_pos_as_xyz
  1  'x, y, z'
loop_
 _atom_site_type_symbol
 _atom_site_label
 _atom_site_symmetry_multiplicity
 _atom_site_fract_x
 _atom_site_fract_y
 _atom_site_fract_z
 _atom_site_occupancy
  Tb  Tb0  1  0.333333  0.666667  0.000000  1
  Dy  Dy1  1  0.666667  0.333333  0.500000  1
  Co  Co2  1  0.435707  0.381219  0.000000  1
  Co  Co3  1  0.618781  0.054487  0.000000  1
  Co  Co4  1  0.945513  0.564293  0.000000  1
  Co  Co5  1  0.149393  0.870136  0.000000  1
  Co  Co6  1  0.129864  0.279255  0.000000  1
  Co  Co7  1  0.720745  0.850607  0.000000  1
  Co  Co8  1  0.379698  0.942208  0.500000  1
  Co  Co9  1  0.057792  0.437490  0.500000  1
  Co  Co10  1  0.562510  0.620302  0.500000  1
  Co  Co11  1  0.234570  0.130267  0.500000  1
  Co  Co12  1  0.869733  0.104303  0.500000  1
  Co  Co13  1  0.895697  0.765430  0.500000  1
  Si  Si14  1  0.397888  0.111316  0.000000  1
  Si  Si15  1  0.888684  0.286572  0.000000  1
  Si  Si16  1  0.713428  0.602112  0.000000  1
  Si  Si17  1  0.000000  0.000000  0.000000  1
  P  P18  1  0.107447  0.706910  0.500000  1
  P  P19  1  0.293090  0.400536  0.500000  1
  P  P20  1  0.599464  0.892553  0.500000  1
