# generated using pymatgen
data_TmZr5(CoSn)6
_symmetry_space_group_name_H-M   'P 1'
_cell_length_a   7.24237516
_cell_length_b   7.22096767
_cell_length_c   7.15497400
_cell_angle_alpha   90.00000000
_cell_angle_beta   90.00000000
_cell_angle_gamma   119.85481557
_symmetry_Int_Tables_number   1
_chemical_formula_structural   TmZr5(CoSn)6
_chemical_formula_sum   'Tm1 Zr5 Co6 Sn6'
_cell_volume   324.52534062
_cell_formula_units_Z   1
loop_
 _symmetry_equiv_pos_site_id
 _symmetry_equiv_pos_as_xyz
  1  'x, y, z'
loop_
 _atom_site_type_symbol
 _atom_site_label
 _atom_site_symmetry_multiplicity
 _atom_site_fract_x
 _atom_site_fract_y
 _atom_site_fract_z
 _atom_site_occupancy
  Tm  Tm0  1  0.600324  0.004752  0.250000  1
  Zr  Zr1  1  0.605864  0.997966  0.750000  1
  Zr  Zr2  1  0.394030  0.401275  0.750000  1
  Zr  Zr3  1  0.999422  0.602636  0.750000  1
  Zr  Zr4  1  0.395651  0.395926  0.250000  1
  Zr  Zr5  1  0.000786  0.604197  0.250000  1
  Co  Co6  1  0.668105  0.336639  0.971583  1
  Co  Co7  1  0.668105  0.336639  0.528417  1
  Co  Co8  1  0.329473  0.660880  0.000188  1
  Co  Co9  1  0.329473  0.660880  0.499812  1
  Co  Co10  1  0.996377  0.999489  0.750000  1
  Co  Co11  1  0.011015  0.000103  0.250000  1
  Sn  Sn12  1  0.267227  0.001116  0.992472  1
  Sn  Sn13  1  0.733870  0.731994  0.498323  1
  Sn  Sn14  1  0.999589  0.266200  0.499442  1
  Sn  Sn15  1  0.999589  0.266200  0.000558  1
  Sn  Sn16  1  0.733870  0.731994  0.001677  1
  Sn  Sn17  1  0.267227  0.001116  0.507528  1
