# generated using pymatgen
data_Ho3Re(P3Rh4)2
_symmetry_space_group_name_H-M   'P 1'
_cell_length_a   3.92480400
_cell_length_b   11.11459800
_cell_length_c   12.80414700
_cell_angle_alpha   90.00000000
_cell_angle_beta   90.00000000
_cell_angle_gamma   90.00000000
_symmetry_Int_Tables_number   1
_chemical_formula_structural   Ho3Re(P3Rh4)2
_chemical_formula_sum   'Ho6 Re2 P12 Rh16'
_cell_volume   558.55042222
_cell_formula_units_Z   2
loop_
 _symmetry_equiv_pos_site_id
 _symmetry_equiv_pos_as_xyz
  1  'x, y, z'
loop_
 _atom_site_type_symbol
 _atom_site_label
 _atom_site_symmetry_multiplicity
 _atom_site_fract_x
 _atom_site_fract_y
 _atom_site_fract_z
 _atom_site_occupancy
  Ho  Ho0  1  0.000000  0.500000  0.522337  1
  Ho  Ho1  1  0.500000  0.000000  0.477663  1
  Ho  Ho2  1  0.500000  0.816265  0.205002  1
  Ho  Ho3  1  0.500000  0.183735  0.205002  1
  Ho  Ho4  1  0.000000  0.683735  0.794998  1
  Ho  Ho5  1  0.000000  0.316265  0.794998  1
  Re  Re6  1  0.500000  0.500000  0.159080  1
  Re  Re7  1  0.000000  0.000000  0.840920  1
  P  P8  1  0.500000  0.315693  0.618539  1
  P  P9  1  0.500000  0.684307  0.618539  1
  P  P10  1  0.000000  0.184307  0.381461  1
  P  P11  1  0.000000  0.815693  0.381461  1
  P  P12  1  0.500000  0.500000  0.875426  1
  P  P13  1  0.000000  0.000000  0.124574  1
  P  P14  1  0.500000  0.848590  0.887565  1
  P  P15  1  0.500000  0.151410  0.887565  1
  P  P16  1  0.000000  0.651410  0.112435  1
  P  P17  1  0.000000  0.348590  0.112435  1
  P  P18  1  0.500000  0.500000  0.347420  1
  P  P19  1  0.000000  0.000000  0.652580  1
  Rh  Rh20  1  0.000000  0.500000  0.989482  1
  Rh  Rh21  1  0.500000  0.000000  0.010518  1
  Rh  Rh22  1  0.500000  0.296115  0.432063  1
  Rh  Rh23  1  0.500000  0.703885  0.432063  1
  Rh  Rh24  1  0.000000  0.203885  0.567937  1
  Rh  Rh25  1  0.000000  0.796115  0.567937  1
  Rh  Rh26  1  0.500000  0.875171  0.709437  1
  Rh  Rh27  1  0.500000  0.124829  0.709437  1
  Rh  Rh28  1  0.000000  0.624829  0.290563  1
  Rh  Rh29  1  0.000000  0.375171  0.290563  1
  Rh  Rh30  1  0.500000  0.331436  0.983407  1
  Rh  Rh31  1  0.500000  0.668564  0.983407  1
  Rh  Rh32  1  0.000000  0.168564  0.016593  1
  Rh  Rh33  1  0.000000  0.831436  0.016593  1
  Rh  Rh34  1  0.500000  0.500000  0.699842  1
  Rh  Rh35  1  0.000000  0.000000  0.300158  1
