# generated using pymatgen
data_Y2Ho4TcPd
_symmetry_space_group_name_H-M   'P 1'
_cell_length_a   6.39139142
_cell_length_b   7.38249434
_cell_length_c   9.19143600
_cell_angle_alpha   90.00000000
_cell_angle_beta   90.00000000
_cell_angle_gamma   90.23226947
_symmetry_Int_Tables_number   1
_chemical_formula_structural   Y2Ho4TcPd
_chemical_formula_sum   'Y4 Ho8 Tc2 Pd2'
_cell_volume   433.68893010
_cell_formula_units_Z   2
loop_
 _symmetry_equiv_pos_site_id
 _symmetry_equiv_pos_as_xyz
  1  'x, y, z'
loop_
 _atom_site_type_symbol
 _atom_site_label
 _atom_site_symmetry_multiplicity
 _atom_site_fract_x
 _atom_site_fract_y
 _atom_site_fract_z
 _atom_site_occupancy
  Y  Y0  1  0.628435  0.038150  0.250000  1
  Y  Y1  1  0.371565  0.961850  0.750000  1
  Y  Y2  1  0.123949  0.469084  0.750000  1
  Y  Y3  1  0.876051  0.530916  0.250000  1
  Ho  Ho4  1  0.177191  0.185507  0.064995  1
  Ho  Ho5  1  0.822809  0.814493  0.935005  1
  Ho  Ho6  1  0.661088  0.327056  0.940118  1
  Ho  Ho7  1  0.822809  0.814493  0.564995  1
  Ho  Ho8  1  0.338912  0.672944  0.059882  1
  Ho  Ho9  1  0.177191  0.185507  0.435005  1
  Ho  Ho10  1  0.338912  0.672944  0.440118  1
  Ho  Ho11  1  0.661088  0.327056  0.559882  1
  Tc  Tc12  1  0.463613  0.383148  0.250000  1
  Tc  Tc13  1  0.536387  0.616852  0.750000  1
  Pd  Pd14  1  0.947308  0.112316  0.750000  1
  Pd  Pd15  1  0.052692  0.887684  0.250000  1
