# generated using pymatgen
data_Nd3Er7(GaSb)4
_symmetry_space_group_name_H-M   'P 1'
_cell_length_a   8.91779249
_cell_length_b   8.41909339
_cell_length_c   7.95064072
_cell_angle_alpha   89.64886583
_cell_angle_beta   89.96593168
_cell_angle_gamma   125.49696144
_symmetry_Int_Tables_number   1
_chemical_formula_structural   Nd3Er7(GaSb)4
_chemical_formula_sum   'Nd3 Er7 Ga4 Sb4'
_cell_volume   485.97448932
_cell_formula_units_Z   1
loop_
 _symmetry_equiv_pos_site_id
 _symmetry_equiv_pos_as_xyz
  1  'x, y, z'
loop_
 _atom_site_type_symbol
 _atom_site_label
 _atom_site_symmetry_multiplicity
 _atom_site_fract_x
 _atom_site_fract_y
 _atom_site_fract_z
 _atom_site_occupancy
  Nd  Nd0  1  0.054404  0.342434  0.318950  1
  Nd  Nd1  1  0.948774  0.664701  0.680619  1
  Nd  Nd2  1  0.443517  0.164025  0.823118  1
  Er  Er3  1  0.778121  0.528994  0.161996  1
  Er  Er4  1  0.552160  0.819643  0.171230  1
  Er  Er5  1  0.218608  0.470500  0.835432  1
  Er  Er6  1  0.722900  0.975997  0.661349  1
  Er  Er7  1  0.280561  0.029967  0.337265  1
  Er  Er8  1  0.999180  0.999343  0.002648  1
  Er  Er9  1  0.502023  0.503280  0.500096  1
  Ga  Ga10  1  0.376039  0.379000  0.122886  1
  Ga  Ga11  1  0.623379  0.624365  0.876619  1
  Ga  Ga12  1  0.122464  0.122345  0.622873  1
  Ga  Ga13  1  0.875191  0.879835  0.373923  1
  Sb  Sb14  1  0.807694  0.219896  0.976570  1
  Sb  Sb15  1  0.187616  0.765582  0.036420  1
  Sb  Sb16  1  0.684263  0.276112  0.473579  1
  Sb  Sb17  1  0.323105  0.733981  0.524428  1
