# generated using pymatgen
data_Tb3Np(Si5Ir3)2
_symmetry_space_group_name_H-M   'P 1'
_cell_length_a   8.15142862
_cell_length_b   8.14230200
_cell_length_c   8.14230235
_cell_angle_alpha   138.11182069
_cell_angle_beta   104.06947206
_cell_angle_gamma   90.69709550
_symmetry_Int_Tables_number   1
_chemical_formula_structural   Tb3Np(Si5Ir3)2
_chemical_formula_sum   'Tb3 Np1 Si10 Ir6'
_cell_volume   334.07449589
_cell_formula_units_Z   1
loop_
 _symmetry_equiv_pos_site_id
 _symmetry_equiv_pos_as_xyz
  1  'x, y, z'
loop_
 _atom_site_type_symbol
 _atom_site_label
 _atom_site_symmetry_multiplicity
 _atom_site_fract_x
 _atom_site_fract_y
 _atom_site_fract_z
 _atom_site_occupancy
  Tb  Tb0  1  0.600749  0.370994  0.229755  1
  Tb  Tb1  1  0.139277  0.868380  0.270897  1
  Tb  Tb2  1  0.859923  0.130181  0.729742  1
  Np  Np3  1  0.401902  0.631824  0.770078  1
  Si  Si4  1  0.736748  0.891273  0.845476  1
  Si  Si5  1  0.260474  0.105497  0.154976  1
  Si  Si6  1  0.951347  0.606966  0.344382  1
  Si  Si7  1  0.051823  0.395590  0.656232  1
  Si  Si8  1  0.225024  0.974782  0.749382  1
  Si  Si9  1  0.775367  0.527181  0.752955  1
  Si  Si10  1  0.775367  0.022411  0.248186  1
  Si  Si11  1  0.225024  0.475642  0.250242  1
  Si  Si12  1  0.498695  0.750916  0.249976  1
  Si  Si13  1  0.498695  0.248719  0.747779  1
  Ir  Ir14  1  0.999588  0.749021  0.749051  1
  Ir  Ir15  1  0.999588  0.250536  0.250566  1
  Ir  Ir16  1  0.474488  0.859801  0.614685  1
  Ir  Ir17  1  0.527296  0.141667  0.385630  1
  Ir  Ir18  1  0.751598  0.638081  0.113517  1
  Ir  Ir19  1  0.247029  0.360537  0.886492  1
