# generated using pymatgen
data_HoEr3(Tm3In4)2
_symmetry_space_group_name_H-M   'P 1'
_cell_length_a   9.19912014
_cell_length_b   9.19854204
_cell_length_c   6.59552200
_cell_angle_alpha   90.00000000
_cell_angle_beta   90.00000000
_cell_angle_gamma   119.92472456
_symmetry_Int_Tables_number   1
_chemical_formula_structural   HoEr3(Tm3In4)2
_chemical_formula_sum   'Ho1 Er3 Tm6 In8'
_cell_volume   483.69769434
_cell_formula_units_Z   1
loop_
 _symmetry_equiv_pos_site_id
 _symmetry_equiv_pos_as_xyz
  1  'x, y, z'
loop_
 _atom_site_type_symbol
 _atom_site_label
 _atom_site_symmetry_multiplicity
 _atom_site_fract_x
 _atom_site_fract_y
 _atom_site_fract_z
 _atom_site_occupancy
  Ho  Ho0  1  0.999874  0.709825  0.250000  1
  Er  Er1  1  0.290038  0.000108  0.750000  1
  Er  Er2  1  0.710010  0.999941  0.250000  1
  Er  Er3  1  0.000096  0.289935  0.750000  1
  Tm  Tm4  1  0.333533  0.666382  0.500027  1
  Tm  Tm5  1  0.666455  0.333670  0.500021  1
  Tm  Tm6  1  0.666455  0.333670  0.999979  1
  Tm  Tm7  1  0.333533  0.666382  0.999973  1
  Tm  Tm8  1  0.710154  0.710150  0.750000  1
  Tm  Tm9  1  0.289796  0.289902  0.250000  1
  In  In10  1  0.000002  0.000016  0.500045  1
  In  In11  1  0.000002  0.000016  0.999955  1
  In  In12  1  0.627671  0.999584  0.750000  1
  In  In13  1  0.372317  0.000428  0.250000  1
  In  In14  1  0.999635  0.627646  0.750000  1
  In  In15  1  0.000340  0.372266  0.250000  1
  In  In16  1  0.372898  0.372858  0.750000  1
  In  In17  1  0.627192  0.627219  0.250000  1
