# generated using pymatgen
data_Tb9Al(Ni2Au)2
_symmetry_space_group_name_H-M   'P 1'
_cell_length_a   8.53760186
_cell_length_b   8.53760232
_cell_length_c   8.53760159
_cell_angle_alpha   128.68897406
_cell_angle_beta   128.68896429
_cell_angle_gamma   75.51154568
_symmetry_Int_Tables_number   1
_chemical_formula_structural   Tb9Al(Ni2Au)2
_chemical_formula_sum   'Tb9 Al1 Ni4 Au2'
_cell_volume   368.92159763
_cell_formula_units_Z   1
loop_
 _symmetry_equiv_pos_site_id
 _symmetry_equiv_pos_as_xyz
  1  'x, y, z'
loop_
 _atom_site_type_symbol
 _atom_site_label
 _atom_site_symmetry_multiplicity
 _atom_site_fract_x
 _atom_site_fract_y
 _atom_site_fract_z
 _atom_site_occupancy
  Tb  Tb0  1  0.000000  0.000000  0.000000  1
  Tb  Tb1  1  0.787216  0.324223  0.844367  1
  Tb  Tb2  1  0.212784  0.675777  0.155633  1
  Tb  Tb3  1  0.479857  0.942851  0.155633  1
  Tb  Tb4  1  0.324223  0.479857  0.537007  1
  Tb  Tb5  1  0.057149  0.212784  0.537007  1
  Tb  Tb6  1  0.520143  0.057149  0.844367  1
  Tb  Tb7  1  0.675777  0.520143  0.462993  1
  Tb  Tb8  1  0.942851  0.787216  0.462993  1
  Al  Al9  1  0.500000  0.500000  0.000000  1
  Ni  Ni10  1  0.125099  0.622206  0.747306  1
  Ni  Ni11  1  0.874901  0.377794  0.252694  1
  Ni  Ni12  1  0.622206  0.874901  0.497106  1
  Ni  Ni13  1  0.377794  0.125099  0.502894  1
  Au  Au14  1  0.238217  0.238217  0.000000  1
  Au  Au15  1  0.761783  0.761783  0.000000  1
