# generated using pymatgen
data_ErTm2Zr2Sb3
_symmetry_space_group_name_H-M   'P 1'
_cell_length_a   8.75768136
_cell_length_b   8.75768288
_cell_length_c   5.96278800
_cell_angle_alpha   89.99981846
_cell_angle_beta   89.99982188
_cell_angle_gamma   119.96711866
_symmetry_Int_Tables_number   1
_chemical_formula_structural   ErTm2Zr2Sb3
_chemical_formula_sum   'Er2 Tm4 Zr4 Sb6'
_cell_volume   396.18876564
_cell_formula_units_Z   2
loop_
 _symmetry_equiv_pos_site_id
 _symmetry_equiv_pos_as_xyz
  1  'x, y, z'
loop_
 _atom_site_type_symbol
 _atom_site_label
 _atom_site_symmetry_multiplicity
 _atom_site_fract_x
 _atom_site_fract_y
 _atom_site_fract_z
 _atom_site_occupancy
  Er  Er0  1  0.749622  0.999997  0.249990  1
  Er  Er1  1  0.999997  0.749622  0.249990  1
  Tm  Tm2  1  0.749503  0.749503  0.750003  1
  Tm  Tm3  1  0.250234  0.000141  0.750003  1
  Tm  Tm4  1  0.000141  0.250234  0.750003  1
  Tm  Tm5  1  0.250510  0.250510  0.250001  1
  Zr  Zr6  1  0.666712  0.333315  0.999993  1
  Zr  Zr7  1  0.333315  0.666712  0.999993  1
  Zr  Zr8  1  0.333314  0.666709  0.500011  1
  Zr  Zr9  1  0.666709  0.333314  0.500011  1
  Sb  Sb10  1  0.391268  0.391268  0.749997  1
  Sb  Sb11  1  0.608663  0.000012  0.750001  1
  Sb  Sb12  1  0.000012  0.608663  0.750001  1
  Sb  Sb13  1  0.608289  0.608289  0.250000  1
  Sb  Sb14  1  0.391337  0.000374  0.250002  1
  Sb  Sb15  1  0.000374  0.391337  0.250002  1
