# generated using pymatgen
data_Tb5CoIrO12
_symmetry_space_group_name_H-M   'P 1'
_cell_length_a   6.84930548
_cell_length_b   6.84930685
_cell_length_c   7.27557700
_cell_angle_alpha   74.48528229
_cell_angle_beta   74.48528075
_cell_angle_gamma   50.73241538
_symmetry_Int_Tables_number   1
_chemical_formula_structural   Tb5CoIrO12
_chemical_formula_sum   'Tb5 Co1 Ir1 O12'
_cell_volume   252.40502620
_cell_formula_units_Z   1
loop_
 _symmetry_equiv_pos_site_id
 _symmetry_equiv_pos_as_xyz
  1  'x, y, z'
loop_
 _atom_site_type_symbol
 _atom_site_label
 _atom_site_symmetry_multiplicity
 _atom_site_fract_x
 _atom_site_fract_y
 _atom_site_fract_z
 _atom_site_occupancy
  Tb  Tb0  1  0.687543  0.695406  0.667279  1
  Tb  Tb1  1  0.679213  0.714086  0.142127  1
  Tb  Tb2  1  0.995044  0.004956  0.000000  1
  Tb  Tb3  1  0.285914  0.320787  0.857873  1
  Tb  Tb4  1  0.304594  0.312457  0.332721  1
  Co  Co5  1  0.258462  0.741538  0.500000  1
  Ir  Ir6  1  0.767018  0.232982  0.500000  1
  O  O7  1  0.396004  0.913765  0.922051  1
  O  O8  1  0.579531  0.098361  0.582572  1
  O  O9  1  0.901639  0.420469  0.417428  1
  O  O10  1  0.086235  0.603996  0.077949  1
  O  O11  1  0.017091  0.983263  0.325459  1
  O  O12  1  0.504595  0.495388  0.678878  1
  O  O13  1  0.893282  0.405625  0.929025  1
  O  O14  1  0.099175  0.571066  0.581456  1
  O  O15  1  0.428934  0.900825  0.418544  1
  O  O16  1  0.594375  0.106718  0.070975  1
  O  O17  1  0.504612  0.495405  0.321122  1
  O  O18  1  0.016737  0.982909  0.674541  1
