# generated using pymatgen
data_PrTl(AsAu)2
_symmetry_space_group_name_H-M   'P 1'
_cell_length_a   4.41628400
_cell_length_b   4.41628475
_cell_length_c   9.08635800
_cell_angle_alpha   90.00000000
_cell_angle_beta   90.00000000
_cell_angle_gamma   119.99999438
_symmetry_Int_Tables_number   1
_chemical_formula_structural   PrTl(AsAu)2
_chemical_formula_sum   'Pr1 Tl1 As2 Au2'
_cell_volume   153.47391150
_cell_formula_units_Z   1
loop_
 _symmetry_equiv_pos_site_id
 _symmetry_equiv_pos_as_xyz
  1  'x, y, z'
loop_
 _atom_site_type_symbol
 _atom_site_label
 _atom_site_symmetry_multiplicity
 _atom_site_fract_x
 _atom_site_fract_y
 _atom_site_fract_z
 _atom_site_occupancy
  Pr  Pr0  1  0.000000  0.000000  0.000000  1
  Tl  Tl1  1  0.000000  0.000000  0.500000  1
  As  As2  1  0.666667  0.333333  0.790633  1
  As  As3  1  0.333333  0.666667  0.209367  1
  Au  Au4  1  0.333333  0.666667  0.767503  1
  Au  Au5  1  0.666667  0.333333  0.232497  1
