# generated using pymatgen
data_Er8Nb11Si16Ir
_symmetry_space_group_name_H-M   'P 1'
_cell_length_a   7.02271301
_cell_length_b   7.02271270
_cell_length_c   12.95199915
_cell_angle_alpha   90.20957130
_cell_angle_beta   89.79042731
_cell_angle_gamma   89.71221938
_symmetry_Int_Tables_number   1
_chemical_formula_structural   Er8Nb11Si16Ir
_chemical_formula_sum   'Er8 Nb11 Si16 Ir1'
_cell_volume   638.75646922
_cell_formula_units_Z   1
loop_
 _symmetry_equiv_pos_site_id
 _symmetry_equiv_pos_as_xyz
  1  'x, y, z'
loop_
 _atom_site_type_symbol
 _atom_site_label
 _atom_site_symmetry_multiplicity
 _atom_site_fract_x
 _atom_site_fract_y
 _atom_site_fract_z
 _atom_site_occupancy
  Er  Er0  1  0.341527  0.002962  0.467677  1
  Er  Er1  1  0.495428  0.842451  0.719332  1
  Er  Er2  1  0.501289  0.158033  0.216769  1
  Er  Er3  1  0.842451  0.495428  0.280668  1
  Er  Er4  1  0.158033  0.501289  0.783231  1
  Er  Er5  1  0.657150  0.998247  0.968182  1
  Er  Er6  1  0.002962  0.341527  0.532323  1
  Er  Er7  1  0.998247  0.657150  0.031818  1
  Nb  Nb8  1  0.175206  0.828366  0.246905  1
  Nb  Nb9  1  0.828366  0.175206  0.753095  1
  Nb  Nb10  1  0.671173  0.671173  0.500000  1
  Nb  Nb11  1  0.149262  0.001327  0.874315  1
  Nb  Nb12  1  0.495428  0.658987  0.123480  1
  Nb  Nb13  1  0.503909  0.348193  0.625547  1
  Nb  Nb14  1  0.658987  0.495428  0.876520  1
  Nb  Nb15  1  0.348193  0.503909  0.374453  1
  Nb  Nb16  1  0.848411  0.993820  0.373749  1
  Nb  Nb17  1  0.001327  0.149262  0.125685  1
  Nb  Nb18  1  0.993820  0.848411  0.626251  1
  Si  Si19  1  0.202648  0.136736  0.683215  1
  Si  Si20  1  0.367921  0.701341  0.932823  1
  Si  Si21  1  0.635952  0.295391  0.432188  1
  Si  Si22  1  0.701341  0.367921  0.067177  1
  Si  Si23  1  0.295391  0.635952  0.567812  1
  Si  Si24  1  0.795494  0.864630  0.182668  1
  Si  Si25  1  0.136736  0.202648  0.316785  1
  Si  Si26  1  0.864630  0.795494  0.817332  1
  Si  Si27  1  0.290793  0.958034  0.060337  1
  Si  Si28  1  0.545821  0.794503  0.313406  1
  Si  Si29  1  0.448590  0.209063  0.817547  1
  Si  Si30  1  0.794503  0.545821  0.686594  1
  Si  Si31  1  0.209063  0.448590  0.182453  1
  Si  Si32  1  0.705102  0.046163  0.564561  1
  Si  Si33  1  0.958034  0.290793  0.939663  1
  Si  Si34  1  0.046163  0.705102  0.435439  1
  Ir  Ir35  1  0.330650  0.330650  0.000000  1
