# generated using pymatgen
data_Y4ErZn2Sb
_symmetry_space_group_name_H-M   'P 1'
_cell_length_a   8.57540435
_cell_length_b   8.57540398
_cell_length_c   8.57540459
_cell_angle_alpha   123.71517988
_cell_angle_beta   123.71517785
_cell_angle_gamma   83.67721940
_symmetry_Int_Tables_number   1
_chemical_formula_structural   Y4ErZn2Sb
_chemical_formula_sum   'Y8 Er2 Zn4 Sb2'
_cell_volume   418.08288502
_cell_formula_units_Z   2
loop_
 _symmetry_equiv_pos_site_id
 _symmetry_equiv_pos_as_xyz
  1  'x, y, z'
loop_
 _atom_site_type_symbol
 _atom_site_label
 _atom_site_symmetry_multiplicity
 _atom_site_fract_x
 _atom_site_fract_y
 _atom_site_fract_z
 _atom_site_occupancy
  Y  Y0  1  0.011367  0.511367  0.810844  1
  Y  Y1  1  0.700523  0.200523  0.189156  1
  Y  Y2  1  0.511367  0.700523  0.500000  1
  Y  Y3  1  0.200523  0.011367  0.500000  1
  Y  Y4  1  0.988633  0.488633  0.189156  1
  Y  Y5  1  0.299477  0.799477  0.810844  1
  Y  Y6  1  0.488633  0.299477  0.500000  1
  Y  Y7  1  0.799477  0.988633  0.500000  1
  Er  Er8  1  0.000000  0.000000  0.000000  1
  Er  Er9  1  0.500000  0.500000  0.000000  1
  Zn  Zn10  1  0.636572  0.136572  0.773143  1
  Zn  Zn11  1  0.363428  0.863428  0.226857  1
  Zn  Zn12  1  0.136572  0.363428  0.500000  1
  Zn  Zn13  1  0.863428  0.636572  0.500000  1
  Sb  Sb14  1  0.750000  0.750000  0.000000  1
  Sb  Sb15  1  0.250000  0.250000  0.000000  1
