# generated using pymatgen
data_Ta9NbSi5Sn
_symmetry_space_group_name_H-M   'P 1'
_cell_length_a   7.62429370
_cell_length_b   7.61423767
_cell_length_c   7.61997487
_cell_angle_alpha   128.09366899
_cell_angle_beta   128.10189654
_cell_angle_gamma   76.46973063
_symmetry_Int_Tables_number   1
_chemical_formula_structural   Ta9NbSi5Sn
_chemical_formula_sum   'Ta9 Nb1 Si5 Sn1'
_cell_volume   266.15680564
_cell_formula_units_Z   1
loop_
 _symmetry_equiv_pos_site_id
 _symmetry_equiv_pos_as_xyz
  1  'x, y, z'
loop_
 _atom_site_type_symbol
 _atom_site_label
 _atom_site_symmetry_multiplicity
 _atom_site_fract_x
 _atom_site_fract_y
 _atom_site_fract_z
 _atom_site_occupancy
  Ta  Ta0  1  0.680647  0.506870  0.482892  1
  Ta  Ta1  1  0.507079  0.023707  0.825968  1
  Ta  Ta2  1  0.198106  0.681256  0.174531  1
  Ta  Ta3  1  0.993391  0.818786  0.517113  1
  Ta  Ta4  1  0.301682  0.476326  0.483110  1
  Ta  Ta5  1  0.475921  0.993185  0.174261  1
  Ta  Ta6  1  0.818668  0.301861  0.825804  1
  Ta  Ta7  1  0.001582  0.001591  0.999440  1
  Ta  Ta8  1  0.498684  0.498569  0.000421  1
  Nb  Nb9  1  0.024378  0.197811  0.516224  1
  Si  Si10  1  0.249978  0.250063  0.000138  1
  Si  Si11  1  0.368958  0.130881  0.500019  1
  Si  Si12  1  0.630999  0.868909  0.499929  1
  Si  Si13  1  0.868870  0.369020  0.237852  1
  Si  Si14  1  0.131002  0.630963  0.762073  1
  Sn  Sn15  1  0.750054  0.750203  0.000225  1
