# generated using pymatgen
data_ZnCuMo6(RhN)2
_symmetry_space_group_name_H-M   'P 1'
_cell_length_a   6.80773500
_cell_length_b   6.80156171
_cell_length_c   6.79785490
_cell_angle_alpha   90.13057789
_cell_angle_beta   90.00000000
_cell_angle_gamma   90.00000000
_symmetry_Int_Tables_number   1
_chemical_formula_structural   ZnCuMo6(RhN)2
_chemical_formula_sum   'Zn2 Cu2 Mo12 Rh4 N4'
_cell_volume   314.76181934
_cell_formula_units_Z   2
loop_
 _symmetry_equiv_pos_site_id
 _symmetry_equiv_pos_as_xyz
  1  'x, y, z'
loop_
 _atom_site_type_symbol
 _atom_site_label
 _atom_site_symmetry_multiplicity
 _atom_site_fract_x
 _atom_site_fract_y
 _atom_site_fract_z
 _atom_site_occupancy
  Zn  Zn0  1  0.815189  0.682862  0.565081  1
  Zn  Zn1  1  0.315189  0.317138  0.434919  1
  Cu  Cu2  1  0.685837  0.185741  0.934981  1
  Cu  Cu3  1  0.185837  0.814259  0.065019  1
  Mo  Mo4  1  0.626867  0.042268  0.556452  1
  Mo  Mo5  1  0.126867  0.957732  0.443548  1
  Mo  Mo6  1  0.877539  0.542178  0.950762  1
  Mo  Mo7  1  0.377539  0.457822  0.049238  1
  Mo  Mo8  1  0.196644  0.626501  0.711551  1
  Mo  Mo9  1  0.301732  0.122627  0.796863  1
  Mo  Mo10  1  0.801732  0.877373  0.203137  1
  Mo  Mo11  1  0.696644  0.373499  0.288449  1
  Mo  Mo12  1  0.040069  0.195604  0.123861  1
  Mo  Mo13  1  0.955282  0.299793  0.627836  1
  Mo  Mo14  1  0.540069  0.804396  0.876139  1
  Mo  Mo15  1  0.455282  0.700207  0.372164  1
  Rh  Rh16  1  0.067096  0.567331  0.316916  1
  Rh  Rh17  1  0.434822  0.066573  0.184618  1
  Rh  Rh18  1  0.567096  0.432669  0.683084  1
  Rh  Rh19  1  0.934822  0.933427  0.815382  1
  N  N20  1  0.372543  0.874394  0.623123  1
  N  N21  1  0.872543  0.125606  0.376877  1
  N  N22  1  0.126381  0.372455  0.876904  1
  N  N23  1  0.626381  0.627545  0.123096  1
