# generated using pymatgen
data_Tb8DyMg(SiB4)4
_symmetry_space_group_name_H-M   'P 1'
_cell_length_a   7.21188400
_cell_length_b   7.21188400
_cell_length_c   8.05599400
_cell_angle_alpha   90.00000000
_cell_angle_beta   90.00000000
_cell_angle_gamma   90.00000000
_symmetry_Int_Tables_number   1
_chemical_formula_structural   Tb8DyMg(SiB4)4
_chemical_formula_sum   'Tb8 Dy1 Mg1 Si4 B16'
_cell_volume   419.00248573
_cell_formula_units_Z   1
loop_
 _symmetry_equiv_pos_site_id
 _symmetry_equiv_pos_as_xyz
  1  'x, y, z'
loop_
 _atom_site_type_symbol
 _atom_site_label
 _atom_site_symmetry_multiplicity
 _atom_site_fract_x
 _atom_site_fract_y
 _atom_site_fract_z
 _atom_site_occupancy
  Tb  Tb0  1  0.682041  0.179966  0.228667  1
  Tb  Tb1  1  0.317959  0.820034  0.771333  1
  Tb  Tb2  1  0.317959  0.820034  0.228667  1
  Tb  Tb3  1  0.820034  0.682041  0.228667  1
  Tb  Tb4  1  0.820034  0.682041  0.771333  1
  Tb  Tb5  1  0.682041  0.179966  0.771333  1
  Tb  Tb6  1  0.179966  0.317959  0.771333  1
  Tb  Tb7  1  0.179966  0.317959  0.228667  1
  Dy  Dy8  1  0.500000  0.500000  0.500000  1
  Mg  Mg9  1  0.000000  0.000000  0.500000  1
  Si  Si10  1  0.114779  0.615940  0.500000  1
  Si  Si11  1  0.885221  0.384060  0.500000  1
  Si  Si12  1  0.384060  0.114779  0.500000  1
  Si  Si13  1  0.615940  0.885221  0.500000  1
  B  B14  1  0.173992  0.038362  0.000000  1
  B  B15  1  0.826008  0.961638  0.000000  1
  B  B16  1  0.961638  0.173992  0.000000  1
  B  B17  1  0.327458  0.539583  0.000000  1
  B  B18  1  0.038362  0.826008  0.000000  1
  B  B19  1  0.672542  0.460417  0.000000  1
  B  B20  1  0.539583  0.672542  0.000000  1
  B  B21  1  0.460417  0.327458  0.000000  1
  B  B22  1  0.089450  0.588560  0.000000  1
  B  B23  1  0.910550  0.411440  0.000000  1
  B  B24  1  0.411440  0.089450  0.000000  1
  B  B25  1  0.588560  0.910550  0.000000  1
  B  B26  1  0.000000  0.000000  0.157504  1
  B  B27  1  0.000000  0.000000  0.842496  1
  B  B28  1  0.500000  0.500000  0.838300  1
  B  B29  1  0.500000  0.500000  0.161700  1
