# generated using pymatgen
data_La15HoCdHg3Rh4
_symmetry_space_group_name_H-M   'P 1'
_cell_length_a   10.08155362
_cell_length_b   10.06710934
_cell_length_c   10.09848100
_cell_angle_alpha   59.89685826
_cell_angle_beta   59.94443879
_cell_angle_gamma   60.13156661
_symmetry_Int_Tables_number   1
_chemical_formula_structural   La15HoCdHg3Rh4
_chemical_formula_sum   'La15 Ho1 Cd1 Hg3 Rh4'
_cell_volume   724.56966019
_cell_formula_units_Z   1
loop_
 _symmetry_equiv_pos_site_id
 _symmetry_equiv_pos_as_xyz
  1  'x, y, z'
loop_
 _atom_site_type_symbol
 _atom_site_label
 _atom_site_symmetry_multiplicity
 _atom_site_fract_x
 _atom_site_fract_y
 _atom_site_fract_z
 _atom_site_occupancy
  La  La0  1  0.939752  0.939839  0.560205  1
  La  La1  1  0.561060  0.561841  0.938549  1
  La  La2  1  0.691501  0.691590  0.308455  1
  La  La3  1  0.149977  0.550497  0.149763  1
  La  La4  1  0.685688  0.310249  0.689956  1
  La  La5  1  0.152955  0.152551  0.147863  1
  La  La6  1  0.547718  0.150755  0.150764  1
  La  La7  1  0.685688  0.310249  0.314106  1
  La  La8  1  0.152955  0.152551  0.546631  1
  La  La9  1  0.308995  0.686493  0.313806  1
  La  La10  1  0.308995  0.686493  0.690706  1
  La  La11  1  0.941844  0.558763  0.563563  1
  La  La12  1  0.941844  0.558763  0.935830  1
  La  La13  1  0.558150  0.942256  0.563199  1
  La  La14  1  0.558150  0.942256  0.936395  1
  Ho  Ho15  1  0.309038  0.309956  0.690502  1
  Cd  Cd16  1  0.923998  0.236085  0.919959  1
  Hg  Hg17  1  0.915842  0.918252  0.249819  1
  Hg  Hg18  1  0.250301  0.920669  0.914515  1
  Hg  Hg19  1  0.915842  0.918252  0.916087  1
  Rh  Rh20  1  0.358570  0.359017  0.922048  1
  Rh  Rh21  1  0.358378  0.924630  0.358496  1
  Rh  Rh22  1  0.924188  0.358978  0.358416  1
  Rh  Rh23  1  0.358570  0.359017  0.360364  1
