# generated using pymatgen
data_Li4Pr2TmPb4
_symmetry_space_group_name_H-M   'P 1'
_cell_length_a   4.81755095
_cell_length_b   7.09330320
_cell_length_c   8.90998810
_cell_angle_alpha   113.45655003
_cell_angle_beta   105.68483092
_cell_angle_gamma   90.00000995
_symmetry_Int_Tables_number   1
_chemical_formula_structural   Li4Pr2TmPb4
_chemical_formula_sum   'Li4 Pr2 Tm1 Pb4'
_cell_volume   266.90977252
_cell_formula_units_Z   1
loop_
 _symmetry_equiv_pos_site_id
 _symmetry_equiv_pos_as_xyz
  1  'x, y, z'
loop_
 _atom_site_type_symbol
 _atom_site_label
 _atom_site_symmetry_multiplicity
 _atom_site_fract_x
 _atom_site_fract_y
 _atom_site_fract_z
 _atom_site_occupancy
  Li  Li0  1  0.672449  0.981872  0.344898  1
  Li  Li1  1  0.327551  0.018128  0.655102  1
  Li  Li2  1  0.327551  0.636974  0.655102  1
  Li  Li3  1  0.672449  0.363026  0.344898  1
  Pr  Pr4  1  0.129435  0.629435  0.258870  1
  Pr  Pr5  1  0.870565  0.370565  0.741130  1
  Tm  Tm6  1  0.000000  0.000000  0.000000  1
  Pb  Pb7  1  0.500000  0.714937  0.000000  1
  Pb  Pb8  1  0.500000  0.285063  0.000000  1
  Pb  Pb9  1  0.790640  0.790640  0.581279  1
  Pb  Pb10  1  0.209360  0.209360  0.418721  1
