# generated using pymatgen
data_Ca3(Ge3Pd10)2
_symmetry_space_group_name_H-M   'P 1'
_cell_length_a   8.88298503
_cell_length_b   8.88298488
_cell_length_c   8.88298400
_cell_angle_alpha   60.00000327
_cell_angle_beta   60.00000385
_cell_angle_gamma   60.00000199
_symmetry_Int_Tables_number   1
_chemical_formula_structural   Ca3(Ge3Pd10)2
_chemical_formula_sum   'Ca3 Ge6 Pd20'
_cell_volume   495.63476955
_cell_formula_units_Z   1
loop_
 _symmetry_equiv_pos_site_id
 _symmetry_equiv_pos_as_xyz
  1  'x, y, z'
loop_
 _atom_site_type_symbol
 _atom_site_label
 _atom_site_symmetry_multiplicity
 _atom_site_fract_x
 _atom_site_fract_y
 _atom_site_fract_z
 _atom_site_occupancy
  Ca  Ca0  1  0.250000  0.250000  0.250000  1
  Ca  Ca1  1  0.750000  0.750000  0.750000  1
  Ca  Ca2  1  0.000000  0.000000  0.000000  1
  Ge  Ge3  1  0.732114  0.267886  0.267886  1
  Ge  Ge4  1  0.267886  0.732114  0.267886  1
  Ge  Ge5  1  0.267886  0.732114  0.732114  1
  Ge  Ge6  1  0.732114  0.732114  0.267886  1
  Ge  Ge7  1  0.732114  0.267886  0.732114  1
  Ge  Ge8  1  0.267886  0.267886  0.732114  1
  Pd  Pd9  1  0.000000  0.653216  0.000000  1
  Pd  Pd10  1  0.382951  0.851147  0.382951  1
  Pd  Pd11  1  0.000000  0.653216  0.346784  1
  Pd  Pd12  1  0.346784  0.000000  0.000000  1
  Pd  Pd13  1  0.653216  0.346784  0.000000  1
  Pd  Pd14  1  0.617049  0.148853  0.617049  1
  Pd  Pd15  1  0.653216  0.000000  0.346784  1
  Pd  Pd16  1  0.851147  0.382951  0.382951  1
  Pd  Pd17  1  0.346784  0.000000  0.653216  1
  Pd  Pd18  1  0.382951  0.382951  0.382951  1
  Pd  Pd19  1  0.000000  0.000000  0.653216  1
  Pd  Pd20  1  0.000000  0.000000  0.346784  1
  Pd  Pd21  1  0.617049  0.617049  0.617049  1
  Pd  Pd22  1  0.148853  0.617049  0.617049  1
  Pd  Pd23  1  0.617049  0.617049  0.148853  1
  Pd  Pd24  1  0.346784  0.653216  0.000000  1
  Pd  Pd25  1  0.000000  0.346784  0.000000  1
  Pd  Pd26  1  0.382951  0.382951  0.851147  1
  Pd  Pd27  1  0.000000  0.346784  0.653216  1
  Pd  Pd28  1  0.653216  0.000000  0.000000  1
