# generated using pymatgen
data_GdLu3(WO6)2
_symmetry_space_group_name_H-M   'P 1'
_cell_length_a   5.34513800
_cell_length_b   7.63641501
_cell_length_c   11.36834365
_cell_angle_alpha   75.25648538
_cell_angle_beta   90.00000000
_cell_angle_gamma   90.00000000
_symmetry_Int_Tables_number   1
_chemical_formula_structural   GdLu3(WO6)2
_chemical_formula_sum   'Gd2 Lu6 W4 O24'
_cell_volume   448.75126183
_cell_formula_units_Z   2
loop_
 _symmetry_equiv_pos_site_id
 _symmetry_equiv_pos_as_xyz
  1  'x, y, z'
loop_
 _atom_site_type_symbol
 _atom_site_label
 _atom_site_symmetry_multiplicity
 _atom_site_fract_x
 _atom_site_fract_y
 _atom_site_fract_z
 _atom_site_occupancy
  Gd  Gd0  1  0.314313  0.500000  0.750000  1
  Gd  Gd1  1  0.685687  0.500000  0.250000  1
  Lu  Lu2  1  0.257364  0.000000  0.750000  1
  Lu  Lu3  1  0.184153  0.796440  0.078278  1
  Lu  Lu4  1  0.184153  0.203560  0.421722  1
  Lu  Lu5  1  0.742636  0.000000  0.250000  1
  Lu  Lu6  1  0.815847  0.203560  0.921722  1
  Lu  Lu7  1  0.815847  0.796440  0.578278  1
  W  W8  1  0.744404  0.726806  0.884839  1
  W  W9  1  0.255596  0.726806  0.384839  1
  W  W10  1  0.744404  0.273194  0.615161  1
  W  W11  1  0.255596  0.273194  0.115161  1
  O  O12  1  0.541458  0.154145  0.069222  1
  O  O13  1  0.041601  0.056469  0.104389  1
  O  O14  1  0.017677  0.717834  0.768630  1
  O  O15  1  0.458542  0.154145  0.569222  1
  O  O16  1  0.352920  0.488832  0.386803  1
  O  O17  1  0.958399  0.056469  0.604389  1
  O  O18  1  0.541910  0.797295  0.724611  1
  O  O19  1  0.458090  0.797295  0.224611  1
  O  O20  1  0.144399  0.638419  0.548361  1
  O  O21  1  0.041601  0.943531  0.395611  1
  O  O22  1  0.458542  0.845855  0.930778  1
  O  O23  1  0.458090  0.202705  0.275389  1
  O  O24  1  0.855601  0.361581  0.451639  1
  O  O25  1  0.647080  0.488832  0.886803  1
  O  O26  1  0.352920  0.511168  0.113197  1
  O  O27  1  0.958399  0.943531  0.895611  1
  O  O28  1  0.541458  0.845855  0.430778  1
  O  O29  1  0.982323  0.282166  0.231370  1
  O  O30  1  0.541910  0.202705  0.775389  1
  O  O31  1  0.855601  0.638419  0.048361  1
  O  O32  1  0.017677  0.282166  0.731370  1
  O  O33  1  0.144399  0.361581  0.951639  1
  O  O34  1  0.982323  0.717834  0.268630  1
  O  O35  1  0.647080  0.511168  0.613197  1
