# generated using pymatgen
data_ErTm(FeOs)2
_symmetry_space_group_name_H-M   'P 1'
_cell_length_a   5.25027571
_cell_length_b   5.25026128
_cell_length_c   5.24996924
_cell_angle_alpha   121.03634439
_cell_angle_beta   120.07961940
_cell_angle_gamma   89.03503750
_symmetry_Int_Tables_number   1
_chemical_formula_structural   ErTm(FeOs)2
_chemical_formula_sum   'Er1 Tm1 Fe2 Os2'
_cell_volume   101.44566791
_cell_formula_units_Z   1
loop_
 _symmetry_equiv_pos_site_id
 _symmetry_equiv_pos_as_xyz
  1  'x, y, z'
loop_
 _atom_site_type_symbol
 _atom_site_label
 _atom_site_symmetry_multiplicity
 _atom_site_fract_x
 _atom_site_fract_y
 _atom_site_fract_z
 _atom_site_occupancy
  Er  Er0  1  0.876669  0.126715  0.750026  1
  Tm  Tm1  1  0.123284  0.873269  0.249998  1
  Fe  Fe2  1  0.499949  0.999847  0.999895  1
  Fe  Fe3  1  0.499951  0.500042  0.500092  1
  Os  Os4  1  0.000135  0.500064  0.500056  1
  Os  Os5  1  0.500011  0.500064  0.999933  1
