# generated using pymatgen
data_Y2Mn3Fe3Ni6P7
_symmetry_space_group_name_H-M   'P 1'
_cell_length_a   9.09255400
_cell_length_b   9.09255422
_cell_length_c   3.66135600
_cell_angle_alpha   90.00000000
_cell_angle_beta   90.00000000
_cell_angle_gamma   119.99999921
_symmetry_Int_Tables_number   1
_chemical_formula_structural   Y2Mn3Fe3Ni6P7
_chemical_formula_sum   'Y2 Mn3 Fe3 Ni6 P7'
_cell_volume   262.14669191
_cell_formula_units_Z   1
loop_
 _symmetry_equiv_pos_site_id
 _symmetry_equiv_pos_as_xyz
  1  'x, y, z'
loop_
 _atom_site_type_symbol
 _atom_site_label
 _atom_site_symmetry_multiplicity
 _atom_site_fract_x
 _atom_site_fract_y
 _atom_site_fract_z
 _atom_site_occupancy
  Y  Y0  1  0.666667  0.333333  0.000000  1
  Y  Y1  1  0.333333  0.666667  0.500000  1
  Mn  Mn2  1  0.090756  0.874979  0.500000  1
  Mn  Mn3  1  0.784224  0.909244  0.500000  1
  Mn  Mn4  1  0.125021  0.215776  0.500000  1
  Fe  Fe5  1  0.430715  0.046419  0.500000  1
  Fe  Fe6  1  0.615703  0.569285  0.500000  1
  Fe  Fe7  1  0.953581  0.384297  0.500000  1
  Ni  Ni8  1  0.061436  0.631951  0.000000  1
  Ni  Ni9  1  0.570514  0.938564  0.000000  1
  Ni  Ni10  1  0.368049  0.429486  0.000000  1
  Ni  Ni11  1  0.277859  0.120473  0.000000  1
  Ni  Ni12  1  0.842615  0.722141  0.000000  1
  Ni  Ni13  1  0.879527  0.157385  0.000000  1
  P  P14  1  0.301695  0.890339  0.000000  1
  P  P15  1  0.588644  0.698305  0.000000  1
  P  P16  1  0.109661  0.411356  0.000000  1
  P  P17  1  0.410420  0.292535  0.500000  1
  P  P18  1  0.882115  0.589580  0.500000  1
  P  P19  1  0.707465  0.117885  0.500000  1
  P  P20  1  0.000000  0.000000  0.000000  1
