# generated using pymatgen
data_Tb4Er(OsO6)2
_symmetry_space_group_name_H-M   'P 1'
_cell_length_a   6.90198310
_cell_length_b   6.90198375
_cell_length_c   7.50688305
_cell_angle_alpha   73.93862268
_cell_angle_beta   73.93862294
_cell_angle_gamma   48.50967120
_symmetry_Int_Tables_number   1
_chemical_formula_structural   Tb4Er(OsO6)2
_chemical_formula_sum   'Tb4 Er1 Os2 O12'
_cell_volume   255.24149428
_cell_formula_units_Z   1
loop_
 _symmetry_equiv_pos_site_id
 _symmetry_equiv_pos_as_xyz
  1  'x, y, z'
loop_
 _atom_site_type_symbol
 _atom_site_label
 _atom_site_symmetry_multiplicity
 _atom_site_fract_x
 _atom_site_fract_y
 _atom_site_fract_z
 _atom_site_occupancy
  Tb  Tb0  1  0.698802  0.698802  0.642169  1
  Tb  Tb1  1  0.301198  0.301198  0.357831  1
  Tb  Tb2  1  0.687194  0.687194  0.171594  1
  Tb  Tb3  1  0.312806  0.312806  0.828406  1
  Er  Er4  1  0.000000  0.000000  0.500000  1
  Os  Os5  1  0.781267  0.218733  0.000000  1
  Os  Os6  1  0.218733  0.781267  0.000000  1
  O  O7  1  0.001011  0.001011  0.204033  1
  O  O8  1  0.998989  0.998989  0.795967  1
  O  O9  1  0.581939  0.086357  0.085608  1
  O  O10  1  0.418061  0.913643  0.914392  1
  O  O11  1  0.913643  0.418061  0.914392  1
  O  O12  1  0.086357  0.581939  0.085608  1
  O  O13  1  0.498785  0.498785  0.172769  1
  O  O14  1  0.501215  0.501215  0.827231  1
  O  O15  1  0.401004  0.901168  0.428384  1
  O  O16  1  0.598996  0.098832  0.571616  1
  O  O17  1  0.098832  0.598996  0.571616  1
  O  O18  1  0.901168  0.401004  0.428384  1
