# generated using pymatgen
data_KY(CuO2)4
_symmetry_space_group_name_H-M   'P 1'
_cell_length_a   6.34230717
_cell_length_b   6.34230619
_cell_length_c   6.34230683
_cell_angle_alpha   124.15549922
_cell_angle_beta   124.15549903
_cell_angle_gamma   82.94156369
_symmetry_Int_Tables_number   1
_chemical_formula_structural   KY(CuO2)4
_chemical_formula_sum   'K1 Y1 Cu4 O8'
_cell_volume   167.66866346
_cell_formula_units_Z   1
loop_
 _symmetry_equiv_pos_site_id
 _symmetry_equiv_pos_as_xyz
  1  'x, y, z'
loop_
 _atom_site_type_symbol
 _atom_site_label
 _atom_site_symmetry_multiplicity
 _atom_site_fract_x
 _atom_site_fract_y
 _atom_site_fract_z
 _atom_site_occupancy
  K  K0  1  0.000000  0.000000  0.000000  1
  Y  Y1  1  0.750000  0.250000  0.500000  1
  Cu  Cu2  1  0.870586  0.644838  0.265895  1
  Cu  Cu3  1  0.378943  0.604691  0.734105  1
  Cu  Cu4  1  0.395309  0.129414  0.774252  1
  Cu  Cu5  1  0.355162  0.621057  0.225748  1
  O  O6  1  0.389651  0.962544  0.935812  1
  O  O7  1  0.026732  0.453839  0.064188  1
  O  O8  1  0.663942  0.829038  0.387730  1
  O  O9  1  0.441308  0.276213  0.612270  1
  O  O10  1  0.170962  0.558692  0.834904  1
  O  O11  1  0.723787  0.336058  0.165096  1
  O  O12  1  0.546161  0.610349  0.572893  1
  O  O13  1  0.037456  0.973268  0.427107  1
