# generated using pymatgen
data_DyHo4Pa(Al3Os)8
_symmetry_space_group_name_H-M   'P 1'
_cell_length_a   8.78964400
_cell_length_b   8.83878096
_cell_length_c   9.57809000
_cell_angle_alpha   90.00000000
_cell_angle_beta   90.00000000
_cell_angle_gamma   119.81627136
_symmetry_Int_Tables_number   1
_chemical_formula_structural   DyHo4Pa(Al3Os)8
_chemical_formula_sum   'Dy1 Ho4 Pa1 Al24 Os8'
_cell_volume   645.61597728
_cell_formula_units_Z   1
loop_
 _symmetry_equiv_pos_site_id
 _symmetry_equiv_pos_as_xyz
  1  'x, y, z'
loop_
 _atom_site_type_symbol
 _atom_site_label
 _atom_site_symmetry_multiplicity
 _atom_site_fract_x
 _atom_site_fract_y
 _atom_site_fract_z
 _atom_site_occupancy
  Dy  Dy0  1  0.808016  0.616033  0.750000  1
  Ho  Ho1  1  0.609548  0.802348  0.250000  1
  Ho  Ho2  1  0.388413  0.192223  0.750000  1
  Ho  Ho3  1  0.192800  0.802348  0.250000  1
  Ho  Ho4  1  0.803808  0.192223  0.750000  1
  Pa  Pa5  1  0.196915  0.393828  0.250000  1
  Al  Al6  1  0.336407  0.672816  0.018709  1
  Al  Al7  1  0.667728  0.335454  0.980437  1
  Al  Al8  1  0.667728  0.335454  0.519563  1
  Al  Al9  1  0.336407  0.672816  0.481291  1
  Al  Al10  1  0.163086  0.326172  0.577387  1
  Al  Al11  1  0.836625  0.673250  0.424795  1
  Al  Al12  1  0.672466  0.835486  0.574960  1
  Al  Al13  1  0.836625  0.673250  0.075205  1
  Al  Al14  1  0.326302  0.162133  0.423633  1
  Al  Al15  1  0.163086  0.326172  0.922613  1
  Al  Al16  1  0.163018  0.835486  0.574960  1
  Al  Al17  1  0.326302  0.162133  0.076367  1
  Al  Al18  1  0.835830  0.162133  0.423633  1
  Al  Al19  1  0.672466  0.835486  0.925040  1
  Al  Al20  1  0.835830  0.162133  0.076367  1
  Al  Al21  1  0.163018  0.835486  0.925040  1
  Al  Al22  1  0.559839  0.119678  0.250000  1
  Al  Al23  1  0.437825  0.875650  0.750000  1
  Al  Al24  1  0.872853  0.437354  0.250000  1
  Al  Al25  1  0.120424  0.559529  0.750000  1
  Al  Al26  1  0.564500  0.437354  0.250000  1
  Al  Al27  1  0.439106  0.559529  0.750000  1
  Al  Al28  1  0.001150  0.002299  0.250000  1
  Al  Al29  1  0.000704  0.001409  0.750000  1
  Os  Os30  1  0.501713  0.003425  0.997782  1
  Os  Os31  1  0.003294  0.499543  0.004788  1
  Os  Os32  1  0.501713  0.003425  0.502218  1
  Os  Os33  1  0.496248  0.499543  0.004788  1
  Os  Os34  1  0.003294  0.499543  0.495212  1
  Os  Os35  1  0.496248  0.499543  0.495212  1
  Os  Os36  1  0.999329  0.998658  0.999329  1
  Os  Os37  1  0.999329  0.998658  0.500671  1
