# generated using pymatgen
data_KLa2YbB24
_symmetry_space_group_name_H-M   'P 1'
_cell_length_a   7.20569427
_cell_length_b   7.20569387
_cell_length_c   5.89535800
_cell_angle_alpha   90.00000000
_cell_angle_beta   90.00000000
_cell_angle_gamma   109.38714850
_symmetry_Int_Tables_number   1
_chemical_formula_structural   KLa2YbB24
_chemical_formula_sum   'K1 La2 Yb1 B24'
_cell_volume   288.74225203
_cell_formula_units_Z   1
loop_
 _symmetry_equiv_pos_site_id
 _symmetry_equiv_pos_as_xyz
  1  'x, y, z'
loop_
 _atom_site_type_symbol
 _atom_site_label
 _atom_site_symmetry_multiplicity
 _atom_site_fract_x
 _atom_site_fract_y
 _atom_site_fract_z
 _atom_site_occupancy
  K  K0  1  0.000000  0.000000  0.000000  1
  La  La1  1  0.751026  0.248974  0.500000  1
  La  La2  1  0.248974  0.751026  0.500000  1
  Yb  Yb3  1  0.500000  0.500000  0.000000  1
  B  B4  1  0.177199  0.326152  0.649710  1
  B  B5  1  0.924100  0.573979  0.148576  1
  B  B6  1  0.673848  0.822801  0.649710  1
  B  B7  1  0.426021  0.075900  0.148576  1
  B  B8  1  0.177199  0.326152  0.350290  1
  B  B9  1  0.924100  0.573979  0.851424  1
  B  B10  1  0.673848  0.822801  0.350290  1
  B  B11  1  0.426021  0.075900  0.851424  1
  B  B12  1  0.400033  0.400033  0.500000  1
  B  B13  1  0.148939  0.649624  0.000000  1
  B  B14  1  0.898255  0.898255  0.500000  1
  B  B15  1  0.649624  0.148939  0.000000  1
  B  B16  1  0.326152  0.177199  0.649710  1
  B  B17  1  0.075900  0.426021  0.148576  1
  B  B18  1  0.822801  0.673848  0.649710  1
  B  B19  1  0.573979  0.924100  0.148576  1
  B  B20  1  0.101745  0.101745  0.500000  1
  B  B21  1  0.851061  0.350376  0.000000  1
  B  B22  1  0.599967  0.599967  0.500000  1
  B  B23  1  0.350376  0.851061  0.000000  1
  B  B24  1  0.326152  0.177199  0.350290  1
  B  B25  1  0.075900  0.426021  0.851424  1
  B  B26  1  0.822801  0.673848  0.350290  1
  B  B27  1  0.573979  0.924100  0.851424  1
