# generated using pymatgen
data_Y11TmZnInCo4
_symmetry_space_group_name_H-M   'P 1'
_cell_length_a   8.35945593
_cell_length_b   8.36759317
_cell_length_c   8.35945700
_cell_angle_alpha   110.96951208
_cell_angle_beta   110.44147801
_cell_angle_gamma   106.99244638
_symmetry_Int_Tables_number   1
_chemical_formula_structural   Y11TmZnInCo4
_chemical_formula_sum   'Y11 Tm1 Zn1 In1 Co4'
_cell_volume   449.70818943
_cell_formula_units_Z   1
loop_
 _symmetry_equiv_pos_site_id
 _symmetry_equiv_pos_as_xyz
  1  'x, y, z'
loop_
 _atom_site_type_symbol
 _atom_site_label
 _atom_site_symmetry_multiplicity
 _atom_site_fract_x
 _atom_site_fract_y
 _atom_site_fract_z
 _atom_site_occupancy
  Y  Y0  1  0.425946  0.221692  0.203191  1
  Y  Y1  1  0.575624  0.778751  0.798878  1
  Y  Y2  1  0.018500  0.221692  0.795746  1
  Y  Y3  1  0.979875  0.778751  0.203128  1
  Y  Y4  1  0.185044  0.289263  0.475672  1
  Y  Y5  1  0.813322  0.711140  0.523429  1
  Y  Y6  1  0.187711  0.711140  0.897819  1
  Y  Y7  1  0.813591  0.289263  0.104219  1
  Y  Y8  1  0.315027  0.618962  0.303935  1
  Y  Y9  1  0.685080  0.381257  0.696177  1
  Y  Y10  1  0.315182  0.010944  0.695763  1
  Tm  Tm11  1  0.684640  0.991248  0.306607  1
  Zn  Zn12  1  0.000772  0.000255  0.999483  1
  In  In13  1  0.500243  0.500815  0.000570  1
  Co  Co14  1  0.380656  0.998918  0.377347  1
  Co  Co15  1  0.621572  0.998918  0.618262  1
  Co  Co16  1  0.110664  0.611336  0.500672  1
  Co  Co17  1  0.886550  0.385653  0.499103  1
