# generated using pymatgen
data_Ba8Ho3Er(FeO5)4
_symmetry_space_group_name_H-M   'P 1'
_cell_length_a   6.14205000
_cell_length_b   7.95864916
_cell_length_c   12.74188003
_cell_angle_alpha   91.36508770
_cell_angle_beta   89.99740386
_cell_angle_gamma   90.00148124
_symmetry_Int_Tables_number   1
_chemical_formula_structural   Ba8Ho3Er(FeO5)4
_chemical_formula_sum   'Ba8 Ho3 Er1 Fe4 O20'
_cell_volume   622.67717287
_cell_formula_units_Z   1
loop_
 _symmetry_equiv_pos_site_id
 _symmetry_equiv_pos_as_xyz
  1  'x, y, z'
loop_
 _atom_site_type_symbol
 _atom_site_label
 _atom_site_symmetry_multiplicity
 _atom_site_fract_x
 _atom_site_fract_y
 _atom_site_fract_z
 _atom_site_occupancy
  Ba  Ba0  1  0.759555  0.488969  0.354471  1
  Ba  Ba1  1  0.740424  0.989033  0.854393  1
  Ba  Ba2  1  0.240439  0.510938  0.645556  1
  Ba  Ba3  1  0.259557  0.011008  0.145560  1
  Ba  Ba4  1  0.755831  0.995387  0.378285  1
  Ba  Ba5  1  0.744157  0.495318  0.878183  1
  Ba  Ba6  1  0.244178  0.004719  0.621765  1
  Ba  Ba7  1  0.255829  0.504655  0.121759  1
  Ho  Ho8  1  0.750863  0.762274  0.130867  1
  Ho  Ho9  1  0.250868  0.737729  0.369145  1
  Ho  Ho10  1  0.249113  0.237740  0.869055  1
  Er  Er11  1  0.749134  0.262138  0.631016  1
  Fe  Fe12  1  0.737267  0.744881  0.585098  1
  Fe  Fe13  1  0.762720  0.244859  0.085078  1
  Fe  Fe14  1  0.262724  0.255150  0.415046  1
  Fe  Fe15  1  0.237262  0.755141  0.914925  1
  O  O16  1  0.762629  0.970914  0.638416  1
  O  O17  1  0.737330  0.470481  0.138463  1
  O  O18  1  0.237346  0.029550  0.361542  1
  O  O19  1  0.262664  0.529481  0.861546  1
  O  O20  1  0.734245  0.054996  0.171607  1
  O  O21  1  0.765712  0.554576  0.671501  1
  O  O22  1  0.265750  0.945034  0.828400  1
  O  O23  1  0.234259  0.444976  0.328406  1
  O  O24  1  0.546135  0.747292  0.273428  1
  O  O25  1  0.953476  0.247342  0.773072  1
  O  O26  1  0.454650  0.252732  0.726358  1
  O  O27  1  0.046155  0.752704  0.226574  1
  O  O28  1  0.543953  0.229458  0.977911  1
  O  O29  1  0.955993  0.729461  0.477919  1
  O  O30  1  0.455997  0.770544  0.022086  1
  O  O31  1  0.043391  0.270517  0.522284  1
  O  O32  1  0.041579  0.235850  0.018598  1
  O  O33  1  0.458462  0.735853  0.518617  1
  O  O34  1  0.958448  0.764150  0.981379  1
  O  O35  1  0.541904  0.264150  0.481691  1
