# generated using pymatgen
data_TbNdYGa8Ag3
_symmetry_space_group_name_H-M   'P 1'
_cell_length_a   4.35379902
_cell_length_b   8.43301903
_cell_length_c   8.43301867
_cell_angle_alpha   69.08980438
_cell_angle_beta   75.04026802
_cell_angle_gamma   75.04026728
_symmetry_Int_Tables_number   1
_chemical_formula_structural   TbNdYGa8Ag3
_chemical_formula_sum   'Tb1 Nd1 Y1 Ga8 Ag3'
_cell_volume   274.66143485
_cell_formula_units_Z   1
loop_
 _symmetry_equiv_pos_site_id
 _symmetry_equiv_pos_as_xyz
  1  'x, y, z'
loop_
 _atom_site_type_symbol
 _atom_site_label
 _atom_site_symmetry_multiplicity
 _atom_site_fract_x
 _atom_site_fract_y
 _atom_site_fract_z
 _atom_site_occupancy
  Tb  Tb0  1  0.198993  0.801007  0.801007  1
  Nd  Nd1  1  0.500154  0.499846  0.499846  1
  Y  Y2  1  0.800912  0.199088  0.199088  1
  Ga  Ga3  1  0.355565  0.362022  0.926849  1
  Ga  Ga4  1  0.644490  0.638383  0.072638  1
  Ga  Ga5  1  0.355565  0.926849  0.362022  1
  Ga  Ga6  1  0.644490  0.072638  0.638383  1
  Ga  Ga7  1  0.160254  0.472111  0.207382  1
  Ga  Ga8  1  0.839672  0.528129  0.792527  1
  Ga  Ga9  1  0.160254  0.207382  0.472111  1
  Ga  Ga10  1  0.839672  0.792527  0.528129  1
  Ag  Ag11  1  0.499907  0.000093  0.000093  1
  Ag  Ag12  1  0.000037  0.803847  0.196077  1
  Ag  Ag13  1  0.000037  0.196077  0.803847  1
