# generated using pymatgen
data_Ta4VGa2SiB
_symmetry_space_group_name_H-M   'P 1'
_cell_length_a   7.66313900
_cell_length_b   7.69229280
_cell_length_c   5.20329400
_cell_angle_alpha   89.99923389
_cell_angle_beta   90.00153806
_cell_angle_gamma   119.87470248
_symmetry_Int_Tables_number   1
_chemical_formula_structural   Ta4VGa2SiB
_chemical_formula_sum   'Ta8 V2 Ga4 Si2 B2'
_cell_volume   265.96130504
_cell_formula_units_Z   2
loop_
 _symmetry_equiv_pos_site_id
 _symmetry_equiv_pos_as_xyz
  1  'x, y, z'
loop_
 _atom_site_type_symbol
 _atom_site_label
 _atom_site_symmetry_multiplicity
 _atom_site_fract_x
 _atom_site_fract_y
 _atom_site_fract_z
 _atom_site_occupancy
  Ta  Ta0  1  0.248319  0.000000  0.252436  1
  Ta  Ta1  1  0.751681  0.000000  0.747564  1
  Ta  Ta2  1  0.993305  0.239307  0.254110  1
  Ta  Ta3  1  0.006695  0.760693  0.745890  1
  Ta  Ta4  1  0.753998  0.760693  0.254110  1
  Ta  Ta5  1  0.246002  0.239307  0.745890  1
  Ta  Ta6  1  0.662730  0.325460  0.500000  1
  Ta  Ta7  1  0.337270  0.674540  0.500000  1
  V  V8  1  0.338525  0.677050  0.000000  1
  V  V9  1  0.661475  0.322950  0.000000  1
  Ga  Ga10  1  0.996553  0.593933  0.235557  1
  Ga  Ga11  1  0.003447  0.406067  0.764443  1
  Ga  Ga12  1  0.402620  0.406067  0.235557  1
  Ga  Ga13  1  0.597380  0.593933  0.764443  1
  Si  Si14  1  0.594872  0.000000  0.233751  1
  Si  Si15  1  0.405128  0.000000  0.766249  1
  B  B16  1  0.000000  0.000000  0.000000  1
  B  B17  1  0.000000  0.000000  0.500000  1
