# generated using pymatgen
data_La6Pr3Nd3(PtI3)4
_symmetry_space_group_name_H-M   'P 1'
_cell_length_a   11.00331883
_cell_length_b   10.99560306
_cell_length_c   10.99326134
_cell_angle_alpha   109.29501317
_cell_angle_beta   109.23812670
_cell_angle_gamma   109.67231776
_symmetry_Int_Tables_number   1
_chemical_formula_structural   La6Pr3Nd3(PtI3)4
_chemical_formula_sum   'La6 Pr3 Nd3 Pt4 I12'
_cell_volume   1026.48547326
_cell_formula_units_Z   1
loop_
 _symmetry_equiv_pos_site_id
 _symmetry_equiv_pos_as_xyz
  1  'x, y, z'
loop_
 _atom_site_type_symbol
 _atom_site_label
 _atom_site_symmetry_multiplicity
 _atom_site_fract_x
 _atom_site_fract_y
 _atom_site_fract_z
 _atom_site_occupancy
  La  La0  1  0.044667  0.273703  0.021720  1
  La  La1  1  0.750890  0.017355  0.482275  1
  La  La2  1  0.273490  0.756956  0.233817  1
  La  La3  1  0.478543  0.742644  0.014466  1
  La  La4  1  0.742581  0.226518  0.266576  1
  La  La5  1  0.019321  0.477423  0.746623  1
  Pr  Pr6  1  0.270670  0.024050  0.042331  1
  Pr  Pr7  1  0.019089  0.041435  0.272144  1
  Pr  Pr8  1  0.229692  0.458382  0.479184  1
  Nd  Nd9  1  0.231136  0.269190  0.749450  1
  Nd  Nd10  1  0.475347  0.231181  0.458603  1
  Nd  Nd11  1  0.462017  0.481036  0.231514  1
  Pt  Pt12  1  0.501341  0.999217  0.250704  1
  Pt  Pt13  1  0.252885  0.501195  0.001064  1
  Pt  Pt14  1  0.251040  0.251864  0.250754  1
  Pt  Pt15  1  0.998319  0.248584  0.500361  1
  I  I16  1  0.758736  0.738662  0.249845  1
  I  I17  1  0.993418  0.510264  0.252399  1
  I  I18  1  0.250767  0.759649  0.741028  1
  I  I19  1  0.753818  0.515638  0.507312  1
  I  I20  1  0.506490  0.252634  0.990135  1
  I  I21  1  0.742490  0.990173  0.983002  1
  I  I22  1  0.996109  0.983465  0.743324  1
  I  I23  1  0.516359  0.504212  0.754495  1
  I  I24  1  0.250113  0.995323  0.511319  1
  I  I25  1  0.737481  0.249335  0.755831  1
  I  I26  1  0.508943  0.755329  0.517232  1
  I  I27  1  0.984248  0.744581  0.992493  1
