# generated using pymatgen
data_Zr5Tc4Pt
_symmetry_space_group_name_H-M   'P 1'
_cell_length_a   3.30420700
_cell_length_b   3.30420700
_cell_length_c   16.58562500
_cell_angle_alpha   90.00000000
_cell_angle_beta   90.00000000
_cell_angle_gamma   90.00000000
_symmetry_Int_Tables_number   1
_chemical_formula_structural   Zr5Tc4Pt
_chemical_formula_sum   'Zr5 Tc4 Pt1'
_cell_volume   181.07826958
_cell_formula_units_Z   1
loop_
 _symmetry_equiv_pos_site_id
 _symmetry_equiv_pos_as_xyz
  1  'x, y, z'
loop_
 _atom_site_type_symbol
 _atom_site_label
 _atom_site_symmetry_multiplicity
 _atom_site_fract_x
 _atom_site_fract_y
 _atom_site_fract_z
 _atom_site_occupancy
  Zr  Zr0  1  0.500000  0.500000  0.104128  1
  Zr  Zr1  1  0.500000  0.500000  0.300126  1
  Zr  Zr2  1  0.500000  0.500000  0.500000  1
  Zr  Zr3  1  0.500000  0.500000  0.699874  1
  Zr  Zr4  1  0.500000  0.500000  0.895872  1
  Tc  Tc5  1  0.000000  0.000000  0.197863  1
  Tc  Tc6  1  0.000000  0.000000  0.399421  1
  Tc  Tc7  1  0.000000  0.000000  0.600579  1
  Tc  Tc8  1  0.000000  0.000000  0.802137  1
  Pt  Pt9  1  0.000000  0.000000  0.000000  1
