# generated using pymatgen
data_Cs2KAlBi2
_symmetry_space_group_name_H-M   'P 1'
_cell_length_a   10.20367543
_cell_length_b   10.20367718
_cell_length_c   10.20367619
_cell_angle_alpha   130.68299508
_cell_angle_beta   68.01512445
_cell_angle_gamma   136.26031778
_symmetry_Int_Tables_number   1
_chemical_formula_structural   Cs2KAlBi2
_chemical_formula_sum   'Cs4 K2 Al2 Bi4'
_cell_volume   547.45028805
_cell_formula_units_Z   2
loop_
 _symmetry_equiv_pos_site_id
 _symmetry_equiv_pos_as_xyz
  1  'x, y, z'
loop_
 _atom_site_type_symbol
 _atom_site_label
 _atom_site_symmetry_multiplicity
 _atom_site_fract_x
 _atom_site_fract_y
 _atom_site_fract_z
 _atom_site_occupancy
  Cs  Cs0  1  0.827807  0.225304  0.053111  1
  Cs  Cs1  1  0.672193  0.725304  0.397498  1
  Cs  Cs2  1  0.327807  0.274696  0.602503  1
  Cs  Cs3  1  0.172193  0.774696  0.946889  1
  K  K4  1  0.749999  0.249999  0.500000  1
  K  K5  1  0.249999  0.749999  0.500000  1
  Al  Al6  1  0.249999  0.249999  0.000000  1
  Al  Al7  1  0.750000  0.750000  0.000000  1
  Bi  Bi8  1  0.413118  0.688205  0.101322  1
  Bi  Bi9  1  0.086882  0.188204  0.275086  1
  Bi  Bi10  1  0.913118  0.811796  0.724914  1
  Bi  Bi11  1  0.586882  0.311796  0.898678  1
