# generated using pymatgen
data_Ce3NdDy4(ReB6)4
_symmetry_space_group_name_H-M   'P 1'
_cell_length_a   3.73153800
_cell_length_b   9.22346673
_cell_length_c   11.62219333
_cell_angle_alpha   90.10510009
_cell_angle_beta   90.00000000
_cell_angle_gamma   90.00000000
_symmetry_Int_Tables_number   1
_chemical_formula_structural   Ce3NdDy4(ReB6)4
_chemical_formula_sum   'Ce3 Nd1 Dy4 Re4 B24'
_cell_volume   400.00868326
_cell_formula_units_Z   1
loop_
 _symmetry_equiv_pos_site_id
 _symmetry_equiv_pos_as_xyz
  1  'x, y, z'
loop_
 _atom_site_type_symbol
 _atom_site_label
 _atom_site_symmetry_multiplicity
 _atom_site_fract_x
 _atom_site_fract_y
 _atom_site_fract_z
 _atom_site_occupancy
  Ce  Ce0  1  0.000000  0.322202  0.414268  1
  Ce  Ce1  1  0.000000  0.677592  0.585970  1
  Ce  Ce2  1  0.000000  0.823478  0.086066  1
  Nd  Nd3  1  0.000000  0.177354  0.913717  1
  Dy  Dy4  1  0.000000  0.944187  0.373242  1
  Dy  Dy5  1  0.000000  0.056096  0.627806  1
  Dy  Dy6  1  0.000000  0.443093  0.128686  1
  Dy  Dy7  1  0.000000  0.556332  0.871101  1
  Re  Re8  1  0.000000  0.638663  0.320852  1
  Re  Re9  1  0.000000  0.363754  0.676795  1
  Re  Re10  1  0.000000  0.138375  0.181184  1
  Re  Re11  1  0.000000  0.859333  0.820300  1
  B  B12  1  0.500000  0.554659  0.431242  1
  B  B13  1  0.500000  0.446260  0.567760  1
  B  B14  1  0.500000  0.053421  0.069887  1
  B  B15  1  0.500000  0.943901  0.931874  1
  B  B16  1  0.500000  0.748180  0.418196  1
  B  B17  1  0.500000  0.251740  0.581262  1
  B  B18  1  0.500000  0.248394  0.083708  1
  B  B19  1  0.500000  0.751119  0.918090  1
  B  B20  1  0.500000  0.791160  0.266356  1
  B  B21  1  0.500000  0.209528  0.732231  1
  B  B22  1  0.500000  0.291085  0.234471  1
  B  B23  1  0.500000  0.708568  0.765835  1
  B  B24  1  0.500000  0.631400  0.186091  1
  B  B25  1  0.500000  0.370080  0.812677  1
  B  B26  1  0.500000  0.131604  0.314661  1
  B  B27  1  0.500000  0.867941  0.685811  1
  B  B28  1  0.500000  0.983636  0.213436  1
  B  B29  1  0.500000  0.014953  0.786298  1
  B  B30  1  0.500000  0.484114  0.287273  1
  B  B31  1  0.500000  0.516760  0.712112  1
  B  B32  1  0.500000  0.602358  0.028533  1
  B  B33  1  0.500000  0.398940  0.971615  1
  B  B34  1  0.500000  0.107355  0.470609  1
  B  B35  1  0.500000  0.892385  0.529983  1
