# generated using pymatgen
data_Ca4LaIr2
_symmetry_space_group_name_H-M   'P 1'
_cell_length_a   6.69403043
_cell_length_b   7.52674464
_cell_length_c   8.72533610
_cell_angle_alpha   97.31827810
_cell_angle_beta   112.55667461
_cell_angle_gamma   89.99999737
_symmetry_Int_Tables_number   1
_chemical_formula_structural   Ca4LaIr2
_chemical_formula_sum   'Ca8 La2 Ir4'
_cell_volume   402.10831605
_cell_formula_units_Z   2
loop_
 _symmetry_equiv_pos_site_id
 _symmetry_equiv_pos_as_xyz
  1  'x, y, z'
loop_
 _atom_site_type_symbol
 _atom_site_label
 _atom_site_symmetry_multiplicity
 _atom_site_fract_x
 _atom_site_fract_y
 _atom_site_fract_z
 _atom_site_occupancy
  Ca  Ca0  1  0.982994  0.917043  0.176724  1
  Ca  Ca1  1  0.806269  0.582957  0.823276  1
  Ca  Ca2  1  0.017006  0.082957  0.823276  1
  Ca  Ca3  1  0.193731  0.417043  0.176724  1
  Ca  Ca4  1  0.642203  0.820965  0.438804  1
  Ca  Ca5  1  0.203399  0.679035  0.561196  1
  Ca  Ca6  1  0.357797  0.179035  0.561196  1
  Ca  Ca7  1  0.796601  0.320965  0.438804  1
  La  La8  1  0.432469  0.750000  0.000000  1
  La  La9  1  0.567531  0.250000  0.000000  1
  Ir  Ir10  1  0.812947  0.576287  0.211965  1
  Ir  Ir11  1  0.600982  0.923713  0.788035  1
  Ir  Ir12  1  0.187053  0.423713  0.788035  1
  Ir  Ir13  1  0.399018  0.076287  0.211965  1
