# generated using pymatgen
data_Ba3NiB5PO14
_symmetry_space_group_name_H-M   'P 1'
_cell_length_a   7.13632200
_cell_length_b   8.34710300
_cell_length_c   10.49764600
_cell_angle_alpha   90.00000000
_cell_angle_beta   90.00000000
_cell_angle_gamma   90.00000000
_symmetry_Int_Tables_number   1
_chemical_formula_structural   Ba3NiB5PO14
_chemical_formula_sum   'Ba6 Ni2 B10 P2 O28'
_cell_volume   625.31973297
_cell_formula_units_Z   2
loop_
 _symmetry_equiv_pos_site_id
 _symmetry_equiv_pos_as_xyz
  1  'x, y, z'
loop_
 _atom_site_type_symbol
 _atom_site_label
 _atom_site_symmetry_multiplicity
 _atom_site_fract_x
 _atom_site_fract_y
 _atom_site_fract_z
 _atom_site_occupancy
  Ba  Ba0  1  0.563969  0.436749  0.727988  1
  Ba  Ba1  1  0.563969  0.436749  0.272012  1
  Ba  Ba2  1  0.436031  0.936749  0.772012  1
  Ba  Ba3  1  0.436031  0.936749  0.227988  1
  Ba  Ba4  1  0.977105  0.225871  0.500000  1
  Ba  Ba5  1  0.022895  0.725871  0.000000  1
  Ni  Ni6  1  0.246603  0.337663  0.000000  1
  Ni  Ni7  1  0.753397  0.837663  0.500000  1
  B  B8  1  0.048288  0.429386  0.765590  1
  B  B9  1  0.048288  0.429386  0.234410  1
  B  B10  1  0.951712  0.929386  0.734410  1
  B  B11  1  0.951712  0.929386  0.265590  1
  B  B12  1  0.904433  0.175123  0.877725  1
  B  B13  1  0.904433  0.175123  0.122275  1
  B  B14  1  0.095567  0.675123  0.622275  1
  B  B15  1  0.095567  0.675123  0.377725  1
  B  B16  1  0.597767  0.158999  0.000000  1
  B  B17  1  0.402233  0.658999  0.500000  1
  P  P18  1  0.442448  0.155692  0.500000  1
  P  P19  1  0.557552  0.655692  0.000000  1
  O  O20  1  0.325772  0.192119  0.622528  1
  O  O21  1  0.325772  0.192119  0.377472  1
  O  O22  1  0.674228  0.692119  0.877472  1
  O  O23  1  0.674228  0.692119  0.122528  1
  O  O24  1  0.979980  0.231034  0.000000  1
  O  O25  1  0.020020  0.731034  0.500000  1
  O  O26  1  0.305892  0.658271  0.615043  1
  O  O27  1  0.305892  0.658271  0.384957  1
  O  O28  1  0.694108  0.158271  0.884957  1
  O  O29  1  0.694108  0.158271  0.115043  1
  O  O30  1  0.614227  0.270261  0.500000  1
  O  O31  1  0.385773  0.770261  0.000000  1
  O  O32  1  0.407646  0.141423  0.000000  1
  O  O33  1  0.592354  0.641423  0.500000  1
  O  O34  1  0.493694  0.974730  0.500000  1
  O  O35  1  0.506306  0.474730  0.000000  1
  O  O36  1  0.179804  0.472052  0.851295  1
  O  O37  1  0.179804  0.472052  0.148705  1
  O  O38  1  0.820196  0.972052  0.648705  1
  O  O39  1  0.820196  0.972052  0.351295  1
  O  O40  1  0.932910  0.294165  0.773696  1
  O  O41  1  0.932910  0.294165  0.226304  1
  O  O42  1  0.067090  0.794165  0.726304  1
  O  O43  1  0.067090  0.794165  0.273696  1
  O  O44  1  0.008461  0.518664  0.656094  1
  O  O45  1  0.008461  0.518664  0.343906  1
  O  O46  1  0.991539  0.018664  0.843906  1
  O  O47  1  0.991539  0.018664  0.156094  1
