# generated using pymatgen
data_Sr6UWO12
_symmetry_space_group_name_H-M   'P 1'
_cell_length_a   7.01541528
_cell_length_b   7.01541596
_cell_length_c   7.01541488
_cell_angle_alpha   92.26347464
_cell_angle_beta   92.26347556
_cell_angle_gamma   92.26347248
_symmetry_Int_Tables_number   1
_chemical_formula_structural   Sr6UWO12
_chemical_formula_sum   'Sr6 U1 W1 O12'
_cell_volume   344.44093431
_cell_formula_units_Z   1
loop_
 _symmetry_equiv_pos_site_id
 _symmetry_equiv_pos_as_xyz
  1  'x, y, z'
loop_
 _atom_site_type_symbol
 _atom_site_label
 _atom_site_symmetry_multiplicity
 _atom_site_fract_x
 _atom_site_fract_y
 _atom_site_fract_z
 _atom_site_occupancy
  Sr  Sr0  1  0.066791  0.259494  0.561590  1
  Sr  Sr1  1  0.438410  0.933209  0.740506  1
  Sr  Sr2  1  0.740506  0.438410  0.933209  1
  Sr  Sr3  1  0.259494  0.561590  0.066791  1
  Sr  Sr4  1  0.561590  0.066791  0.259494  1
  Sr  Sr5  1  0.933209  0.740506  0.438410  1
  U  U6  1  0.000000  0.000000  0.000000  1
  W  W7  1  0.500000  0.500000  0.500000  1
  O  O8  1  0.062961  0.284960  0.932196  1
  O  O9  1  0.067804  0.937039  0.715040  1
  O  O10  1  0.454816  0.574472  0.768242  1
  O  O11  1  0.715040  0.067804  0.937039  1
  O  O12  1  0.231758  0.545184  0.425528  1
  O  O13  1  0.425528  0.231758  0.545184  1
  O  O14  1  0.574472  0.768242  0.454816  1
  O  O15  1  0.768242  0.454816  0.574472  1
  O  O16  1  0.284960  0.932196  0.062961  1
  O  O17  1  0.545184  0.425528  0.231758  1
  O  O18  1  0.932196  0.062961  0.284960  1
  O  O19  1  0.937039  0.715040  0.067804  1
