# generated using pymatgen
data_Ca2Nd17DySn16
_symmetry_space_group_name_H-M   'P 1'
_cell_length_a   8.20980123
_cell_length_b   8.43941312
_cell_length_c   16.06470400
_cell_angle_alpha   90.00000000
_cell_angle_beta   90.00000000
_cell_angle_gamma   90.10699155
_symmetry_Int_Tables_number   1
_chemical_formula_structural   Ca2Nd17DySn16
_chemical_formula_sum   'Ca2 Nd17 Dy1 Sn16'
_cell_volume   1113.05560108
_cell_formula_units_Z   1
loop_
 _symmetry_equiv_pos_site_id
 _symmetry_equiv_pos_as_xyz
  1  'x, y, z'
loop_
 _atom_site_type_symbol
 _atom_site_label
 _atom_site_symmetry_multiplicity
 _atom_site_fract_x
 _atom_site_fract_y
 _atom_site_fract_z
 _atom_site_occupancy
  Ca  Ca0  1  0.686916  0.000211  0.250000  1
  Ca  Ca1  1  0.313503  0.000943  0.750000  1
  Nd  Nd2  1  0.006211  0.179896  0.403291  1
  Nd  Nd3  1  0.357108  0.831942  0.123567  1
  Nd  Nd4  1  0.144268  0.334058  0.620882  1
  Nd  Nd5  1  0.491006  0.684113  0.903152  1
  Nd  Nd6  1  0.855114  0.665403  0.122089  1
  Nd  Nd7  1  0.144268  0.334058  0.879118  1
  Nd  Nd8  1  0.491006  0.684113  0.596848  1
  Nd  Nd9  1  0.642904  0.168035  0.622742  1
  Nd  Nd10  1  0.812961  0.502745  0.750000  1
  Nd  Nd11  1  0.855114  0.665403  0.377911  1
  Nd  Nd12  1  0.006211  0.179896  0.096709  1
  Nd  Nd13  1  0.994035  0.820566  0.903710  1
  Nd  Nd14  1  0.642904  0.168035  0.877258  1
  Nd  Nd15  1  0.509060  0.316974  0.097308  1
  Nd  Nd16  1  0.357108  0.831942  0.376433  1
  Nd  Nd17  1  0.994035  0.820566  0.596290  1
  Nd  Nd18  1  0.509060  0.316974  0.402692  1
  Dy  Dy19  1  0.187660  0.497611  0.250000  1
  Sn  Sn20  1  0.802065  0.464664  0.541641  1
  Sn  Sn21  1  0.694452  0.959159  0.462145  1
  Sn  Sn22  1  0.691195  0.858951  0.750000  1
  Sn  Sn23  1  0.197139  0.534091  0.455789  1
  Sn  Sn24  1  0.305596  0.040632  0.962918  1
  Sn  Sn25  1  0.821203  0.358606  0.250000  1
  Sn  Sn26  1  0.802065  0.464664  0.958359  1
  Sn  Sn27  1  0.553110  0.605132  0.250000  1
  Sn  Sn28  1  0.197139  0.534091  0.044211  1
  Sn  Sn29  1  0.442158  0.391125  0.750000  1
  Sn  Sn30  1  0.185135  0.642229  0.750000  1
  Sn  Sn31  1  0.946213  0.112699  0.750000  1
  Sn  Sn32  1  0.305596  0.040632  0.537082  1
  Sn  Sn33  1  0.694452  0.959159  0.037855  1
  Sn  Sn34  1  0.306640  0.146651  0.250000  1
  Sn  Sn35  1  0.055390  0.884033  0.250000  1
