# generated using pymatgen
data_ZrBe4(NbRu2)5
_symmetry_space_group_name_H-M   'P 1'
_cell_length_a   9.41754911
_cell_length_b   9.41754911
_cell_length_c   3.19238500
_cell_angle_alpha   90.00000000
_cell_angle_beta   90.00000000
_cell_angle_gamma   89.98242959
_symmetry_Int_Tables_number   1
_chemical_formula_structural   ZrBe4(NbRu2)5
_chemical_formula_sum   'Zr1 Be4 Nb5 Ru10'
_cell_volume   283.13335058
_cell_formula_units_Z   1
loop_
 _symmetry_equiv_pos_site_id
 _symmetry_equiv_pos_as_xyz
  1  'x, y, z'
loop_
 _atom_site_type_symbol
 _atom_site_label
 _atom_site_symmetry_multiplicity
 _atom_site_fract_x
 _atom_site_fract_y
 _atom_site_fract_z
 _atom_site_occupancy
  Zr  Zr0  1  0.825793  0.674207  0.000000  1
  Be  Be1  1  0.620056  0.879944  0.000000  1
  Be  Be2  1  0.378750  0.121250  0.000000  1
  Be  Be3  1  0.122135  0.620598  0.000000  1
  Be  Be4  1  0.879402  0.377865  0.000000  1
  Nb  Nb5  1  0.174891  0.325109  0.000000  1
  Nb  Nb6  1  0.326031  0.824789  0.000000  1
  Nb  Nb7  1  0.675211  0.173969  0.000000  1
  Nb  Nb8  1  0.499962  0.499914  0.000000  1
  Nb  Nb9  1  0.000086  0.000038  0.000000  1
  Ru  Ru10  1  0.567592  0.713198  0.500000  1
  Ru  Ru11  1  0.424212  0.289366  0.500000  1
  Ru  Ru12  1  0.078852  0.789761  0.500000  1
  Ru  Ru13  1  0.926033  0.210973  0.500000  1
  Ru  Ru14  1  0.289027  0.573967  0.500000  1
  Ru  Ru15  1  0.710239  0.421148  0.500000  1
  Ru  Ru16  1  0.210634  0.075788  0.500000  1
  Ru  Ru17  1  0.786802  0.932408  0.500000  1
  Ru  Ru18  1  0.498723  0.001277  0.500000  1
  Ru  Ru19  1  0.005568  0.494432  0.500000  1
