# generated using pymatgen
data_Sr2Yb(H6Rh)2
_symmetry_space_group_name_H-M   'P 1'
_cell_length_a   5.16906300
_cell_length_b   5.16906423
_cell_length_c   8.57733100
_cell_angle_alpha   90.00000000
_cell_angle_beta   90.00000000
_cell_angle_gamma   119.99999855
_symmetry_Int_Tables_number   1
_chemical_formula_structural   Sr2Yb(H6Rh)2
_chemical_formula_sum   'Sr2 Yb1 H12 Rh2'
_cell_volume   198.47534324
_cell_formula_units_Z   1
loop_
 _symmetry_equiv_pos_site_id
 _symmetry_equiv_pos_as_xyz
  1  'x, y, z'
loop_
 _atom_site_type_symbol
 _atom_site_label
 _atom_site_symmetry_multiplicity
 _atom_site_fract_x
 _atom_site_fract_y
 _atom_site_fract_z
 _atom_site_occupancy
  Sr  Sr0  1  0.000000  0.000000  0.001218  1
  Sr  Sr1  1  0.333333  0.666667  0.634656  1
  Yb  Yb2  1  0.666667  0.333333  0.358668  1
  H  H3  1  0.178457  0.821543  0.364402  1
  H  H4  1  0.643083  0.821543  0.364402  1
  H  H5  1  0.178457  0.356917  0.364402  1
  H  H6  1  0.818840  0.181160  0.631817  1
  H  H7  1  0.362320  0.181160  0.631817  1
  H  H8  1  0.818840  0.637680  0.631817  1
  H  H9  1  0.519006  0.038012  0.863910  1
  H  H10  1  0.519006  0.480994  0.863910  1
  H  H11  1  0.961988  0.480994  0.863910  1
  H  H12  1  0.484545  0.969090  0.141276  1
  H  H13  1  0.484545  0.515455  0.141276  1
  H  H14  1  0.030910  0.515455  0.141276  1
  Rh  Rh15  1  0.666667  0.333333  0.745649  1
  Rh  Rh16  1  0.333333  0.666667  0.255593  1
