# generated using pymatgen
data_HfNp3As5
_symmetry_space_group_name_H-M   'P 1'
_cell_length_a   8.59497900
_cell_length_b   8.59497911
_cell_length_c   5.88313300
_cell_angle_alpha   90.00000000
_cell_angle_beta   90.00000000
_cell_angle_gamma   120.00000342
_symmetry_Int_Tables_number   1
_chemical_formula_structural   HfNp3As5
_chemical_formula_sum   'Hf2 Np6 As10'
_cell_volume   376.38207210
_cell_formula_units_Z   2
loop_
 _symmetry_equiv_pos_site_id
 _symmetry_equiv_pos_as_xyz
  1  'x, y, z'
loop_
 _atom_site_type_symbol
 _atom_site_label
 _atom_site_symmetry_multiplicity
 _atom_site_fract_x
 _atom_site_fract_y
 _atom_site_fract_z
 _atom_site_occupancy
  Hf  Hf0  1  0.000000  0.000000  0.000000  1
  Hf  Hf1  1  0.000000  0.000000  0.500000  1
  Np  Np2  1  0.000000  0.614513  0.250000  1
  Np  Np3  1  0.385487  0.385487  0.250000  1
  Np  Np4  1  0.385487  0.000000  0.750000  1
  Np  Np5  1  0.614513  0.614513  0.750000  1
  Np  Np6  1  0.614513  0.000000  0.250000  1
  Np  Np7  1  0.000000  0.385487  0.750000  1
  As  As8  1  0.000000  0.266819  0.250000  1
  As  As9  1  0.333333  0.666667  0.500000  1
  As  As10  1  0.666667  0.333333  0.000000  1
  As  As11  1  0.333333  0.666667  0.000000  1
  As  As12  1  0.266819  0.266819  0.750000  1
  As  As13  1  0.733181  0.000000  0.750000  1
  As  As14  1  0.000000  0.733181  0.750000  1
  As  As15  1  0.733181  0.733181  0.250000  1
  As  As16  1  0.266819  0.000000  0.250000  1
  As  As17  1  0.666667  0.333333  0.500000  1
