# generated using pymatgen
data_Yb2HoEr(ReB4)4
_symmetry_space_group_name_H-M   'P 1'
_cell_length_a   3.59267300
_cell_length_b   5.96850251
_cell_length_c   11.54138905
_cell_angle_alpha   89.98956594
_cell_angle_beta   90.00000000
_cell_angle_gamma   90.00000000
_symmetry_Int_Tables_number   1
_chemical_formula_structural   Yb2HoEr(ReB4)4
_chemical_formula_sum   'Yb2 Ho1 Er1 Re4 B16'
_cell_volume   247.48059122
_cell_formula_units_Z   1
loop_
 _symmetry_equiv_pos_site_id
 _symmetry_equiv_pos_as_xyz
  1  'x, y, z'
loop_
 _atom_site_type_symbol
 _atom_site_label
 _atom_site_symmetry_multiplicity
 _atom_site_fract_x
 _atom_site_fract_y
 _atom_site_fract_z
 _atom_site_occupancy
  Yb  Yb0  1  0.000000  0.372340  0.850225  1
  Yb  Yb1  1  0.000000  0.128083  0.349575  1
  Ho  Ho2  1  0.000000  0.872617  0.650534  1
  Er  Er3  1  0.000000  0.627540  0.150326  1
  Re  Re4  1  0.000000  0.631947  0.415072  1
  Re  Re5  1  0.000000  0.368427  0.585127  1
  Re  Re6  1  0.000000  0.131620  0.085109  1
  Re  Re7  1  0.000000  0.867983  0.915401  1
  B  B8  1  0.500000  0.976862  0.192580  1
  B  B9  1  0.500000  0.023074  0.807746  1
  B  B10  1  0.500000  0.477119  0.307459  1
  B  B11  1  0.500000  0.522723  0.692869  1
  B  B12  1  0.500000  0.786206  0.314804  1
  B  B13  1  0.500000  0.214204  0.685032  1
  B  B14  1  0.500000  0.286169  0.184899  1
  B  B15  1  0.500000  0.713600  0.815164  1
  B  B16  1  0.500000  0.864708  0.467780  1
  B  B17  1  0.500000  0.135726  0.531587  1
  B  B18  1  0.500000  0.364378  0.031763  1
  B  B19  1  0.500000  0.635171  0.968036  1
  B  B20  1  0.500000  0.886344  0.047315  1
  B  B21  1  0.500000  0.114789  0.952222  1
  B  B22  1  0.500000  0.385103  0.452086  1
  B  B23  1  0.500000  0.613266  0.547289  1
