# generated using pymatgen
data_Nd7Y3(SiB4)4
_symmetry_space_group_name_H-M   'P 1'
_cell_length_a   7.36715955
_cell_length_b   7.36715955
_cell_length_c   8.37836500
_cell_angle_alpha   90.00021928
_cell_angle_beta   89.99978072
_cell_angle_gamma   90.04411221
_symmetry_Int_Tables_number   1
_chemical_formula_structural   Nd7Y3(SiB4)4
_chemical_formula_sum   'Nd7 Y3 Si4 B16'
_cell_volume   454.73595884
_cell_formula_units_Z   1
loop_
 _symmetry_equiv_pos_site_id
 _symmetry_equiv_pos_as_xyz
  1  'x, y, z'
loop_
 _atom_site_type_symbol
 _atom_site_label
 _atom_site_symmetry_multiplicity
 _atom_site_fract_x
 _atom_site_fract_y
 _atom_site_fract_z
 _atom_site_occupancy
  Nd  Nd0  1  0.680428  0.180525  0.227523  1
  Nd  Nd1  1  0.319950  0.820130  0.772618  1
  Nd  Nd2  1  0.319475  0.819572  0.227523  1
  Nd  Nd3  1  0.820047  0.679953  0.227249  1
  Nd  Nd4  1  0.819952  0.680048  0.773005  1
  Nd  Nd5  1  0.679870  0.180050  0.772618  1
  Nd  Nd6  1  0.180123  0.319877  0.773432  1
  Y  Y7  1  0.179997  0.320003  0.219932  1
  Y  Y8  1  0.000766  0.001123  0.498849  1
  Y  Y9  1  0.498877  0.499234  0.498849  1
  Si  Si10  1  0.115313  0.612225  0.497535  1
  Si  Si11  1  0.887775  0.384687  0.497535  1
  Si  Si12  1  0.384362  0.115638  0.497550  1
  Si  Si13  1  0.613317  0.886683  0.499514  1
  B  B14  1  0.172088  0.039970  0.000777  1
  B  B15  1  0.828892  0.961398  0.000876  1
  B  B16  1  0.961858  0.172076  0.001020  1
  B  B17  1  0.327924  0.538142  0.001020  1
  B  B18  1  0.039326  0.828972  0.001063  1
  B  B19  1  0.671028  0.460674  0.001063  1
  B  B20  1  0.538602  0.671108  0.000876  1
  B  B21  1  0.460030  0.327912  0.000777  1
  B  B22  1  0.091005  0.590303  0.001858  1
  B  B23  1  0.909697  0.408995  0.001858  1
  B  B24  1  0.408729  0.091271  0.000239  1
  B  B25  1  0.591221  0.908779  0.000580  1
  B  B26  1  0.001210  0.002087  0.155660  1
  B  B27  1  0.000430  0.000203  0.846472  1
  B  B28  1  0.499797  0.499570  0.846472  1
  B  B29  1  0.497913  0.498790  0.155660  1
