# generated using pymatgen
data_Tb9Y11Sn16
_symmetry_space_group_name_H-M   'P 1'
_cell_length_a   8.06016502
_cell_length_b   8.21105404
_cell_length_c   15.52295904
_cell_angle_alpha   90.00793546
_cell_angle_beta   89.99836281
_cell_angle_gamma   90.00854998
_symmetry_Int_Tables_number   1
_chemical_formula_structural   Tb9Y11Sn16
_chemical_formula_sum   'Tb9 Y11 Sn16'
_cell_volume   1027.34744801
_cell_formula_units_Z   1
loop_
 _symmetry_equiv_pos_site_id
 _symmetry_equiv_pos_as_xyz
  1  'x, y, z'
loop_
 _atom_site_type_symbol
 _atom_site_label
 _atom_site_symmetry_multiplicity
 _atom_site_fract_x
 _atom_site_fract_y
 _atom_site_fract_z
 _atom_site_occupancy
  Tb  Tb0  1  0.867778  0.664552  0.878539  1
  Tb  Tb1  1  0.520265  0.319633  0.902246  1
  Tb  Tb2  1  0.020327  0.180380  0.597746  1
  Tb  Tb3  1  0.479670  0.680379  0.402249  1
  Tb  Tb4  1  0.979684  0.819632  0.097792  1
  Tb  Tb5  1  0.479669  0.680318  0.097748  1
  Tb  Tb6  1  0.979638  0.819665  0.402232  1
  Tb  Tb7  1  0.520340  0.319629  0.597756  1
  Tb  Tb8  1  0.020365  0.180275  0.902215  1
  Y  Y9  1  0.367501  0.835617  0.878505  1
  Y  Y10  1  0.867583  0.664381  0.621474  1
  Y  Y11  1  0.632404  0.164383  0.378497  1
  Y  Y12  1  0.132368  0.335670  0.121484  1
  Y  Y13  1  0.632388  0.164398  0.121554  1
  Y  Y14  1  0.132400  0.335606  0.378488  1
  Y  Y15  1  0.367640  0.835602  0.621472  1
  Y  Y16  1  0.198270  0.502166  0.750014  1
  Y  Y17  1  0.698236  0.997880  0.749948  1
  Y  Y18  1  0.801708  0.497800  0.250025  1
  Y  Y19  1  0.301714  0.002197  0.250003  1
  Sn  Sn20  1  0.292031  0.033831  0.042027  1
  Sn  Sn21  1  0.792018  0.466185  0.457974  1
  Sn  Sn22  1  0.708002  0.966184  0.542041  1
  Sn  Sn23  1  0.208206  0.533780  0.957971  1
  Sn  Sn24  1  0.707844  0.966283  0.957967  1
  Sn  Sn25  1  0.207963  0.533814  0.542036  1
  Sn  Sn26  1  0.292022  0.033823  0.457950  1
  Sn  Sn27  1  0.791972  0.466057  0.042150  1
  Sn  Sn28  1  0.565171  0.619015  0.749971  1
  Sn  Sn29  1  0.065284  0.881062  0.750014  1
  Sn  Sn30  1  0.434770  0.380984  0.249997  1
  Sn  Sn31  1  0.934777  0.119026  0.250009  1
  Sn  Sn32  1  0.327936  0.145260  0.749964  1
  Sn  Sn33  1  0.827891  0.354615  0.749949  1
  Sn  Sn34  1  0.672108  0.854667  0.249990  1
  Sn  Sn35  1  0.172056  0.645251  0.250006  1
