# generated using pymatgen
data_Dy13Th3(ZnIr)4
_symmetry_space_group_name_H-M   'P 1'
_cell_length_a   9.58133737
_cell_length_b   9.56067369
_cell_length_c   9.56067400
_cell_angle_alpha   59.99999893
_cell_angle_beta   60.07131505
_cell_angle_gamma   60.07132125
_symmetry_Int_Tables_number   1
_chemical_formula_structural   Dy13Th3(ZnIr)4
_chemical_formula_sum   'Dy13 Th3 Zn4 Ir4'
_cell_volume   619.94827340
_cell_formula_units_Z   1
loop_
 _symmetry_equiv_pos_site_id
 _symmetry_equiv_pos_as_xyz
  1  'x, y, z'
loop_
 _atom_site_type_symbol
 _atom_site_label
 _atom_site_symmetry_multiplicity
 _atom_site_fract_x
 _atom_site_fract_y
 _atom_site_fract_z
 _atom_site_occupancy
  Dy  Dy0  1  0.937020  0.354327  0.354327  1
  Dy  Dy1  1  0.809596  0.191445  0.191445  1
  Dy  Dy2  1  0.189602  0.810748  0.810748  1
  Dy  Dy3  1  0.189602  0.810748  0.188901  1
  Dy  Dy4  1  0.809596  0.191445  0.807513  1
  Dy  Dy5  1  0.189602  0.188901  0.810748  1
  Dy  Dy6  1  0.809596  0.807513  0.191445  1
  Dy  Dy7  1  0.935632  0.564007  0.564007  1
  Dy  Dy8  1  0.565725  0.934279  0.934279  1
  Dy  Dy9  1  0.565725  0.934279  0.565718  1
  Dy  Dy10  1  0.935632  0.564007  0.936352  1
  Dy  Dy11  1  0.565725  0.565718  0.934279  1
  Dy  Dy12  1  0.935632  0.936352  0.564007  1
  Th  Th13  1  0.352644  0.353414  0.353414  1
  Th  Th14  1  0.352644  0.353414  0.940530  1
  Th  Th15  1  0.352644  0.940530  0.353414  1
  Zn  Zn16  1  0.584252  0.581073  0.581073  1
  Zn  Zn17  1  0.584252  0.581073  0.253605  1
  Zn  Zn18  1  0.584252  0.253605  0.581073  1
  Zn  Zn19  1  0.250229  0.583257  0.583257  1
  Ir  Ir20  1  0.143174  0.143163  0.143163  1
  Ir  Ir21  1  0.143174  0.143163  0.570499  1
  Ir  Ir22  1  0.143174  0.570499  0.143163  1
  Ir  Ir23  1  0.570883  0.143039  0.143039  1
