# generated using pymatgen
data_Dy2MoIrRu2
_symmetry_space_group_name_H-M   'P 1'
_cell_length_a   5.28076073
_cell_length_b   5.17042788
_cell_length_c   5.17042844
_cell_angle_alpha   64.91398769
_cell_angle_beta   65.33337243
_cell_angle_gamma   65.33339067
_symmetry_Int_Tables_number   1
_chemical_formula_structural   Dy2MoIrRu2
_chemical_formula_sum   'Dy2 Mo1 Ir1 Ru2'
_cell_volume   111.12243520
_cell_formula_units_Z   1
loop_
 _symmetry_equiv_pos_site_id
 _symmetry_equiv_pos_as_xyz
  1  'x, y, z'
loop_
 _atom_site_type_symbol
 _atom_site_label
 _atom_site_symmetry_multiplicity
 _atom_site_fract_x
 _atom_site_fract_y
 _atom_site_fract_z
 _atom_site_occupancy
  Dy  Dy0  1  0.756077  0.750674  0.750674  1
  Dy  Dy1  1  0.493923  0.499326  0.499326  1
  Mo  Mo2  1  0.125000  0.125000  0.125000  1
  Ir  Ir3  1  0.625000  0.125000  0.125000  1
  Ru  Ru4  1  0.125000  0.625000  0.125000  1
  Ru  Ru5  1  0.125000  0.125000  0.625000  1
