# generated using pymatgen
data_Zr16TiCo3Ir4
_symmetry_space_group_name_H-M   'P 1'
_cell_length_a   8.78766829
_cell_length_b   8.77042407
_cell_length_c   8.77042300
_cell_angle_alpha   59.99999271
_cell_angle_beta   60.06488457
_cell_angle_gamma   60.06488857
_symmetry_Int_Tables_number   1
_chemical_formula_structural   Zr16TiCo3Ir4
_chemical_formula_sum   'Zr16 Ti1 Co3 Ir4'
_cell_volume   478.43727643
_cell_formula_units_Z   1
loop_
 _symmetry_equiv_pos_site_id
 _symmetry_equiv_pos_as_xyz
  1  'x, y, z'
loop_
 _atom_site_type_symbol
 _atom_site_label
 _atom_site_symmetry_multiplicity
 _atom_site_fract_x
 _atom_site_fract_y
 _atom_site_fract_z
 _atom_site_occupancy
  Zr  Zr0  1  0.049989  0.650003  0.650003  1
  Zr  Zr1  1  0.658054  0.051200  0.645373  1
  Zr  Zr2  1  0.658054  0.645373  0.051200  1
  Zr  Zr3  1  0.658054  0.645373  0.645373  1
  Zr  Zr4  1  0.808897  0.798593  0.196254  1
  Zr  Zr5  1  0.202938  0.218761  0.789150  1
  Zr  Zr6  1  0.808897  0.196254  0.798593  1
  Zr  Zr7  1  0.202938  0.789150  0.218761  1
  Zr  Zr8  1  0.202938  0.789150  0.789150  1
  Zr  Zr9  1  0.808897  0.196254  0.196254  1
  Zr  Zr10  1  0.438942  0.434658  0.063200  1
  Zr  Zr11  1  0.061777  0.071786  0.433218  1
  Zr  Zr12  1  0.438942  0.063200  0.434658  1
  Zr  Zr13  1  0.061777  0.433218  0.071786  1
  Zr  Zr14  1  0.061777  0.433218  0.433218  1
  Zr  Zr15  1  0.438942  0.063200  0.063200  1
  Ti  Ti16  1  0.711389  0.429538  0.429538  1
  Co  Co17  1  0.855783  0.420424  0.861896  1
  Co  Co18  1  0.855783  0.861896  0.420424  1
  Co  Co19  1  0.855783  0.861896  0.861896  1
  Ir  Ir20  1  0.414743  0.756256  0.414502  1
  Ir  Ir21  1  0.414743  0.414502  0.756256  1
  Ir  Ir22  1  0.414743  0.414502  0.414502  1
  Ir  Ir23  1  0.415223  0.861592  0.861592  1
