# generated using pymatgen
data_Th(Ga3Ir)3
_symmetry_space_group_name_H-M   'P 1'
_cell_length_a   10.45892436
_cell_length_b   10.45892498
_cell_length_c   10.45892170
_cell_angle_alpha   42.36648482
_cell_angle_beta   42.36648013
_cell_angle_gamma   42.36648736
_symmetry_Int_Tables_number   1
_chemical_formula_structural   Th(Ga3Ir)3
_chemical_formula_sum   'Th2 Ga18 Ir6'
_cell_volume   470.30098045
_cell_formula_units_Z   2
loop_
 _symmetry_equiv_pos_site_id
 _symmetry_equiv_pos_as_xyz
  1  'x, y, z'
loop_
 _atom_site_type_symbol
 _atom_site_label
 _atom_site_symmetry_multiplicity
 _atom_site_fract_x
 _atom_site_fract_y
 _atom_site_fract_z
 _atom_site_occupancy
  Th  Th0  1  0.167100  0.167100  0.167100  1
  Th  Th1  1  0.832900  0.832900  0.832900  1
  Ga  Ga2  1  0.048532  0.048532  0.048532  1
  Ga  Ga3  1  0.699298  0.500000  0.300702  1
  Ga  Ga4  1  0.668577  0.331423  0.000000  1
  Ga  Ga5  1  0.112538  0.432335  0.755171  1
  Ga  Ga6  1  0.432335  0.755171  0.112538  1
  Ga  Ga7  1  0.383162  0.383162  0.383162  1
  Ga  Ga8  1  0.331423  0.000000  0.668577  1
  Ga  Ga9  1  0.616838  0.616838  0.616838  1
  Ga  Ga10  1  0.244829  0.567665  0.887462  1
  Ga  Ga11  1  0.567665  0.887462  0.244829  1
  Ga  Ga12  1  0.500000  0.300702  0.699298  1
  Ga  Ga13  1  0.755171  0.112538  0.432335  1
  Ga  Ga14  1  0.951468  0.951468  0.951468  1
  Ga  Ga15  1  0.300702  0.699298  0.500000  1
  Ga  Ga16  1  0.000000  0.668577  0.331423  1
  Ga  Ga17  1  0.714344  0.714344  0.714344  1
  Ga  Ga18  1  0.285656  0.285656  0.285656  1
  Ga  Ga19  1  0.887462  0.244829  0.567665  1
  Ir  Ir20  1  0.234398  0.928031  0.579704  1
  Ir  Ir21  1  0.928031  0.579704  0.234398  1
  Ir  Ir22  1  0.765602  0.420296  0.071969  1
  Ir  Ir23  1  0.071969  0.765602  0.420296  1
  Ir  Ir24  1  0.420296  0.071969  0.765602  1
  Ir  Ir25  1  0.579704  0.234398  0.928031  1
