# generated using pymatgen
data_Tm4ScIrPt2
_symmetry_space_group_name_H-M   'P 1'
_cell_length_a   10.86989100
_cell_length_b   10.86989100
_cell_length_c   6.22804100
_cell_angle_alpha   90.00000000
_cell_angle_beta   90.00000000
_cell_angle_gamma   90.00000000
_symmetry_Int_Tables_number   1
_chemical_formula_structural   Tm4ScIrPt2
_chemical_formula_sum   'Tm16 Sc4 Ir4 Pt8'
_cell_volume   735.87125937
_cell_formula_units_Z   4
loop_
 _symmetry_equiv_pos_site_id
 _symmetry_equiv_pos_as_xyz
  1  'x, y, z'
loop_
 _atom_site_type_symbol
 _atom_site_label
 _atom_site_symmetry_multiplicity
 _atom_site_fract_x
 _atom_site_fract_y
 _atom_site_fract_z
 _atom_site_occupancy
  Tm  Tm0  1  0.292142  0.085705  0.375667  1
  Tm  Tm1  1  0.292142  0.914295  0.875667  1
  Tm  Tm2  1  0.707858  0.085705  0.875667  1
  Tm  Tm3  1  0.707858  0.914295  0.375667  1
  Tm  Tm4  1  0.585705  0.792142  0.875667  1
  Tm  Tm5  1  0.585705  0.207858  0.375667  1
  Tm  Tm6  1  0.414295  0.792142  0.375667  1
  Tm  Tm7  1  0.414295  0.207858  0.875667  1
  Tm  Tm8  1  0.207858  0.414295  0.624333  1
  Tm  Tm9  1  0.207858  0.585705  0.124333  1
  Tm  Tm10  1  0.792142  0.414295  0.124333  1
  Tm  Tm11  1  0.792142  0.585705  0.624333  1
  Tm  Tm12  1  0.914295  0.707858  0.124333  1
  Tm  Tm13  1  0.914295  0.292142  0.624333  1
  Tm  Tm14  1  0.085705  0.707858  0.624333  1
  Tm  Tm15  1  0.085705  0.292142  0.124333  1
  Sc  Sc16  1  0.000000  0.000000  0.500000  1
  Sc  Sc17  1  0.000000  0.000000  0.000000  1
  Sc  Sc18  1  0.500000  0.500000  0.000000  1
  Sc  Sc19  1  0.500000  0.500000  0.500000  1
  Ir  Ir20  1  0.500000  0.000000  0.121399  1
  Ir  Ir21  1  0.500000  0.000000  0.621399  1
  Ir  Ir22  1  0.000000  0.500000  0.878601  1
  Ir  Ir23  1  0.000000  0.500000  0.378601  1
  Pt  Pt24  1  0.851495  0.148505  0.250000  1
  Pt  Pt25  1  0.851495  0.851495  0.750000  1
  Pt  Pt26  1  0.148505  0.148505  0.750000  1
  Pt  Pt27  1  0.148505  0.851495  0.250000  1
  Pt  Pt28  1  0.648505  0.351495  0.750000  1
  Pt  Pt29  1  0.648505  0.648505  0.250000  1
  Pt  Pt30  1  0.351495  0.351495  0.250000  1
  Pt  Pt31  1  0.351495  0.648505  0.750000  1
