# generated using pymatgen
data_Zr20Co(NiAs4)3
_symmetry_space_group_name_H-M   'P 1'
_cell_length_a   3.74468700
_cell_length_b   10.51562836
_cell_length_c   17.70430451
_cell_angle_alpha   90.12543669
_cell_angle_beta   90.00000000
_cell_angle_gamma   90.00000000
_symmetry_Int_Tables_number   1
_chemical_formula_structural   Zr20Co(NiAs4)3
_chemical_formula_sum   'Zr20 Co1 Ni3 As12'
_cell_volume   697.15377266
_cell_formula_units_Z   1
loop_
 _symmetry_equiv_pos_site_id
 _symmetry_equiv_pos_as_xyz
  1  'x, y, z'
loop_
 _atom_site_type_symbol
 _atom_site_label
 _atom_site_symmetry_multiplicity
 _atom_site_fract_x
 _atom_site_fract_y
 _atom_site_fract_z
 _atom_site_occupancy
  Zr  Zr0  1  0.250000  0.120970  0.477484  1
  Zr  Zr1  1  0.750000  0.879765  0.522754  1
  Zr  Zr2  1  0.750000  0.619643  0.022555  1
  Zr  Zr3  1  0.250000  0.377326  0.976707  1
  Zr  Zr4  1  0.250000  0.060399  0.077816  1
  Zr  Zr5  1  0.750000  0.940880  0.922341  1
  Zr  Zr6  1  0.750000  0.561051  0.421274  1
  Zr  Zr7  1  0.250000  0.439027  0.578952  1
  Zr  Zr8  1  0.250000  0.487633  0.273142  1
  Zr  Zr9  1  0.750000  0.512158  0.726487  1
  Zr  Zr10  1  0.750000  0.989190  0.226493  1
  Zr  Zr11  1  0.250000  0.013242  0.774834  1
  Zr  Zr12  1  0.250000  0.814517  0.368477  1
  Zr  Zr13  1  0.750000  0.185686  0.632317  1
  Zr  Zr14  1  0.750000  0.314097  0.130997  1
  Zr  Zr15  1  0.250000  0.685184  0.868332  1
  Zr  Zr16  1  0.250000  0.756953  0.167804  1
  Zr  Zr17  1  0.750000  0.242051  0.833794  1
  Zr  Zr18  1  0.750000  0.256881  0.332557  1
  Zr  Zr19  1  0.250000  0.742835  0.667659  1
  Co  Co20  1  0.250000  0.130060  0.907944  1
  Ni  Ni21  1  0.250000  0.370396  0.411829  1
  Ni  Ni22  1  0.750000  0.630898  0.588607  1
  Ni  Ni23  1  0.750000  0.868858  0.088288  1
  As  As24  1  0.250000  0.811559  0.008592  1
  As  As25  1  0.750000  0.186258  0.991214  1
  As  As26  1  0.750000  0.312667  0.491812  1
  As  As27  1  0.250000  0.687506  0.508448  1
  As  As28  1  0.250000  0.507548  0.117143  1
  As  As29  1  0.750000  0.493066  0.882558  1
  As  As30  1  0.750000  0.007681  0.382685  1
  As  As31  1  0.250000  0.992432  0.617594  1
  As  As32  1  0.250000  0.189835  0.220089  1
  As  As33  1  0.750000  0.810756  0.780196  1
  As  As34  1  0.750000  0.688863  0.279667  1
  As  As35  1  0.250000  0.312127  0.720562  1
