# generated using pymatgen
data_Ho2ZnGa7Ni2
_symmetry_space_group_name_H-M   'P 1'
_cell_length_a   7.90895650
_cell_length_b   7.90895587
_cell_length_c   6.49178950
_cell_angle_alpha   89.52088262
_cell_angle_beta   90.47911989
_cell_angle_gamma   149.77000559
_symmetry_Int_Tables_number   1
_chemical_formula_structural   Ho2ZnGa7Ni2
_chemical_formula_sum   'Ho2 Zn1 Ga7 Ni2'
_cell_volume   204.43821484
_cell_formula_units_Z   1
loop_
 _symmetry_equiv_pos_site_id
 _symmetry_equiv_pos_as_xyz
  1  'x, y, z'
loop_
 _atom_site_type_symbol
 _atom_site_label
 _atom_site_symmetry_multiplicity
 _atom_site_fract_x
 _atom_site_fract_y
 _atom_site_fract_z
 _atom_site_occupancy
  Ho  Ho0  1  0.877727  0.122273  0.256389  1
  Ho  Ho1  1  0.122273  0.877727  0.743611  1
  Zn  Zn2  1  0.500000  0.500000  0.000000  1
  Ga  Ga3  1  0.315080  0.684920  0.553139  1
  Ga  Ga4  1  0.068673  0.931327  0.241608  1
  Ga  Ga5  1  0.684920  0.315080  0.446861  1
  Ga  Ga6  1  0.500000  0.500000  0.500000  1
  Ga  Ga7  1  0.683045  0.316955  0.046121  1
  Ga  Ga8  1  0.316955  0.683045  0.953879  1
  Ga  Ga9  1  0.931327  0.068673  0.758392  1
  Ni  Ni10  1  0.777530  0.222470  0.749010  1
  Ni  Ni11  1  0.222470  0.777530  0.250990  1
