# generated using pymatgen
data_Ce3DyEr12(MgCo)4
_symmetry_space_group_name_H-M   'P 1'
_cell_length_a   9.49807295
_cell_length_b   9.52835975
_cell_length_c   9.52835900
_cell_angle_alpha   60.00000607
_cell_angle_beta   59.89446757
_cell_angle_gamma   59.89446121
_symmetry_Int_Tables_number   1
_chemical_formula_structural   Ce3DyEr12(MgCo)4
_chemical_formula_sum   'Ce3 Dy1 Er12 Mg4 Co4'
_cell_volume   608.78250316
_cell_formula_units_Z   1
loop_
 _symmetry_equiv_pos_site_id
 _symmetry_equiv_pos_as_xyz
  1  'x, y, z'
loop_
 _atom_site_type_symbol
 _atom_site_label
 _atom_site_symmetry_multiplicity
 _atom_site_fract_x
 _atom_site_fract_y
 _atom_site_fract_z
 _atom_site_occupancy
  Ce  Ce0  1  0.587541  0.594293  0.594293  1
  Ce  Ce1  1  0.587541  0.594293  0.223873  1
  Ce  Ce2  1  0.587541  0.223873  0.594293  1
  Dy  Dy3  1  0.208569  0.597144  0.597144  1
  Er  Er4  1  0.064805  0.435824  0.435824  1
  Er  Er5  1  0.436535  0.063828  0.063828  1
  Er  Er6  1  0.436535  0.063828  0.435809  1
  Er  Er7  1  0.064805  0.435824  0.063546  1
  Er  Er8  1  0.436535  0.435809  0.063828  1
  Er  Er9  1  0.064805  0.063546  0.435824  1
  Er  Er10  1  0.182959  0.816236  0.816236  1
  Er  Er11  1  0.811067  0.187777  0.187777  1
  Er  Er12  1  0.811067  0.187777  0.813381  1
  Er  Er13  1  0.182959  0.816236  0.184569  1
  Er  Er14  1  0.811067  0.813381  0.187777  1
  Er  Er15  1  0.182959  0.184569  0.816236  1
  Mg  Mg16  1  0.829163  0.829902  0.829902  1
  Mg  Mg17  1  0.829163  0.829902  0.511031  1
  Mg  Mg18  1  0.829163  0.511031  0.829902  1
  Mg  Mg19  1  0.507932  0.830689  0.830689  1
  Co  Co20  1  0.410815  0.386479  0.386479  1
  Co  Co21  1  0.410815  0.386479  0.816228  1
  Co  Co22  1  0.410815  0.816228  0.386479  1
  Co  Co23  1  0.814842  0.395053  0.395053  1
