# generated using pymatgen
data_Yb2Eu8Sn5Pb
_symmetry_space_group_name_H-M   'P 1'
_cell_length_a   9.88091648
_cell_length_b   9.88091603
_cell_length_c   9.88091641
_cell_angle_alpha   130.25338368
_cell_angle_beta   130.25338339
_cell_angle_gamma   73.00201607
_symmetry_Int_Tables_number   1
_chemical_formula_structural   Yb2Eu8Sn5Pb
_chemical_formula_sum   'Yb2 Eu8 Sn5 Pb1'
_cell_volume   548.77023156
_cell_formula_units_Z   1
loop_
 _symmetry_equiv_pos_site_id
 _symmetry_equiv_pos_as_xyz
  1  'x, y, z'
loop_
 _atom_site_type_symbol
 _atom_site_label
 _atom_site_symmetry_multiplicity
 _atom_site_fract_x
 _atom_site_fract_y
 _atom_site_fract_z
 _atom_site_occupancy
  Yb  Yb0  1  0.500510  0.500510  0.000000  1
  Yb  Yb1  1  0.999490  0.999490  0.000000  1
  Eu  Eu2  1  0.527193  0.025205  0.844006  1
  Eu  Eu3  1  0.181200  0.683188  0.155994  1
  Eu  Eu4  1  0.025205  0.181200  0.498012  1
  Eu  Eu5  1  0.683188  0.527193  0.501988  1
  Eu  Eu6  1  0.474795  0.972807  0.155994  1
  Eu  Eu7  1  0.816812  0.318800  0.844006  1
  Eu  Eu8  1  0.972807  0.816812  0.498012  1
  Eu  Eu9  1  0.318800  0.474795  0.501988  1
  Sn  Sn10  1  0.750000  0.750000  0.000000  1
  Sn  Sn11  1  0.874696  0.374696  0.249391  1
  Sn  Sn12  1  0.125304  0.625304  0.750609  1
  Sn  Sn13  1  0.374696  0.125304  0.500000  1
  Sn  Sn14  1  0.625304  0.874696  0.500000  1
  Pb  Pb15  1  0.250000  0.250000  0.000000  1
