# generated using pymatgen
data_Tm3LuReTc3B8
_symmetry_space_group_name_H-M   'P 1'
_cell_length_a   5.88585606
_cell_length_b   5.25021200
_cell_length_c   6.38657400
_cell_angle_alpha   90.00000000
_cell_angle_beta   90.34070899
_cell_angle_gamma   90.00000000
_symmetry_Int_Tables_number   1
_chemical_formula_structural   Tm3LuReTc3B8
_chemical_formula_sum   'Tm3 Lu1 Re1 Tc3 B8'
_cell_volume   197.35437018
_cell_formula_units_Z   1
loop_
 _symmetry_equiv_pos_site_id
 _symmetry_equiv_pos_as_xyz
  1  'x, y, z'
loop_
 _atom_site_type_symbol
 _atom_site_label
 _atom_site_symmetry_multiplicity
 _atom_site_fract_x
 _atom_site_fract_y
 _atom_site_fract_z
 _atom_site_occupancy
  Tm  Tm0  1  0.014721  0.250000  0.337744  1
  Tm  Tm1  1  0.515370  0.250000  0.161790  1
  Tm  Tm2  1  0.484753  0.750000  0.837380  1
  Lu  Lu3  1  0.983866  0.750000  0.663594  1
  Re  Re4  1  0.317348  0.750000  0.314914  1
  Tc  Tc5  1  0.181053  0.250000  0.814585  1
  Tc  Tc6  1  0.681840  0.250000  0.684868  1
  Tc  Tc7  1  0.817805  0.750000  0.185281  1
  B  B8  1  0.367058  0.077133  0.533993  1
  B  B9  1  0.868408  0.422318  0.965316  1
  B  B10  1  0.632912  0.577435  0.466098  1
  B  B11  1  0.133244  0.923046  0.034516  1
  B  B12  1  0.632912  0.922565  0.466098  1
  B  B13  1  0.133244  0.576954  0.034516  1
  B  B14  1  0.367058  0.422867  0.533993  1
  B  B15  1  0.868408  0.077682  0.965316  1
