# generated using pymatgen
data_LiGa11Co4
_symmetry_space_group_name_H-M   'P 1'
_cell_length_a   6.25987489
_cell_length_b   6.43188195
_cell_length_c   6.27947900
_cell_angle_alpha   90.00000000
_cell_angle_beta   90.00000000
_cell_angle_gamma   90.90659936
_symmetry_Int_Tables_number   1
_chemical_formula_structural   LiGa11Co4
_chemical_formula_sum   'Li1 Ga11 Co4'
_cell_volume   252.79760806
_cell_formula_units_Z   1
loop_
 _symmetry_equiv_pos_site_id
 _symmetry_equiv_pos_as_xyz
  1  'x, y, z'
loop_
 _atom_site_type_symbol
 _atom_site_label
 _atom_site_symmetry_multiplicity
 _atom_site_fract_x
 _atom_site_fract_y
 _atom_site_fract_z
 _atom_site_occupancy
  Li  Li0  1  0.500000  0.000000  0.000000  1
  Ga  Ga1  1  0.352709  0.668662  0.233151  1
  Ga  Ga2  1  0.647291  0.331338  0.233151  1
  Ga  Ga3  1  0.159385  0.149162  0.749355  1
  Ga  Ga4  1  0.840615  0.850838  0.749355  1
  Ga  Ga5  1  0.647291  0.331338  0.766849  1
  Ga  Ga6  1  0.352709  0.668662  0.766849  1
  Ga  Ga7  1  0.840615  0.850838  0.250645  1
  Ga  Ga8  1  0.159385  0.149162  0.250645  1
  Ga  Ga9  1  0.000000  0.500000  0.500000  1
  Ga  Ga10  1  0.000000  0.500000  0.000000  1
  Ga  Ga11  1  0.500000  0.000000  0.500000  1
  Co  Co12  1  0.153069  0.845398  0.500000  1
  Co  Co13  1  0.846931  0.154602  0.500000  1
  Co  Co14  1  0.340624  0.362852  0.000000  1
  Co  Co15  1  0.659376  0.637148  0.000000  1
