# generated using pymatgen
data_La4Sc3MoO12
_symmetry_space_group_name_H-M   'P 1'
_cell_length_a   5.71897578
_cell_length_b   5.85246303
_cell_length_c   8.17229376
_cell_angle_alpha   89.95838113
_cell_angle_beta   90.02633117
_cell_angle_gamma   89.94617192
_symmetry_Int_Tables_number   1
_chemical_formula_structural   La4Sc3MoO12
_chemical_formula_sum   'La4 Sc3 Mo1 O12'
_cell_volume   273.52722116
_cell_formula_units_Z   1
loop_
 _symmetry_equiv_pos_site_id
 _symmetry_equiv_pos_as_xyz
  1  'x, y, z'
loop_
 _atom_site_type_symbol
 _atom_site_label
 _atom_site_symmetry_multiplicity
 _atom_site_fract_x
 _atom_site_fract_y
 _atom_site_fract_z
 _atom_site_occupancy
  La  La0  1  0.988237  0.045753  0.749830  1
  La  La1  1  0.487634  0.454645  0.250161  1
  La  La2  1  0.512366  0.545355  0.749839  1
  La  La3  1  0.011763  0.954247  0.250170  1
  Sc  Sc4  1  0.500000  0.000000  0.500000  1
  Sc  Sc5  1  0.500000  0.000000  0.000000  1
  Sc  Sc6  1  0.000000  0.500000  0.000000  1
  Mo  Mo7  1  0.000000  0.500000  0.500000  1
  O  O8  1  0.699330  0.293841  0.555448  1
  O  O9  1  0.205496  0.200532  0.445064  1
  O  O10  1  0.796537  0.796614  0.945325  1
  O  O11  1  0.296651  0.703276  0.054612  1
  O  O12  1  0.300670  0.706159  0.444552  1
  O  O13  1  0.794504  0.799468  0.554936  1
  O  O14  1  0.203463  0.203386  0.054675  1
  O  O15  1  0.703349  0.296724  0.945388  1
  O  O16  1  0.896620  0.535813  0.247211  1
  O  O17  1  0.397508  0.964650  0.750099  1
  O  O18  1  0.602492  0.035350  0.249901  1
  O  O19  1  0.103380  0.464187  0.752789  1
