# generated using pymatgen
data_Dy17Y3(Bi2Pt)4
_symmetry_space_group_name_H-M   'P 1'
_cell_length_a   8.08080103
_cell_length_b   9.04250200
_cell_length_c   12.44623205
_cell_angle_alpha   90.00000000
_cell_angle_beta   89.99018618
_cell_angle_gamma   90.00000000
_symmetry_Int_Tables_number   1
_chemical_formula_structural   Dy17Y3(Bi2Pt)4
_chemical_formula_sum   'Dy17 Y3 Bi8 Pt4'
_cell_volume   909.45437018
_cell_formula_units_Z   1
loop_
 _symmetry_equiv_pos_site_id
 _symmetry_equiv_pos_as_xyz
  1  'x, y, z'
loop_
 _atom_site_type_symbol
 _atom_site_label
 _atom_site_symmetry_multiplicity
 _atom_site_fract_x
 _atom_site_fract_y
 _atom_site_fract_z
 _atom_site_occupancy
  Dy  Dy0  1  0.661367  0.750000  0.290463  1
  Dy  Dy1  1  0.371230  0.750000  0.697256  1
  Dy  Dy2  1  0.628770  0.250000  0.302697  1
  Dy  Dy3  1  0.871210  0.250000  0.802671  1
  Dy  Dy4  1  0.128742  0.750000  0.197326  1
  Dy  Dy5  1  0.949782  0.750000  0.499937  1
  Dy  Dy6  1  0.050185  0.250000  0.499964  1
  Dy  Dy7  1  0.449805  0.250000  0.000001  1
  Dy  Dy8  1  0.550198  0.750000  0.000059  1
  Dy  Dy9  1  0.679331  0.045772  0.566792  1
  Dy  Dy10  1  0.320698  0.954276  0.433208  1
  Dy  Dy11  1  0.179322  0.954278  0.933231  1
  Dy  Dy12  1  0.320698  0.545724  0.433208  1
  Dy  Dy13  1  0.820709  0.045718  0.066783  1
  Dy  Dy14  1  0.679331  0.454228  0.566792  1
  Dy  Dy15  1  0.820709  0.454282  0.066783  1
  Dy  Dy16  1  0.179322  0.545722  0.933231  1
  Y  Y17  1  0.838450  0.750000  0.789975  1
  Y  Y18  1  0.161592  0.250000  0.210040  1
  Y  Y19  1  0.338438  0.250000  0.710054  1
  Bi  Bi20  1  0.568862  0.491197  0.827344  1
  Bi  Bi21  1  0.431185  0.508836  0.172678  1
  Bi  Bi22  1  0.068855  0.508816  0.672630  1
  Bi  Bi23  1  0.431185  0.991164  0.172678  1
  Bi  Bi24  1  0.931102  0.491221  0.327349  1
  Bi  Bi25  1  0.568862  0.008803  0.827344  1
  Bi  Bi26  1  0.931102  0.008779  0.327349  1
  Bi  Bi27  1  0.068855  0.991184  0.672630  1
  Pt  Pt28  1  0.574866  0.750000  0.511480  1
  Pt  Pt29  1  0.425264  0.250000  0.488068  1
  Pt  Pt30  1  0.074667  0.250000  0.988061  1
  Pt  Pt31  1  0.925310  0.750000  0.011915  1
