# generated using pymatgen
data_Sm3Ho(Ga8Pd3)3
_symmetry_space_group_name_H-M   'P 1'
_cell_length_a   7.53091443
_cell_length_b   7.59397440
_cell_length_c   13.46177761
_cell_angle_alpha   84.87212723
_cell_angle_beta   79.86668664
_cell_angle_gamma   60.27305775
_symmetry_Int_Tables_number   1
_chemical_formula_structural   Sm3Ho(Ga8Pd3)3
_chemical_formula_sum   'Sm3 Ho1 Ga24 Pd9'
_cell_volume   658.12592596
_cell_formula_units_Z   1
loop_
 _symmetry_equiv_pos_site_id
 _symmetry_equiv_pos_as_xyz
  1  'x, y, z'
loop_
 _atom_site_type_symbol
 _atom_site_label
 _atom_site_symmetry_multiplicity
 _atom_site_fract_x
 _atom_site_fract_y
 _atom_site_fract_z
 _atom_site_occupancy
  Sm  Sm0  1  0.393299  0.168884  0.811560  1
  Sm  Sm1  1  0.606695  0.831108  0.188810  1
  Sm  Sm2  1  0.731045  0.496457  0.811622  1
  Ho  Ho3  1  0.267997  0.503588  0.189503  1
  Ga  Ga4  1  0.688073  0.833225  0.940828  1
  Ga  Ga5  1  0.312443  0.168650  0.060856  1
  Ga  Ga6  1  0.142420  0.835372  0.557522  1
  Ga  Ga7  1  0.857582  0.164909  0.441349  1
  Ga  Ga8  1  0.476965  0.167308  0.555869  1
  Ga  Ga9  1  0.523176  0.832660  0.443566  1
  Ga  Ga10  1  0.222165  0.165685  0.325284  1
  Ga  Ga11  1  0.778475  0.835071  0.672864  1
  Ga  Ga12  1  0.434991  0.504618  0.670836  1
  Ga  Ga13  1  0.564604  0.495215  0.327189  1
  Ga  Ga14  1  0.106464  0.162300  0.670445  1
  Ga  Ga15  1  0.894999  0.836784  0.327989  1
  Ga  Ga16  1  0.352415  0.501065  0.943809  1
  Ga  Ga17  1  0.643972  0.499391  0.059369  1
  Ga  Ga18  1  0.018082  0.166132  0.947939  1
  Ga  Ga19  1  0.982899  0.831885  0.054495  1
  Ga  Ga20  1  0.189503  0.499540  0.442406  1
  Ga  Ga21  1  0.811183  0.500204  0.556550  1
  Ga  Ga22  1  0.732717  0.167498  0.182469  1
  Ga  Ga23  1  0.265075  0.835170  0.817861  1
  Ga  Ga24  1  0.061715  0.630575  0.816705  1
  Ga  Ga25  1  0.941290  0.368299  0.183453  1
  Ga  Ga26  1  0.858754  0.037958  0.816464  1
  Ga  Ga27  1  0.140663  0.959972  0.183542  1
  Pd  Pd28  1  0.114115  0.498638  0.637523  1
  Pd  Pd29  1  0.886404  0.501691  0.361301  1
  Pd  Pd30  1  0.659870  0.169111  0.999266  1
  Pd  Pd31  1  0.340545  0.831159  0.001976  1
  Pd  Pd32  1  0.544768  0.166740  0.360633  1
  Pd  Pd33  1  0.454862  0.833333  0.638513  1
  Pd  Pd34  1  0.777728  0.171090  0.637285  1
  Pd  Pd35  1  0.223088  0.828218  0.361596  1
  Pd  Pd36  1  0.998958  0.500496  0.000749  1
