# generated using pymatgen
data_Sm5(RuO6)2
_symmetry_space_group_name_H-M   'P 1'
_cell_length_a   6.98972756
_cell_length_b   6.98972713
_cell_length_c   7.57230986
_cell_angle_alpha   74.20963121
_cell_angle_beta   74.20963371
_cell_angle_gamma   50.21672657
_symmetry_Int_Tables_number   1
_chemical_formula_structural   Sm5(RuO6)2
_chemical_formula_sum   'Sm5 Ru2 O12'
_cell_volume   271.15826199
_cell_formula_units_Z   1
loop_
 _symmetry_equiv_pos_site_id
 _symmetry_equiv_pos_as_xyz
  1  'x, y, z'
loop_
 _atom_site_type_symbol
 _atom_site_label
 _atom_site_symmetry_multiplicity
 _atom_site_fract_x
 _atom_site_fract_y
 _atom_site_fract_z
 _atom_site_occupancy
  Sm  Sm0  1  0.304770  0.304770  0.358975  1
  Sm  Sm1  1  0.695230  0.695230  0.641025  1
  Sm  Sm2  1  0.690255  0.690255  0.169419  1
  Sm  Sm3  1  0.309745  0.309745  0.830581  1
  Sm  Sm4  1  0.000000  0.000000  0.500000  1
  Ru  Ru5  1  0.764459  0.235541  0.000000  1
  Ru  Ru6  1  0.235541  0.764459  0.000000  1
  O  O7  1  0.096053  0.594938  0.576681  1
  O  O8  1  0.999188  0.999188  0.189744  1
  O  O9  1  0.405062  0.903947  0.423319  1
  O  O10  1  0.499648  0.499648  0.177650  1
  O  O11  1  0.095331  0.581358  0.080418  1
  O  O12  1  0.903947  0.405062  0.423319  1
  O  O13  1  0.000812  0.000812  0.810256  1
  O  O14  1  0.594938  0.096052  0.576681  1
  O  O15  1  0.500352  0.500352  0.822350  1
  O  O16  1  0.581358  0.095331  0.080418  1
  O  O17  1  0.418642  0.904669  0.919582  1
  O  O18  1  0.904669  0.418642  0.919582  1
