# generated using pymatgen
data_K4GaSn7Au8
_symmetry_space_group_name_H-M   'P 1'
_cell_length_a   4.80864000
_cell_length_b   8.89626708
_cell_length_c   12.45032900
_cell_angle_alpha   89.37511784
_cell_angle_beta   90.00000000
_cell_angle_gamma   90.00000000
_symmetry_Int_Tables_number   1
_chemical_formula_structural   K4GaSn7Au8
_chemical_formula_sum   'K4 Ga1 Sn7 Au8'
_cell_volume   532.58027306
_cell_formula_units_Z   1
loop_
 _symmetry_equiv_pos_site_id
 _symmetry_equiv_pos_as_xyz
  1  'x, y, z'
loop_
 _atom_site_type_symbol
 _atom_site_label
 _atom_site_symmetry_multiplicity
 _atom_site_fract_x
 _atom_site_fract_y
 _atom_site_fract_z
 _atom_site_occupancy
  K  K0  1  0.750000  0.729793  0.334039  1
  K  K1  1  0.250000  0.769547  0.839279  1
  K  K2  1  0.250000  0.268081  0.667469  1
  K  K3  1  0.750000  0.231683  0.162495  1
  Ga  Ga4  1  0.250000  0.391991  0.946880  1
  Sn  Sn5  1  0.250000  0.368936  0.353005  1
  Sn  Sn6  1  0.250000  0.879012  0.142484  1
  Sn  Sn7  1  0.750000  0.608005  0.049933  1
  Sn  Sn8  1  0.750000  0.625272  0.648013  1
  Sn  Sn9  1  0.750000  0.131573  0.854270  1
  Sn  Sn10  1  0.250000  0.889464  0.553525  1
  Sn  Sn11  1  0.750000  0.106436  0.448253  1
  Au  Au12  1  0.250000  0.097382  0.969050  1
  Au  Au13  1  0.750000  0.458303  0.848923  1
  Au  Au14  1  0.750000  0.959860  0.663613  1
  Au  Au15  1  0.250000  0.535246  0.154191  1
  Au  Au16  1  0.250000  0.036293  0.338510  1
  Au  Au17  1  0.750000  0.916816  0.025996  1
  Au  Au18  1  0.250000  0.583121  0.525176  1
  Au  Au19  1  0.750000  0.413185  0.474894  1
