# generated using pymatgen
data_Tm4PaPt9
_symmetry_space_group_name_H-M   'P 1'
_cell_length_a   9.77038400
_cell_length_b   9.77038400
_cell_length_c   5.72649100
_cell_angle_alpha   90.00000000
_cell_angle_beta   90.00000000
_cell_angle_gamma   90.00000000
_symmetry_Int_Tables_number   1
_chemical_formula_structural   Tm4PaPt9
_chemical_formula_sum   'Tm8 Pa2 Pt18'
_cell_volume   546.65314154
_cell_formula_units_Z   2
loop_
 _symmetry_equiv_pos_site_id
 _symmetry_equiv_pos_as_xyz
  1  'x, y, z'
loop_
 _atom_site_type_symbol
 _atom_site_label
 _atom_site_symmetry_multiplicity
 _atom_site_fract_x
 _atom_site_fract_y
 _atom_site_fract_z
 _atom_site_occupancy
  Tm  Tm0  1  0.453959  0.807451  0.000000  1
  Tm  Tm1  1  0.546041  0.192549  0.000000  1
  Tm  Tm2  1  0.192549  0.546041  0.000000  1
  Tm  Tm3  1  0.807451  0.453959  0.000000  1
  Tm  Tm4  1  0.307451  0.046041  0.500000  1
  Tm  Tm5  1  0.692549  0.953959  0.500000  1
  Tm  Tm6  1  0.953959  0.692549  0.500000  1
  Tm  Tm7  1  0.046041  0.307451  0.500000  1
  Pa  Pa8  1  0.500000  0.500000  0.500000  1
  Pa  Pa9  1  0.000000  0.000000  0.000000  1
  Pt  Pt10  1  0.193299  0.806701  0.249950  1
  Pt  Pt11  1  0.806701  0.193299  0.750050  1
  Pt  Pt12  1  0.806701  0.193299  0.249950  1
  Pt  Pt13  1  0.193299  0.806701  0.750050  1
  Pt  Pt14  1  0.442354  0.778986  0.500000  1
  Pt  Pt15  1  0.557646  0.221014  0.500000  1
  Pt  Pt16  1  0.221014  0.557646  0.500000  1
  Pt  Pt17  1  0.778986  0.442354  0.500000  1
  Pt  Pt18  1  0.306701  0.306701  0.250050  1
  Pt  Pt19  1  0.693299  0.693299  0.749950  1
  Pt  Pt20  1  0.693299  0.693299  0.250050  1
  Pt  Pt21  1  0.306701  0.306701  0.749950  1
  Pt  Pt22  1  0.278986  0.057646  0.000000  1
  Pt  Pt23  1  0.721014  0.942354  0.000000  1
  Pt  Pt24  1  0.942354  0.721014  0.000000  1
  Pt  Pt25  1  0.057646  0.278986  0.000000  1
  Pt  Pt26  1  0.000000  0.000000  0.500000  1
  Pt  Pt27  1  0.500000  0.500000  0.000000  1
