# generated using pymatgen
data_Tb3Si2Rh3
_symmetry_space_group_name_H-M   'P 1'
_cell_length_a   5.54997400
_cell_length_b   7.56519300
_cell_length_c   14.89507400
_cell_angle_alpha   90.00000000
_cell_angle_beta   90.00000000
_cell_angle_gamma   90.00000000
_symmetry_Int_Tables_number   1
_chemical_formula_structural   Tb3Si2Rh3
_chemical_formula_sum   'Tb12 Si8 Rh12'
_cell_volume   625.39387827
_cell_formula_units_Z   4
loop_
 _symmetry_equiv_pos_site_id
 _symmetry_equiv_pos_as_xyz
  1  'x, y, z'
loop_
 _atom_site_type_symbol
 _atom_site_label
 _atom_site_symmetry_multiplicity
 _atom_site_fract_x
 _atom_site_fract_y
 _atom_site_fract_z
 _atom_site_occupancy
  Tb  Tb0  1  0.888730  0.832095  0.750000  1
  Tb  Tb1  1  0.865620  0.525815  0.392066  1
  Tb  Tb2  1  0.365620  0.974185  0.607934  1
  Tb  Tb3  1  0.134380  0.474185  0.892066  1
  Tb  Tb4  1  0.634380  0.025816  0.107934  1
  Tb  Tb5  1  0.111270  0.167905  0.250000  1
  Tb  Tb6  1  0.134380  0.474185  0.607934  1
  Tb  Tb7  1  0.634380  0.025816  0.392066  1
  Tb  Tb8  1  0.388730  0.667905  0.250000  1
  Tb  Tb9  1  0.365620  0.974185  0.892066  1
  Tb  Tb10  1  0.611270  0.332095  0.750000  1
  Tb  Tb11  1  0.865620  0.525815  0.107934  1
  Si  Si12  1  0.626933  0.624291  0.897326  1
  Si  Si13  1  0.873067  0.124291  0.602674  1
  Si  Si14  1  0.126933  0.875709  0.102674  1
  Si  Si15  1  0.126933  0.875709  0.397326  1
  Si  Si16  1  0.626933  0.624291  0.602674  1
  Si  Si17  1  0.873067  0.124291  0.897326  1
  Si  Si18  1  0.373067  0.375709  0.102674  1
  Si  Si19  1  0.373067  0.375709  0.397326  1
  Rh  Rh20  1  0.598377  0.331980  0.962121  1
  Rh  Rh21  1  0.098377  0.168020  0.462121  1
  Rh  Rh22  1  0.098377  0.168020  0.037879  1
  Rh  Rh23  1  0.410235  0.680746  0.750000  1
  Rh  Rh24  1  0.901623  0.831980  0.962121  1
  Rh  Rh25  1  0.589765  0.319254  0.250000  1
  Rh  Rh26  1  0.901623  0.831980  0.537879  1
  Rh  Rh27  1  0.910235  0.819254  0.250000  1
  Rh  Rh28  1  0.598377  0.331980  0.537879  1
  Rh  Rh29  1  0.401623  0.668020  0.462121  1
  Rh  Rh30  1  0.089765  0.180746  0.750000  1
  Rh  Rh31  1  0.401623  0.668020  0.037879  1
