# generated using pymatgen
data_Tb6Y2Ti11Si16Pd
_symmetry_space_group_name_H-M   'P 1'
_cell_length_a   7.07083802
_cell_length_b   7.07074683
_cell_length_c   12.92326218
_cell_angle_alpha   90.10875090
_cell_angle_beta   89.90377389
_cell_angle_gamma   89.68384861
_symmetry_Int_Tables_number   1
_chemical_formula_structural   Tb6Y2Ti11Si16Pd
_chemical_formula_sum   'Tb6 Y2 Ti11 Si16 Pd1'
_cell_volume   646.10085646
_cell_formula_units_Z   1
loop_
 _symmetry_equiv_pos_site_id
 _symmetry_equiv_pos_as_xyz
  1  'x, y, z'
loop_
 _atom_site_type_symbol
 _atom_site_label
 _atom_site_symmetry_multiplicity
 _atom_site_fract_x
 _atom_site_fract_y
 _atom_site_fract_z
 _atom_site_occupancy
  Tb  Tb0  1  0.500857  0.158973  0.214384  1
  Tb  Tb1  1  0.840499  0.497080  0.282434  1
  Tb  Tb2  1  0.158989  0.500894  0.785638  1
  Tb  Tb3  1  0.656759  0.999372  0.968053  1
  Tb  Tb4  1  0.003475  0.339960  0.533235  1
  Tb  Tb5  1  0.999414  0.656774  0.031948  1
  Y  Y6  1  0.340097  0.003267  0.466735  1
  Y  Y7  1  0.497221  0.840664  0.717539  1
  Ti  Ti8  1  0.175363  0.826962  0.249136  1
  Ti  Ti9  1  0.826957  0.175413  0.750830  1
  Ti  Ti10  1  0.673052  0.673038  0.499996  1
  Ti  Ti11  1  0.149755  0.006183  0.877269  1
  Ti  Ti12  1  0.493561  0.653813  0.124729  1
  Ti  Ti13  1  0.508332  0.349363  0.626880  1
  Ti  Ti14  1  0.653748  0.493514  0.875295  1
  Ti  Ti15  1  0.349149  0.508521  0.373199  1
  Ti  Ti16  1  0.848758  0.992656  0.375189  1
  Ti  Ti17  1  0.006366  0.149691  0.122714  1
  Ti  Ti18  1  0.992683  0.848679  0.624881  1
  Si  Si19  1  0.201757  0.131127  0.685959  1
  Si  Si20  1  0.373987  0.709811  0.933097  1
  Si  Si21  1  0.629789  0.295376  0.434081  1
  Si  Si22  1  0.709724  0.374044  0.066821  1
  Si  Si23  1  0.295516  0.630039  0.565976  1
  Si  Si24  1  0.797515  0.869768  0.184095  1
  Si  Si25  1  0.131177  0.201541  0.314052  1
  Si  Si26  1  0.869602  0.797521  0.815893  1
  Si  Si27  1  0.285714  0.943854  0.064966  1
  Si  Si28  1  0.546809  0.791299  0.315000  1
  Si  Si29  1  0.451541  0.209608  0.813411  1
  Si  Si30  1  0.791253  0.546973  0.684986  1
  Si  Si31  1  0.209835  0.451591  0.186558  1
  Si  Si32  1  0.708995  0.047425  0.565285  1
  Si  Si33  1  0.943864  0.285710  0.935052  1
  Si  Si34  1  0.047624  0.709232  0.434657  1
  Pd  Pd35  1  0.330261  0.330264  0.000028  1
