# generated using pymatgen
data_CeY12Ho3(CdIr)4
_symmetry_space_group_name_H-M   'P 1'
_cell_length_a   9.68729405
_cell_length_b   9.68729416
_cell_length_c   9.68729432
_cell_angle_alpha   59.78850617
_cell_angle_beta   59.78850412
_cell_angle_gamma   59.78850872
_symmetry_Int_Tables_number   1
_chemical_formula_structural   CeY12Ho3(CdIr)4
_chemical_formula_sum   'Ce1 Y12 Ho3 Cd4 Ir4'
_cell_volume   639.73809131
_cell_formula_units_Z   1
loop_
 _symmetry_equiv_pos_site_id
 _symmetry_equiv_pos_as_xyz
  1  'x, y, z'
loop_
 _atom_site_type_symbol
 _atom_site_label
 _atom_site_symmetry_multiplicity
 _atom_site_fract_x
 _atom_site_fract_y
 _atom_site_fract_z
 _atom_site_occupancy
  Ce  Ce0  1  0.344280  0.344280  0.344280  1
  Y  Y1  1  0.811394  0.189652  0.189652  1
  Y  Y2  1  0.189061  0.810642  0.810642  1
  Y  Y3  1  0.189652  0.811394  0.189652  1
  Y  Y4  1  0.810642  0.189061  0.810642  1
  Y  Y5  1  0.189652  0.189652  0.811394  1
  Y  Y6  1  0.810642  0.810642  0.189061  1
  Y  Y7  1  0.939575  0.562634  0.562634  1
  Y  Y8  1  0.561128  0.938769  0.938769  1
  Y  Y9  1  0.562634  0.939575  0.562634  1
  Y  Y10  1  0.938769  0.561128  0.938769  1
  Y  Y11  1  0.562634  0.562634  0.939575  1
  Y  Y12  1  0.938769  0.938769  0.561128  1
  Ho  Ho13  1  0.350067  0.350067  0.950822  1
  Ho  Ho14  1  0.350067  0.950822  0.350067  1
  Ho  Ho15  1  0.950822  0.350067  0.350067  1
  Cd  Cd16  1  0.579498  0.579498  0.579498  1
  Cd  Cd17  1  0.580178  0.580178  0.256746  1
  Cd  Cd18  1  0.580178  0.256746  0.580178  1
  Cd  Cd19  1  0.256746  0.580178  0.580178  1
  Ir  Ir20  1  0.143213  0.143213  0.143213  1
  Ir  Ir21  1  0.144160  0.144160  0.572079  1
  Ir  Ir22  1  0.144160  0.572079  0.144160  1
  Ir  Ir23  1  0.572079  0.144160  0.144160  1
