# generated using pymatgen
data_PrTh(Re2Si)4
_symmetry_space_group_name_H-M   'P 1'
_cell_length_a   4.17345300
_cell_length_b   7.29536120
_cell_length_c   15.68972484
_cell_angle_alpha   90.21690748
_cell_angle_beta   90.00000000
_cell_angle_gamma   90.00000000
_symmetry_Int_Tables_number   1
_chemical_formula_structural   PrTh(Re2Si)4
_chemical_formula_sum   'Pr2 Th2 Re16 Si8'
_cell_volume   477.69922949
_cell_formula_units_Z   2
loop_
 _symmetry_equiv_pos_site_id
 _symmetry_equiv_pos_as_xyz
  1  'x, y, z'
loop_
 _atom_site_type_symbol
 _atom_site_label
 _atom_site_symmetry_multiplicity
 _atom_site_fract_x
 _atom_site_fract_y
 _atom_site_fract_z
 _atom_site_occupancy
  Pr  Pr0  1  0.000000  0.583815  0.117465  1
  Pr  Pr1  1  0.000000  0.416185  0.882535  1
  Th  Th2  1  0.500000  0.085157  0.381409  1
  Th  Th3  1  0.500000  0.914843  0.618591  1
  Re  Re4  1  0.000000  0.137547  0.052467  1
  Re  Re5  1  0.000000  0.862453  0.947533  1
  Re  Re6  1  0.500000  0.641027  0.449087  1
  Re  Re7  1  0.500000  0.358973  0.550913  1
  Re  Re8  1  0.000000  0.737912  0.321154  1
  Re  Re9  1  0.000000  0.262088  0.678846  1
  Re  Re10  1  0.500000  0.235350  0.179911  1
  Re  Re11  1  0.500000  0.764650  0.820089  1
  Re  Re12  1  0.000000  0.430294  0.419993  1
  Re  Re13  1  0.000000  0.569706  0.580007  1
  Re  Re14  1  0.500000  0.934349  0.080396  1
  Re  Re15  1  0.500000  0.065651  0.919604  1
  Re  Re16  1  0.000000  0.998890  0.206914  1
  Re  Re17  1  0.000000  0.001110  0.793086  1
  Re  Re18  1  0.500000  0.499314  0.294182  1
  Re  Re19  1  0.500000  0.500686  0.705818  1
  Si  Si20  1  0.000000  0.828419  0.474721  1
  Si  Si21  1  0.000000  0.171581  0.525279  1
  Si  Si22  1  0.500000  0.327139  0.025485  1
  Si  Si23  1  0.500000  0.672861  0.974515  1
  Si  Si24  1  0.000000  0.304303  0.273246  1
  Si  Si25  1  0.000000  0.695697  0.726754  1
  Si  Si26  1  0.500000  0.799086  0.224986  1
  Si  Si27  1  0.500000  0.200914  0.775014  1
