# generated using pymatgen
data_Th2Ga5Co3
_symmetry_space_group_name_H-M   'P 1'
_cell_length_a   8.51934062
_cell_length_b   8.51934054
_cell_length_c   5.60568000
_cell_angle_alpha   70.79445195
_cell_angle_beta   70.79445926
_cell_angle_gamma   97.03841490
_symmetry_Int_Tables_number   1
_chemical_formula_structural   Th2Ga5Co3
_chemical_formula_sum   'Th4 Ga10 Co6'
_cell_volume   350.47216086
_cell_formula_units_Z   2
loop_
 _symmetry_equiv_pos_site_id
 _symmetry_equiv_pos_as_xyz
  1  'x, y, z'
loop_
 _atom_site_type_symbol
 _atom_site_label
 _atom_site_symmetry_multiplicity
 _atom_site_fract_x
 _atom_site_fract_y
 _atom_site_fract_z
 _atom_site_occupancy
  Th  Th0  1  0.421334  0.137783  0.720706  1
  Th  Th1  1  0.137783  0.421334  0.220706  1
  Th  Th2  1  0.578666  0.862217  0.279294  1
  Th  Th3  1  0.862217  0.578666  0.779294  1
  Ga  Ga4  1  0.254760  0.081663  0.331874  1
  Ga  Ga5  1  0.918337  0.745240  0.168126  1
  Ga  Ga6  1  0.745240  0.918337  0.668126  1
  Ga  Ga7  1  0.081663  0.254760  0.831874  1
  Ga  Ga8  1  0.207428  0.792572  0.750000  1
  Ga  Ga9  1  0.792572  0.207428  0.250000  1
  Ga  Ga10  1  0.499983  0.500017  0.750000  1
  Ga  Ga11  1  0.500017  0.499983  0.250000  1
  Ga  Ga12  1  0.792443  0.207557  0.750000  1
  Ga  Ga13  1  0.207557  0.792443  0.250000  1
  Co  Co14  1  0.000015  0.999985  0.750000  1
  Co  Co15  1  0.999985  0.000015  0.250000  1
  Co  Co16  1  0.742051  0.446603  0.405274  1
  Co  Co17  1  0.446603  0.742051  0.905274  1
  Co  Co18  1  0.257949  0.553397  0.594726  1
  Co  Co19  1  0.553397  0.257949  0.094726  1
