# generated using pymatgen
data_Sm2Lu3Sn4
_symmetry_space_group_name_H-M   'P 1'
_cell_length_a   8.00407400
_cell_length_b   8.14418000
_cell_length_c   15.35942500
_cell_angle_alpha   90.00000000
_cell_angle_beta   90.00000000
_cell_angle_gamma   90.00000000
_symmetry_Int_Tables_number   1
_chemical_formula_structural   Sm2Lu3Sn4
_chemical_formula_sum   'Sm8 Lu12 Sn16'
_cell_volume   1001.22899151
_cell_formula_units_Z   4
loop_
 _symmetry_equiv_pos_site_id
 _symmetry_equiv_pos_as_xyz
  1  'x, y, z'
loop_
 _atom_site_type_symbol
 _atom_site_label
 _atom_site_symmetry_multiplicity
 _atom_site_fract_x
 _atom_site_fract_y
 _atom_site_fract_z
 _atom_site_occupancy
  Sm  Sm0  1  0.519323  0.321292  0.903090  1
  Sm  Sm1  1  0.019323  0.178708  0.596910  1
  Sm  Sm2  1  0.480677  0.678708  0.403090  1
  Sm  Sm3  1  0.980677  0.821292  0.096910  1
  Sm  Sm4  1  0.480677  0.678708  0.096910  1
  Sm  Sm5  1  0.980677  0.821292  0.403090  1
  Sm  Sm6  1  0.519323  0.321292  0.596910  1
  Sm  Sm7  1  0.019323  0.178708  0.903090  1
  Lu  Lu8  1  0.365017  0.836234  0.876950  1
  Lu  Lu9  1  0.865017  0.663766  0.623050  1
  Lu  Lu10  1  0.634983  0.163766  0.376950  1
  Lu  Lu11  1  0.134983  0.336234  0.123050  1
  Lu  Lu12  1  0.634983  0.163766  0.123050  1
  Lu  Lu13  1  0.134983  0.336234  0.376950  1
  Lu  Lu14  1  0.365017  0.836234  0.623050  1
  Lu  Lu15  1  0.865017  0.663766  0.876950  1
  Lu  Lu16  1  0.196435  0.505160  0.750000  1
  Lu  Lu17  1  0.696435  0.994840  0.750000  1
  Lu  Lu18  1  0.803565  0.494840  0.250000  1
  Lu  Lu19  1  0.303565  0.005160  0.250000  1
  Sn  Sn20  1  0.298773  0.039277  0.042004  1
  Sn  Sn21  1  0.798773  0.460723  0.457996  1
  Sn  Sn22  1  0.701227  0.960723  0.542004  1
  Sn  Sn23  1  0.201227  0.539277  0.957996  1
  Sn  Sn24  1  0.701227  0.960723  0.957996  1
  Sn  Sn25  1  0.201227  0.539277  0.542004  1
  Sn  Sn26  1  0.298773  0.039277  0.457996  1
  Sn  Sn27  1  0.798773  0.460723  0.042004  1
  Sn  Sn28  1  0.562692  0.623631  0.750000  1
  Sn  Sn29  1  0.062692  0.876369  0.750000  1
  Sn  Sn30  1  0.437308  0.376369  0.250000  1
  Sn  Sn31  1  0.937308  0.123631  0.250000  1
  Sn  Sn32  1  0.328116  0.145040  0.750000  1
  Sn  Sn33  1  0.828116  0.354960  0.750000  1
  Sn  Sn34  1  0.671884  0.854960  0.250000  1
  Sn  Sn35  1  0.171884  0.645040  0.250000  1
