# generated using pymatgen
data_Sc3B2Ir4Rh
_symmetry_space_group_name_H-M   'P 1'
_cell_length_a   9.55213500
_cell_length_b   9.55213500
_cell_length_c   3.10594800
_cell_angle_alpha   90.00000000
_cell_angle_beta   90.00000000
_cell_angle_gamma   90.00000000
_symmetry_Int_Tables_number   1
_chemical_formula_structural   Sc3B2Ir4Rh
_chemical_formula_sum   'Sc6 B4 Ir8 Rh2'
_cell_volume   283.39689253
_cell_formula_units_Z   2
loop_
 _symmetry_equiv_pos_site_id
 _symmetry_equiv_pos_as_xyz
  1  'x, y, z'
loop_
 _atom_site_type_symbol
 _atom_site_label
 _atom_site_symmetry_multiplicity
 _atom_site_fract_x
 _atom_site_fract_y
 _atom_site_fract_z
 _atom_site_occupancy
  Sc  Sc0  1  0.824759  0.324759  0.000000  1
  Sc  Sc1  1  0.324759  0.175241  0.000000  1
  Sc  Sc2  1  0.675241  0.824759  0.000000  1
  Sc  Sc3  1  0.175241  0.675241  0.000000  1
  Sc  Sc4  1  0.000000  0.000000  0.000000  1
  Sc  Sc5  1  0.500000  0.500000  0.000000  1
  B  B6  1  0.621514  0.121514  0.000000  1
  B  B7  1  0.121514  0.378486  0.000000  1
  B  B8  1  0.878486  0.621514  0.000000  1
  B  B9  1  0.378486  0.878486  0.000000  1
  Ir  Ir10  1  0.070193  0.222858  0.500000  1
  Ir  Ir11  1  0.222858  0.929807  0.500000  1
  Ir  Ir12  1  0.777142  0.070193  0.500000  1
  Ir  Ir13  1  0.929807  0.777142  0.500000  1
  Ir  Ir14  1  0.429807  0.722858  0.500000  1
  Ir  Ir15  1  0.570193  0.277142  0.500000  1
  Ir  Ir16  1  0.722858  0.570193  0.500000  1
  Ir  Ir17  1  0.277142  0.429807  0.500000  1
  Rh  Rh18  1  0.500000  0.000000  0.500000  1
  Rh  Rh19  1  0.000000  0.500000  0.500000  1
