# generated using pymatgen
data_CaTh(AsO4)2
_symmetry_space_group_name_H-M   'P 1'
_cell_length_a   5.98620285
_cell_length_b   5.98620296
_cell_length_c   5.98620300
_cell_angle_alpha   106.25677674
_cell_angle_beta   106.25677703
_cell_angle_gamma   116.11121114
_symmetry_Int_Tables_number   1
_chemical_formula_structural   CaTh(AsO4)2
_chemical_formula_sum   'Ca1 Th1 As2 O8'
_cell_volume   163.45036927
_cell_formula_units_Z   1
loop_
 _symmetry_equiv_pos_site_id
 _symmetry_equiv_pos_as_xyz
  1  'x, y, z'
loop_
 _atom_site_type_symbol
 _atom_site_label
 _atom_site_symmetry_multiplicity
 _atom_site_fract_x
 _atom_site_fract_y
 _atom_site_fract_z
 _atom_site_occupancy
  Ca  Ca0  1  0.250000  0.750000  0.500000  1
  Th  Th1  1  0.000000  0.000000  0.000000  1
  As  As2  1  0.500000  0.500000  0.000000  1
  As  As3  1  0.750000  0.250000  0.500000  1
  O  O4  1  0.327199  0.509880  0.182683  1
  O  O5  1  0.327199  0.144516  0.817317  1
  O  O6  1  0.490120  0.672801  0.817317  1
  O  O7  1  0.919307  0.603415  0.684107  1
  O  O8  1  0.919307  0.235200  0.315893  1
  O  O9  1  0.855484  0.672801  0.182683  1
  O  O10  1  0.396585  0.080693  0.315893  1
  O  O11  1  0.764800  0.080693  0.684107  1
