# generated using pymatgen
data_K3BaZr6BI18
_symmetry_space_group_name_H-M   'P 1'
_cell_length_a   11.16456159
_cell_length_b   11.27021750
_cell_length_c   11.40136770
_cell_angle_alpha   118.30592548
_cell_angle_beta   100.24771616
_cell_angle_gamma   103.76582760
_symmetry_Int_Tables_number   1
_chemical_formula_structural   K3BaZr6BI18
_chemical_formula_sum   'K3 Ba1 Zr6 B1 I18'
_cell_volume   1153.70316194
_cell_formula_units_Z   1
loop_
 _symmetry_equiv_pos_site_id
 _symmetry_equiv_pos_as_xyz
  1  'x, y, z'
loop_
 _atom_site_type_symbol
 _atom_site_label
 _atom_site_symmetry_multiplicity
 _atom_site_fract_x
 _atom_site_fract_y
 _atom_site_fract_z
 _atom_site_occupancy
  K  K0  1  0.848505  0.966190  0.775921  1
  K  K1  1  0.146450  0.037196  0.225997  1
  K  K2  1  0.810110  0.267071  0.432316  1
  Ba  Ba3  1  0.191746  0.732077  0.572868  1
  Zr  Zr4  1  0.358834  0.449083  0.784750  1
  Zr  Zr5  1  0.372097  0.618252  0.126172  1
  Zr  Zr6  1  0.636892  0.726308  0.043392  1
  Zr  Zr7  1  0.641806  0.550844  0.214216  1
  Zr  Zr8  1  0.363925  0.275244  0.956585  1
  Zr  Zr9  1  0.628770  0.379916  0.871809  1
  B  B10  1  0.500755  0.500127  0.999383  1
  I  I11  1  0.820736  0.417869  0.106056  1
  I  I12  1  0.517432  0.705117  0.413076  1
  I  I13  1  0.175909  0.969606  0.897019  1
  I  I14  1  0.176748  0.578613  0.892724  1
  I  I15  1  0.830077  0.834453  0.312705  1
  I  I16  1  0.504935  0.293348  0.209697  1
  I  I17  1  0.797487  0.220631  0.707200  1
  I  I18  1  0.167521  0.165603  0.685724  1
  I  I19  1  0.506374  0.912237  0.199189  1
  I  I20  1  0.816604  0.627339  0.900778  1
  I  I21  1  0.199539  0.778981  0.299564  1
  I  I22  1  0.162726  0.387310  0.493612  1
  I  I23  1  0.494836  0.708441  0.788913  1
  I  I24  1  0.824922  0.026256  0.100825  1
  I  I25  1  0.481978  0.294176  0.587233  1
  I  I26  1  0.181531  0.370297  0.096544  1
  I  I27  1  0.850286  0.624460  0.507859  1
  I  I28  1  0.490468  0.082955  0.797874  1
