# generated using pymatgen
data_Zr3Ga2CuN
_symmetry_space_group_name_H-M   'P 1'
_cell_length_a   8.58468017
_cell_length_b   8.58381058
_cell_length_c   8.58374301
_cell_angle_alpha   59.99781726
_cell_angle_beta   60.00703375
_cell_angle_gamma   60.00023587
_symmetry_Int_Tables_number   1
_chemical_formula_structural   Zr3Ga2CuN
_chemical_formula_sum   'Zr12 Ga8 Cu4 N4'
_cell_volume   447.28325914
_cell_formula_units_Z   4
loop_
 _symmetry_equiv_pos_site_id
 _symmetry_equiv_pos_as_xyz
  1  'x, y, z'
loop_
 _atom_site_type_symbol
 _atom_site_label
 _atom_site_symmetry_multiplicity
 _atom_site_fract_x
 _atom_site_fract_y
 _atom_site_fract_z
 _atom_site_occupancy
  Zr  Zr0  1  0.813978  0.185942  0.185916  1
  Zr  Zr1  1  0.186078  0.814094  0.185731  1
  Zr  Zr2  1  0.813914  0.814097  0.185933  1
  Zr  Zr3  1  0.186042  0.814049  0.814077  1
  Zr  Zr4  1  0.813941  0.185890  0.814171  1
  Zr  Zr5  1  0.186094  0.185780  0.814075  1
  Zr  Zr6  1  0.436022  0.064058  0.064084  1
  Zr  Zr7  1  0.063922  0.435906  0.064269  1
  Zr  Zr8  1  0.436086  0.435903  0.064067  1
  Zr  Zr9  1  0.063958  0.435951  0.435923  1
  Zr  Zr10  1  0.436059  0.064110  0.435829  1
  Zr  Zr11  1  0.063906  0.064220  0.435925  1
  Ga  Ga12  1  0.417274  0.417351  0.748040  1
  Ga  Ga13  1  0.417288  0.417350  0.417361  1
  Ga  Ga14  1  0.748040  0.417326  0.417329  1
  Ga  Ga15  1  0.417284  0.748029  0.417355  1
  Ga  Ga16  1  0.832726  0.832649  0.501960  1
  Ga  Ga17  1  0.832712  0.832650  0.832639  1
  Ga  Ga18  1  0.501960  0.832674  0.832671  1
  Ga  Ga19  1  0.832716  0.501971  0.832645  1
  Cu  Cu20  1  0.625000  0.625000  0.125000  1
  Cu  Cu21  1  0.625000  0.625000  0.625000  1
  Cu  Cu22  1  0.125000  0.625000  0.625000  1
  Cu  Cu23  1  0.625000  0.125000  0.625000  1
  N  N24  1  0.125000  0.125000  0.625000  1
  N  N25  1  0.125000  0.125000  0.125000  1
  N  N26  1  0.625000  0.125000  0.125000  1
  N  N27  1  0.125000  0.625000  0.125000  1
