# generated using pymatgen
data_Dy4LuZr5(Si5Ir2)4
_symmetry_space_group_name_H-M   'P 1'
_cell_length_a   12.50732200
_cell_length_b   12.50732200
_cell_length_c   4.17745900
_cell_angle_alpha   90.00000000
_cell_angle_beta   90.00000000
_cell_angle_gamma   90.00000000
_symmetry_Int_Tables_number   1
_chemical_formula_structural   Dy4LuZr5(Si5Ir2)4
_chemical_formula_sum   'Dy4 Lu1 Zr5 Si20 Ir8'
_cell_volume   653.49287658
_cell_formula_units_Z   1
loop_
 _symmetry_equiv_pos_site_id
 _symmetry_equiv_pos_as_xyz
  1  'x, y, z'
loop_
 _atom_site_type_symbol
 _atom_site_label
 _atom_site_symmetry_multiplicity
 _atom_site_fract_x
 _atom_site_fract_y
 _atom_site_fract_z
 _atom_site_occupancy
  Dy  Dy0  1  0.884490  0.384393  0.500000  1
  Dy  Dy1  1  0.115510  0.615607  0.500000  1
  Dy  Dy2  1  0.384393  0.115510  0.500000  1
  Dy  Dy3  1  0.615607  0.884490  0.500000  1
  Lu  Lu4  1  0.000000  0.000000  0.000000  1
  Zr  Zr5  1  0.500000  0.500000  0.000000  1
  Zr  Zr6  1  0.674311  0.175369  0.500000  1
  Zr  Zr7  1  0.325689  0.824631  0.500000  1
  Zr  Zr8  1  0.175369  0.325689  0.500000  1
  Zr  Zr9  1  0.824631  0.674311  0.500000  1
  Si  Si10  1  0.566515  0.067412  0.000000  1
  Si  Si11  1  0.433485  0.932588  0.000000  1
  Si  Si12  1  0.067412  0.433485  0.000000  1
  Si  Si13  1  0.932588  0.566515  0.000000  1
  Si  Si14  1  0.665056  0.700312  0.000000  1
  Si  Si15  1  0.334944  0.299688  0.000000  1
  Si  Si16  1  0.164224  0.801030  0.000000  1
  Si  Si17  1  0.835776  0.198970  0.000000  1
  Si  Si18  1  0.299688  0.665056  0.000000  1
  Si  Si19  1  0.700312  0.334944  0.000000  1
  Si  Si20  1  0.198970  0.164224  0.000000  1
  Si  Si21  1  0.801030  0.835776  0.000000  1
  Si  Si22  1  0.652721  0.507201  0.500000  1
  Si  Si23  1  0.347279  0.492799  0.500000  1
  Si  Si24  1  0.155277  0.992903  0.500000  1
  Si  Si25  1  0.844723  0.007097  0.500000  1
  Si  Si26  1  0.492799  0.652721  0.500000  1
  Si  Si27  1  0.507201  0.347279  0.500000  1
  Si  Si28  1  0.007097  0.155277  0.500000  1
  Si  Si29  1  0.992903  0.844723  0.500000  1
  Ir  Ir30  1  0.742873  0.520950  0.000000  1
  Ir  Ir31  1  0.257127  0.479050  0.000000  1
  Ir  Ir32  1  0.244659  0.978993  0.000000  1
  Ir  Ir33  1  0.755341  0.021007  0.000000  1
  Ir  Ir34  1  0.479050  0.742873  0.000000  1
  Ir  Ir35  1  0.520950  0.257127  0.000000  1
  Ir  Ir36  1  0.021007  0.244659  0.000000  1
  Ir  Ir37  1  0.978993  0.755341  0.000000  1
