# generated using pymatgen
data_Er3Lu13(InIr)4
_symmetry_space_group_name_H-M   'P 1'
_cell_length_a   9.49381032
_cell_length_b   9.49585554
_cell_length_c   9.48627814
_cell_angle_alpha   60.01910513
_cell_angle_beta   59.97137763
_cell_angle_gamma   59.94039498
_symmetry_Int_Tables_number   1
_chemical_formula_structural   Er3Lu13(InIr)4
_chemical_formula_sum   'Er3 Lu13 In4 Ir4'
_cell_volume   604.40510780
_cell_formula_units_Z   1
loop_
 _symmetry_equiv_pos_site_id
 _symmetry_equiv_pos_as_xyz
  1  'x, y, z'
loop_
 _atom_site_type_symbol
 _atom_site_label
 _atom_site_symmetry_multiplicity
 _atom_site_fract_x
 _atom_site_fract_y
 _atom_site_fract_z
 _atom_site_occupancy
  Er  Er0  1  0.190699  0.809301  0.190699  1
  Er  Er1  1  0.812299  0.812637  0.187348  1
  Er  Er2  1  0.187348  0.187716  0.812299  1
  Lu  Lu3  1  0.600421  0.597426  0.596923  1
  Lu  Lu4  1  0.600065  0.599726  0.203867  1
  Lu  Lu5  1  0.596923  0.205230  0.600421  1
  Lu  Lu6  1  0.203867  0.596341  0.600065  1
  Lu  Lu7  1  0.059028  0.440150  0.440158  1
  Lu  Lu8  1  0.440158  0.060664  0.059028  1
  Lu  Lu9  1  0.440333  0.059667  0.440333  1
  Lu  Lu10  1  0.059180  0.440820  0.059180  1
  Lu  Lu11  1  0.441381  0.441014  0.058080  1
  Lu  Lu12  1  0.058080  0.059525  0.441381  1
  Lu  Lu13  1  0.192772  0.807009  0.807027  1
  Lu  Lu14  1  0.807027  0.193190  0.192772  1
  Lu  Lu15  1  0.809433  0.190567  0.809433  1
  In  In16  1  0.833548  0.833372  0.833558  1
  In  In17  1  0.832833  0.833370  0.501012  1
  In  In18  1  0.833558  0.499523  0.833548  1
  In  In19  1  0.501012  0.832785  0.832833  1
  Ir  Ir20  1  0.392608  0.390908  0.389012  1
  Ir  Ir21  1  0.391052  0.392614  0.827364  1
  Ir  Ir22  1  0.389012  0.827474  0.392608  1
  Ir  Ir23  1  0.827364  0.388972  0.391052  1
