# generated using pymatgen
data_Nd5Ge2Ru
_symmetry_space_group_name_H-M   'P 1'
_cell_length_a   8.00119000
_cell_length_b   8.89341300
_cell_length_c   12.25661200
_cell_angle_alpha   90.00000000
_cell_angle_beta   90.00000000
_cell_angle_gamma   90.00000000
_symmetry_Int_Tables_number   1
_chemical_formula_structural   Nd5Ge2Ru
_chemical_formula_sum   'Nd20 Ge8 Ru4'
_cell_volume   872.15461368
_cell_formula_units_Z   4
loop_
 _symmetry_equiv_pos_site_id
 _symmetry_equiv_pos_as_xyz
  1  'x, y, z'
loop_
 _atom_site_type_symbol
 _atom_site_label
 _atom_site_symmetry_multiplicity
 _atom_site_fract_x
 _atom_site_fract_y
 _atom_site_fract_z
 _atom_site_occupancy
  Nd  Nd0  1  0.669219  0.750000  0.715544  1
  Nd  Nd1  1  0.330781  0.250000  0.284456  1
  Nd  Nd2  1  0.169219  0.250000  0.784456  1
  Nd  Nd3  1  0.830781  0.750000  0.215544  1
  Nd  Nd4  1  0.144244  0.750000  0.797085  1
  Nd  Nd5  1  0.855756  0.250000  0.202915  1
  Nd  Nd6  1  0.644244  0.250000  0.702915  1
  Nd  Nd7  1  0.355756  0.750000  0.297085  1
  Nd  Nd8  1  0.538524  0.750000  0.998742  1
  Nd  Nd9  1  0.461476  0.250000  0.001258  1
  Nd  Nd10  1  0.038524  0.250000  0.501258  1
  Nd  Nd11  1  0.961476  0.750000  0.498742  1
  Nd  Nd12  1  0.820208  0.465044  0.926809  1
  Nd  Nd13  1  0.179792  0.534956  0.073191  1
  Nd  Nd14  1  0.320208  0.534956  0.573191  1
  Nd  Nd15  1  0.179792  0.965044  0.073191  1
  Nd  Nd16  1  0.679792  0.465044  0.426809  1
  Nd  Nd17  1  0.820208  0.034956  0.926809  1
  Nd  Nd18  1  0.679792  0.034956  0.426809  1
  Nd  Nd19  1  0.320208  0.965044  0.573191  1
  Ge  Ge20  1  0.938487  0.005255  0.671695  1
  Ge  Ge21  1  0.061513  0.994745  0.328305  1
  Ge  Ge22  1  0.438487  0.994745  0.828305  1
  Ge  Ge23  1  0.061513  0.505255  0.328305  1
  Ge  Ge24  1  0.561513  0.005255  0.171695  1
  Ge  Ge25  1  0.938487  0.494745  0.671695  1
  Ge  Ge26  1  0.561513  0.494745  0.171695  1
  Ge  Ge27  1  0.438487  0.505255  0.828305  1
  Ru  Ru28  1  0.920830  0.750000  0.983193  1
  Ru  Ru29  1  0.079170  0.250000  0.016807  1
  Ru  Ru30  1  0.420830  0.250000  0.516807  1
  Ru  Ru31  1  0.579170  0.750000  0.483193  1
