# generated using pymatgen
data_Ce5Cr3(P3Ir4)4
_symmetry_space_group_name_H-M   'P 1'
_cell_length_a   12.72829000
_cell_length_b   12.72829044
_cell_length_c   3.98541800
_cell_angle_alpha   90.00000000
_cell_angle_beta   90.00000000
_cell_angle_gamma   119.99999884
_symmetry_Int_Tables_number   1
_chemical_formula_structural   Ce5Cr3(P3Ir4)4
_chemical_formula_sum   'Ce5 Cr3 P12 Ir16'
_cell_volume   559.17101735
_cell_formula_units_Z   1
loop_
 _symmetry_equiv_pos_site_id
 _symmetry_equiv_pos_as_xyz
  1  'x, y, z'
loop_
 _atom_site_type_symbol
 _atom_site_label
 _atom_site_symmetry_multiplicity
 _atom_site_fract_x
 _atom_site_fract_y
 _atom_site_fract_z
 _atom_site_occupancy
  Ce  Ce0  1  0.333333  0.666667  0.500000  1
  Ce  Ce1  1  0.666667  0.333333  0.500000  1
  Ce  Ce2  1  0.000000  0.813362  0.000000  1
  Ce  Ce3  1  0.186638  0.186638  0.000000  1
  Ce  Ce4  1  0.813362  0.000000  0.000000  1
  Cr  Cr5  1  0.000000  0.455291  0.500000  1
  Cr  Cr6  1  0.544709  0.544709  0.500000  1
  Cr  Cr7  1  0.455291  0.000000  0.500000  1
  P  P8  1  0.000000  0.631829  0.500000  1
  P  P9  1  0.368171  0.368171  0.500000  1
  P  P10  1  0.631829  0.000000  0.500000  1
  P  P11  1  0.518278  0.684421  0.000000  1
  P  P12  1  0.315579  0.833858  0.000000  1
  P  P13  1  0.166142  0.481722  0.000000  1
  P  P14  1  0.481722  0.166142  0.000000  1
  P  P15  1  0.684421  0.518278  0.000000  1
  P  P16  1  0.833858  0.315579  0.000000  1
  P  P17  1  0.000000  0.179572  0.500000  1
  P  P18  1  0.820428  0.820428  0.500000  1
  P  P19  1  0.179572  0.000000  0.500000  1
  Ir  Ir20  1  0.510124  0.870302  0.000000  1
  Ir  Ir21  1  0.129698  0.639823  0.000000  1
  Ir  Ir22  1  0.360177  0.489876  0.000000  1
  Ir  Ir23  1  0.489876  0.360177  0.000000  1
  Ir  Ir24  1  0.870302  0.510124  0.000000  1
  Ir  Ir25  1  0.639823  0.129698  0.000000  1
  Ir  Ir26  1  0.000000  0.284806  0.000000  1
  Ir  Ir27  1  0.715194  0.715194  0.000000  1
  Ir  Ir28  1  0.284806  0.000000  0.000000  1
  Ir  Ir29  1  0.622541  0.801771  0.500000  1
  Ir  Ir30  1  0.198229  0.820770  0.500000  1
  Ir  Ir31  1  0.179230  0.377459  0.500000  1
  Ir  Ir32  1  0.377459  0.179230  0.500000  1
  Ir  Ir33  1  0.801771  0.622541  0.500000  1
  Ir  Ir34  1  0.820770  0.198229  0.500000  1
  Ir  Ir35  1  0.000000  0.000000  0.500000  1
