# generated using pymatgen
data_Tm5(FeSe)2
_symmetry_space_group_name_H-M   'P 1'
_cell_length_a   7.41947891
_cell_length_b   7.41947959
_cell_length_c   14.56768700
_cell_angle_alpha   90.00000000
_cell_angle_beta   90.00000000
_cell_angle_gamma   150.19685655
_symmetry_Int_Tables_number   1
_chemical_formula_structural   Tm5(FeSe)2
_chemical_formula_sum   'Tm10 Fe4 Se4'
_cell_volume   398.57741584
_cell_formula_units_Z   2
loop_
 _symmetry_equiv_pos_site_id
 _symmetry_equiv_pos_as_xyz
  1  'x, y, z'
loop_
 _atom_site_type_symbol
 _atom_site_label
 _atom_site_symmetry_multiplicity
 _atom_site_fract_x
 _atom_site_fract_y
 _atom_site_fract_z
 _atom_site_occupancy
  Tm  Tm0  1  0.963043  0.036957  0.383955  1
  Tm  Tm1  1  0.036957  0.963043  0.616045  1
  Tm  Tm2  1  0.036957  0.963043  0.883955  1
  Tm  Tm3  1  0.963043  0.036957  0.116045  1
  Tm  Tm4  1  0.745741  0.254259  0.621677  1
  Tm  Tm5  1  0.254259  0.745741  0.378323  1
  Tm  Tm6  1  0.254259  0.745741  0.121677  1
  Tm  Tm7  1  0.745741  0.254259  0.878323  1
  Tm  Tm8  1  0.393845  0.606155  0.750000  1
  Tm  Tm9  1  0.606155  0.393845  0.250000  1
  Fe  Fe10  1  0.826492  0.173508  0.250000  1
  Fe  Fe11  1  0.173508  0.826492  0.750000  1
  Fe  Fe12  1  0.406009  0.593991  0.250000  1
  Fe  Fe13  1  0.593991  0.406009  0.750000  1
  Se  Se14  1  0.618036  0.381964  0.039300  1
  Se  Se15  1  0.381964  0.618036  0.960700  1
  Se  Se16  1  0.381964  0.618036  0.539300  1
  Se  Se17  1  0.618036  0.381964  0.460700  1
