# generated using pymatgen
data_Nd9Dy(SiHg)4
_symmetry_space_group_name_H-M   'P 1'
_cell_length_a   9.11455356
_cell_length_b   9.11455319
_cell_length_c   7.80024480
_cell_angle_alpha   89.92246696
_cell_angle_beta   89.92246875
_cell_angle_gamma   129.48534270
_symmetry_Int_Tables_number   1
_chemical_formula_structural   Nd9Dy(SiHg)4
_chemical_formula_sum   'Nd9 Dy1 Si4 Hg4'
_cell_volume   500.12026088
_cell_formula_units_Z   1
loop_
 _symmetry_equiv_pos_site_id
 _symmetry_equiv_pos_as_xyz
  1  'x, y, z'
loop_
 _atom_site_type_symbol
 _atom_site_label
 _atom_site_symmetry_multiplicity
 _atom_site_fract_x
 _atom_site_fract_y
 _atom_site_fract_z
 _atom_site_occupancy
  Nd  Nd0  1  0.058253  0.312815  0.323120  1
  Nd  Nd1  1  0.941747  0.687185  0.676880  1
  Nd  Nd2  1  0.443085  0.188399  0.821906  1
  Nd  Nd3  1  0.811601  0.556915  0.178094  1
  Nd  Nd4  1  0.556915  0.811601  0.178094  1
  Nd  Nd5  1  0.188399  0.443085  0.821906  1
  Nd  Nd6  1  0.687185  0.941747  0.676880  1
  Nd  Nd7  1  0.312815  0.058253  0.323120  1
  Nd  Nd8  1  0.000000  0.000000  0.000000  1
  Dy  Dy9  1  0.500000  0.500000  0.500000  1
  Si  Si10  1  0.387358  0.387358  0.119556  1
  Si  Si11  1  0.612642  0.612642  0.880444  1
  Si  Si12  1  0.117135  0.117135  0.615314  1
  Si  Si13  1  0.882865  0.882865  0.384686  1
  Hg  Hg14  1  0.781302  0.218698  0.000000  1
  Hg  Hg15  1  0.218698  0.781302  0.000000  1
  Hg  Hg16  1  0.718265  0.281735  0.500000  1
  Hg  Hg17  1  0.281735  0.718265  0.500000  1
