# generated using pymatgen
data_Ca4Al17ZnSiIr5
_symmetry_space_group_name_H-M   'P 1'
_cell_length_a   7.58049609
_cell_length_b   7.58049664
_cell_length_c   9.57412512
_cell_angle_alpha   89.97713443
_cell_angle_beta   89.97712526
_cell_angle_gamma   119.63922186
_symmetry_Int_Tables_number   1
_chemical_formula_structural   Ca4Al17ZnSiIr5
_chemical_formula_sum   'Ca4 Al17 Zn1 Si1 Ir5'
_cell_volume   478.18096060
_cell_formula_units_Z   1
loop_
 _symmetry_equiv_pos_site_id
 _symmetry_equiv_pos_as_xyz
  1  'x, y, z'
loop_
 _atom_site_type_symbol
 _atom_site_label
 _atom_site_symmetry_multiplicity
 _atom_site_fract_x
 _atom_site_fract_y
 _atom_site_fract_z
 _atom_site_occupancy
  Ca  Ca0  1  0.995684  0.678754  0.250323  1
  Ca  Ca1  1  0.002480  0.327210  0.749989  1
  Ca  Ca2  1  0.678754  0.995684  0.250323  1
  Ca  Ca3  1  0.327210  0.002480  0.749989  1
  Al  Al4  1  0.864489  0.864489  0.740775  1
  Al  Al5  1  0.001906  0.344103  0.077696  1
  Al  Al6  1  0.997142  0.656658  0.923640  1
  Al  Al7  1  0.000770  0.665510  0.569423  1
  Al  Al8  1  0.337272  0.999280  0.429701  1
  Al  Al9  1  0.999280  0.337272  0.429701  1
  Al  Al10  1  0.665510  0.000770  0.569423  1
  Al  Al11  1  0.656658  0.997142  0.923640  1
  Al  Al12  1  0.344103  0.001906  0.077696  1
  Al  Al13  1  0.332802  0.332802  0.552401  1
  Al  Al14  1  0.664349  0.664349  0.451465  1
  Al  Al15  1  0.655223  0.655223  0.055617  1
  Al  Al16  1  0.342018  0.342018  0.939714  1
  Al  Al17  1  0.335540  0.550003  0.251503  1
  Al  Al18  1  0.661454  0.450421  0.749128  1
  Al  Al19  1  0.550003  0.335540  0.251503  1
  Al  Al20  1  0.450421  0.661454  0.749128  1
  Zn  Zn21  1  0.000178  0.000178  0.003686  1
  Si  Si22  1  0.141849  0.141849  0.258864  1
  Ir  Ir23  1  0.668854  0.327327  0.001025  1
  Ir  Ir24  1  0.327327  0.668854  0.001025  1
  Ir  Ir25  1  0.328679  0.668862  0.499873  1
  Ir  Ir26  1  0.668862  0.328679  0.499873  1
  Ir  Ir27  1  0.001184  0.001184  0.492877  1
