# generated using pymatgen
data_Yb3DyRu3PtO14
_symmetry_space_group_name_H-M   'P 1'
_cell_length_a   7.20227076
_cell_length_b   7.20227111
_cell_length_c   7.19214509
_cell_angle_alpha   60.49287649
_cell_angle_beta   60.49287737
_cell_angle_gamma   60.57338010
_symmetry_Int_Tables_number   1
_chemical_formula_structural   Yb3DyRu3PtO14
_chemical_formula_sum   'Yb3 Dy1 Ru3 Pt1 O14'
_cell_volume   266.90234247
_cell_formula_units_Z   1
loop_
 _symmetry_equiv_pos_site_id
 _symmetry_equiv_pos_as_xyz
  1  'x, y, z'
loop_
 _atom_site_type_symbol
 _atom_site_label
 _atom_site_symmetry_multiplicity
 _atom_site_fract_x
 _atom_site_fract_y
 _atom_site_fract_z
 _atom_site_occupancy
  Yb  Yb0  1  0.125000  0.625000  0.125000  1
  Yb  Yb1  1  0.625000  0.125000  0.125000  1
  Yb  Yb2  1  0.125000  0.125000  0.125000  1
  Dy  Dy3  1  0.125000  0.125000  0.625000  1
  Ru  Ru4  1  0.625000  0.625000  0.125000  1
  Ru  Ru5  1  0.625000  0.125000  0.625000  1
  Ru  Ru6  1  0.125000  0.625000  0.625000  1
  Pt  Pt7  1  0.625000  0.625000  0.625000  1
  O  O8  1  0.247066  0.247066  0.257485  1
  O  O9  1  0.002934  0.002934  0.992515  1
  O  O10  1  0.306146  0.700529  0.307419  1
  O  O11  1  0.538406  0.961588  0.543437  1
  O  O12  1  0.302672  0.302672  0.702087  1
  O  O13  1  0.700529  0.306146  0.307419  1
  O  O14  1  0.288412  0.711594  0.706563  1
  O  O15  1  0.707194  0.707194  0.289000  1
  O  O16  1  0.711594  0.288412  0.706563  1
  O  O17  1  0.961588  0.538406  0.543437  1
  O  O18  1  0.549471  0.943854  0.942581  1
  O  O19  1  0.943854  0.549471  0.942581  1
  O  O20  1  0.542806  0.542806  0.961000  1
  O  O21  1  0.947328  0.947328  0.547913  1
