# generated using pymatgen
data_Ba12Tb(ScAs4)3
_symmetry_space_group_name_H-M   'P 1'
_cell_length_a   4.71692500
_cell_length_b   13.88949976
_cell_length_c   15.12341084
_cell_angle_alpha   89.75867854
_cell_angle_beta   90.00000000
_cell_angle_gamma   90.00000000
_symmetry_Int_Tables_number   1
_chemical_formula_structural   Ba12Tb(ScAs4)3
_chemical_formula_sum   'Ba12 Tb1 Sc3 As12'
_cell_volume   990.81249271
_cell_formula_units_Z   1
loop_
 _symmetry_equiv_pos_site_id
 _symmetry_equiv_pos_as_xyz
  1  'x, y, z'
loop_
 _atom_site_type_symbol
 _atom_site_label
 _atom_site_symmetry_multiplicity
 _atom_site_fract_x
 _atom_site_fract_y
 _atom_site_fract_z
 _atom_site_occupancy
  Ba  Ba0  1  0.250000  0.419245  0.101327  1
  Ba  Ba1  1  0.250000  0.144314  0.003996  1
  Ba  Ba2  1  0.250000  0.226793  0.296543  1
  Ba  Ba3  1  0.750000  0.275595  0.795098  1
  Ba  Ba4  1  0.750000  0.361037  0.501738  1
  Ba  Ba5  1  0.250000  0.917880  0.395306  1
  Ba  Ba6  1  0.750000  0.768145  0.702104  1
  Ba  Ba7  1  0.750000  0.858501  0.001796  1
  Ba  Ba8  1  0.250000  0.725048  0.203714  1
  Ba  Ba9  1  0.750000  0.080722  0.594928  1
  Ba  Ba10  1  0.750000  0.580522  0.901364  1
  Ba  Ba11  1  0.250000  0.640456  0.496548  1
  Tb  Tb12  1  0.250000  0.955347  0.794368  1
  Sc  Sc13  1  0.750000  0.547572  0.294334  1
  Sc  Sc14  1  0.750000  0.049129  0.205378  1
  Sc  Sc15  1  0.250000  0.451500  0.706046  1
  As  As16  1  0.750000  0.226489  0.134908  1
  As  As17  1  0.750000  0.724164  0.365814  1
  As  As18  1  0.750000  0.586766  0.121878  1
  As  As19  1  0.250000  0.274688  0.632220  1
  As  As20  1  0.250000  0.769247  0.870476  1
  As  As21  1  0.750000  0.087045  0.377799  1
  As  As22  1  0.250000  0.907406  0.613756  1
  As  As23  1  0.250000  0.413101  0.878817  1
  As  As24  1  0.750000  0.046044  0.856972  1
  As  As25  1  0.250000  0.464572  0.346343  1
  As  As26  1  0.250000  0.964751  0.153678  1
  As  As27  1  0.750000  0.533917  0.652753  1
