# generated using pymatgen
data_TbY3Re4F28
_symmetry_space_group_name_H-M   'P 1'
_cell_length_a   5.64547001
_cell_length_b   8.97795949
_cell_length_c   12.09992607
_cell_angle_alpha   62.52972795
_cell_angle_beta   89.99494422
_cell_angle_gamma   89.99632115
_symmetry_Int_Tables_number   1
_chemical_formula_structural   TbY3Re4F28
_chemical_formula_sum   'Tb1 Y3 Re4 F28'
_cell_volume   544.13493799
_cell_formula_units_Z   1
loop_
 _symmetry_equiv_pos_site_id
 _symmetry_equiv_pos_as_xyz
  1  'x, y, z'
loop_
 _atom_site_type_symbol
 _atom_site_label
 _atom_site_symmetry_multiplicity
 _atom_site_fract_x
 _atom_site_fract_y
 _atom_site_fract_z
 _atom_site_occupancy
  Tb  Tb0  1  0.258229  0.813906  0.264820  1
  Y  Y1  1  0.741694  0.185754  0.735287  1
  Y  Y2  1  0.758332  0.185801  0.235284  1
  Y  Y3  1  0.241707  0.814258  0.764713  1
  Re  Re4  1  0.757267  0.726357  0.043425  1
  Re  Re5  1  0.242722  0.273654  0.956469  1
  Re  Re6  1  0.257291  0.273495  0.456510  1
  Re  Re7  1  0.742736  0.726396  0.543588  1
  F  F8  1  0.949638  0.707179  0.418832  1
  F  F9  1  0.050311  0.292861  0.581188  1
  F  F10  1  0.449669  0.292849  0.081178  1
  F  F11  1  0.550283  0.707167  0.918788  1
  F  F12  1  0.478008  0.730283  0.141155  1
  F  F13  1  0.522095  0.269730  0.858757  1
  F  F14  1  0.977918  0.269736  0.358765  1
  F  F15  1  0.022107  0.730294  0.641237  1
  F  F16  1  0.958431  0.745203  0.171300  1
  F  F17  1  0.041315  0.254782  0.828587  1
  F  F18  1  0.458678  0.254779  0.328590  1
  F  F19  1  0.541306  0.745243  0.671413  1
  F  F20  1  0.768815  0.478534  0.142150  1
  F  F21  1  0.231185  0.521478  0.857852  1
  F  F22  1  0.268819  0.521281  0.357921  1
  F  F23  1  0.731185  0.478529  0.642153  1
  F  F24  1  0.952358  0.280706  0.047190  1
  F  F25  1  0.047692  0.719318  0.952794  1
  F  F26  1  0.452460  0.719279  0.452889  1
  F  F27  1  0.547657  0.280711  0.547200  1
  F  F28  1  0.741227  0.973597  0.446836  1
  F  F29  1  0.258766  0.026381  0.553174  1
  F  F30  1  0.241244  0.026403  0.053184  1
  F  F31  1  0.758768  0.973626  0.946833  1
  F  F32  1  0.579137  0.971801  0.232429  1
  F  F33  1  0.421146  0.028370  0.767527  1
  F  F34  1  0.078666  0.028599  0.267512  1
  F  F35  1  0.921138  0.971660  0.732470  1
