# generated using pymatgen
data_Ce2B8MoW
_symmetry_space_group_name_H-M   'P 1'
_cell_length_a   6.06132418
_cell_length_b   11.72217611
_cell_length_c   3.70237900
_cell_angle_alpha   90.00000000
_cell_angle_beta   90.00000000
_cell_angle_gamma   90.02171207
_symmetry_Int_Tables_number   1
_chemical_formula_structural   Ce2B8MoW
_chemical_formula_sum   'Ce4 B16 Mo2 W2'
_cell_volume   263.06107871
_cell_formula_units_Z   2
loop_
 _symmetry_equiv_pos_site_id
 _symmetry_equiv_pos_as_xyz
  1  'x, y, z'
loop_
 _atom_site_type_symbol
 _atom_site_label
 _atom_site_symmetry_multiplicity
 _atom_site_fract_x
 _atom_site_fract_y
 _atom_site_fract_z
 _atom_site_occupancy
  Ce  Ce0  1  0.625087  0.349468  0.000000  1
  Ce  Ce1  1  0.374913  0.650532  0.000000  1
  Ce  Ce2  1  0.125313  0.151349  0.000000  1
  Ce  Ce3  1  0.874687  0.848651  0.000000  1
  B  B4  1  0.786330  0.185738  0.500000  1
  B  B5  1  0.213670  0.814262  0.500000  1
  B  B6  1  0.285785  0.314835  0.500000  1
  B  B7  1  0.714215  0.685165  0.500000  1
  B  B8  1  0.863969  0.032028  0.500000  1
  B  B9  1  0.136031  0.967972  0.500000  1
  B  B10  1  0.363967  0.467872  0.500000  1
  B  B11  1  0.636033  0.532128  0.500000  1
  B  B12  1  0.886822  0.453427  0.500000  1
  B  B13  1  0.113178  0.546573  0.500000  1
  B  B14  1  0.386581  0.046629  0.500000  1
  B  B15  1  0.613419  0.953371  0.500000  1
  B  B16  1  0.975305  0.308250  0.500000  1
  B  B17  1  0.024695  0.691750  0.500000  1
  B  B18  1  0.474919  0.191953  0.500000  1
  B  B19  1  0.525081  0.808047  0.500000  1
  Mo  Mo20  1  0.130458  0.414645  0.000000  1
  Mo  Mo21  1  0.869542  0.585355  0.000000  1
  W  W22  1  0.631102  0.085745  0.000000  1
  W  W23  1  0.368898  0.914255  0.000000  1
