# generated using pymatgen
data_EuMoF6
_symmetry_space_group_name_H-M   'P 1'
_cell_length_a   6.09674877
_cell_length_b   6.09674928
_cell_length_c   6.09674901
_cell_angle_alpha   53.62783296
_cell_angle_beta   53.62783627
_cell_angle_gamma   53.62783240
_symmetry_Int_Tables_number   1
_chemical_formula_structural   EuMoF6
_chemical_formula_sum   'Eu1 Mo1 F6'
_cell_volume   136.36103613
_cell_formula_units_Z   1
loop_
 _symmetry_equiv_pos_site_id
 _symmetry_equiv_pos_as_xyz
  1  'x, y, z'
loop_
 _atom_site_type_symbol
 _atom_site_label
 _atom_site_symmetry_multiplicity
 _atom_site_fract_x
 _atom_site_fract_y
 _atom_site_fract_z
 _atom_site_occupancy
  Eu  Eu0  1  0.500000  0.500000  0.500000  1
  Mo  Mo1  1  0.000000  0.000000  0.000000  1
  F  F2  1  0.902815  0.228085  0.633140  1
  F  F3  1  0.228085  0.633140  0.902815  1
  F  F4  1  0.366860  0.097185  0.771915  1
  F  F5  1  0.771915  0.366860  0.097185  1
  F  F6  1  0.097185  0.771915  0.366860  1
  F  F7  1  0.633140  0.902815  0.228085  1
