# generated using pymatgen
data_La4Mg3ScIr4
_symmetry_space_group_name_H-M   'P 1'
_cell_length_a   7.37239429
_cell_length_b   4.25968100
_cell_length_c   8.80514487
_cell_angle_alpha   90.00000000
_cell_angle_beta   88.88927690
_cell_angle_gamma   90.00000000
_symmetry_Int_Tables_number   1
_chemical_formula_structural   La4Mg3ScIr4
_chemical_formula_sum   'La4 Mg3 Sc1 Ir4'
_cell_volume   276.46523391
_cell_formula_units_Z   1
loop_
 _symmetry_equiv_pos_site_id
 _symmetry_equiv_pos_as_xyz
  1  'x, y, z'
loop_
 _atom_site_type_symbol
 _atom_site_label
 _atom_site_symmetry_multiplicity
 _atom_site_fract_x
 _atom_site_fract_y
 _atom_site_fract_z
 _atom_site_occupancy
  La  La0  1  0.969700  0.250000  0.184510  1
  La  La1  1  0.458316  0.250000  0.324883  1
  La  La2  1  0.042239  0.750000  0.817862  1
  La  La3  1  0.532244  0.750000  0.676000  1
  Mg  Mg4  1  0.866715  0.250000  0.556292  1
  Mg  Mg5  1  0.361409  0.250000  0.939990  1
  Mg  Mg6  1  0.133175  0.750000  0.442600  1
  Sc  Sc7  1  0.628059  0.750000  0.057103  1
  Ir  Ir8  1  0.746254  0.250000  0.889031  1
  Ir  Ir9  1  0.244081  0.250000  0.624796  1
  Ir  Ir10  1  0.264204  0.750000  0.122420  1
  Ir  Ir11  1  0.753604  0.750000  0.364510  1
