# generated using pymatgen
data_Er5(In2Rh)2
_symmetry_space_group_name_H-M   'P 1'
_cell_length_a   3.57639200
_cell_length_b   8.00961757
_cell_length_c   18.19859445
_cell_angle_alpha   89.99180710
_cell_angle_beta   90.00000000
_cell_angle_gamma   90.00000000
_symmetry_Int_Tables_number   1
_chemical_formula_structural   Er5(In2Rh)2
_chemical_formula_sum   'Er10 In8 Rh4'
_cell_volume   521.30841762
_cell_formula_units_Z   2
loop_
 _symmetry_equiv_pos_site_id
 _symmetry_equiv_pos_as_xyz
  1  'x, y, z'
loop_
 _atom_site_type_symbol
 _atom_site_label
 _atom_site_symmetry_multiplicity
 _atom_site_fract_x
 _atom_site_fract_y
 _atom_site_fract_z
 _atom_site_occupancy
  Er  Er0  1  0.000000  0.116146  0.412814  1
  Er  Er1  1  0.000000  0.883620  0.587463  1
  Er  Er2  1  0.000000  0.383643  0.912544  1
  Er  Er3  1  0.000000  0.616270  0.087379  1
  Er  Er4  1  0.000000  0.244160  0.220682  1
  Er  Er5  1  0.000000  0.755810  0.779316  1
  Er  Er6  1  0.000000  0.255718  0.720669  1
  Er  Er7  1  0.000000  0.744445  0.279300  1
  Er  Er8  1  0.000000  0.999898  0.999876  1
  Er  Er9  1  0.000000  0.500120  0.500116  1
  In  In10  1  0.500000  0.426058  0.350469  1
  In  In11  1  0.500000  0.573435  0.649806  1
  In  In12  1  0.500000  0.073525  0.850182  1
  In  In13  1  0.500000  0.926609  0.149641  1
  In  In14  1  0.500000  0.292519  0.066966  1
  In  In15  1  0.500000  0.707620  0.932689  1
  In  In16  1  0.500000  0.207491  0.567193  1
  In  In17  1  0.500000  0.792402  0.432826  1
  Rh  Rh18  1  0.500000  0.523769  0.195930  1
  Rh  Rh19  1  0.500000  0.023928  0.304145  1
  Rh  Rh20  1  0.500000  0.976486  0.695873  1
  Rh  Rh21  1  0.500000  0.476328  0.804122  1
