# generated using pymatgen
data_TmMg2Pa3Rh4
_symmetry_space_group_name_H-M   'P 1'
_cell_length_a   7.64519287
_cell_length_b   7.64519287
_cell_length_c   3.61877400
_cell_angle_alpha   90.00000000
_cell_angle_beta   90.00000000
_cell_angle_gamma   88.02813823
_symmetry_Int_Tables_number   1
_chemical_formula_structural   TmMg2Pa3Rh4
_chemical_formula_sum   'Tm1 Mg2 Pa3 Rh4'
_cell_volume   211.38837866
_cell_formula_units_Z   1
loop_
 _symmetry_equiv_pos_site_id
 _symmetry_equiv_pos_as_xyz
  1  'x, y, z'
loop_
 _atom_site_type_symbol
 _atom_site_label
 _atom_site_symmetry_multiplicity
 _atom_site_fract_x
 _atom_site_fract_y
 _atom_site_fract_z
 _atom_site_occupancy
  Tm  Tm0  1  0.666757  0.166758  0.500000  1
  Mg  Mg1  1  0.992528  0.000437  0.000000  1
  Mg  Mg2  1  0.500437  0.492528  0.000000  1
  Pa  Pa3  1  0.166033  0.331069  0.500000  1
  Pa  Pa4  1  0.831069  0.666032  0.500000  1
  Pa  Pa5  1  0.333447  0.833447  0.500000  1
  Rh  Rh6  1  0.350199  0.133373  0.000000  1
  Rh  Rh7  1  0.880821  0.380822  0.000000  1
  Rh  Rh8  1  0.145338  0.645338  0.000000  1
  Rh  Rh9  1  0.633373  0.850198  0.000000  1
