# generated using pymatgen
data_Er6U2Si12PtRh3
_symmetry_space_group_name_H-M   'P 1'
_cell_length_a   8.17032600
_cell_length_b   8.17032474
_cell_length_c   7.79565900
_cell_angle_alpha   90.00000000
_cell_angle_beta   90.00000000
_cell_angle_gamma   119.99999699
_symmetry_Int_Tables_number   1
_chemical_formula_structural   Er6U2Si12PtRh3
_chemical_formula_sum   'Er6 U2 Si12 Pt1 Rh3'
_cell_volume   450.67366695
_cell_formula_units_Z   1
loop_
 _symmetry_equiv_pos_site_id
 _symmetry_equiv_pos_as_xyz
  1  'x, y, z'
loop_
 _atom_site_type_symbol
 _atom_site_label
 _atom_site_symmetry_multiplicity
 _atom_site_fract_x
 _atom_site_fract_y
 _atom_site_fract_z
 _atom_site_occupancy
  Er  Er0  1  0.492236  0.507764  0.247841  1
  Er  Er1  1  0.492236  0.984473  0.247841  1
  Er  Er2  1  0.015527  0.507764  0.247841  1
  Er  Er3  1  0.506028  0.493972  0.751989  1
  Er  Er4  1  0.987945  0.493972  0.751989  1
  Er  Er5  1  0.506028  0.012055  0.751989  1
  U  U6  1  0.000000  0.000000  0.249605  1
  U  U7  1  0.000000  0.000000  0.750539  1
  Si  Si8  1  0.836137  0.163863  0.499284  1
  Si  Si9  1  0.836137  0.672273  0.499284  1
  Si  Si10  1  0.327727  0.163863  0.499284  1
  Si  Si11  1  0.833637  0.166363  0.001018  1
  Si  Si12  1  0.833637  0.667274  0.001018  1
  Si  Si13  1  0.332726  0.166363  0.001018  1
  Si  Si14  1  0.165963  0.834037  0.999003  1
  Si  Si15  1  0.668074  0.834037  0.999003  1
  Si  Si16  1  0.165963  0.331926  0.999003  1
  Si  Si17  1  0.167058  0.832942  0.500281  1
  Si  Si18  1  0.665883  0.832942  0.500281  1
  Si  Si19  1  0.167058  0.334117  0.500281  1
  Pt  Pt20  1  0.666667  0.333333  0.478870  1
  Rh  Rh21  1  0.666667  0.333333  0.022512  1
  Rh  Rh22  1  0.333333  0.666667  0.975198  1
  Rh  Rh23  1  0.333333  0.666667  0.525031  1
