# generated using pymatgen
data_Er4MnB16Ir3
_symmetry_space_group_name_H-M   'P 1'
_cell_length_a   3.51887100
_cell_length_b   5.93812691
_cell_length_c   11.50981326
_cell_angle_alpha   89.81216254
_cell_angle_beta   90.00000000
_cell_angle_gamma   90.00000000
_symmetry_Int_Tables_number   1
_chemical_formula_structural   Er4MnB16Ir3
_chemical_formula_sum   'Er4 Mn1 B16 Ir3'
_cell_volume   240.50204018
_cell_formula_units_Z   1
loop_
 _symmetry_equiv_pos_site_id
 _symmetry_equiv_pos_as_xyz
  1  'x, y, z'
loop_
 _atom_site_type_symbol
 _atom_site_label
 _atom_site_symmetry_multiplicity
 _atom_site_fract_x
 _atom_site_fract_y
 _atom_site_fract_z
 _atom_site_occupancy
  Er  Er0  1  0.500000  0.372438  0.148532  1
  Er  Er1  1  0.500000  0.630041  0.855048  1
  Er  Er2  1  0.500000  0.131345  0.648885  1
  Er  Er3  1  0.500000  0.869437  0.344777  1
  Mn  Mn4  1  0.500000  0.858431  0.091970  1
  B  B5  1  0.000000  0.110336  0.048163  1
  B  B6  1  0.000000  0.885144  0.955947  1
  B  B7  1  0.000000  0.387837  0.547019  1
  B  B8  1  0.000000  0.613741  0.451221  1
  B  B9  1  0.000000  0.135976  0.469616  1
  B  B10  1  0.000000  0.864415  0.528890  1
  B  B11  1  0.000000  0.364725  0.971007  1
  B  B12  1  0.000000  0.637431  0.032560  1
  B  B13  1  0.000000  0.021288  0.190259  1
  B  B14  1  0.000000  0.972255  0.809463  1
  B  B15  1  0.000000  0.473956  0.693953  1
  B  B16  1  0.000000  0.525364  0.305180  1
  B  B17  1  0.000000  0.209132  0.310459  1
  B  B18  1  0.000000  0.791526  0.688821  1
  B  B19  1  0.000000  0.291721  0.814545  1
  B  B20  1  0.000000  0.714113  0.183821  1
  Ir  Ir21  1  0.500000  0.356650  0.404183  1
  Ir  Ir22  1  0.500000  0.645729  0.597499  1
  Ir  Ir23  1  0.500000  0.136969  0.908181  1
