# generated using pymatgen
data_NdSm3(GaCo)4
_symmetry_space_group_name_H-M   'P 1'
_cell_length_a   4.51585800
_cell_length_b   7.22866007
_cell_length_c   6.88809000
_cell_angle_alpha   89.99198466
_cell_angle_beta   90.00000000
_cell_angle_gamma   90.00000000
_symmetry_Int_Tables_number   1
_chemical_formula_structural   NdSm3(GaCo)4
_chemical_formula_sum   'Nd1 Sm3 Ga4 Co4'
_cell_volume   224.85206910
_cell_formula_units_Z   1
loop_
 _symmetry_equiv_pos_site_id
 _symmetry_equiv_pos_as_xyz
  1  'x, y, z'
loop_
 _atom_site_type_symbol
 _atom_site_label
 _atom_site_symmetry_multiplicity
 _atom_site_fract_x
 _atom_site_fract_y
 _atom_site_fract_z
 _atom_site_occupancy
  Nd  Nd0  1  0.750000  0.471070  0.309269  1
  Sm  Sm1  1  0.250000  0.029818  0.807113  1
  Sm  Sm2  1  0.250000  0.529745  0.694177  1
  Sm  Sm3  1  0.750000  0.970854  0.192484  1
  Ga  Ga4  1  0.250000  0.187463  0.391965  1
  Ga  Ga5  1  0.250000  0.690778  0.106671  1
  Ga  Ga6  1  0.750000  0.811209  0.609333  1
  Ga  Ga7  1  0.750000  0.310615  0.890554  1
  Co  Co8  1  0.250000  0.847241  0.434001  1
  Co  Co9  1  0.250000  0.346447  0.064351  1
  Co  Co10  1  0.750000  0.151180  0.566865  1
  Co  Co11  1  0.750000  0.653580  0.933218  1
