# generated using pymatgen
data_YbPr4DySi4
_symmetry_space_group_name_H-M   'P 1'
_cell_length_a   7.68992700
_cell_length_b   7.68992700
_cell_length_c   4.42594000
_cell_angle_alpha   90.00000000
_cell_angle_beta   90.00000000
_cell_angle_gamma   90.00000000
_symmetry_Int_Tables_number   1
_chemical_formula_structural   YbPr4DySi4
_chemical_formula_sum   'Yb1 Pr4 Dy1 Si4'
_cell_volume   261.72786128
_cell_formula_units_Z   1
loop_
 _symmetry_equiv_pos_site_id
 _symmetry_equiv_pos_as_xyz
  1  'x, y, z'
loop_
 _atom_site_type_symbol
 _atom_site_label
 _atom_site_symmetry_multiplicity
 _atom_site_fract_x
 _atom_site_fract_y
 _atom_site_fract_z
 _atom_site_occupancy
  Yb  Yb0  1  0.500000  0.500000  0.000000  1
  Pr  Pr1  1  0.675874  0.180162  0.500000  1
  Pr  Pr2  1  0.324126  0.819838  0.500000  1
  Pr  Pr3  1  0.180162  0.324126  0.500000  1
  Pr  Pr4  1  0.819838  0.675874  0.500000  1
  Dy  Dy5  1  0.000000  0.000000  0.000000  1
  Si  Si6  1  0.104971  0.618140  0.000000  1
  Si  Si7  1  0.895029  0.381860  0.000000  1
  Si  Si8  1  0.618140  0.895029  0.000000  1
  Si  Si9  1  0.381860  0.104971  0.000000  1
