# generated using pymatgen
data_La3Ga2Pt3Au
_symmetry_space_group_name_H-M   'P 1'
_cell_length_a   7.48998344
_cell_length_b   7.48998244
_cell_length_c   4.03213600
_cell_angle_alpha   90.00000000
_cell_angle_beta   90.00000000
_cell_angle_gamma   116.89274042
_symmetry_Int_Tables_number   1
_chemical_formula_structural   La3Ga2Pt3Au
_chemical_formula_sum   'La3 Ga2 Pt3 Au1'
_cell_volume   201.73953080
_cell_formula_units_Z   1
loop_
 _symmetry_equiv_pos_site_id
 _symmetry_equiv_pos_as_xyz
  1  'x, y, z'
loop_
 _atom_site_type_symbol
 _atom_site_label
 _atom_site_symmetry_multiplicity
 _atom_site_fract_x
 _atom_site_fract_y
 _atom_site_fract_z
 _atom_site_occupancy
  La  La0  1  0.413278  0.413278  0.500000  1
  La  La1  1  0.596156  0.992682  0.500000  1
  La  La2  1  0.992682  0.596156  0.500000  1
  Ga  Ga3  1  0.244437  0.000934  0.000000  1
  Ga  Ga4  1  0.000934  0.244437  0.000000  1
  Pt  Pt5  1  0.659978  0.307033  0.000000  1
  Pt  Pt6  1  0.307033  0.659978  0.000000  1
  Pt  Pt7  1  0.036554  0.036554  0.500000  1
  Au  Au8  1  0.748947  0.748947  0.000000  1
