# generated using pymatgen
data_InB3O5
_symmetry_space_group_name_H-M   'P 1'
_cell_length_a   5.39917500
_cell_length_b   8.47057500
_cell_length_c   10.60352200
_cell_angle_alpha   90.00000000
_cell_angle_beta   90.00000000
_cell_angle_gamma   90.00000000
_symmetry_Int_Tables_number   1
_chemical_formula_structural   InB3O5
_chemical_formula_sum   'In4 B12 O20'
_cell_volume   484.94271338
_cell_formula_units_Z   4
loop_
 _symmetry_equiv_pos_site_id
 _symmetry_equiv_pos_as_xyz
  1  'x, y, z'
loop_
 _atom_site_type_symbol
 _atom_site_label
 _atom_site_symmetry_multiplicity
 _atom_site_fract_x
 _atom_site_fract_y
 _atom_site_fract_z
 _atom_site_occupancy
  In  In0  1  0.585785  0.752042  0.632420  1
  In  In1  1  0.085785  0.747958  0.367580  1
  In  In2  1  0.414215  0.252042  0.867580  1
  In  In3  1  0.914215  0.247958  0.132420  1
  B  B4  1  0.926509  0.352882  0.641200  1
  B  B5  1  0.426509  0.147118  0.358800  1
  B  B6  1  0.073491  0.852882  0.858800  1
  B  B7  1  0.573491  0.647118  0.141200  1
  B  B8  1  0.961853  0.569056  0.801618  1
  B  B9  1  0.461853  0.930944  0.198382  1
  B  B10  1  0.725929  0.122498  0.538952  1
  B  B11  1  0.225929  0.377502  0.461048  1
  B  B12  1  0.274071  0.622498  0.961048  1
  B  B13  1  0.774071  0.877502  0.038952  1
  B  B14  1  0.038147  0.069056  0.698382  1
  B  B15  1  0.538147  0.430944  0.301618  1
  O  O16  1  0.820618  0.467425  0.731295  1
  O  O17  1  0.274187  0.777992  0.928864  1
  O  O18  1  0.225813  0.222008  0.428864  1
  O  O19  1  0.774187  0.722008  0.071136  1
  O  O20  1  0.424646  0.771257  0.211700  1
  O  O21  1  0.924646  0.728743  0.788300  1
  O  O22  1  0.575354  0.271257  0.288300  1
  O  O23  1  0.075354  0.228743  0.711700  1
  O  O24  1  0.638559  0.987292  0.113422  1
  O  O25  1  0.138559  0.512708  0.886578  1
  O  O26  1  0.361441  0.487292  0.386578  1
  O  O27  1  0.861441  0.012708  0.613422  1
  O  O28  1  0.179382  0.967425  0.768705  1
  O  O29  1  0.679382  0.532575  0.231295  1
  O  O30  1  0.092833  0.441583  0.556775  1
  O  O31  1  0.592833  0.058417  0.443225  1
  O  O32  1  0.907167  0.941583  0.943225  1
  O  O33  1  0.407167  0.558417  0.056775  1
  O  O34  1  0.725813  0.277992  0.571136  1
  O  O35  1  0.320618  0.032575  0.268705  1
