# generated using pymatgen
data_Tb3Dy2Co16(TcP4)3
_symmetry_space_group_name_H-M   'P 1'
_cell_length_a   12.04916701
_cell_length_b   12.04916658
_cell_length_c   3.71680400
_cell_angle_alpha   90.00000000
_cell_angle_beta   90.00000000
_cell_angle_gamma   119.99645597
_symmetry_Int_Tables_number   1
_chemical_formula_structural   Tb3Dy2Co16(TcP4)3
_chemical_formula_sum   'Tb3 Dy2 Co16 Tc3 P12'
_cell_volume   467.33664073
_cell_formula_units_Z   1
loop_
 _symmetry_equiv_pos_site_id
 _symmetry_equiv_pos_as_xyz
  1  'x, y, z'
loop_
 _atom_site_type_symbol
 _atom_site_label
 _atom_site_symmetry_multiplicity
 _atom_site_fract_x
 _atom_site_fract_y
 _atom_site_fract_z
 _atom_site_occupancy
  Tb  Tb0  1  0.666613  0.333301  0.000000  1
  Tb  Tb1  1  0.333301  0.666613  0.000000  1
  Tb  Tb2  1  0.184950  0.184950  0.500000  1
  Dy  Dy3  1  0.814943  0.999975  0.500000  1
  Dy  Dy4  1  0.999975  0.814943  0.500000  1
  Co  Co5  1  0.821138  0.196867  0.000000  1
  Co  Co6  1  0.803136  0.624440  0.000000  1
  Co  Co7  1  0.375959  0.178692  0.000000  1
  Co  Co8  1  0.196867  0.821138  0.000000  1
  Co  Co9  1  0.624440  0.803136  0.000000  1
  Co  Co10  1  0.178692  0.375959  0.000000  1
  Co  Co11  1  0.643208  0.125692  0.500000  1
  Co  Co12  1  0.874293  0.517637  0.500000  1
  Co  Co13  1  0.482592  0.356841  0.500000  1
  Co  Co14  1  0.125692  0.643208  0.500000  1
  Co  Co15  1  0.517637  0.874293  0.500000  1
  Co  Co16  1  0.356841  0.482592  0.500000  1
  Co  Co17  1  0.717995  0.717995  0.500000  1
  Co  Co18  1  0.282104  0.999720  0.500000  1
  Co  Co19  1  0.999720  0.282104  0.500000  1
  Co  Co20  1  0.999844  0.999844  0.000000  1
  Tc  Tc21  1  0.554711  0.554711  0.000000  1
  Tc  Tc22  1  0.445554  0.999908  0.000000  1
  Tc  Tc23  1  0.999908  0.445554  0.000000  1
  P  P24  1  0.363588  0.363588  0.000000  1
  P  P25  1  0.636721  0.999995  0.000000  1
  P  P26  1  0.999995  0.636721  0.000000  1
  P  P27  1  0.835377  0.313963  0.500000  1
  P  P28  1  0.686161  0.521570  0.500000  1
  P  P29  1  0.478454  0.164555  0.500000  1
  P  P30  1  0.313963  0.835377  0.500000  1
  P  P31  1  0.521570  0.686161  0.500000  1
  P  P32  1  0.164555  0.478454  0.500000  1
  P  P33  1  0.821107  0.821107  0.000000  1
  P  P34  1  0.178847  0.999551  0.000000  1
  P  P35  1  0.999551  0.178847  0.000000  1
