# generated using pymatgen
data_Ca2Ni3Ir
_symmetry_space_group_name_H-M   'P 1'
_cell_length_a   5.12874882
_cell_length_b   5.12874864
_cell_length_c   5.16500039
_cell_angle_alpha   60.23191193
_cell_angle_beta   60.23190870
_cell_angle_gamma   60.00000611
_symmetry_Int_Tables_number   1
_chemical_formula_structural   Ca2Ni3Ir
_chemical_formula_sum   'Ca2 Ni3 Ir1'
_cell_volume   96.40325709
_cell_formula_units_Z   1
loop_
 _symmetry_equiv_pos_site_id
 _symmetry_equiv_pos_as_xyz
  1  'x, y, z'
loop_
 _atom_site_type_symbol
 _atom_site_label
 _atom_site_symmetry_multiplicity
 _atom_site_fract_x
 _atom_site_fract_y
 _atom_site_fract_z
 _atom_site_occupancy
  Ca  Ca0  1  0.250407  0.250407  0.248779  1
  Ca  Ca1  1  0.999593  0.999593  0.001221  1
  Ni  Ni2  1  0.625000  0.625000  0.625000  1
  Ni  Ni3  1  0.125000  0.625000  0.625000  1
  Ni  Ni4  1  0.625000  0.125000  0.625000  1
  Ir  Ir5  1  0.625000  0.625000  0.125000  1
