# generated using pymatgen
data_La5Np3O14
_symmetry_space_group_name_H-M   'P 1'
_cell_length_a   6.86336700
_cell_length_b   6.84254395
_cell_length_c   8.05565000
_cell_angle_alpha   90.00000000
_cell_angle_beta   90.00000000
_cell_angle_gamma   109.83978523
_symmetry_Int_Tables_number   1
_chemical_formula_structural   La5Np3O14
_chemical_formula_sum   'La5 Np3 O14'
_cell_volume   355.86174953
_cell_formula_units_Z   1
loop_
 _symmetry_equiv_pos_site_id
 _symmetry_equiv_pos_as_xyz
  1  'x, y, z'
loop_
 _atom_site_type_symbol
 _atom_site_label
 _atom_site_symmetry_multiplicity
 _atom_site_fract_x
 _atom_site_fract_y
 _atom_site_fract_z
 _atom_site_occupancy
  La  La0  1  0.491823  0.497267  0.495074  1
  La  La1  1  0.491823  0.497267  0.004926  1
  La  La2  1  0.529823  0.998732  0.750000  1
  La  La3  1  0.001046  0.530135  0.250000  1
  La  La4  1  0.470643  0.997341  0.250000  1
  Np  Np5  1  0.994229  0.470858  0.750000  1
  Np  Np6  1  0.001623  0.000601  0.503409  1
  Np  Np7  1  0.001623  0.000601  0.996591  1
  O  O8  1  0.668289  0.907655  0.475178  1
  O  O9  1  0.932040  0.670461  0.543280  1
  O  O10  1  0.668289  0.907655  0.024822  1
  O  O11  1  0.932040  0.670461  0.956720  1
  O  O12  1  0.333415  0.091319  0.528763  1
  O  O13  1  0.080510  0.335879  0.479381  1
  O  O14  1  0.333415  0.091319  0.971237  1
  O  O15  1  0.080510  0.335879  0.020619  1
  O  O16  1  0.915359  0.093581  0.750000  1
  O  O17  1  0.079557  0.917116  0.250000  1
  O  O18  1  0.341791  0.615625  0.750000  1
  O  O19  1  0.628462  0.372616  0.250000  1
  O  O20  1  0.658585  0.368475  0.750000  1
  O  O21  1  0.365106  0.629156  0.250000  1
