# generated using pymatgen
data_ErBi3IrRh3O14
_symmetry_space_group_name_H-M   'P 1'
_cell_length_a   7.27385136
_cell_length_b   7.32566342
_cell_length_c   7.32566177
_cell_angle_alpha   59.99273819
_cell_angle_beta   59.88443849
_cell_angle_gamma   59.88444511
_symmetry_Int_Tables_number   1
_chemical_formula_structural   ErBi3IrRh3O14
_chemical_formula_sum   'Er1 Bi3 Ir1 Rh3 O14'
_cell_volume   275.52354245
_cell_formula_units_Z   1
loop_
 _symmetry_equiv_pos_site_id
 _symmetry_equiv_pos_as_xyz
  1  'x, y, z'
loop_
 _atom_site_type_symbol
 _atom_site_label
 _atom_site_symmetry_multiplicity
 _atom_site_fract_x
 _atom_site_fract_y
 _atom_site_fract_z
 _atom_site_occupancy
  Er  Er0  1  0.625000  0.125000  0.125000  1
  Bi  Bi1  1  0.125000  0.125000  0.125000  1
  Bi  Bi2  1  0.125000  0.625000  0.125000  1
  Bi  Bi3  1  0.125000  0.125000  0.625000  1
  Ir  Ir4  1  0.625000  0.625000  0.625000  1
  Rh  Rh5  1  0.625000  0.625000  0.125000  1
  Rh  Rh6  1  0.125000  0.625000  0.625000  1
  Rh  Rh7  1  0.625000  0.125000  0.625000  1
  O  O8  1  0.259347  0.247580  0.247580  1
  O  O9  1  0.291463  0.706747  0.291605  1
  O  O10  1  0.958537  0.958395  0.543253  1
  O  O11  1  0.546473  0.957498  0.533479  1
  O  O12  1  0.703527  0.716521  0.292502  1
  O  O13  1  0.953171  0.543970  0.543970  1
  O  O14  1  0.703527  0.292502  0.716521  1
  O  O15  1  0.291463  0.291605  0.706747  1
  O  O16  1  0.703878  0.288083  0.288083  1
  O  O17  1  0.296829  0.706030  0.706030  1
  O  O18  1  0.958537  0.543253  0.958395  1
  O  O19  1  0.546473  0.533479  0.957498  1
  O  O20  1  0.990653  0.002420  0.002420  1
  O  O21  1  0.546122  0.961917  0.961917  1
