# generated using pymatgen
data_DyYCo5Si2NiB2
_symmetry_space_group_name_H-M   'P 1'
_cell_length_a   5.13650500
_cell_length_b   5.13700685
_cell_length_c   6.44363800
_cell_angle_alpha   90.00000000
_cell_angle_beta   90.00000000
_cell_angle_gamma   119.99677486
_symmetry_Int_Tables_number   1
_chemical_formula_structural   DyYCo5Si2NiB2
_chemical_formula_sum   'Dy1 Y1 Co5 Si2 Ni1 B2'
_cell_volume   147.24946938
_cell_formula_units_Z   1
loop_
 _symmetry_equiv_pos_site_id
 _symmetry_equiv_pos_as_xyz
  1  'x, y, z'
loop_
 _atom_site_type_symbol
 _atom_site_label
 _atom_site_symmetry_multiplicity
 _atom_site_fract_x
 _atom_site_fract_y
 _atom_site_fract_z
 _atom_site_occupancy
  Dy  Dy0  1  0.999984  0.000000  0.500592  1
  Y  Y1  1  0.999979  0.000000  0.996110  1
  Co  Co2  1  0.499982  0.499999  0.283673  1
  Co  Co3  1  0.999982  0.500001  0.283673  1
  Co  Co4  1  0.499981  0.000000  0.720114  1
  Co  Co5  1  0.499982  0.500000  0.715045  1
  Co  Co6  1  0.999981  0.500000  0.715045  1
  Si  Si7  1  0.330711  0.661461  0.998564  1
  Si  Si8  1  0.669250  0.338539  0.998564  1
  Ni  Ni9  1  0.500002  0.000000  0.283391  1
  B  B10  1  0.331709  0.663455  0.502614  1
  B  B11  1  0.668255  0.336545  0.502614  1
