# generated using pymatgen
data_LiNd16In3Ir4
_symmetry_space_group_name_H-M   'P 1'
_cell_length_a   10.00419576
_cell_length_b   10.00419488
_cell_length_c   10.00419533
_cell_angle_alpha   59.98653925
_cell_angle_beta   59.98653339
_cell_angle_gamma   59.98654111
_symmetry_Int_Tables_number   1
_chemical_formula_structural   LiNd16In3Ir4
_chemical_formula_sum   'Li1 Nd16 In3 Ir4'
_cell_volume   707.78100489
_cell_formula_units_Z   1
loop_
 _symmetry_equiv_pos_site_id
 _symmetry_equiv_pos_as_xyz
  1  'x, y, z'
loop_
 _atom_site_type_symbol
 _atom_site_label
 _atom_site_symmetry_multiplicity
 _atom_site_fract_x
 _atom_site_fract_y
 _atom_site_fract_z
 _atom_site_occupancy
  Li  Li0  1  0.320178  0.320178  0.320178  1
  Nd  Nd1  1  0.098805  0.705330  0.098805  1
  Nd  Nd2  1  0.942091  0.942091  0.557988  1
  Nd  Nd3  1  0.942091  0.557988  0.942091  1
  Nd  Nd4  1  0.310282  0.693673  0.310282  1
  Nd  Nd5  1  0.936928  0.560955  0.560955  1
  Nd  Nd6  1  0.310282  0.310282  0.693673  1
  Nd  Nd7  1  0.098791  0.098791  0.098791  1
  Nd  Nd8  1  0.560955  0.560955  0.936928  1
  Nd  Nd9  1  0.098805  0.098805  0.705330  1
  Nd  Nd10  1  0.691950  0.307119  0.691950  1
  Nd  Nd11  1  0.691950  0.691950  0.307119  1
  Nd  Nd12  1  0.693673  0.310282  0.310282  1
  Nd  Nd13  1  0.307119  0.691950  0.691950  1
  Nd  Nd14  1  0.560955  0.936928  0.560955  1
  Nd  Nd15  1  0.705330  0.098805  0.098805  1
  Nd  Nd16  1  0.557988  0.942091  0.942091  1
  In  In17  1  0.005939  0.331305  0.331305  1
  In  In18  1  0.331305  0.005939  0.331305  1
  In  In19  1  0.331305  0.331305  0.005939  1
  Ir  Ir20  1  0.892505  0.892505  0.892505  1
  Ir  Ir21  1  0.892707  0.892707  0.325356  1
  Ir  Ir22  1  0.325356  0.892707  0.892707  1
  Ir  Ir23  1  0.892707  0.325356  0.892707  1
