# generated using pymatgen
data_Pa3V(Co4P3)2
_symmetry_space_group_name_H-M   'P 1'
_cell_length_a   3.75853200
_cell_length_b   10.51414000
_cell_length_c   12.25717200
_cell_angle_alpha   90.00000000
_cell_angle_beta   90.00000000
_cell_angle_gamma   90.00000000
_symmetry_Int_Tables_number   1
_chemical_formula_structural   Pa3V(Co4P3)2
_chemical_formula_sum   'Pa6 V2 Co16 P12'
_cell_volume   484.37563379
_cell_formula_units_Z   2
loop_
 _symmetry_equiv_pos_site_id
 _symmetry_equiv_pos_as_xyz
  1  'x, y, z'
loop_
 _atom_site_type_symbol
 _atom_site_label
 _atom_site_symmetry_multiplicity
 _atom_site_fract_x
 _atom_site_fract_y
 _atom_site_fract_z
 _atom_site_occupancy
  Pa  Pa0  1  0.000000  0.500000  0.522805  1
  Pa  Pa1  1  0.500000  0.000000  0.477195  1
  Pa  Pa2  1  0.500000  0.818512  0.207683  1
  Pa  Pa3  1  0.500000  0.181488  0.207683  1
  Pa  Pa4  1  0.000000  0.681488  0.792317  1
  Pa  Pa5  1  0.000000  0.318512  0.792317  1
  V  V6  1  0.500000  0.500000  0.150688  1
  V  V7  1  0.000000  0.000000  0.849312  1
  Co  Co8  1  0.000000  0.500000  0.982557  1
  Co  Co9  1  0.500000  0.000000  0.017443  1
  Co  Co10  1  0.500000  0.302309  0.428983  1
  Co  Co11  1  0.500000  0.697691  0.428983  1
  Co  Co12  1  0.000000  0.197691  0.571017  1
  Co  Co13  1  0.000000  0.802309  0.571017  1
  Co  Co14  1  0.500000  0.877529  0.713921  1
  Co  Co15  1  0.500000  0.122471  0.713921  1
  Co  Co16  1  0.000000  0.622471  0.286079  1
  Co  Co17  1  0.000000  0.377529  0.286079  1
  Co  Co18  1  0.500000  0.331957  0.991028  1
  Co  Co19  1  0.500000  0.668043  0.991028  1
  Co  Co20  1  0.000000  0.168043  0.008972  1
  Co  Co21  1  0.000000  0.831957  0.008972  1
  Co  Co22  1  0.500000  0.500000  0.699592  1
  Co  Co23  1  0.000000  0.000000  0.300408  1
  P  P24  1  0.500000  0.308787  0.612730  1
  P  P25  1  0.500000  0.691213  0.612730  1
  P  P26  1  0.000000  0.191213  0.387270  1
  P  P27  1  0.000000  0.808787  0.387270  1
  P  P28  1  0.500000  0.500000  0.881722  1
  P  P29  1  0.000000  0.000000  0.118278  1
  P  P30  1  0.500000  0.847996  0.896173  1
  P  P31  1  0.500000  0.152004  0.896173  1
  P  P32  1  0.000000  0.652004  0.103827  1
  P  P33  1  0.000000  0.347996  0.103827  1
  P  P34  1  0.500000  0.500000  0.339869  1
  P  P35  1  0.000000  0.000000  0.660131  1
