# generated using pymatgen
data_SmY5Sn5Sb2AsPd16
_symmetry_space_group_name_H-M   'P 1'
_cell_length_a   9.36413129
_cell_length_b   9.36412266
_cell_length_c   9.36412700
_cell_angle_alpha   60.00014364
_cell_angle_beta   60.00005403
_cell_angle_gamma   59.99997584
_symmetry_Int_Tables_number   1
_chemical_formula_structural   SmY5Sn5Sb2AsPd16
_chemical_formula_sum   'Sm1 Y5 Sn5 Sb2 As1 Pd16'
_cell_volume   580.61393517
_cell_formula_units_Z   1
loop_
 _symmetry_equiv_pos_site_id
 _symmetry_equiv_pos_as_xyz
  1  'x, y, z'
loop_
 _atom_site_type_symbol
 _atom_site_label
 _atom_site_symmetry_multiplicity
 _atom_site_fract_x
 _atom_site_fract_y
 _atom_site_fract_z
 _atom_site_occupancy
  Sm  Sm0  1  0.715909  0.284091  0.284090  1
  Y  Y1  1  0.282811  0.717188  0.717190  1
  Y  Y2  1  0.283878  0.716122  0.284248  1
  Y  Y3  1  0.715752  0.284250  0.716121  1
  Y  Y4  1  0.283724  0.284219  0.716277  1
  Y  Y5  1  0.715781  0.716276  0.284219  1
  Sn  Sn6  1  0.999946  0.000053  0.000054  1
  Sn  Sn7  1  0.500157  0.999844  0.999844  1
  Sn  Sn8  1  0.000156  0.499845  0.499844  1
  Sn  Sn9  1  0.000486  0.500406  0.999514  1
  Sn  Sn10  1  0.499595  0.999513  0.500405  1
  Sb  Sb11  1  0.000606  0.999394  0.500865  1
  Sb  Sb12  1  0.499135  0.500864  0.999394  1
  As  As13  1  0.497328  0.502672  0.502672  1
  Pd  Pd14  1  0.123746  0.120052  0.115423  1
  Pd  Pd15  1  0.878747  0.879350  0.883782  1
  Pd  Pd16  1  0.120650  0.121254  0.641880  1
  Pd  Pd17  1  0.116218  0.641880  0.121253  1
  Pd  Pd18  1  0.879949  0.876253  0.359221  1
  Pd  Pd19  1  0.884576  0.359221  0.876255  1
  Pd  Pd20  1  0.640780  0.115424  0.120050  1
  Pd  Pd21  1  0.358120  0.883782  0.879350  1
  Pd  Pd22  1  0.333463  0.333499  0.330981  1
  Pd  Pd23  1  0.665892  0.666020  0.668523  1
  Pd  Pd24  1  0.333979  0.334106  0.000438  1
  Pd  Pd25  1  0.331477  0.000436  0.334107  1
  Pd  Pd26  1  0.666501  0.666537  0.997943  1
  Pd  Pd27  1  0.669019  0.997946  0.666535  1
  Pd  Pd28  1  0.002056  0.330980  0.333500  1
  Pd  Pd29  1  0.999565  0.668523  0.666020  1
