# generated using pymatgen
data_CaY11(InAg)6
_symmetry_space_group_name_H-M   'P 1'
_cell_length_a   5.27602700
_cell_length_b   7.37897700
_cell_length_c   15.96903600
_cell_angle_alpha   90.00105543
_cell_angle_beta   89.99832782
_cell_angle_gamma   89.99989136
_symmetry_Int_Tables_number   1
_chemical_formula_structural   CaY11(InAg)6
_chemical_formula_sum   'Ca1 Y11 In6 Ag6'
_cell_volume   621.70142937
_cell_formula_units_Z   1
loop_
 _symmetry_equiv_pos_site_id
 _symmetry_equiv_pos_as_xyz
  1  'x, y, z'
loop_
 _atom_site_type_symbol
 _atom_site_label
 _atom_site_symmetry_multiplicity
 _atom_site_fract_x
 _atom_site_fract_y
 _atom_site_fract_z
 _atom_site_occupancy
  Ca  Ca0  1  0.499995  0.249818  0.999990  1
  Y  Y1  1  0.499995  0.746401  0.999982  1
  Y  Y2  1  0.000006  0.248969  0.164836  1
  Y  Y3  1  0.000018  0.750810  0.166111  1
  Y  Y4  1  0.499998  0.251643  0.332879  1
  Y  Y5  1  0.499999  0.750122  0.334158  1
  Y  Y6  1  0.999994  0.249317  0.500008  1
  Y  Y7  1  0.999996  0.751048  0.500002  1
  Y  Y8  1  0.499991  0.251640  0.667134  1
  Y  Y9  1  0.499990  0.750090  0.665859  1
  Y  Y10  1  0.999994  0.248959  0.835142  1
  Y  Y11  1  0.999985  0.750808  0.833880  1
  In  In12  1  0.999990  0.996797  0.000019  1
  In  In13  1  0.499989  0.500698  0.168243  1
  In  In14  1  0.000008  0.000782  0.333409  1
  In  In15  1  0.500020  0.500180  0.500025  1
  In  In16  1  0.000068  0.000608  0.666500  1
  In  In17  1  0.500027  0.500638  0.831858  1
  Ag  Ag18  1  0.999989  0.505000  0.999960  1
  Ag  Ag19  1  0.500322  0.997293  0.167675  1
  Ag  Ag20  1  0.000389  0.500544  0.333253  1
  Ag  Ag21  1  0.499993  0.000022  0.500046  1
  Ag  Ag22  1  0.999586  0.500537  0.666743  1
  Ag  Ag23  1  0.499647  0.997276  0.832291  1
