# generated using pymatgen
data_Gd8Si5Se
_symmetry_space_group_name_H-M   'P 1'
_cell_length_a   7.67162286
_cell_length_b   7.67162218
_cell_length_c   7.67162185
_cell_angle_alpha   109.52715550
_cell_angle_beta   109.52715501
_cell_angle_gamma   109.35940708
_symmetry_Int_Tables_number   1
_chemical_formula_structural   Gd8Si5Se
_chemical_formula_sum   'Gd8 Si5 Se1'
_cell_volume   347.56698678
_cell_formula_units_Z   1
loop_
 _symmetry_equiv_pos_site_id
 _symmetry_equiv_pos_as_xyz
  1  'x, y, z'
loop_
 _atom_site_type_symbol
 _atom_site_label
 _atom_site_symmetry_multiplicity
 _atom_site_fract_x
 _atom_site_fract_y
 _atom_site_fract_z
 _atom_site_occupancy
  Gd  Gd0  1  0.497162  0.998280  0.361000  1
  Gd  Gd1  1  0.631330  0.628576  0.633011  1
  Gd  Gd2  1  0.001680  0.368670  0.497245  1
  Gd  Gd3  1  0.371424  0.504435  0.002755  1
  Gd  Gd4  1  0.001720  0.862719  0.498882  1
  Gd  Gd5  1  0.863837  0.502838  0.001118  1
  Gd  Gd6  1  0.495565  0.998320  0.866989  1
  Gd  Gd7  1  0.137281  0.136163  0.139000  1
  Si  Si8  1  0.374660  0.247705  0.625820  1
  Si  Si9  1  0.121885  0.748841  0.874180  1
  Si  Si10  1  0.752295  0.878115  0.126955  1
  Si  Si11  1  0.251159  0.625340  0.373045  1
  Si  Si12  1  0.625000  0.375000  0.250000  1
  Se  Se13  1  0.875000  0.125000  0.750000  1
