# generated using pymatgen
data_Y4Er16Cd6TcRu
_symmetry_space_group_name_H-M   'P 1'
_cell_length_a   9.52837002
_cell_length_b   9.52934761
_cell_length_c   9.85051900
_cell_angle_alpha   90.00000000
_cell_angle_beta   90.00000000
_cell_angle_gamma   120.00339880
_symmetry_Int_Tables_number   1
_chemical_formula_structural   Y4Er16Cd6TcRu
_chemical_formula_sum   'Y4 Er16 Cd6 Tc1 Ru1'
_cell_volume   774.56283162
_cell_formula_units_Z   1
loop_
 _symmetry_equiv_pos_site_id
 _symmetry_equiv_pos_as_xyz
  1  'x, y, z'
loop_
 _atom_site_type_symbol
 _atom_site_label
 _atom_site_symmetry_multiplicity
 _atom_site_fract_x
 _atom_site_fract_y
 _atom_site_fract_z
 _atom_site_occupancy
  Y  Y0  1  0.539700  0.460328  0.250000  1
  Y  Y1  1  0.539700  0.079372  0.250000  1
  Y  Y2  1  0.920663  0.460332  0.250000  1
  Y  Y3  1  0.082553  0.541277  0.750000  1
  Er  Er4  1  0.999905  0.999952  0.500147  1
  Er  Er5  1  0.999905  0.999952  0.999853  1
  Er  Er6  1  0.210151  0.790347  0.441728  1
  Er  Er7  1  0.210151  0.419804  0.441728  1
  Er  Er8  1  0.580020  0.790010  0.441984  1
  Er  Er9  1  0.789539  0.209695  0.559184  1
  Er  Er10  1  0.789539  0.579842  0.559184  1
  Er  Er11  1  0.420163  0.210081  0.559283  1
  Er  Er12  1  0.789539  0.209695  0.940816  1
  Er  Er13  1  0.789539  0.579842  0.940816  1
  Er  Er14  1  0.420163  0.210081  0.940717  1
  Er  Er15  1  0.210151  0.790347  0.058272  1
  Er  Er16  1  0.210151  0.419804  0.058272  1
  Er  Er17  1  0.580020  0.790010  0.058016  1
  Er  Er18  1  0.459490  0.541040  0.750000  1
  Er  Er19  1  0.459490  0.918451  0.750000  1
  Cd  Cd20  1  0.885826  0.114170  0.250000  1
  Cd  Cd21  1  0.885826  0.771657  0.250000  1
  Cd  Cd22  1  0.228295  0.114148  0.250000  1
  Cd  Cd23  1  0.114439  0.886075  0.750000  1
  Cd  Cd24  1  0.114439  0.228364  0.750000  1
  Cd  Cd25  1  0.771120  0.885560  0.750000  1
  Tc  Tc26  1  0.333249  0.666625  0.250000  1
  Ru  Ru27  1  0.666275  0.333137  0.750000  1
