# generated using pymatgen
data_Y2MgZrRh2
_symmetry_space_group_name_H-M   'P 1'
_cell_length_a   4.50911300
_cell_length_b   7.02398359
_cell_length_c   8.34915687
_cell_angle_alpha   93.81010288
_cell_angle_beta   90.00000000
_cell_angle_gamma   90.00000000
_symmetry_Int_Tables_number   1
_chemical_formula_structural   Y2MgZrRh2
_chemical_formula_sum   'Y4 Mg2 Zr2 Rh4'
_cell_volume   263.84949892
_cell_formula_units_Z   2
loop_
 _symmetry_equiv_pos_site_id
 _symmetry_equiv_pos_as_xyz
  1  'x, y, z'
loop_
 _atom_site_type_symbol
 _atom_site_label
 _atom_site_symmetry_multiplicity
 _atom_site_fract_x
 _atom_site_fract_y
 _atom_site_fract_z
 _atom_site_occupancy
  Y  Y0  1  0.250000  0.526137  0.187912  1
  Y  Y1  1  0.750000  0.473863  0.812088  1
  Y  Y2  1  0.250000  0.023344  0.334653  1
  Y  Y3  1  0.750000  0.976656  0.665347  1
  Mg  Mg4  1  0.250000  0.645407  0.571254  1
  Mg  Mg5  1  0.750000  0.354593  0.428746  1
  Zr  Zr6  1  0.250000  0.134768  0.925006  1
  Zr  Zr7  1  0.750000  0.865232  0.074994  1
  Rh  Rh8  1  0.750000  0.740281  0.376385  1
  Rh  Rh9  1  0.250000  0.259719  0.623615  1
  Rh  Rh10  1  0.750000  0.240147  0.088886  1
  Rh  Rh11  1  0.250000  0.759853  0.911114  1
