# generated using pymatgen
data_Ac2MgSi2
_symmetry_space_group_name_H-M   'P 1'
_cell_length_a   7.72909300
_cell_length_b   7.72909300
_cell_length_c   4.66571600
_cell_angle_alpha   90.00000000
_cell_angle_beta   90.00000000
_cell_angle_gamma   90.00000000
_symmetry_Int_Tables_number   1
_chemical_formula_structural   Ac2MgSi2
_chemical_formula_sum   'Ac4 Mg2 Si4'
_cell_volume   278.72464172
_cell_formula_units_Z   2
loop_
 _symmetry_equiv_pos_site_id
 _symmetry_equiv_pos_as_xyz
  1  'x, y, z'
loop_
 _atom_site_type_symbol
 _atom_site_label
 _atom_site_symmetry_multiplicity
 _atom_site_fract_x
 _atom_site_fract_y
 _atom_site_fract_z
 _atom_site_occupancy
  Ac  Ac0  1  0.680573  0.180573  0.500000  1
  Ac  Ac1  1  0.319427  0.819427  0.500000  1
  Ac  Ac2  1  0.180573  0.319427  0.500000  1
  Ac  Ac3  1  0.819427  0.680573  0.500000  1
  Mg  Mg4  1  0.000000  0.000000  0.000000  1
  Mg  Mg5  1  0.500000  0.500000  0.000000  1
  Si  Si6  1  0.111449  0.611449  0.000000  1
  Si  Si7  1  0.888551  0.388551  0.000000  1
  Si  Si8  1  0.611449  0.888551  0.000000  1
  Si  Si9  1  0.388551  0.111449  0.000000  1
