# generated using pymatgen
data_La2YSi4(PPd10)2
_symmetry_space_group_name_H-M   'P 1'
_cell_length_a   8.76370120
_cell_length_b   8.76370143
_cell_length_c   8.76227900
_cell_angle_alpha   60.00536522
_cell_angle_beta   60.00536435
_cell_angle_gamma   59.98926322
_symmetry_Int_Tables_number   1
_chemical_formula_structural   La2YSi4(PPd10)2
_chemical_formula_sum   'La2 Y1 Si4 P2 Pd20'
_cell_volume   475.85777320
_cell_formula_units_Z   1
loop_
 _symmetry_equiv_pos_site_id
 _symmetry_equiv_pos_as_xyz
  1  'x, y, z'
loop_
 _atom_site_type_symbol
 _atom_site_label
 _atom_site_symmetry_multiplicity
 _atom_site_fract_x
 _atom_site_fract_y
 _atom_site_fract_z
 _atom_site_occupancy
  La  La0  1  0.250000  0.250000  0.250000  1
  La  La1  1  0.750000  0.750000  0.750000  1
  Y  Y2  1  0.000000  0.000000  0.000000  1
  Si  Si3  1  0.735541  0.264459  0.264459  1
  Si  Si4  1  0.264459  0.735541  0.735541  1
  Si  Si5  1  0.264459  0.735541  0.264459  1
  Si  Si6  1  0.735541  0.264459  0.735541  1
  P  P7  1  0.263830  0.263830  0.736170  1
  P  P8  1  0.736170  0.736170  0.263830  1
  Pd  Pd9  1  0.385465  0.385465  0.387228  1
  Pd  Pd10  1  0.614535  0.614535  0.612772  1
  Pd  Pd11  1  0.385465  0.385465  0.841841  1
  Pd  Pd12  1  0.387228  0.841841  0.385465  1
  Pd  Pd13  1  0.614535  0.614535  0.158159  1
  Pd  Pd14  1  0.612772  0.158159  0.614535  1
  Pd  Pd15  1  0.841841  0.387228  0.385465  1
  Pd  Pd16  1  0.158159  0.612772  0.614535  1
  Pd  Pd17  1  0.345489  0.001421  0.998579  1
  Pd  Pd18  1  0.654511  0.998579  0.001421  1
  Pd  Pd19  1  0.001421  0.345489  0.654511  1
  Pd  Pd20  1  0.998579  0.654511  0.345489  1
  Pd  Pd21  1  0.001421  0.345489  0.998579  1
  Pd  Pd22  1  0.654511  0.998579  0.345489  1
  Pd  Pd23  1  0.998579  0.654511  0.001421  1
  Pd  Pd24  1  0.345489  0.001421  0.654511  1
  Pd  Pd25  1  0.000000  0.000000  0.346752  1
  Pd  Pd26  1  0.000000  0.000000  0.653248  1
  Pd  Pd27  1  0.653248  0.346752  0.000000  1
  Pd  Pd28  1  0.346752  0.653248  0.000000  1
