# generated using pymatgen
data_Tm4InOs
_symmetry_space_group_name_H-M   'P 1'
_cell_length_a   9.54648566
_cell_length_b   9.54648500
_cell_length_c   9.54648500
_cell_angle_alpha   59.99999653
_cell_angle_beta   59.99999882
_cell_angle_gamma   59.99999693
_symmetry_Int_Tables_number   1
_chemical_formula_structural   Tm4InOs
_chemical_formula_sum   'Tm16 In4 Os4'
_cell_volume   615.19881513
_cell_formula_units_Z   4
loop_
 _symmetry_equiv_pos_site_id
 _symmetry_equiv_pos_as_xyz
  1  'x, y, z'
loop_
 _atom_site_type_symbol
 _atom_site_label
 _atom_site_symmetry_multiplicity
 _atom_site_fract_x
 _atom_site_fract_y
 _atom_site_fract_z
 _atom_site_occupancy
  Tm  Tm0  1  0.052529  0.052529  0.447471  1
  Tm  Tm1  1  0.447471  0.052529  0.447471  1
  Tm  Tm2  1  0.052529  0.447471  0.052529  1
  Tm  Tm3  1  0.045170  0.651610  0.651610  1
  Tm  Tm4  1  0.447471  0.447471  0.052529  1
  Tm  Tm5  1  0.651610  0.045170  0.651610  1
  Tm  Tm6  1  0.192627  0.807373  0.192627  1
  Tm  Tm7  1  0.192627  0.192627  0.807373  1
  Tm  Tm8  1  0.807373  0.807373  0.192627  1
  Tm  Tm9  1  0.447471  0.052529  0.052529  1
  Tm  Tm10  1  0.807373  0.192627  0.192627  1
  Tm  Tm11  1  0.052529  0.447471  0.447471  1
  Tm  Tm12  1  0.807373  0.192627  0.807373  1
  Tm  Tm13  1  0.192627  0.807373  0.807373  1
  Tm  Tm14  1  0.651610  0.651610  0.045170  1
  Tm  Tm15  1  0.651610  0.651610  0.651610  1
  In  In16  1  0.416546  0.416546  0.416546  1
  In  In17  1  0.750362  0.416546  0.416546  1
  In  In18  1  0.416546  0.750362  0.416546  1
  In  In19  1  0.416546  0.416546  0.750362  1
  Os  Os20  1  0.860962  0.860962  0.417114  1
  Os  Os21  1  0.860962  0.860962  0.860962  1
  Os  Os22  1  0.417114  0.860962  0.860962  1
  Os  Os23  1  0.860962  0.417114  0.860962  1
