# generated using pymatgen
data_HoPa5(AlPt)6
_symmetry_space_group_name_H-M   'P 1'
_cell_length_a   7.05059911
_cell_length_b   7.04458568
_cell_length_c   8.37013200
_cell_angle_alpha   90.00000000
_cell_angle_beta   90.00000000
_cell_angle_gamma   120.17981741
_symmetry_Int_Tables_number   1
_chemical_formula_structural   HoPa5(AlPt)6
_chemical_formula_sum   'Ho1 Pa5 Al6 Pt6'
_cell_volume   359.38060609
_cell_formula_units_Z   1
loop_
 _symmetry_equiv_pos_site_id
 _symmetry_equiv_pos_as_xyz
  1  'x, y, z'
loop_
 _atom_site_type_symbol
 _atom_site_label
 _atom_site_symmetry_multiplicity
 _atom_site_fract_x
 _atom_site_fract_y
 _atom_site_fract_z
 _atom_site_occupancy
  Ho  Ho0  1  0.414073  0.414157  0.250000  1
  Pa  Pa1  1  0.998670  0.579584  0.750000  1
  Pa  Pa2  1  0.001334  0.577159  0.250000  1
  Pa  Pa3  1  0.577791  0.002018  0.250000  1
  Pa  Pa4  1  0.579861  0.998098  0.750000  1
  Pa  Pa5  1  0.427476  0.428110  0.750000  1
  Al  Al6  1  0.003131  0.238672  0.498904  1
  Al  Al7  1  0.758376  0.758567  0.002388  1
  Al  Al8  1  0.003131  0.238672  0.001096  1
  Al  Al9  1  0.239464  0.003591  0.498913  1
  Al  Al10  1  0.239464  0.003591  0.001087  1
  Al  Al11  1  0.758376  0.758567  0.497612  1
  Pt  Pt12  1  0.330969  0.671749  0.500658  1
  Pt  Pt13  1  0.671660  0.331696  0.501282  1
  Pt  Pt14  1  0.671660  0.331696  0.998718  1
  Pt  Pt15  1  0.991592  0.991061  0.250000  1
  Pt  Pt16  1  0.002002  0.001262  0.750000  1
  Pt  Pt17  1  0.330969  0.671749  0.999342  1
