# generated using pymatgen
data_BaAuF7
_symmetry_space_group_name_H-M   'P 1'
_cell_length_a   10.04557100
_cell_length_b   5.70372832
_cell_length_c   10.38893517
_cell_angle_alpha   88.60266929
_cell_angle_beta   90.00000000
_cell_angle_gamma   90.00000000
_symmetry_Int_Tables_number   1
_chemical_formula_structural   BaAuF7
_chemical_formula_sum   'Ba4 Au4 F28'
_cell_volume   595.07996392
_cell_formula_units_Z   4
loop_
 _symmetry_equiv_pos_site_id
 _symmetry_equiv_pos_as_xyz
  1  'x, y, z'
loop_
 _atom_site_type_symbol
 _atom_site_label
 _atom_site_symmetry_multiplicity
 _atom_site_fract_x
 _atom_site_fract_y
 _atom_site_fract_z
 _atom_site_occupancy
  Ba  Ba0  1  0.325396  0.689538  0.494630  1
  Ba  Ba1  1  0.825396  0.310462  0.005370  1
  Ba  Ba2  1  0.674604  0.310462  0.505370  1
  Ba  Ba3  1  0.174604  0.689538  0.994630  1
  Au  Au4  1  0.614556  0.820945  0.812640  1
  Au  Au5  1  0.385444  0.179055  0.187360  1
  Au  Au6  1  0.885444  0.820945  0.312640  1
  Au  Au7  1  0.114556  0.179055  0.687360  1
  F  F8  1  0.454740  0.886774  0.124186  1
  F  F9  1  0.046770  0.651842  0.363525  1
  F  F10  1  0.693818  0.526052  0.754124  1
  F  F11  1  0.306182  0.473948  0.245876  1
  F  F12  1  0.454078  0.113569  0.361494  1
  F  F13  1  0.810045  0.758327  0.483717  1
  F  F14  1  0.771516  0.004884  0.761507  1
  F  F15  1  0.954078  0.886431  0.138506  1
  F  F16  1  0.453230  0.651842  0.863525  1
  F  F17  1  0.193818  0.473948  0.745876  1
  F  F18  1  0.045260  0.886774  0.624186  1
  F  F19  1  0.545260  0.113226  0.875814  1
  F  F20  1  0.271516  0.995116  0.738493  1
  F  F21  1  0.952586  0.631614  0.896952  1
  F  F22  1  0.545922  0.886431  0.638506  1
  F  F23  1  0.045922  0.113569  0.861494  1
  F  F24  1  0.228484  0.995116  0.238493  1
  F  F25  1  0.954740  0.113226  0.375814  1
  F  F26  1  0.452586  0.368386  0.603048  1
  F  F27  1  0.953230  0.348158  0.636475  1
  F  F28  1  0.047414  0.368386  0.103048  1
  F  F29  1  0.728484  0.004884  0.261507  1
  F  F30  1  0.547414  0.631614  0.396952  1
  F  F31  1  0.310045  0.241673  0.016283  1
  F  F32  1  0.189955  0.241673  0.516283  1
  F  F33  1  0.689955  0.758327  0.983717  1
  F  F34  1  0.546770  0.348158  0.136475  1
  F  F35  1  0.806182  0.526052  0.254124  1
