# generated using pymatgen
data_Sc5ReAs2
_symmetry_space_group_name_H-M   'P 1'
_cell_length_a   5.84695900
_cell_length_b   7.84396529
_cell_length_c   8.00527933
_cell_angle_alpha   119.33562591
_cell_angle_beta   90.00000000
_cell_angle_gamma   90.00000000
_symmetry_Int_Tables_number   1
_chemical_formula_structural   Sc5ReAs2
_chemical_formula_sum   'Sc10 Re2 As4'
_cell_volume   320.06746984
_cell_formula_units_Z   2
loop_
 _symmetry_equiv_pos_site_id
 _symmetry_equiv_pos_as_xyz
  1  'x, y, z'
loop_
 _atom_site_type_symbol
 _atom_site_label
 _atom_site_symmetry_multiplicity
 _atom_site_fract_x
 _atom_site_fract_y
 _atom_site_fract_z
 _atom_site_occupancy
  Sc  Sc0  1  0.000000  0.662194  0.324387  1
  Sc  Sc1  1  0.000000  0.337806  0.675613  1
  Sc  Sc2  1  0.500000  0.337806  0.675613  1
  Sc  Sc3  1  0.500000  0.662194  0.324387  1
  Sc  Sc4  1  0.750000  0.742882  0.765775  1
  Sc  Sc5  1  0.250000  0.257118  0.234225  1
  Sc  Sc6  1  0.750000  0.977108  0.234225  1
  Sc  Sc7  1  0.250000  0.022892  0.765775  1
  Sc  Sc8  1  0.750000  0.250857  0.000000  1
  Sc  Sc9  1  0.250000  0.749143  0.000000  1
  Re  Re10  1  0.750000  0.591253  0.000000  1
  Re  Re11  1  0.250000  0.408747  0.000000  1
  As  As12  1  0.750000  0.379004  0.388380  1
  As  As13  1  0.250000  0.620996  0.611620  1
  As  As14  1  0.750000  0.990625  0.611620  1
  As  As15  1  0.250000  0.009375  0.388380  1
