# generated using pymatgen
data_Nd3YSi2(P4O15)2
_symmetry_space_group_name_H-M   'P 1'
_cell_length_a   5.68984023
_cell_length_b   7.21081175
_cell_length_c   16.68494237
_cell_angle_alpha   90.33931467
_cell_angle_beta   90.09310762
_cell_angle_gamma   89.95950613
_symmetry_Int_Tables_number   1
_chemical_formula_structural   Nd3YSi2(P4O15)2
_chemical_formula_sum   'Nd3 Y1 Si2 P8 O30'
_cell_volume   684.54285995
_cell_formula_units_Z   1
loop_
 _symmetry_equiv_pos_site_id
 _symmetry_equiv_pos_as_xyz
  1  'x, y, z'
loop_
 _atom_site_type_symbol
 _atom_site_label
 _atom_site_symmetry_multiplicity
 _atom_site_fract_x
 _atom_site_fract_y
 _atom_site_fract_z
 _atom_site_occupancy
  Nd  Nd0  1  0.865655  0.405239  0.782684  1
  Nd  Nd1  1  0.865664  0.593431  0.215695  1
  Nd  Nd2  1  0.139042  0.093448  0.284122  1
  Y  Y3  1  0.136376  0.904132  0.716322  1
  Si  Si4  1  0.456975  0.502210  0.501234  1
  Si  Si5  1  0.540137  0.998563  0.998031  1
  P  P6  1  0.692812  0.912522  0.828235  1
  P  P7  1  0.695733  0.086800  0.166290  1
  P  P8  1  0.309289  0.588368  0.332846  1
  P  P9  1  0.306239  0.411396  0.667862  1
  P  P10  1  0.647166  0.141128  0.431725  1
  P  P11  1  0.637651  0.862169  0.575659  1
  P  P12  1  0.354934  0.358017  0.928943  1
  P  P13  1  0.355243  0.640107  0.069786  1
  O  O14  1  0.640451  0.339421  0.473581  1
  O  O15  1  0.634007  0.668998  0.529670  1
  O  O16  1  0.357404  0.163417  0.972978  1
  O  O17  1  0.360944  0.832802  0.024381  1
  O  O18  1  0.716781  0.063512  0.070617  1
  O  O19  1  0.710957  0.934244  0.924053  1
  O  O20  1  0.279932  0.431996  0.572148  1
  O  O21  1  0.284144  0.569906  0.428401  1
  O  O22  1  0.839808  0.071139  0.791071  1
  O  O23  1  0.835486  0.925565  0.204737  1
  O  O24  1  0.171698  0.424824  0.294638  1
  O  O25  1  0.171165  0.576807  0.706203  1
  O  O26  1  0.433431  0.912907  0.806730  1
  O  O27  1  0.436531  0.090062  0.186740  1
  O  O28  1  0.569293  0.590791  0.313755  1
  O  O29  1  0.567142  0.408149  0.685820  1
  O  O30  1  0.832361  0.737902  0.803571  1
  O  O31  1  0.834758  0.261343  0.191616  1
  O  O32  1  0.169426  0.761203  0.306509  1
  O  O33  1  0.168151  0.237154  0.693855  1
  O  O34  1  0.437954  0.116799  0.377876  1
  O  O35  1  0.421737  0.881974  0.626497  1
  O  O36  1  0.557054  0.369887  0.871618  1
  O  O37  1  0.555829  0.628285  0.127925  1
  O  O38  1  0.884905  0.112835  0.395162  1
  O  O39  1  0.872069  0.884306  0.615888  1
  O  O40  1  0.113251  0.391995  0.896356  1
  O  O41  1  0.113034  0.609936  0.102368  1
  O  O42  1  0.610470  0.007284  0.505619  1
  O  O43  1  0.416913  0.497030  0.000183  1
