# generated using pymatgen
data_Ho6Tm2Tc(B8Ru)3
_symmetry_space_group_name_H-M   'P 1'
_cell_length_a   3.64845700
_cell_length_b   9.10801414
_cell_length_c   11.49168833
_cell_angle_alpha   89.93711419
_cell_angle_beta   90.00000000
_cell_angle_gamma   90.00000000
_symmetry_Int_Tables_number   1
_chemical_formula_structural   Ho6Tm2Tc(B8Ru)3
_chemical_formula_sum   'Ho6 Tm2 Tc1 B24 Ru3'
_cell_volume   381.87084790
_cell_formula_units_Z   1
loop_
 _symmetry_equiv_pos_site_id
 _symmetry_equiv_pos_as_xyz
  1  'x, y, z'
loop_
 _atom_site_type_symbol
 _atom_site_label
 _atom_site_symmetry_multiplicity
 _atom_site_fract_x
 _atom_site_fract_y
 _atom_site_fract_z
 _atom_site_occupancy
  Ho  Ho0  1  0.000000  0.324147  0.413183  1
  Ho  Ho1  1  0.000000  0.676973  0.583507  1
  Ho  Ho2  1  0.000000  0.819925  0.087756  1
  Ho  Ho3  1  0.000000  0.177475  0.915174  1
  Ho  Ho4  1  0.000000  0.943208  0.372050  1
  Ho  Ho5  1  0.000000  0.057333  0.628550  1
  Tm  Tm6  1  0.000000  0.444105  0.128056  1
  Tm  Tm7  1  0.000000  0.556768  0.871538  1
  Tc  Tc8  1  0.000000  0.637133  0.320592  1
  B  B9  1  0.500000  0.552830  0.433066  1
  B  B10  1  0.500000  0.446492  0.567469  1
  B  B11  1  0.500000  0.053957  0.066975  1
  B  B12  1  0.500000  0.945804  0.933357  1
  B  B13  1  0.500000  0.748157  0.419272  1
  B  B14  1  0.500000  0.252209  0.580717  1
  B  B15  1  0.500000  0.249031  0.080265  1
  B  B16  1  0.500000  0.750789  0.919582  1
  B  B17  1  0.500000  0.791184  0.265646  1
  B  B18  1  0.500000  0.209452  0.734396  1
  B  B19  1  0.500000  0.291572  0.233140  1
  B  B20  1  0.500000  0.708755  0.766087  1
  B  B21  1  0.500000  0.630626  0.184920  1
  B  B22  1  0.500000  0.369048  0.815447  1
  B  B23  1  0.500000  0.131874  0.314269  1
  B  B24  1  0.500000  0.868640  0.685340  1
  B  B25  1  0.500000  0.983293  0.212402  1
  B  B26  1  0.500000  0.016660  0.788101  1
  B  B27  1  0.500000  0.481790  0.286871  1
  B  B28  1  0.500000  0.517190  0.713061  1
  B  B29  1  0.500000  0.605089  0.028481  1
  B  B30  1  0.500000  0.394363  0.970482  1
  B  B31  1  0.500000  0.107922  0.470587  1
  B  B32  1  0.500000  0.893700  0.530022  1
  Ru  Ru33  1  0.000000  0.362553  0.680061  1
  Ru  Ru34  1  0.000000  0.138454  0.178294  1
  Ru  Ru35  1  0.000000  0.861498  0.821283  1
