# generated using pymatgen
data_Li9Yb3Pb4
_symmetry_space_group_name_H-M   'P 1'
_cell_length_a   6.95117602
_cell_length_b   6.95117602
_cell_length_c   6.95117602
_cell_angle_alpha   90.00553889
_cell_angle_beta   89.99446111
_cell_angle_gamma   89.99446111
_symmetry_Int_Tables_number   1
_chemical_formula_structural   Li9Yb3Pb4
_chemical_formula_sum   'Li9 Yb3 Pb4'
_cell_volume   335.87281270
_cell_formula_units_Z   1
loop_
 _symmetry_equiv_pos_site_id
 _symmetry_equiv_pos_as_xyz
  1  'x, y, z'
loop_
 _atom_site_type_symbol
 _atom_site_label
 _atom_site_symmetry_multiplicity
 _atom_site_fract_x
 _atom_site_fract_y
 _atom_site_fract_z
 _atom_site_occupancy
  Li  Li0  1  0.012853  0.987147  0.987147  1
  Li  Li1  1  0.487086  0.987101  0.987101  1
  Li  Li2  1  0.012899  0.512916  0.987101  1
  Li  Li3  1  0.487057  0.512945  0.987113  1
  Li  Li4  1  0.012899  0.987101  0.512916  1
  Li  Li5  1  0.487057  0.987113  0.512945  1
  Li  Li6  1  0.012887  0.512945  0.512945  1
  Li  Li7  1  0.487061  0.512941  0.512941  1
  Li  Li8  1  0.250546  0.749455  0.749455  1
  Yb  Yb9  1  0.249825  0.249812  0.249812  1
  Yb  Yb10  1  0.750189  0.750176  0.249812  1
  Yb  Yb11  1  0.750189  0.249812  0.750176  1
  Pb  Pb12  1  0.750333  0.249668  0.249668  1
  Pb  Pb13  1  0.249658  0.750343  0.250192  1
  Pb  Pb14  1  0.249658  0.250192  0.750343  1
  Pb  Pb15  1  0.749809  0.750343  0.750343  1
