# generated using pymatgen
data_Ba4ScTcWO12
_symmetry_space_group_name_H-M   'P 1'
_cell_length_a   10.00899192
_cell_length_b   10.00899129
_cell_length_c   10.00899112
_cell_angle_alpha   33.90499059
_cell_angle_beta   33.90499806
_cell_angle_gamma   33.90498609
_symmetry_Int_Tables_number   1
_chemical_formula_structural   Ba4ScTcWO12
_chemical_formula_sum   'Ba4 Sc1 Tc1 W1 O12'
_cell_volume   278.06575822
_cell_formula_units_Z   1
loop_
 _symmetry_equiv_pos_site_id
 _symmetry_equiv_pos_as_xyz
  1  'x, y, z'
loop_
 _atom_site_type_symbol
 _atom_site_label
 _atom_site_symmetry_multiplicity
 _atom_site_fract_x
 _atom_site_fract_y
 _atom_site_fract_z
 _atom_site_occupancy
  Ba  Ba0  1  0.708426  0.708426  0.708426  1
  Ba  Ba1  1  0.289750  0.289750  0.289750  1
  Ba  Ba2  1  0.869705  0.869705  0.869705  1
  Ba  Ba3  1  0.134630  0.134630  0.134630  1
  Sc  Sc4  1  0.998944  0.998944  0.998944  1
  Tc  Tc5  1  0.419948  0.419948  0.419948  1
  W  W6  1  0.579501  0.579501  0.579501  1
  O  O7  1  0.385252  0.385252  0.865086  1
  O  O8  1  0.865086  0.385252  0.385252  1
  O  O9  1  0.385252  0.865086  0.385252  1
  O  O10  1  0.608613  0.608613  0.142960  1
  O  O11  1  0.142960  0.608613  0.608613  1
  O  O12  1  0.608613  0.142960  0.608613  1
  O  O13  1  0.218865  0.218865  0.692701  1
  O  O14  1  0.692701  0.218865  0.218865  1
  O  O15  1  0.218865  0.692701  0.218865  1
  O  O16  1  0.784582  0.784582  0.303722  1
  O  O17  1  0.303722  0.784582  0.784582  1
  O  O18  1  0.784582  0.303722  0.784582  1
