# generated using pymatgen
data_Pr6Al7Si4Ge
_symmetry_space_group_name_H-M   'P 1'
_cell_length_a   4.23007563
_cell_length_b   4.32569905
_cell_length_c   22.45961249
_cell_angle_alpha   84.47387513
_cell_angle_beta   84.59640287
_cell_angle_gamma   89.99999779
_symmetry_Int_Tables_number   1
_chemical_formula_structural   Pr6Al7Si4Ge
_chemical_formula_sum   'Pr6 Al7 Si4 Ge1'
_cell_volume   407.22186401
_cell_formula_units_Z   1
loop_
 _symmetry_equiv_pos_site_id
 _symmetry_equiv_pos_as_xyz
  1  'x, y, z'
loop_
 _atom_site_type_symbol
 _atom_site_label
 _atom_site_symmetry_multiplicity
 _atom_site_fract_x
 _atom_site_fract_y
 _atom_site_fract_z
 _atom_site_occupancy
  Pr  Pr0  1  0.958107  0.708107  0.083783  1
  Pr  Pr1  1  0.292063  0.042063  0.415875  1
  Pr  Pr2  1  0.623145  0.373145  0.753710  1
  Pr  Pr3  1  0.376227  0.626227  0.247546  1
  Pr  Pr4  1  0.710878  0.960878  0.578242  1
  Pr  Pr5  1  0.040294  0.290294  0.919412  1
  Al  Al6  1  0.152639  0.902639  0.694722  1
  Al  Al7  1  0.430854  0.180854  0.138293  1
  Al  Al8  1  0.764487  0.514487  0.471026  1
  Al  Al9  1  0.095861  0.845861  0.808277  1
  Al  Al10  1  0.848104  0.098104  0.303792  1
  Al  Al11  1  0.181753  0.431753  0.636495  1
  Al  Al12  1  0.512807  0.762807  0.974386  1
  Si  Si13  1  0.902869  0.152869  0.194262  1
  Si  Si14  1  0.236822  0.486822  0.526357  1
  Si  Si15  1  0.567438  0.817438  0.865121  1
  Si  Si16  1  0.485623  0.235623  0.028753  1
  Ge  Ge17  1  0.820028  0.570028  0.359944  1
