# generated using pymatgen
data_Sm8C8Cl5
_symmetry_space_group_name_H-M   'P 1'
_cell_length_a   16.68945800
_cell_length_b   6.66514100
_cell_length_c   7.52302100
_cell_angle_alpha   76.01102578
_cell_angle_beta   90.00000000
_cell_angle_gamma   90.00000000
_symmetry_Int_Tables_number   1
_chemical_formula_structural   Sm8C8Cl5
_chemical_formula_sum   'Sm16 C16 Cl10'
_cell_volume   812.02386967
_cell_formula_units_Z   2
loop_
 _symmetry_equiv_pos_site_id
 _symmetry_equiv_pos_as_xyz
  1  'x, y, z'
loop_
 _atom_site_type_symbol
 _atom_site_label
 _atom_site_symmetry_multiplicity
 _atom_site_fract_x
 _atom_site_fract_y
 _atom_site_fract_z
 _atom_site_occupancy
  Sm  Sm0  1  0.071133  0.875752  0.146336  1
  Sm  Sm1  1  0.571133  0.624248  0.853664  1
  Sm  Sm2  1  0.928867  0.124248  0.853664  1
  Sm  Sm3  1  0.428867  0.375752  0.146336  1
  Sm  Sm4  1  0.950867  0.385315  0.224042  1
  Sm  Sm5  1  0.450867  0.114685  0.775958  1
  Sm  Sm6  1  0.049133  0.614685  0.775958  1
  Sm  Sm7  1  0.549133  0.885315  0.224042  1
  Sm  Sm8  1  0.197154  0.373662  0.066257  1
  Sm  Sm9  1  0.697154  0.126338  0.933743  1
  Sm  Sm10  1  0.802846  0.626338  0.933743  1
  Sm  Sm11  1  0.302846  0.873662  0.066257  1
  Sm  Sm12  1  0.172820  0.097040  0.697671  1
  Sm  Sm13  1  0.672820  0.402960  0.302329  1
  Sm  Sm14  1  0.827180  0.902960  0.302329  1
  Sm  Sm15  1  0.327180  0.597040  0.697671  1
  C  C16  1  0.038053  0.277713  0.021522  1
  C  C17  1  0.538053  0.222287  0.978478  1
  C  C18  1  0.961947  0.722287  0.978478  1
  C  C19  1  0.461947  0.777713  0.021522  1
  C  C20  1  0.159830  0.761558  0.950157  1
  C  C21  1  0.659830  0.738442  0.049843  1
  C  C22  1  0.840170  0.238442  0.049843  1
  C  C23  1  0.340170  0.261558  0.950157  1
  C  C24  1  0.086040  0.218552  0.898931  1
  C  C25  1  0.586040  0.281448  0.101069  1
  C  C26  1  0.913960  0.781448  0.101069  1
  C  C27  1  0.413960  0.718552  0.898931  1
  C  C28  1  0.284771  0.212579  0.834155  1
  C  C29  1  0.784771  0.287421  0.165845  1
  C  C30  1  0.715229  0.787421  0.165845  1
  C  C31  1  0.215229  0.712579  0.834155  1
  Cl  Cl32  1  0.202530  0.987318  0.343200  1
  Cl  Cl33  1  0.702530  0.512682  0.656800  1
  Cl  Cl34  1  0.797470  0.012682  0.656800  1
  Cl  Cl35  1  0.297470  0.487318  0.343200  1
  Cl  Cl36  1  0.095948  0.483765  0.413697  1
  Cl  Cl37  1  0.595948  0.016235  0.586303  1
  Cl  Cl38  1  0.904052  0.516235  0.586303  1
  Cl  Cl39  1  0.404052  0.983765  0.413697  1
  Cl  Cl40  1  0.000000  0.000000  0.500000  1
  Cl  Cl41  1  0.500000  0.500000  0.500000  1
