# generated using pymatgen
data_Sc8Ta9Si16W3
_symmetry_space_group_name_H-M   'P 1'
_cell_length_a   6.83030624
_cell_length_b   6.82717263
_cell_length_c   12.65095737
_cell_angle_alpha   89.90276630
_cell_angle_beta   90.05175278
_cell_angle_gamma   90.04245978
_symmetry_Int_Tables_number   1
_chemical_formula_structural   Sc8Ta9Si16W3
_chemical_formula_sum   'Sc8 Ta9 Si16 W3'
_cell_volume   589.93414122
_cell_formula_units_Z   1
loop_
 _symmetry_equiv_pos_site_id
 _symmetry_equiv_pos_as_xyz
  1  'x, y, z'
loop_
 _atom_site_type_symbol
 _atom_site_label
 _atom_site_symmetry_multiplicity
 _atom_site_fract_x
 _atom_site_fract_y
 _atom_site_fract_z
 _atom_site_occupancy
  Sc  Sc0  1  0.000599  0.660976  0.030105  1
  Sc  Sc1  1  0.000129  0.338766  0.532076  1
  Sc  Sc2  1  0.341000  0.999200  0.469317  1
  Sc  Sc3  1  0.161686  0.499726  0.780631  1
  Sc  Sc4  1  0.838804  0.499071  0.280693  1
  Sc  Sc5  1  0.498984  0.159758  0.218112  1
  Sc  Sc6  1  0.499905  0.840709  0.720056  1
  Sc  Sc7  1  0.659380  0.999989  0.969095  1
  Ta  Ta8  1  0.669573  0.668773  0.500243  1
  Ta  Ta9  1  0.167447  0.828053  0.249011  1
  Ta  Ta10  1  0.329233  0.332225  0.999601  1
  Ta  Ta11  1  0.997481  0.847745  0.626535  1
  Ta  Ta12  1  0.002437  0.151655  0.125889  1
  Ta  Ta13  1  0.845244  0.992128  0.373693  1
  Ta  Ta14  1  0.348479  0.502390  0.376343  1
  Ta  Ta15  1  0.652036  0.498039  0.876178  1
  Ta  Ta16  1  0.832233  0.170593  0.750096  1
  Si  Si17  1  0.043267  0.696578  0.436684  1
  Si  Si18  1  0.638092  0.293633  0.430014  1
  Si  Si19  1  0.361330  0.709204  0.927982  1
  Si  Si20  1  0.209554  0.137633  0.678573  1
  Si  Si21  1  0.297887  0.633601  0.572387  1
  Si  Si22  1  0.703105  0.367643  0.071494  1
  Si  Si23  1  0.789519  0.860348  0.176996  1
  Si  Si24  1  0.136866  0.203923  0.321234  1
  Si  Si25  1  0.957400  0.300356  0.936482  1
  Si  Si26  1  0.698341  0.042889  0.564504  1
  Si  Si27  1  0.198774  0.457445  0.186265  1
  Si  Si28  1  0.800432  0.542272  0.686615  1
  Si  Si29  1  0.458366  0.199743  0.813593  1
  Si  Si30  1  0.540116  0.800064  0.312034  1
  Si  Si31  1  0.300860  0.958432  0.063210  1
  Si  Si32  1  0.868025  0.797503  0.822001  1
  W  W33  1  0.507511  0.345140  0.625280  1
  W  W34  1  0.489630  0.654428  0.123007  1
  W  W35  1  0.156279  0.009364  0.873971  1
