# generated using pymatgen
data_Pa2Bi4Pd
_symmetry_space_group_name_H-M   'P 1'
_cell_length_a   4.59155500
_cell_length_b   4.59155500
_cell_length_c   9.25643000
_cell_angle_alpha   90.00000000
_cell_angle_beta   90.00000000
_cell_angle_gamma   90.00000000
_symmetry_Int_Tables_number   1
_chemical_formula_structural   Pa2Bi4Pd
_chemical_formula_sum   'Pa2 Bi4 Pd1'
_cell_volume   195.14754988
_cell_formula_units_Z   1
loop_
 _symmetry_equiv_pos_site_id
 _symmetry_equiv_pos_as_xyz
  1  'x, y, z'
loop_
 _atom_site_type_symbol
 _atom_site_label
 _atom_site_symmetry_multiplicity
 _atom_site_fract_x
 _atom_site_fract_y
 _atom_site_fract_z
 _atom_site_occupancy
  Pa  Pa0  1  0.500000  0.000000  0.773866  1
  Pa  Pa1  1  0.000000  0.500000  0.226134  1
  Bi  Bi2  1  0.500000  0.000000  0.168546  1
  Bi  Bi3  1  0.000000  0.500000  0.831454  1
  Bi  Bi4  1  0.500000  0.500000  0.500000  1
  Bi  Bi5  1  0.000000  0.000000  0.500000  1
  Pd  Pd6  1  0.500000  0.500000  0.000000  1
