# generated using pymatgen
data_Zr6Zn22FePd
_symmetry_space_group_name_H-M   'P 1'
_cell_length_a   8.80097791
_cell_length_b   8.80097728
_cell_length_c   8.80097800
_cell_angle_alpha   60.00000480
_cell_angle_beta   60.00000718
_cell_angle_gamma   60.00000024
_symmetry_Int_Tables_number   1
_chemical_formula_structural   Zr6Zn22FePd
_chemical_formula_sum   'Zr6 Zn22 Fe1 Pd1'
_cell_volume   482.03415130
_cell_formula_units_Z   1
loop_
 _symmetry_equiv_pos_site_id
 _symmetry_equiv_pos_as_xyz
  1  'x, y, z'
loop_
 _atom_site_type_symbol
 _atom_site_label
 _atom_site_symmetry_multiplicity
 _atom_site_fract_x
 _atom_site_fract_y
 _atom_site_fract_z
 _atom_site_occupancy
  Zr  Zr0  1  0.700370  0.299630  0.299630  1
  Zr  Zr1  1  0.299630  0.700370  0.700370  1
  Zr  Zr2  1  0.299630  0.700370  0.299630  1
  Zr  Zr3  1  0.700370  0.299630  0.700370  1
  Zr  Zr4  1  0.299630  0.299630  0.700370  1
  Zr  Zr5  1  0.700370  0.700370  0.299630  1
  Zn  Zn6  1  0.120743  0.120743  0.120743  1
  Zn  Zn7  1  0.879257  0.879257  0.879257  1
  Zn  Zn8  1  0.120743  0.120743  0.637772  1
  Zn  Zn9  1  0.120743  0.637772  0.120743  1
  Zn  Zn10  1  0.879257  0.879257  0.362228  1
  Zn  Zn11  1  0.879257  0.362228  0.879257  1
  Zn  Zn12  1  0.637772  0.120743  0.120743  1
  Zn  Zn13  1  0.362228  0.879257  0.879257  1
  Zn  Zn14  1  0.500000  0.000000  0.000000  1
  Zn  Zn15  1  0.000000  0.500000  0.500000  1
  Zn  Zn16  1  0.000000  0.500000  0.000000  1
  Zn  Zn17  1  0.500000  0.000000  0.500000  1
  Zn  Zn18  1  0.000000  0.000000  0.500000  1
  Zn  Zn19  1  0.500000  0.500000  0.000000  1
  Zn  Zn20  1  0.332591  0.332591  0.332591  1
  Zn  Zn21  1  0.667409  0.667409  0.667409  1
  Zn  Zn22  1  0.332591  0.332591  0.002228  1
  Zn  Zn23  1  0.332591  0.002228  0.332591  1
  Zn  Zn24  1  0.667409  0.667409  0.997772  1
  Zn  Zn25  1  0.667409  0.997772  0.667409  1
  Zn  Zn26  1  0.002228  0.332591  0.332591  1
  Zn  Zn27  1  0.997772  0.667409  0.667409  1
  Fe  Fe28  1  0.500000  0.500000  0.500000  1
  Pd  Pd29  1  0.000000  0.000000  0.000000  1
