# generated using pymatgen
data_TiHg3(SeF3)2
_symmetry_space_group_name_H-M   'P 1'
_cell_length_a   7.70032200
_cell_length_b   7.70032209
_cell_length_c   5.23977200
_cell_angle_alpha   90.00000000
_cell_angle_beta   90.00000000
_cell_angle_gamma   120.00000819
_symmetry_Int_Tables_number   1
_chemical_formula_structural   TiHg3(SeF3)2
_chemical_formula_sum   'Ti1 Hg3 Se2 F6'
_cell_volume   269.06720246
_cell_formula_units_Z   1
loop_
 _symmetry_equiv_pos_site_id
 _symmetry_equiv_pos_as_xyz
  1  'x, y, z'
loop_
 _atom_site_type_symbol
 _atom_site_label
 _atom_site_symmetry_multiplicity
 _atom_site_fract_x
 _atom_site_fract_y
 _atom_site_fract_z
 _atom_site_occupancy
  Ti  Ti0  1  0.000000  0.000000  0.500000  1
  Hg  Hg1  1  0.500000  0.000000  0.000000  1
  Hg  Hg2  1  0.000000  0.500000  0.000000  1
  Hg  Hg3  1  0.500000  0.500000  0.000000  1
  Se  Se4  1  0.333333  0.666667  0.222100  1
  Se  Se5  1  0.666667  0.333333  0.777900  1
  F  F6  1  0.117013  0.882987  0.293097  1
  F  F7  1  0.882987  0.117013  0.706903  1
  F  F8  1  0.117013  0.234026  0.293097  1
  F  F9  1  0.882987  0.765974  0.706903  1
  F  F10  1  0.234026  0.117013  0.706903  1
  F  F11  1  0.765974  0.882987  0.293097  1
