# generated using pymatgen
data_TbZnPt3Au
_symmetry_space_group_name_H-M   'P 1'
_cell_length_a   5.17931943
_cell_length_b   5.17931839
_cell_length_c   5.17931884
_cell_angle_alpha   63.90590329
_cell_angle_beta   63.90590995
_cell_angle_gamma   63.90590803
_symmetry_Int_Tables_number   1
_chemical_formula_structural   TbZnPt3Au
_chemical_formula_sum   'Tb1 Zn1 Pt3 Au1'
_cell_volume   106.70098392
_cell_formula_units_Z   1
loop_
 _symmetry_equiv_pos_site_id
 _symmetry_equiv_pos_as_xyz
  1  'x, y, z'
loop_
 _atom_site_type_symbol
 _atom_site_label
 _atom_site_symmetry_multiplicity
 _atom_site_fract_x
 _atom_site_fract_y
 _atom_site_fract_z
 _atom_site_occupancy
  Tb  Tb0  1  0.003888  0.003888  0.003888  1
  Zn  Zn1  1  0.623437  0.623437  0.623437  1
  Pt  Pt2  1  0.623038  0.623038  0.125014  1
  Pt  Pt3  1  0.623038  0.125014  0.623038  1
  Pt  Pt4  1  0.125014  0.623038  0.623038  1
  Au  Au5  1  0.251582  0.251582  0.251582  1
