# generated using pymatgen
data_La3B2Rh6Pb
_symmetry_space_group_name_H-M   'P 1'
_cell_length_a   8.12403667
_cell_length_b   8.12403716
_cell_length_c   8.12403700
_cell_angle_alpha   41.49671216
_cell_angle_beta   41.49670830
_cell_angle_gamma   41.49671004
_symmetry_Int_Tables_number   1
_chemical_formula_structural   La3B2Rh6Pb
_chemical_formula_sum   'La3 B2 Rh6 Pb1'
_cell_volume   212.71362547
_cell_formula_units_Z   1
loop_
 _symmetry_equiv_pos_site_id
 _symmetry_equiv_pos_as_xyz
  1  'x, y, z'
loop_
 _atom_site_type_symbol
 _atom_site_label
 _atom_site_symmetry_multiplicity
 _atom_site_fract_x
 _atom_site_fract_y
 _atom_site_fract_z
 _atom_site_occupancy
  La  La0  1  0.358200  0.358200  0.358200  1
  La  La1  1  0.500000  0.500000  0.500000  1
  La  La2  1  0.641800  0.641800  0.641800  1
  B  B3  1  0.167881  0.167881  0.167881  1
  B  B4  1  0.832119  0.832119  0.832119  1
  Rh  Rh5  1  0.562156  0.065780  0.065780  1
  Rh  Rh6  1  0.065780  0.562156  0.065780  1
  Rh  Rh7  1  0.934220  0.934220  0.437843  1
  Rh  Rh8  1  0.065780  0.065780  0.562157  1
  Rh  Rh9  1  0.934220  0.437844  0.934220  1
  Rh  Rh10  1  0.437844  0.934220  0.934220  1
  Pb  Pb11  1  0.000000  0.000000  0.000000  1
