# generated using pymatgen
data_Tb2Co3P7IrRu8
_symmetry_space_group_name_H-M   'P 1'
_cell_length_a   9.32817995
_cell_length_b   9.33518752
_cell_length_c   3.83769800
_cell_angle_alpha   90.00000000
_cell_angle_beta   90.00000000
_cell_angle_gamma   119.78442156
_symmetry_Int_Tables_number   1
_chemical_formula_structural   Tb2Co3P7IrRu8
_chemical_formula_sum   'Tb2 Co3 P7 Ir1 Ru8'
_cell_volume   290.04188507
_cell_formula_units_Z   1
loop_
 _symmetry_equiv_pos_site_id
 _symmetry_equiv_pos_as_xyz
  1  'x, y, z'
loop_
 _atom_site_type_symbol
 _atom_site_label
 _atom_site_symmetry_multiplicity
 _atom_site_fract_x
 _atom_site_fract_y
 _atom_site_fract_z
 _atom_site_occupancy
  Tb  Tb0  1  0.000125  0.999620  0.000000  1
  Tb  Tb1  1  0.334168  0.667632  0.500000  1
  Co  Co2  1  0.824176  0.601583  0.000000  1
  Co  Co3  1  0.396383  0.222023  0.000000  1
  Co  Co4  1  0.778605  0.175256  0.000000  1
  P  P5  1  0.781842  0.734047  0.500000  1
  P  P6  1  0.265235  0.047791  0.500000  1
  P  P7  1  0.947906  0.212455  0.500000  1
  P  P8  1  0.665795  0.332752  0.000000  1
  P  P9  1  0.077005  0.637673  0.000000  1
  P  P10  1  0.369679  0.443334  0.000000  1
  P  P11  1  0.557104  0.923402  0.000000  1
  Ir  Ir12  1  0.094712  0.398017  0.000000  1
  Ru  Ru13  1  0.604608  0.697481  0.000000  1
  Ru  Ru14  1  0.302223  0.907721  0.000000  1
  Ru  Ru15  1  0.048797  0.767472  0.500000  1
  Ru  Ru16  1  0.231027  0.282124  0.500000  1
  Ru  Ru17  1  0.717708  0.949676  0.500000  1
  Ru  Ru18  1  0.877282  0.419025  0.500000  1
  Ru  Ru19  1  0.581507  0.454911  0.500000  1
  Ru  Ru20  1  0.544112  0.126006  0.500000  1
