# generated using pymatgen
data_LaHoU2(Al3Ir)6
_symmetry_space_group_name_H-M   'P 1'
_cell_length_a   7.59443258
_cell_length_b   7.62433229
_cell_length_c   9.45664900
_cell_angle_alpha   90.00000000
_cell_angle_beta   90.00000000
_cell_angle_gamma   119.50998314
_symmetry_Int_Tables_number   1
_chemical_formula_structural   LaHoU2(Al3Ir)6
_chemical_formula_sum   'La1 Ho1 U2 Al18 Ir6'
_cell_volume   476.52794152
_cell_formula_units_Z   1
loop_
 _symmetry_equiv_pos_site_id
 _symmetry_equiv_pos_as_xyz
  1  'x, y, z'
loop_
 _atom_site_type_symbol
 _atom_site_label
 _atom_site_symmetry_multiplicity
 _atom_site_fract_x
 _atom_site_fract_y
 _atom_site_fract_z
 _atom_site_occupancy
  La  La0  1  0.003780  0.328860  0.250000  1
  Ho  Ho1  1  0.996153  0.671888  0.750000  1
  U  U2  1  0.670759  0.996230  0.750000  1
  U  U3  1  0.329961  0.004353  0.250000  1
  Al  Al4  1  0.128260  0.127703  0.750000  1
  Al  Al5  1  0.869922  0.867329  0.250000  1
  Al  Al6  1  0.002531  0.337419  0.579790  1
  Al  Al7  1  0.997252  0.665428  0.427173  1
  Al  Al8  1  0.997252  0.665428  0.072827  1
  Al  Al9  1  0.334003  0.000231  0.924619  1
  Al  Al10  1  0.002531  0.337419  0.920210  1
  Al  Al11  1  0.663261  0.996480  0.071321  1
  Al  Al12  1  0.663261  0.996480  0.428679  1
  Al  Al13  1  0.334003  0.000231  0.575381  1
  Al  Al14  1  0.335436  0.334686  0.049401  1
  Al  Al15  1  0.667102  0.665575  0.945128  1
  Al  Al16  1  0.667102  0.665575  0.554872  1
  Al  Al17  1  0.335436  0.334686  0.450599  1
  Al  Al18  1  0.343275  0.549543  0.750000  1
  Al  Al19  1  0.654701  0.452390  0.250000  1
  Al  Al20  1  0.549396  0.338808  0.750000  1
  Al  Al21  1  0.455276  0.664717  0.250000  1
  Ir  Ir22  1  0.671292  0.327615  0.501226  1
  Ir  Ir23  1  0.328699  0.672985  0.501076  1
  Ir  Ir24  1  0.328699  0.672985  0.998924  1
  Ir  Ir25  1  0.671292  0.327615  0.998774  1
  Ir  Ir26  1  0.999683  0.998669  0.501264  1
  Ir  Ir27  1  0.999683  0.998669  0.998736  1
