# generated using pymatgen
data_Ba5Sr(ScP3)2
_symmetry_space_group_name_H-M   'P 1'
_cell_length_a   4.54317600
_cell_length_b   13.41454100
_cell_length_c   14.69538400
_cell_angle_alpha   90.00000000
_cell_angle_beta   90.00000000
_cell_angle_gamma   90.00000000
_symmetry_Int_Tables_number   1
_chemical_formula_structural   Ba5Sr(ScP3)2
_chemical_formula_sum   'Ba10 Sr2 Sc4 P12'
_cell_volume   895.60460425
_cell_formula_units_Z   2
loop_
 _symmetry_equiv_pos_site_id
 _symmetry_equiv_pos_as_xyz
  1  'x, y, z'
loop_
 _atom_site_type_symbol
 _atom_site_label
 _atom_site_symmetry_multiplicity
 _atom_site_fract_x
 _atom_site_fract_y
 _atom_site_fract_z
 _atom_site_occupancy
  Ba  Ba0  1  0.750000  0.135512  0.997048  1
  Ba  Ba1  1  0.250000  0.270339  0.201730  1
  Ba  Ba2  1  0.250000  0.364488  0.497048  1
  Ba  Ba3  1  0.750000  0.650347  0.500420  1
  Ba  Ba4  1  0.750000  0.422026  0.899968  1
  Ba  Ba5  1  0.250000  0.849653  0.000420  1
  Ba  Ba6  1  0.750000  0.229661  0.701730  1
  Ba  Ba7  1  0.750000  0.917433  0.602299  1
  Ba  Ba8  1  0.250000  0.077974  0.399968  1
  Ba  Ba9  1  0.250000  0.582567  0.102299  1
  Sr  Sr10  1  0.250000  0.775580  0.293014  1
  Sr  Sr11  1  0.750000  0.724420  0.793014  1
  Sc  Sc12  1  0.750000  0.947304  0.206550  1
  Sc  Sc13  1  0.750000  0.455445  0.294128  1
  Sc  Sc14  1  0.250000  0.552696  0.706550  1
  Sc  Sc15  1  0.250000  0.044555  0.794128  1
  P  P16  1  0.750000  0.771334  0.138669  1
  P  P17  1  0.250000  0.086262  0.622840  1
  P  P18  1  0.250000  0.596256  0.877778  1
  P  P19  1  0.750000  0.903744  0.377778  1
  P  P20  1  0.250000  0.728666  0.638669  1
  P  P21  1  0.250000  0.030067  0.153260  1
  P  P22  1  0.750000  0.957220  0.846188  1
  P  P23  1  0.750000  0.469933  0.653260  1
  P  P24  1  0.250000  0.542780  0.346188  1
  P  P25  1  0.750000  0.278278  0.366108  1
  P  P26  1  0.750000  0.413738  0.122840  1
  P  P27  1  0.250000  0.221722  0.866108  1
