# generated using pymatgen
data_Ho12InCo4Au
_symmetry_space_group_name_H-M   'P 1'
_cell_length_a   8.29260297
_cell_length_b   8.29260197
_cell_length_c   8.29260244
_cell_angle_alpha   111.14560990
_cell_angle_beta   110.53602642
_cell_angle_gamma   106.76604397
_symmetry_Int_Tables_number   1
_chemical_formula_structural   Ho12InCo4Au
_chemical_formula_sum   'Ho12 In1 Co4 Au1'
_cell_volume   438.24335306
_cell_formula_units_Z   1
loop_
 _symmetry_equiv_pos_site_id
 _symmetry_equiv_pos_as_xyz
  1  'x, y, z'
loop_
 _atom_site_type_symbol
 _atom_site_label
 _atom_site_symmetry_multiplicity
 _atom_site_fract_x
 _atom_site_fract_y
 _atom_site_fract_z
 _atom_site_occupancy
  Ho  Ho0  1  0.315948  0.619767  0.303819  1
  Ho  Ho1  1  0.684052  0.380233  0.696181  1
  Ho  Ho2  1  0.315948  0.012127  0.696181  1
  Ho  Ho3  1  0.684052  0.987873  0.303819  1
  Ho  Ho4  1  0.186372  0.290949  0.477321  1
  Ho  Ho5  1  0.813628  0.709051  0.522679  1
  Ho  Ho6  1  0.186372  0.709051  0.895423  1
  Ho  Ho7  1  0.813628  0.290949  0.104577  1
  Ho  Ho8  1  0.426194  0.221856  0.204338  1
  Ho  Ho9  1  0.573806  0.778144  0.795662  1
  Ho  Ho10  1  0.017517  0.221856  0.795662  1
  Ho  Ho11  1  0.982483  0.778144  0.204338  1
  In  In12  1  0.500000  0.500000  0.000000  1
  Co  Co13  1  0.112533  0.612533  0.500000  1
  Co  Co14  1  0.887467  0.387467  0.500000  1
  Co  Co15  1  0.377640  0.000000  0.377640  1
  Co  Co16  1  0.622360  0.000000  0.622360  1
  Au  Au17  1  0.000000  0.000000  0.000000  1
