# generated using pymatgen
data_Th3GaSn2Ru3
_symmetry_space_group_name_H-M   'P 1'
_cell_length_a   7.41163430
_cell_length_b   7.41163272
_cell_length_c   4.14503800
_cell_angle_alpha   90.00000000
_cell_angle_beta   90.00000000
_cell_angle_gamma   119.78221846
_symmetry_Int_Tables_number   1
_chemical_formula_structural   Th3GaSn2Ru3
_chemical_formula_sum   'Th3 Ga1 Sn2 Ru3'
_cell_volume   197.62228110
_cell_formula_units_Z   1
loop_
 _symmetry_equiv_pos_site_id
 _symmetry_equiv_pos_as_xyz
  1  'x, y, z'
loop_
 _atom_site_type_symbol
 _atom_site_label
 _atom_site_symmetry_multiplicity
 _atom_site_fract_x
 _atom_site_fract_y
 _atom_site_fract_z
 _atom_site_occupancy
  Th  Th0  1  0.412045  0.004960  0.500000  1
  Th  Th1  1  0.004960  0.412045  0.500000  1
  Th  Th2  1  0.570838  0.570838  0.500000  1
  Ga  Ga3  1  0.242554  0.242554  0.000000  1
  Sn  Sn4  1  0.756350  0.000800  0.000000  1
  Sn  Sn5  1  0.000800  0.756350  0.000000  1
  Ru  Ru6  1  0.336602  0.662963  0.000000  1
  Ru  Ru7  1  0.662963  0.336602  0.000000  1
  Ru  Ru8  1  0.012888  0.012888  0.500000  1
