# generated using pymatgen
data_LiHf6Ti2Al13Pd7
_symmetry_space_group_name_H-M   'P 1'
_cell_length_a   8.80298538
_cell_length_b   8.80272699
_cell_length_c   8.81804598
_cell_angle_alpha   59.72676615
_cell_angle_beta   59.72609037
_cell_angle_gamma   60.03024436
_symmetry_Int_Tables_number   1
_chemical_formula_structural   LiHf6Ti2Al13Pd7
_chemical_formula_sum   'Li1 Hf6 Ti2 Al13 Pd7'
_cell_volume   481.27650222
_cell_formula_units_Z   1
loop_
 _symmetry_equiv_pos_site_id
 _symmetry_equiv_pos_as_xyz
  1  'x, y, z'
loop_
 _atom_site_type_symbol
 _atom_site_label
 _atom_site_symmetry_multiplicity
 _atom_site_fract_x
 _atom_site_fract_y
 _atom_site_fract_z
 _atom_site_occupancy
  Li  Li0  1  0.882717  0.882728  0.353788  1
  Hf  Hf1  1  0.682831  0.682869  0.315919  1
  Hf  Hf2  1  0.319120  0.680615  0.317459  1
  Hf  Hf3  1  0.680623  0.319122  0.317392  1
  Hf  Hf4  1  0.314799  0.314880  0.684375  1
  Hf  Hf5  1  0.682682  0.316438  0.683690  1
  Hf  Hf6  1  0.316421  0.682671  0.683644  1
  Ti  Ti7  1  0.878460  0.360167  0.881264  1
  Ti  Ti8  1  0.360128  0.878484  0.881258  1
  Al  Al9  1  0.881773  0.881774  0.882242  1
  Al  Al10  1  0.119185  0.119287  0.643381  1
  Al  Al11  1  0.117620  0.643773  0.124177  1
  Al  Al12  1  0.643832  0.117667  0.124126  1
  Al  Al13  1  0.115580  0.115659  0.125527  1
  Al  Al14  1  0.665722  0.665631  0.005222  1
  Al  Al15  1  0.668482  0.001003  0.660214  1
  Al  Al16  1  0.000989  0.668413  0.660268  1
  Al  Al17  1  0.669715  0.669620  0.657965  1
  Al  Al18  1  0.333947  0.333963  0.997039  1
  Al  Al19  1  0.335965  0.995723  0.332464  1
  Al  Al20  1  0.995731  0.335968  0.332458  1
  Al  Al21  1  0.335807  0.335821  0.332832  1
  Pd  Pd22  1  0.002221  0.002452  0.995637  1
  Pd  Pd23  1  0.000181  0.000180  0.509032  1
  Pd  Pd24  1  0.490597  0.001908  0.504567  1
  Pd  Pd25  1  0.001911  0.490495  0.504661  1
  Pd  Pd26  1  0.501555  0.501387  0.995965  1
  Pd  Pd27  1  0.000034  0.501274  0.996715  1
  Pd  Pd28  1  0.501371  0.000028  0.996713  1
