# generated using pymatgen
data_HoEr7VOs3C8
_symmetry_space_group_name_H-M   'P 1'
_cell_length_a   5.04865300
_cell_length_b   6.49506739
_cell_length_c   9.74039101
_cell_angle_alpha   89.80112594
_cell_angle_beta   90.00000000
_cell_angle_gamma   90.00000000
_symmetry_Int_Tables_number   1
_chemical_formula_structural   HoEr7VOs3C8
_chemical_formula_sum   'Ho1 Er7 V1 Os3 C8'
_cell_volume   319.39856333
_cell_formula_units_Z   1
loop_
 _symmetry_equiv_pos_site_id
 _symmetry_equiv_pos_as_xyz
  1  'x, y, z'
loop_
 _atom_site_type_symbol
 _atom_site_label
 _atom_site_symmetry_multiplicity
 _atom_site_fract_x
 _atom_site_fract_y
 _atom_site_fract_z
 _atom_site_occupancy
  Ho  Ho0  1  0.250000  0.029509  0.283508  1
  Er  Er1  1  0.250000  0.682857  0.558233  1
  Er  Er2  1  0.750000  0.321836  0.444284  1
  Er  Er3  1  0.750000  0.820145  0.055246  1
  Er  Er4  1  0.250000  0.175248  0.942383  1
  Er  Er5  1  0.250000  0.532841  0.213078  1
  Er  Er6  1  0.750000  0.467362  0.779739  1
  Er  Er7  1  0.750000  0.972596  0.716380  1
  V  V8  1  0.250000  0.722468  0.866953  1
  Os  Os9  1  0.750000  0.278604  0.133474  1
  Os  Os10  1  0.750000  0.777260  0.365584  1
  Os  Os11  1  0.250000  0.225191  0.634203  1
  C  C12  1  0.250000  0.458565  0.762370  1
  C  C13  1  0.750000  0.542829  0.242331  1
  C  C14  1  0.750000  0.043326  0.258901  1
  C  C15  1  0.250000  0.955575  0.741404  1
  C  C16  1  0.250000  0.820209  0.052328  1
  C  C17  1  0.750000  0.173558  0.948867  1
  C  C18  1  0.750000  0.675207  0.553181  1
  C  C19  1  0.250000  0.324813  0.447553  1
