# generated using pymatgen
data_Rb2Pt5
_symmetry_space_group_name_H-M   'P 1'
_cell_length_a   4.55840101
_cell_length_b   9.57715385
_cell_length_c   8.85450249
_cell_angle_alpha   74.77432710
_cell_angle_beta   131.13832389
_cell_angle_gamma   135.82438947
_symmetry_Int_Tables_number   1
_chemical_formula_structural   Rb2Pt5
_chemical_formula_sum   'Rb2 Pt5'
_cell_volume   186.05670824
_cell_formula_units_Z   1
loop_
 _symmetry_equiv_pos_site_id
 _symmetry_equiv_pos_as_xyz
  1  'x, y, z'
loop_
 _atom_site_type_symbol
 _atom_site_label
 _atom_site_symmetry_multiplicity
 _atom_site_fract_x
 _atom_site_fract_y
 _atom_site_fract_z
 _atom_site_occupancy
  Rb  Rb0  1  0.258577  0.596118  0.584020  1
  Rb  Rb1  1  0.689021  0.089196  0.599274  1
  Pt  Pt2  1  0.723308  0.290221  0.128478  1
  Pt  Pt3  1  0.248146  0.672539  0.089807  1
  Pt  Pt4  1  0.390478  0.461150  0.058753  1
  Pt  Pt5  1  0.057250  0.875956  0.093493  1
  Pt  Pt6  1  0.846384  0.074134  0.087606  1
