# generated using pymatgen
data_Pr2Nd4Sm4C4Br15
_symmetry_space_group_name_H-M   'P 1'
_cell_length_a   9.20120988
_cell_length_b   10.17182341
_cell_length_c   11.19291147
_cell_angle_alpha   70.29487422
_cell_angle_beta   65.98085364
_cell_angle_gamma   70.44585633
_symmetry_Int_Tables_number   1
_chemical_formula_structural   Pr2Nd4Sm4C4Br15
_chemical_formula_sum   'Pr2 Nd4 Sm4 C4 Br15'
_cell_volume   876.76572961
_cell_formula_units_Z   1
loop_
 _symmetry_equiv_pos_site_id
 _symmetry_equiv_pos_as_xyz
  1  'x, y, z'
loop_
 _atom_site_type_symbol
 _atom_site_label
 _atom_site_symmetry_multiplicity
 _atom_site_fract_x
 _atom_site_fract_y
 _atom_site_fract_z
 _atom_site_occupancy
  Pr  Pr0  1  0.027994  0.104186  0.263950  1
  Pr  Pr1  1  0.972006  0.895814  0.736050  1
  Nd  Nd2  1  0.333309  0.748689  0.831371  1
  Nd  Nd3  1  0.666691  0.251311  0.168629  1
  Nd  Nd4  1  0.169317  0.430281  0.045337  1
  Nd  Nd5  1  0.830683  0.569719  0.954663  1
  Sm  Sm6  1  0.076932  0.179327  0.892132  1
  Sm  Sm7  1  0.923068  0.820673  0.107868  1
  Sm  Sm8  1  0.246993  0.539903  0.649366  1
  Sm  Sm9  1  0.753007  0.460097  0.350634  1
  C  C10  1  0.879754  0.361735  0.170240  1
  C  C11  1  0.120246  0.638265  0.829760  1
  C  C12  1  0.957031  0.296564  0.060339  1
  C  C13  1  0.042969  0.703436  0.939661  1
  Br  Br14  1  0.500000  0.500000  0.000000  1
  Br  Br15  1  0.135428  0.807338  0.471415  1
  Br  Br16  1  0.864572  0.192662  0.528585  1
  Br  Br17  1  0.256458  0.027862  0.650594  1
  Br  Br18  1  0.743542  0.972138  0.349406  1
  Br  Br19  1  0.336185  0.169206  0.220001  1
  Br  Br20  1  0.663815  0.830794  0.779999  1
  Br  Br21  1  0.454235  0.372848  0.413795  1
  Br  Br22  1  0.545765  0.627152  0.586205  1
  Br  Br23  1  0.956845  0.438235  0.704548  1
  Br  Br24  1  0.043155  0.561765  0.295452  1
  Br  Br25  1  0.229531  0.907439  0.059016  1
  Br  Br26  1  0.770469  0.092561  0.940984  1
  Br  Br27  1  0.382483  0.269786  0.815806  1
  Br  Br28  1  0.617517  0.730214  0.184194  1
