# generated using pymatgen
data_ErTh5H8Br15
_symmetry_space_group_name_H-M   'P 1'
_cell_length_a   9.96726422
_cell_length_b   9.96684025
_cell_length_c   9.96844100
_cell_angle_alpha   109.24718081
_cell_angle_beta   109.28709872
_cell_angle_gamma   109.87304309
_symmetry_Int_Tables_number   1
_chemical_formula_structural   ErTh5H8Br15
_chemical_formula_sum   'Er1 Th5 H8 Br15'
_cell_volume   762.36085963
_cell_formula_units_Z   1
loop_
 _symmetry_equiv_pos_site_id
 _symmetry_equiv_pos_as_xyz
  1  'x, y, z'
loop_
 _atom_site_type_symbol
 _atom_site_label
 _atom_site_symmetry_multiplicity
 _atom_site_fract_x
 _atom_site_fract_y
 _atom_site_fract_z
 _atom_site_occupancy
  Er  Er0  1  0.230227  0.230260  0.000028  1
  Th  Th1  1  0.756280  0.756264  0.000012  1
  Th  Th2  1  0.241506  0.003464  0.238012  1
  Th  Th3  1  0.003451  0.241488  0.237965  1
  Th  Th4  1  0.765474  0.003536  0.761968  1
  Th  Th5  1  0.003557  0.765519  0.762009  1
  H  H6  1  0.177741  0.999150  0.000005  1
  H  H7  1  0.820289  0.998518  0.999966  1
  H  H8  1  0.999139  0.177762  0.000015  1
  H  H9  1  0.998528  0.820267  0.999977  1
  H  H10  1  0.998515  0.998499  0.178186  1
  H  H11  1  0.177731  0.177732  0.178616  1
  H  H12  1  0.999182  0.999185  0.821456  1
  H  H13  1  0.820282  0.820274  0.821733  1
  Br  Br14  1  0.745308  0.254441  0.999864  1
  Br  Br15  1  0.497901  0.497834  0.000029  1
  Br  Br16  1  0.254569  0.745407  0.000111  1
  Br  Br17  1  0.745223  0.000230  0.255067  1
  Br  Br18  1  0.000339  0.745208  0.255182  1
  Br  Br19  1  0.504614  0.257311  0.247316  1
  Br  Br20  1  0.257266  0.504541  0.247201  1
  Br  Br21  1  0.745411  0.745501  0.490888  1
  Br  Br22  1  0.500156  0.000144  0.499989  1
  Br  Br23  1  0.000103  0.500124  0.499989  1
  Br  Br24  1  0.254449  0.254348  0.509050  1
  Br  Br25  1  0.257327  0.010158  0.752766  1
  Br  Br26  1  0.010019  0.257355  0.752661  1
  Br  Br27  1  0.745292  0.490220  0.745037  1
  Br  Br28  1  0.490126  0.745268  0.744909  1
