# generated using pymatgen
data_HoEr9Cd3Pt
_symmetry_space_group_name_H-M   'P 1'
_cell_length_a   9.57344200
_cell_length_b   9.57372605
_cell_length_c   9.76633900
_cell_angle_alpha   90.00000000
_cell_angle_beta   90.00000000
_cell_angle_gamma   120.00098112
_symmetry_Int_Tables_number   1
_chemical_formula_structural   HoEr9Cd3Pt
_chemical_formula_sum   'Ho2 Er18 Cd6 Pt2'
_cell_volume   775.18835440
_cell_formula_units_Z   2
loop_
 _symmetry_equiv_pos_site_id
 _symmetry_equiv_pos_as_xyz
  1  'x, y, z'
loop_
 _atom_site_type_symbol
 _atom_site_label
 _atom_site_symmetry_multiplicity
 _atom_site_fract_x
 _atom_site_fract_y
 _atom_site_fract_z
 _atom_site_occupancy
  Ho  Ho0  1  0.542530  0.457626  0.750000  1
  Ho  Ho1  1  0.542530  0.084902  0.750000  1
  Er  Er2  1  0.208479  0.791277  0.943050  1
  Er  Er3  1  0.208479  0.417203  0.943050  1
  Er  Er4  1  0.582761  0.791381  0.943075  1
  Er  Er5  1  0.791558  0.208566  0.057103  1
  Er  Er6  1  0.791558  0.582992  0.057103  1
  Er  Er7  1  0.416988  0.208493  0.057169  1
  Er  Er8  1  0.791558  0.208566  0.442897  1
  Er  Er9  1  0.791558  0.582992  0.442897  1
  Er  Er10  1  0.416988  0.208493  0.442831  1
  Er  Er11  1  0.208479  0.791277  0.556950  1
  Er  Er12  1  0.208479  0.417203  0.556950  1
  Er  Er13  1  0.582761  0.791381  0.556925  1
  Er  Er14  1  0.915315  0.457657  0.750000  1
  Er  Er15  1  0.457502  0.542423  0.250000  1
  Er  Er16  1  0.457502  0.915081  0.250000  1
  Er  Er17  1  0.084991  0.542496  0.250000  1
  Er  Er18  1  0.000075  0.000038  0.999901  1
  Er  Er19  1  0.000075  0.000038  0.500099  1
  Cd  Cd20  1  0.885915  0.114683  0.750000  1
  Cd  Cd21  1  0.885915  0.771233  0.750000  1
  Cd  Cd22  1  0.228464  0.114232  0.750000  1
  Cd  Cd23  1  0.114490  0.885241  0.250000  1
  Cd  Cd24  1  0.114490  0.229250  0.250000  1
  Cd  Cd25  1  0.770927  0.885463  0.250000  1
  Pt  Pt26  1  0.333125  0.666563  0.750000  1
  Pt  Pt27  1  0.666506  0.333253  0.250000  1
