# generated using pymatgen
data_Sm3ZnAgAu4
_symmetry_space_group_name_H-M   'P 1'
_cell_length_a   8.58522598
_cell_length_b   8.58522693
_cell_length_c   13.47399200
_cell_angle_alpha   90.00000000
_cell_angle_beta   90.00000000
_cell_angle_gamma   126.52583211
_symmetry_Int_Tables_number   1
_chemical_formula_structural   Sm3ZnAgAu4
_chemical_formula_sum   'Sm12 Zn4 Ag4 Au16'
_cell_volume   798.05635919
_cell_formula_units_Z   4
loop_
 _symmetry_equiv_pos_site_id
 _symmetry_equiv_pos_as_xyz
  1  'x, y, z'
loop_
 _atom_site_type_symbol
 _atom_site_label
 _atom_site_symmetry_multiplicity
 _atom_site_fract_x
 _atom_site_fract_y
 _atom_site_fract_z
 _atom_site_occupancy
  Sm  Sm0  1  0.918311  0.081689  0.250000  1
  Sm  Sm1  1  0.081689  0.918311  0.750000  1
  Sm  Sm2  1  0.331957  0.668043  0.250000  1
  Sm  Sm3  1  0.668043  0.331957  0.750000  1
  Sm  Sm4  1  0.629535  0.370465  0.464500  1
  Sm  Sm5  1  0.370465  0.629535  0.535500  1
  Sm  Sm6  1  0.629535  0.370465  0.035500  1
  Sm  Sm7  1  0.370465  0.629535  0.964500  1
  Sm  Sm8  1  0.881529  0.118471  0.960370  1
  Sm  Sm9  1  0.118471  0.881529  0.039630  1
  Sm  Sm10  1  0.881529  0.118471  0.539630  1
  Sm  Sm11  1  0.118471  0.881529  0.460370  1
  Zn  Zn12  1  0.716555  0.283445  0.250000  1
  Zn  Zn13  1  0.283445  0.716555  0.750000  1
  Zn  Zn14  1  0.536378  0.463622  0.250000  1
  Zn  Zn15  1  0.463622  0.536378  0.750000  1
  Ag  Ag16  1  0.318977  0.064699  0.250000  1
  Ag  Ag17  1  0.064699  0.318977  0.750000  1
  Ag  Ag18  1  0.681023  0.935301  0.750000  1
  Ag  Ag19  1  0.935301  0.681023  0.250000  1
  Au  Au20  1  0.561042  0.000227  0.393296  1
  Au  Au21  1  0.000227  0.561042  0.606704  1
  Au  Au22  1  0.561042  0.000227  0.106704  1
  Au  Au23  1  0.000227  0.561042  0.893296  1
  Au  Au24  1  0.438958  0.999773  0.606704  1
  Au  Au25  1  0.999773  0.438958  0.393296  1
  Au  Au26  1  0.438958  0.999773  0.893296  1
  Au  Au27  1  0.999773  0.438958  0.106704  1
  Au  Au28  1  0.692392  0.744993  0.391640  1
  Au  Au29  1  0.744993  0.692392  0.608360  1
  Au  Au30  1  0.692392  0.744993  0.108360  1
  Au  Au31  1  0.744993  0.692392  0.891640  1
  Au  Au32  1  0.307608  0.255007  0.608360  1
  Au  Au33  1  0.255007  0.307608  0.391640  1
  Au  Au34  1  0.307608  0.255007  0.891640  1
  Au  Au35  1  0.255007  0.307608  0.108360  1
