# generated using pymatgen
data_HfTa4(NiP)4
_symmetry_space_group_name_H-M   'P 1'
_cell_length_a   7.28902803
_cell_length_b   7.28902878
_cell_length_c   7.29149871
_cell_angle_alpha   93.59776665
_cell_angle_beta   93.20701537
_cell_angle_gamma   151.79532985
_symmetry_Int_Tables_number   1
_chemical_formula_structural   HfTa4(NiP)4
_chemical_formula_sum   'Hf1 Ta4 Ni4 P4'
_cell_volume   177.57706450
_cell_formula_units_Z   1
loop_
 _symmetry_equiv_pos_site_id
 _symmetry_equiv_pos_as_xyz
  1  'x, y, z'
loop_
 _atom_site_type_symbol
 _atom_site_label
 _atom_site_symmetry_multiplicity
 _atom_site_fract_x
 _atom_site_fract_y
 _atom_site_fract_z
 _atom_site_occupancy
  Hf  Hf0  1  0.869692  0.197244  0.066935  1
  Ta  Ta1  1  0.128194  0.806192  0.934386  1
  Ta  Ta2  1  0.196135  0.130497  0.326632  1
  Ta  Ta3  1  0.805032  0.867723  0.672754  1
  Ta  Ta4  1  0.500338  0.499011  0.999348  1
  Ni  Ni5  1  0.609912  0.086747  0.696658  1
  Ni  Ni6  1  0.388977  0.915395  0.304372  1
  Ni  Ni7  1  0.088080  0.389010  0.477089  1
  Ni  Ni8  1  0.912647  0.611279  0.523927  1
  P  P9  1  0.757583  0.445532  0.203115  1
  P  P10  1  0.241046  0.553166  0.794212  1
  P  P11  1  0.444453  0.240451  0.684904  1
  P  P12  1  0.557912  0.757754  0.315665  1
