# generated using pymatgen
data_Ba3La(BO3)3
_symmetry_space_group_name_H-M   'P 1'
_cell_length_a   8.37414025
_cell_length_b   8.37414061
_cell_length_c   8.37414042
_cell_angle_alpha   105.42464289
_cell_angle_beta   105.42465079
_cell_angle_gamma   105.42466095
_symmetry_Int_Tables_number   1
_chemical_formula_structural   Ba3La(BO3)3
_chemical_formula_sum   'Ba6 La2 B6 O18'
_cell_volume   508.62109965
_cell_formula_units_Z   2
loop_
 _symmetry_equiv_pos_site_id
 _symmetry_equiv_pos_as_xyz
  1  'x, y, z'
loop_
 _atom_site_type_symbol
 _atom_site_label
 _atom_site_symmetry_multiplicity
 _atom_site_fract_x
 _atom_site_fract_y
 _atom_site_fract_z
 _atom_site_occupancy
  Ba  Ba0  1  0.359578  0.732836  0.857618  1
  Ba  Ba1  1  0.857618  0.359578  0.732836  1
  Ba  Ba2  1  0.732836  0.857618  0.359578  1
  Ba  Ba3  1  0.640422  0.267164  0.142382  1
  Ba  Ba4  1  0.142382  0.640422  0.267164  1
  Ba  Ba5  1  0.267164  0.142382  0.640422  1
  La  La6  1  0.500000  0.500000  0.500000  1
  La  La7  1  0.000000  0.000000  0.000000  1
  B  B8  1  0.706944  0.611160  0.958816  1
  B  B9  1  0.958816  0.706944  0.611160  1
  B  B10  1  0.611160  0.958816  0.706944  1
  B  B11  1  0.041184  0.293056  0.388840  1
  B  B12  1  0.388840  0.041184  0.293056  1
  B  B13  1  0.293056  0.388840  0.041184  1
  O  O14  1  0.043983  0.807849  0.531307  1
  O  O15  1  0.531307  0.043983  0.807849  1
  O  O16  1  0.437331  0.492461  0.201283  1
  O  O17  1  0.492461  0.201283  0.437331  1
  O  O18  1  0.201283  0.437331  0.492461  1
  O  O19  1  0.798717  0.562669  0.507539  1
  O  O20  1  0.562669  0.507539  0.798717  1
  O  O21  1  0.507539  0.798717  0.562669  1
  O  O22  1  0.255355  0.205574  0.973537  1
  O  O23  1  0.205574  0.973537  0.255355  1
  O  O24  1  0.973537  0.255355  0.205574  1
  O  O25  1  0.744645  0.794426  0.026463  1
  O  O26  1  0.794426  0.026463  0.744645  1
  O  O27  1  0.026463  0.744645  0.794426  1
  O  O28  1  0.192151  0.468693  0.956017  1
  O  O29  1  0.468693  0.956017  0.192151  1
  O  O30  1  0.956017  0.192151  0.468693  1
  O  O31  1  0.807849  0.531307  0.043983  1
