# generated using pymatgen
data_CsMgMoF6
_symmetry_space_group_name_H-M   'P 1'
_cell_length_a   7.64690176
_cell_length_b   7.64690244
_cell_length_c   7.64690217
_cell_angle_alpha   120.86893654
_cell_angle_beta   119.06328203
_cell_angle_gamma   90.06581207
_symmetry_Int_Tables_number   1
_chemical_formula_structural   CsMgMoF6
_chemical_formula_sum   'Cs2 Mg2 Mo2 F12'
_cell_volume   316.24894581
_cell_formula_units_Z   2
loop_
 _symmetry_equiv_pos_site_id
 _symmetry_equiv_pos_as_xyz
  1  'x, y, z'
loop_
 _atom_site_type_symbol
 _atom_site_label
 _atom_site_symmetry_multiplicity
 _atom_site_fract_x
 _atom_site_fract_y
 _atom_site_fract_z
 _atom_site_occupancy
  Cs  Cs0  1  0.853498  0.603498  0.250000  1
  Cs  Cs1  1  0.146502  0.396502  0.750000  1
  Mg  Mg2  1  0.500000  0.000000  0.000000  1
  Mg  Mg3  1  0.500000  0.500000  0.500000  1
  Mo  Mo4  1  0.500000  0.000000  0.500000  1
  Mo  Mo5  1  0.000000  0.000000  0.000000  1
  F  F6  1  0.558480  0.326305  0.641923  1
  F  F7  1  0.815618  0.673695  0.732175  1
  F  F8  1  0.441520  0.083443  0.767825  1
  F  F9  1  0.184382  0.916557  0.858077  1
  F  F10  1  0.441520  0.673695  0.358077  1
  F  F11  1  0.184382  0.326305  0.267825  1
  F  F12  1  0.558480  0.916557  0.232175  1
  F  F13  1  0.815618  0.083443  0.141923  1
  F  F14  1  0.831849  0.081849  0.750000  1
  F  F15  1  0.168151  0.918151  0.250000  1
  F  F16  1  0.551218  0.301218  0.250000  1
  F  F17  1  0.448782  0.698782  0.750000  1
