# generated using pymatgen
data_Sc4Al16GaSiIr6
_symmetry_space_group_name_H-M   'P 1'
_cell_length_a   7.46474242
_cell_length_b   7.46474315
_cell_length_c   9.28380800
_cell_angle_alpha   90.00000000
_cell_angle_beta   90.00000000
_cell_angle_gamma   119.76093098
_symmetry_Int_Tables_number   1
_chemical_formula_structural   Sc4Al16GaSiIr6
_chemical_formula_sum   'Sc4 Al16 Ga1 Si1 Ir6'
_cell_volume   449.08408859
_cell_formula_units_Z   1
loop_
 _symmetry_equiv_pos_site_id
 _symmetry_equiv_pos_as_xyz
  1  'x, y, z'
loop_
 _atom_site_type_symbol
 _atom_site_label
 _atom_site_symmetry_multiplicity
 _atom_site_fract_x
 _atom_site_fract_y
 _atom_site_fract_z
 _atom_site_occupancy
  Sc  Sc0  1  0.994961  0.676884  0.250000  1
  Sc  Sc1  1  0.003973  0.328715  0.750000  1
  Sc  Sc2  1  0.676884  0.994961  0.250000  1
  Sc  Sc3  1  0.328715  0.003973  0.750000  1
  Al  Al4  1  0.997985  0.336779  0.078933  1
  Al  Al5  1  0.001205  0.665767  0.923615  1
  Al  Al6  1  0.001205  0.665767  0.576385  1
  Al  Al7  1  0.336779  0.997985  0.421067  1
  Al  Al8  1  0.997985  0.336779  0.421067  1
  Al  Al9  1  0.665767  0.001205  0.576385  1
  Al  Al10  1  0.665767  0.001205  0.923615  1
  Al  Al11  1  0.336779  0.997985  0.078933  1
  Al  Al12  1  0.330225  0.330225  0.561676  1
  Al  Al13  1  0.665678  0.665678  0.440395  1
  Al  Al14  1  0.665678  0.665678  0.059605  1
  Al  Al15  1  0.330225  0.330225  0.938324  1
  Al  Al16  1  0.336718  0.553097  0.250000  1
  Al  Al17  1  0.661748  0.446926  0.750000  1
  Al  Al18  1  0.553097  0.336718  0.250000  1
  Al  Al19  1  0.446926  0.661748  0.750000  1
  Ga  Ga20  1  0.875463  0.875463  0.750000  1
  Si  Si21  1  0.129745  0.129745  0.250000  1
  Ir  Ir22  1  0.670664  0.327041  0.000053  1
  Ir  Ir23  1  0.327041  0.670664  0.000053  1
  Ir  Ir24  1  0.327041  0.670664  0.499947  1
  Ir  Ir25  1  0.670664  0.327041  0.499947  1
  Ir  Ir26  1  0.000543  0.000543  0.010161  1
  Ir  Ir27  1  0.000543  0.000543  0.489839  1
