# generated using pymatgen
data_Rb2Mg3Se4
_symmetry_space_group_name_H-M   'P 1'
_cell_length_a   9.94076704
_cell_length_b   9.94076747
_cell_length_c   9.94076715
_cell_angle_alpha   143.06630295
_cell_angle_beta   105.48541703
_cell_angle_gamma   86.19709314
_symmetry_Int_Tables_number   1
_chemical_formula_structural   Rb2Mg3Se4
_chemical_formula_sum   'Rb4 Mg6 Se8'
_cell_volume   550.19058118
_cell_formula_units_Z   2
loop_
 _symmetry_equiv_pos_site_id
 _symmetry_equiv_pos_as_xyz
  1  'x, y, z'
loop_
 _atom_site_type_symbol
 _atom_site_label
 _atom_site_symmetry_multiplicity
 _atom_site_fract_x
 _atom_site_fract_y
 _atom_site_fract_z
 _atom_site_occupancy
  Rb  Rb0  1  0.122383  0.264348  0.386731  1
  Rb  Rb1  1  0.877617  0.735652  0.613269  1
  Rb  Rb2  1  0.622383  0.235652  0.858033  1
  Rb  Rb3  1  0.377617  0.764348  0.141967  1
  Mg  Mg4  1  0.250000  0.250000  0.000000  1
  Mg  Mg5  1  0.750000  0.750000  0.000000  1
  Mg  Mg6  1  0.520933  0.250000  0.270933  1
  Mg  Mg7  1  0.479067  0.750000  0.729067  1
  Mg  Mg8  1  0.979067  0.250000  0.729067  1
  Mg  Mg9  1  0.020933  0.750000  0.270933  1
  Se  Se10  1  0.486917  0.575799  0.354927  1
  Se  Se11  1  0.513083  0.424201  0.645073  1
  Se  Se12  1  0.220871  0.131989  0.645073  1
  Se  Se13  1  0.279129  0.924201  0.911118  1
  Se  Se14  1  0.779129  0.868011  0.354927  1
  Se  Se15  1  0.720871  0.075799  0.088882  1
  Se  Se16  1  0.013083  0.368011  0.088882  1
  Se  Se17  1  0.986917  0.631989  0.911118  1
