# generated using pymatgen
data_Nb12Ga8Co4CN3
_symmetry_space_group_name_H-M   'P 1'
_cell_length_a   8.20467944
_cell_length_b   8.20033764
_cell_length_c   8.20033600
_cell_angle_alpha   60.00000663
_cell_angle_beta   60.01751038
_cell_angle_gamma   60.01751093
_symmetry_Int_Tables_number   1
_chemical_formula_structural   Nb12Ga8Co4CN3
_chemical_formula_sum   'Nb12 Ga8 Co4 C1 N3'
_cell_volume   390.23383230
_cell_formula_units_Z   1
loop_
 _symmetry_equiv_pos_site_id
 _symmetry_equiv_pos_as_xyz
  1  'x, y, z'
loop_
 _atom_site_type_symbol
 _atom_site_label
 _atom_site_symmetry_multiplicity
 _atom_site_fract_x
 _atom_site_fract_y
 _atom_site_fract_z
 _atom_site_occupancy
  Nb  Nb0  1  0.689345  0.309985  0.690684  1
  Nb  Nb1  1  0.941613  0.558352  0.558352  1
  Nb  Nb2  1  0.560655  0.940015  0.940015  1
  Nb  Nb3  1  0.941613  0.558352  0.941682  1
  Nb  Nb4  1  0.560655  0.559316  0.940015  1
  Nb  Nb5  1  0.941613  0.941682  0.558352  1
  Nb  Nb6  1  0.689345  0.690684  0.309985  1
  Nb  Nb7  1  0.308387  0.691648  0.691648  1
  Nb  Nb8  1  0.689345  0.309985  0.309985  1
  Nb  Nb9  1  0.308387  0.308318  0.691648  1
  Nb  Nb10  1  0.560655  0.940015  0.559316  1
  Nb  Nb11  1  0.308387  0.691648  0.308318  1
  Ga  Ga12  1  0.333053  0.333586  0.333586  1
  Ga  Ga13  1  0.250511  0.916496  0.916496  1
  Ga  Ga14  1  0.916947  0.250224  0.916414  1
  Ga  Ga15  1  0.916947  0.916414  0.250224  1
  Ga  Ga16  1  0.333053  0.999776  0.333586  1
  Ga  Ga17  1  0.333053  0.333586  0.999776  1
  Ga  Ga18  1  0.999489  0.333504  0.333504  1
  Ga  Ga19  1  0.916947  0.916414  0.916414  1
  Co  Co20  1  0.125000  0.125000  0.125000  1
  Co  Co21  1  0.625000  0.125000  0.125000  1
  Co  Co22  1  0.125000  0.625000  0.125000  1
  Co  Co23  1  0.125000  0.125000  0.625000  1
  C  C24  1  0.125000  0.625000  0.625000  1
  N  N25  1  0.625000  0.625000  0.625000  1
  N  N26  1  0.625000  0.125000  0.625000  1
  N  N27  1  0.625000  0.625000  0.125000  1
