# generated using pymatgen
data_BaFeNi(Sb6Os)2
_symmetry_space_group_name_H-M   'P 1'
_cell_length_a   8.13636514
_cell_length_b   8.08545437
_cell_length_c   8.13046173
_cell_angle_alpha   109.45071700
_cell_angle_beta   109.63075250
_cell_angle_gamma   109.54578360
_symmetry_Int_Tables_number   1
_chemical_formula_structural   BaFeNi(Sb6Os)2
_chemical_formula_sum   'Ba1 Fe1 Ni1 Sb12 Os2'
_cell_volume   410.65514830
_cell_formula_units_Z   1
loop_
 _symmetry_equiv_pos_site_id
 _symmetry_equiv_pos_as_xyz
  1  'x, y, z'
loop_
 _atom_site_type_symbol
 _atom_site_label
 _atom_site_symmetry_multiplicity
 _atom_site_fract_x
 _atom_site_fract_y
 _atom_site_fract_z
 _atom_site_occupancy
  Ba  Ba0  1  0.000000  0.000000  0.000000  1
  Fe  Fe1  1  0.500000  0.000000  0.000000  1
  Ni  Ni2  1  0.000000  0.000000  0.500000  1
  Sb  Sb3  1  0.843172  0.658957  0.498914  1
  Sb  Sb4  1  0.156828  0.341043  0.501086  1
  Sb  Sb5  1  0.167057  0.666575  0.823050  1
  Sb  Sb6  1  0.832943  0.333425  0.176950  1
  Sb  Sb7  1  0.657105  0.498715  0.841046  1
  Sb  Sb8  1  0.342895  0.501285  0.158954  1
  Sb  Sb9  1  0.655657  0.821381  0.155868  1
  Sb  Sb10  1  0.344343  0.178619  0.844132  1
  Sb  Sb11  1  0.499373  0.844636  0.667322  1
  Sb  Sb12  1  0.500627  0.155364  0.332678  1
  Sb  Sb13  1  0.184596  0.843652  0.344911  1
  Sb  Sb14  1  0.815404  0.156348  0.655089  1
  Os  Os15  1  0.500000  0.500000  0.500000  1
  Os  Os16  1  0.000000  0.500000  0.000000  1
