# generated using pymatgen
data_Y8TiNb11Si16
_symmetry_space_group_name_H-M   'P 1'
_cell_length_a   7.07749884
_cell_length_b   7.07749755
_cell_length_c   13.06058841
_cell_angle_alpha   89.93460578
_cell_angle_beta   90.06539223
_cell_angle_gamma   90.00729058
_symmetry_Int_Tables_number   1
_chemical_formula_structural   Y8TiNb11Si16
_chemical_formula_sum   'Y8 Ti1 Nb11 Si16'
_cell_volume   654.21682477
_cell_formula_units_Z   1
loop_
 _symmetry_equiv_pos_site_id
 _symmetry_equiv_pos_as_xyz
  1  'x, y, z'
loop_
 _atom_site_type_symbol
 _atom_site_label
 _atom_site_symmetry_multiplicity
 _atom_site_fract_x
 _atom_site_fract_y
 _atom_site_fract_z
 _atom_site_occupancy
  Y  Y0  1  0.342239  0.002144  0.466869  1
  Y  Y1  1  0.497776  0.842111  0.717235  1
  Y  Y2  1  0.501713  0.157630  0.217584  1
  Y  Y3  1  0.842111  0.497776  0.282765  1
  Y  Y4  1  0.157630  0.501713  0.782416  1
  Y  Y5  1  0.658076  0.998234  0.967153  1
  Y  Y6  1  0.002144  0.342239  0.533131  1
  Y  Y7  1  0.998234  0.658076  0.032847  1
  Ti  Ti8  1  0.672035  0.672035  0.500000  1
  Nb  Nb9  1  0.328180  0.328180  0.000000  1
  Nb  Nb10  1  0.172338  0.827675  0.250233  1
  Nb  Nb11  1  0.827675  0.172338  0.749767  1
  Nb  Nb12  1  0.153111  0.007476  0.873428  1
  Nb  Nb13  1  0.492337  0.653368  0.123915  1
  Nb  Nb14  1  0.507888  0.345867  0.623948  1
  Nb  Nb15  1  0.653368  0.492337  0.876085  1
  Nb  Nb16  1  0.345867  0.507888  0.376052  1
  Nb  Nb17  1  0.846522  0.992601  0.373388  1
  Nb  Nb18  1  0.007476  0.153111  0.126572  1
  Nb  Nb19  1  0.992601  0.846522  0.626612  1
  Si  Si20  1  0.204396  0.133014  0.682347  1
  Si  Si21  1  0.366621  0.703952  0.932484  1
  Si  Si22  1  0.633841  0.297625  0.433375  1
  Si  Si23  1  0.703952  0.366621  0.067516  1
  Si  Si24  1  0.297625  0.633841  0.566625  1
  Si  Si25  1  0.795362  0.866566  0.182862  1
  Si  Si26  1  0.133014  0.204396  0.317653  1
  Si  Si27  1  0.866566  0.795362  0.817138  1
  Si  Si28  1  0.292935  0.954015  0.063254  1
  Si  Si29  1  0.547609  0.791680  0.314497  1
  Si  Si30  1  0.453584  0.207356  0.812892  1
  Si  Si31  1  0.791680  0.547609  0.685503  1
  Si  Si32  1  0.207356  0.453584  0.187108  1
  Si  Si33  1  0.707411  0.044711  0.562392  1
  Si  Si34  1  0.954015  0.292935  0.936746  1
  Si  Si35  1  0.044711  0.707411  0.437608  1
