# generated using pymatgen
data_Tb3HoTcB12Os
_symmetry_space_group_name_H-M   'P 1'
_cell_length_a   3.68280700
_cell_length_b   9.17575049
_cell_length_c   11.56915339
_cell_angle_alpha   89.94667154
_cell_angle_beta   90.00000000
_cell_angle_gamma   90.00000000
_symmetry_Int_Tables_number   1
_chemical_formula_structural   Tb3HoTcB12Os
_chemical_formula_sum   'Tb6 Ho2 Tc2 B24 Os2'
_cell_volume   390.95065639
_cell_formula_units_Z   2
loop_
 _symmetry_equiv_pos_site_id
 _symmetry_equiv_pos_as_xyz
  1  'x, y, z'
loop_
 _atom_site_type_symbol
 _atom_site_label
 _atom_site_symmetry_multiplicity
 _atom_site_fract_x
 _atom_site_fract_y
 _atom_site_fract_z
 _atom_site_occupancy
  Tb  Tb0  1  0.000000  0.325038  0.415119  1
  Tb  Tb1  1  0.000000  0.674962  0.584881  1
  Tb  Tb2  1  0.000000  0.820934  0.087130  1
  Tb  Tb3  1  0.000000  0.179066  0.912870  1
  Tb  Tb4  1  0.000000  0.941354  0.370543  1
  Tb  Tb5  1  0.000000  0.058646  0.629457  1
  Ho  Ho6  1  0.000000  0.443473  0.129900  1
  Ho  Ho7  1  0.000000  0.556527  0.870100  1
  Tc  Tc8  1  0.000000  0.637637  0.319927  1
  Tc  Tc9  1  0.000000  0.362363  0.680073  1
  B  B10  1  0.500000  0.553113  0.432560  1
  B  B11  1  0.500000  0.446887  0.567440  1
  B  B12  1  0.500000  0.053977  0.067306  1
  B  B13  1  0.500000  0.946023  0.932694  1
  B  B14  1  0.500000  0.747439  0.418390  1
  B  B15  1  0.500000  0.252561  0.581610  1
  B  B16  1  0.500000  0.248832  0.081739  1
  B  B17  1  0.500000  0.751168  0.918261  1
  B  B18  1  0.500000  0.790147  0.265400  1
  B  B19  1  0.500000  0.209853  0.734600  1
  B  B20  1  0.500000  0.290522  0.233836  1
  B  B21  1  0.500000  0.709478  0.766164  1
  B  B22  1  0.500000  0.630597  0.185342  1
  B  B23  1  0.500000  0.369403  0.814658  1
  B  B24  1  0.500000  0.131012  0.313292  1
  B  B25  1  0.500000  0.868988  0.686708  1
  B  B26  1  0.500000  0.983597  0.211603  1
  B  B27  1  0.500000  0.016403  0.788397  1
  B  B28  1  0.500000  0.482892  0.287337  1
  B  B29  1  0.500000  0.517108  0.712663  1
  B  B30  1  0.500000  0.602557  0.028282  1
  B  B31  1  0.500000  0.397443  0.971718  1
  B  B32  1  0.500000  0.103906  0.470918  1
  B  B33  1  0.500000  0.896094  0.529082  1
  Os  Os34  1  0.000000  0.138104  0.177901  1
  Os  Os35  1  0.000000  0.861896  0.822099  1
