# generated using pymatgen
data_Zr6Al16Cu4Re2Ru
_symmetry_space_group_name_H-M   'P 1'
_cell_length_a   8.77856945
_cell_length_b   8.62792197
_cell_length_c   8.77857077
_cell_angle_alpha   60.56606916
_cell_angle_beta   58.86785577
_cell_angle_gamma   60.56607043
_symmetry_Int_Tables_number   1
_chemical_formula_structural   Zr6Al16Cu4Re2Ru
_chemical_formula_sum   'Zr6 Al16 Cu4 Re2 Ru1'
_cell_volume   469.88024853
_cell_formula_units_Z   1
loop_
 _symmetry_equiv_pos_site_id
 _symmetry_equiv_pos_as_xyz
  1  'x, y, z'
loop_
 _atom_site_type_symbol
 _atom_site_label
 _atom_site_symmetry_multiplicity
 _atom_site_fract_x
 _atom_site_fract_y
 _atom_site_fract_z
 _atom_site_occupancy
  Zr  Zr0  1  0.197203  0.802797  0.802797  1
  Zr  Zr1  1  0.802797  0.197203  0.197203  1
  Zr  Zr2  1  0.788145  0.211855  0.788145  1
  Zr  Zr3  1  0.802797  0.802797  0.197203  1
  Zr  Zr4  1  0.211855  0.788145  0.211855  1
  Zr  Zr5  1  0.197203  0.197203  0.802797  1
  Al  Al6  1  0.833564  0.838889  0.833564  1
  Al  Al7  1  0.838889  0.833564  0.493981  1
  Al  Al8  1  0.493981  0.833564  0.838889  1
  Al  Al9  1  0.833564  0.493981  0.833564  1
  Al  Al10  1  0.166436  0.161111  0.166436  1
  Al  Al11  1  0.161111  0.166436  0.506019  1
  Al  Al12  1  0.166436  0.506019  0.166436  1
  Al  Al13  1  0.506019  0.166436  0.161111  1
  Al  Al14  1  0.614994  0.626087  0.614994  1
  Al  Al15  1  0.626087  0.614994  0.143925  1
  Al  Al16  1  0.143925  0.614994  0.626087  1
  Al  Al17  1  0.614994  0.143925  0.614994  1
  Al  Al18  1  0.385006  0.373913  0.385006  1
  Al  Al19  1  0.373913  0.385006  0.856075  1
  Al  Al20  1  0.385006  0.856075  0.385006  1
  Al  Al21  1  0.856075  0.385006  0.373913  1
  Cu  Cu22  1  0.000000  0.500000  0.500000  1
  Cu  Cu23  1  0.500000  0.000000  0.000000  1
  Cu  Cu24  1  0.500000  0.500000  0.000000  1
  Cu  Cu25  1  0.000000  0.000000  0.500000  1
  Re  Re26  1  0.500000  0.000000  0.500000  1
  Re  Re27  1  0.000000  0.500000  0.000000  1
  Ru  Ru28  1  0.500000  0.500000  0.500000  1
