# generated using pymatgen
data_CuP6PdO18
_symmetry_space_group_name_H-M   'P 1'
_cell_length_a   5.03744517
_cell_length_b   6.84342881
_cell_length_c   10.65989800
_cell_angle_alpha   96.83549766
_cell_angle_beta   93.85049762
_cell_angle_gamma   95.77784012
_symmetry_Int_Tables_number   1
_chemical_formula_structural   CuP6PdO18
_chemical_formula_sum   'Cu1 P6 Pd1 O18'
_cell_volume   361.85048481
_cell_formula_units_Z   1
loop_
 _symmetry_equiv_pos_site_id
 _symmetry_equiv_pos_as_xyz
  1  'x, y, z'
loop_
 _atom_site_type_symbol
 _atom_site_label
 _atom_site_symmetry_multiplicity
 _atom_site_fract_x
 _atom_site_fract_y
 _atom_site_fract_z
 _atom_site_occupancy
  Cu  Cu0  1  0.000000  0.500000  0.500000  1
  P  P1  1  0.529815  0.964624  0.180421  1
  P  P2  1  0.244566  0.307192  0.224746  1
  P  P3  1  0.491005  0.329220  0.636440  1
  P  P4  1  0.470185  0.035376  0.819579  1
  P  P5  1  0.755434  0.692808  0.775254  1
  P  P6  1  0.508995  0.670780  0.363560  1
  Pd  Pd7  1  0.000000  0.000000  0.000000  1
  O  O8  1  0.516130  0.192607  0.215465  1
  O  O9  1  0.107532  0.276862  0.088634  1
  O  O10  1  0.318660  0.877036  0.072562  1
  O  O11  1  0.199735  0.355409  0.618784  1
  O  O12  1  0.666152  0.336336  0.528978  1
  O  O13  1  0.188604  0.080012  0.850099  1
  O  O14  1  0.620781  0.470828  0.764202  1
  O  O15  1  0.892468  0.723138  0.911366  1
  O  O16  1  0.517976  0.118937  0.690371  1
  O  O17  1  0.800265  0.644591  0.381216  1
  O  O18  1  0.903002  0.741211  0.666120  1
  O  O19  1  0.811396  0.919988  0.149901  1
  O  O20  1  0.483870  0.807393  0.784535  1
  O  O21  1  0.681340  0.122964  0.927438  1
  O  O22  1  0.482024  0.881063  0.309629  1
  O  O23  1  0.096998  0.258789  0.333880  1
  O  O24  1  0.379219  0.529172  0.235798  1
  O  O25  1  0.333848  0.663664  0.471022  1
