# generated using pymatgen
data_NdFeCoO5
_symmetry_space_group_name_H-M   'P 1'
_cell_length_a   5.80214600
_cell_length_b   7.51756400
_cell_length_c   8.67240800
_cell_angle_alpha   90.00000000
_cell_angle_beta   90.00000000
_cell_angle_gamma   90.00000000
_symmetry_Int_Tables_number   1
_chemical_formula_structural   NdFeCoO5
_chemical_formula_sum   'Nd4 Fe4 Co4 O20'
_cell_volume   378.27312590
_cell_formula_units_Z   4
loop_
 _symmetry_equiv_pos_site_id
 _symmetry_equiv_pos_as_xyz
  1  'x, y, z'
loop_
 _atom_site_type_symbol
 _atom_site_label
 _atom_site_symmetry_multiplicity
 _atom_site_fract_x
 _atom_site_fract_y
 _atom_site_fract_z
 _atom_site_occupancy
  Nd  Nd0  1  0.500000  0.361308  0.328319  1
  Nd  Nd1  1  0.500000  0.638692  0.671681  1
  Nd  Nd2  1  0.500000  0.138692  0.828319  1
  Nd  Nd3  1  0.500000  0.861308  0.171681  1
  Fe  Fe4  1  0.000000  0.112824  0.143946  1
  Fe  Fe5  1  0.000000  0.887176  0.856054  1
  Fe  Fe6  1  0.000000  0.387176  0.643946  1
  Fe  Fe7  1  0.000000  0.612824  0.356054  1
  Co  Co8  1  0.247667  0.000000  0.500000  1
  Co  Co9  1  0.752333  0.000000  0.500000  1
  Co  Co10  1  0.752333  0.500000  0.000000  1
  Co  Co11  1  0.247667  0.500000  0.000000  1
  O  O12  1  0.227547  0.000000  0.000000  1
  O  O13  1  0.772453  0.000000  0.000000  1
  O  O14  1  0.772453  0.500000  0.500000  1
  O  O15  1  0.227547  0.500000  0.500000  1
  O  O16  1  0.000000  0.351145  0.063209  1
  O  O17  1  0.000000  0.648855  0.936791  1
  O  O18  1  0.000000  0.148855  0.563209  1
  O  O19  1  0.000000  0.851145  0.436791  1
  O  O20  1  0.252422  0.097350  0.297525  1
  O  O21  1  0.747578  0.902650  0.702475  1
  O  O22  1  0.252422  0.902650  0.702475  1
  O  O23  1  0.747578  0.402650  0.797525  1
  O  O24  1  0.747578  0.097350  0.297525  1
  O  O25  1  0.252422  0.597350  0.202475  1
  O  O26  1  0.747578  0.597350  0.202475  1
  O  O27  1  0.252422  0.402650  0.797525  1
  O  O28  1  0.500000  0.347008  0.051249  1
  O  O29  1  0.500000  0.652992  0.948751  1
  O  O30  1  0.500000  0.152992  0.551249  1
  O  O31  1  0.500000  0.847008  0.448751  1
