# generated using pymatgen
data_Ho2Ni9MoP6
_symmetry_space_group_name_H-M   'P 1'
_cell_length_a   3.69317300
_cell_length_b   10.44702300
_cell_length_c   11.92575300
_cell_angle_alpha   90.00000000
_cell_angle_beta   90.00000000
_cell_angle_gamma   90.00000000
_symmetry_Int_Tables_number   1
_chemical_formula_structural   Ho2Ni9MoP6
_chemical_formula_sum   'Ho4 Ni18 Mo2 P12'
_cell_volume   460.12731229
_cell_formula_units_Z   2
loop_
 _symmetry_equiv_pos_site_id
 _symmetry_equiv_pos_as_xyz
  1  'x, y, z'
loop_
 _atom_site_type_symbol
 _atom_site_label
 _atom_site_symmetry_multiplicity
 _atom_site_fract_x
 _atom_site_fract_y
 _atom_site_fract_z
 _atom_site_occupancy
  Ho  Ho0  1  0.250000  0.581232  0.705477  1
  Ho  Ho1  1  0.250000  0.918768  0.205477  1
  Ho  Ho2  1  0.750000  0.413305  0.294367  1
  Ho  Ho3  1  0.750000  0.086695  0.794367  1
  Ni  Ni4  1  0.750000  0.285752  0.009812  1
  Ni  Ni5  1  0.750000  0.214248  0.509812  1
  Ni  Ni6  1  0.250000  0.406461  0.486852  1
  Ni  Ni7  1  0.250000  0.093539  0.986852  1
  Ni  Ni8  1  0.750000  0.589618  0.512214  1
  Ni  Ni9  1  0.750000  0.910382  0.012214  1
  Ni  Ni10  1  0.250000  0.219871  0.177103  1
  Ni  Ni11  1  0.250000  0.280129  0.677103  1
  Ni  Ni12  1  0.750000  0.779483  0.822121  1
  Ni  Ni13  1  0.750000  0.720517  0.322121  1
  Ni  Ni14  1  0.250000  0.887053  0.704086  1
  Ni  Ni15  1  0.250000  0.612947  0.204086  1
  Ni  Ni16  1  0.750000  0.119988  0.298756  1
  Ni  Ni17  1  0.750000  0.380012  0.798756  1
  Ni  Ni18  1  0.250000  0.461637  0.931283  1
  Ni  Ni19  1  0.250000  0.038363  0.431283  1
  Ni  Ni20  1  0.750000  0.529927  0.069845  1
  Ni  Ni21  1  0.750000  0.970073  0.569845  1
  Mo  Mo22  1  0.250000  0.706759  0.988624  1
  Mo  Mo23  1  0.250000  0.793241  0.488624  1
  P  P24  1  0.250000  0.417260  0.113002  1
  P  P25  1  0.250000  0.082740  0.613002  1
  P  P26  1  0.750000  0.579418  0.885431  1
  P  P27  1  0.750000  0.920582  0.385431  1
  P  P28  1  0.250000  0.268162  0.868701  1
  P  P29  1  0.250000  0.231838  0.368701  1
  P  P30  1  0.750000  0.732151  0.132856  1
  P  P31  1  0.750000  0.767849  0.632856  1
  P  P32  1  0.250000  0.595546  0.391303  1
  P  P33  1  0.250000  0.904454  0.891303  1
  P  P34  1  0.750000  0.397444  0.608169  1
  P  P35  1  0.750000  0.102556  0.108169  1
