# generated using pymatgen
data_LiTb2(P2Rh3)3
_symmetry_space_group_name_H-M   'P 1'
_cell_length_a   3.95057800
_cell_length_b   10.83703800
_cell_length_c   12.56475700
_cell_angle_alpha   90.00000000
_cell_angle_beta   90.00000000
_cell_angle_gamma   90.00000000
_symmetry_Int_Tables_number   1
_chemical_formula_structural   LiTb2(P2Rh3)3
_chemical_formula_sum   'Li2 Tb4 P12 Rh18'
_cell_volume   537.92946205
_cell_formula_units_Z   2
loop_
 _symmetry_equiv_pos_site_id
 _symmetry_equiv_pos_as_xyz
  1  'x, y, z'
loop_
 _atom_site_type_symbol
 _atom_site_label
 _atom_site_symmetry_multiplicity
 _atom_site_fract_x
 _atom_site_fract_y
 _atom_site_fract_z
 _atom_site_occupancy
  Li  Li0  1  0.250000  0.706447  0.991284  1
  Li  Li1  1  0.250000  0.793553  0.491284  1
  Tb  Tb2  1  0.250000  0.578935  0.704329  1
  Tb  Tb3  1  0.250000  0.921065  0.204329  1
  Tb  Tb4  1  0.750000  0.426159  0.300638  1
  Tb  Tb5  1  0.750000  0.073841  0.800638  1
  P  P6  1  0.250000  0.429455  0.116388  1
  P  P7  1  0.250000  0.070545  0.616388  1
  P  P8  1  0.750000  0.572180  0.882166  1
  P  P9  1  0.750000  0.927820  0.382166  1
  P  P10  1  0.250000  0.259508  0.866640  1
  P  P11  1  0.250000  0.240492  0.366640  1
  P  P12  1  0.750000  0.736292  0.139662  1
  P  P13  1  0.750000  0.763708  0.639662  1
  P  P14  1  0.250000  0.605585  0.392239  1
  P  P15  1  0.250000  0.894415  0.892239  1
  P  P16  1  0.750000  0.400972  0.606949  1
  P  P17  1  0.750000  0.099028  0.106949  1
  Rh  Rh18  1  0.750000  0.274387  0.000928  1
  Rh  Rh19  1  0.750000  0.225613  0.500928  1
  Rh  Rh20  1  0.250000  0.411027  0.482650  1
  Rh  Rh21  1  0.250000  0.088973  0.982650  1
  Rh  Rh22  1  0.750000  0.594616  0.521811  1
  Rh  Rh23  1  0.750000  0.905384  0.021811  1
  Rh  Rh24  1  0.250000  0.234845  0.176109  1
  Rh  Rh25  1  0.250000  0.265155  0.676109  1
  Rh  Rh26  1  0.750000  0.771501  0.826952  1
  Rh  Rh27  1  0.750000  0.728499  0.326952  1
  Rh  Rh28  1  0.250000  0.876309  0.700190  1
  Rh  Rh29  1  0.250000  0.623691  0.200190  1
  Rh  Rh30  1  0.750000  0.118073  0.292605  1
  Rh  Rh31  1  0.750000  0.381927  0.792605  1
  Rh  Rh32  1  0.250000  0.457872  0.931299  1
  Rh  Rh33  1  0.250000  0.042128  0.431299  1
  Rh  Rh34  1  0.750000  0.536524  0.067161  1
  Rh  Rh35  1  0.750000  0.963476  0.567161  1
