# generated using pymatgen
data_Sc11FeOsPt2
_symmetry_space_group_name_H-M   'P 1'
_cell_length_a   9.47611847
_cell_length_b   9.51718188
_cell_length_c   9.47611799
_cell_angle_alpha   59.85654864
_cell_angle_beta   60.28690205
_cell_angle_gamma   59.85654987
_symmetry_Int_Tables_number   1
_chemical_formula_structural   Sc11FeOsPt2
_chemical_formula_sum   'Sc22 Fe2 Os2 Pt4'
_cell_volume   604.27959953
_cell_formula_units_Z   2
loop_
 _symmetry_equiv_pos_site_id
 _symmetry_equiv_pos_as_xyz
  1  'x, y, z'
loop_
 _atom_site_type_symbol
 _atom_site_label
 _atom_site_symmetry_multiplicity
 _atom_site_fract_x
 _atom_site_fract_y
 _atom_site_fract_z
 _atom_site_occupancy
  Sc  Sc0  1  0.843714  0.837352  0.843714  1
  Sc  Sc1  1  0.524780  0.156286  0.162648  1
  Sc  Sc2  1  0.162648  0.156286  0.524780  1
  Sc  Sc3  1  0.156286  0.524780  0.156286  1
  Sc  Sc4  1  0.837352  0.843714  0.475220  1
  Sc  Sc5  1  0.843714  0.475220  0.843714  1
  Sc  Sc6  1  0.475220  0.843714  0.837352  1
  Sc  Sc7  1  0.156286  0.162648  0.156286  1
  Sc  Sc8  1  0.190892  0.809108  0.190892  1
  Sc  Sc9  1  0.191159  0.808841  0.808841  1
  Sc  Sc10  1  0.808841  0.191159  0.191159  1
  Sc  Sc11  1  0.808841  0.808841  0.191159  1
  Sc  Sc12  1  0.191159  0.191159  0.808841  1
  Sc  Sc13  1  0.809108  0.190892  0.809108  1
  Sc  Sc14  1  0.387419  0.381523  0.387419  1
  Sc  Sc15  1  0.156361  0.612581  0.618477  1
  Sc  Sc16  1  0.612581  0.156361  0.612581  1
  Sc  Sc17  1  0.618477  0.612581  0.156361  1
  Sc  Sc18  1  0.387419  0.843639  0.387419  1
  Sc  Sc19  1  0.381523  0.387419  0.843639  1
  Sc  Sc20  1  0.843639  0.387419  0.381523  1
  Sc  Sc21  1  0.612581  0.618477  0.612581  1
  Fe  Fe22  1  0.500000  0.500000  0.500000  1
  Fe  Fe23  1  0.000000  0.000000  0.000000  1
  Os  Os24  1  0.500000  0.000000  0.500000  1
  Os  Os25  1  0.000000  0.500000  0.000000  1
  Pt  Pt26  1  0.500000  0.500000  0.000000  1
  Pt  Pt27  1  0.000000  0.000000  0.500000  1
  Pt  Pt28  1  0.000000  0.500000  0.500000  1
  Pt  Pt29  1  0.500000  0.000000  0.000000  1
