# generated using pymatgen
data_Tb8CdInOs2
_symmetry_space_group_name_H-M   'P 1'
_cell_length_a   9.67116092
_cell_length_b   9.67116092
_cell_length_c   9.71243800
_cell_angle_alpha   59.85871990
_cell_angle_beta   59.85871990
_cell_angle_gamma   59.82236697
_symmetry_Int_Tables_number   1
_chemical_formula_structural   Tb8CdInOs2
_chemical_formula_sum   'Tb16 Cd2 In2 Os4'
_cell_volume   640.11180682
_cell_formula_units_Z   2
loop_
 _symmetry_equiv_pos_site_id
 _symmetry_equiv_pos_as_xyz
  1  'x, y, z'
loop_
 _atom_site_type_symbol
 _atom_site_label
 _atom_site_symmetry_multiplicity
 _atom_site_fract_x
 _atom_site_fract_y
 _atom_site_fract_z
 _atom_site_occupancy
  Tb  Tb0  1  0.347609  0.347609  0.345950  1
  Tb  Tb1  1  0.347609  0.347609  0.958834  1
  Tb  Tb2  1  0.349475  0.957788  0.346369  1
  Tb  Tb3  1  0.957788  0.349475  0.346369  1
  Tb  Tb4  1  0.808543  0.190921  0.191353  1
  Tb  Tb5  1  0.190921  0.808543  0.809183  1
  Tb  Tb6  1  0.190921  0.808543  0.191353  1
  Tb  Tb7  1  0.808543  0.190921  0.809183  1
  Tb  Tb8  1  0.189367  0.189367  0.810633  1
  Tb  Tb9  1  0.807725  0.807725  0.192275  1
  Tb  Tb10  1  0.943053  0.558208  0.556877  1
  Tb  Tb11  1  0.558208  0.943053  0.941863  1
  Tb  Tb12  1  0.558208  0.943053  0.556877  1
  Tb  Tb13  1  0.943053  0.558208  0.941863  1
  Tb  Tb14  1  0.558497  0.558497  0.941503  1
  Tb  Tb15  1  0.944518  0.944518  0.555482  1
  Cd  Cd16  1  0.578218  0.257878  0.581952  1
  Cd  Cd17  1  0.257878  0.578218  0.581952  1
  In  In18  1  0.579670  0.579670  0.583388  1
  In  In19  1  0.579670  0.579670  0.257270  1
  Os  Os20  1  0.138991  0.138991  0.139000  1
  Os  Os21  1  0.138991  0.138991  0.583018  1
  Os  Os22  1  0.140235  0.582308  0.138728  1
  Os  Os23  1  0.582308  0.140235  0.138728  1
