# generated using pymatgen
data_Y5ScC2Br7
_symmetry_space_group_name_H-M   'P 1'
_cell_length_a   10.53894887
_cell_length_b   10.53894871
_cell_length_c   12.30337291
_cell_angle_alpha   57.48868896
_cell_angle_beta   57.48868911
_cell_angle_gamma   20.73606182
_symmetry_Int_Tables_number   1
_chemical_formula_structural   Y5ScC2Br7
_chemical_formula_sum   'Y5 Sc1 C2 Br7'
_cell_volume   405.23006497
_cell_formula_units_Z   1
loop_
 _symmetry_equiv_pos_site_id
 _symmetry_equiv_pos_as_xyz
  1  'x, y, z'
loop_
 _atom_site_type_symbol
 _atom_site_label
 _atom_site_symmetry_multiplicity
 _atom_site_fract_x
 _atom_site_fract_y
 _atom_site_fract_z
 _atom_site_occupancy
  Y  Y0  1  0.234713  0.234713  0.820928  1
  Y  Y1  1  0.312957  0.312957  0.367226  1
  Y  Y2  1  0.130217  0.130217  0.446612  1
  Y  Y3  1  0.869813  0.869813  0.550936  1
  Y  Y4  1  0.688041  0.688041  0.630101  1
  Sc  Sc5  1  0.762824  0.762824  0.192468  1
  C  C6  1  0.281296  0.281296  0.599094  1
  C  C7  1  0.719662  0.719662  0.396604  1
  Br  Br8  1  0.170545  0.170545  0.175746  1
  Br  Br9  1  0.839316  0.839316  0.818784  1
  Br  Br10  1  0.058657  0.058657  0.716976  1
  Br  Br11  1  0.942182  0.942182  0.279295  1
  Br  Br12  1  0.500885  0.500885  0.498449  1
  Br  Br13  1  0.374657  0.374657  0.083694  1
  Br  Br14  1  0.614236  0.614236  0.923086  1
