# generated using pymatgen
data_SrAl3Ga
_symmetry_space_group_name_H-M   'P 1'
_cell_length_a   6.39777501
_cell_length_b   6.39777435
_cell_length_c   6.39777501
_cell_angle_alpha   139.43262298
_cell_angle_beta   139.43261057
_cell_angle_gamma   58.71580767
_symmetry_Int_Tables_number   1
_chemical_formula_structural   SrAl3Ga
_chemical_formula_sum   'Sr1 Al3 Ga1'
_cell_volume   109.71864741
_cell_formula_units_Z   1
loop_
 _symmetry_equiv_pos_site_id
 _symmetry_equiv_pos_as_xyz
  1  'x, y, z'
loop_
 _atom_site_type_symbol
 _atom_site_label
 _atom_site_symmetry_multiplicity
 _atom_site_fract_x
 _atom_site_fract_y
 _atom_site_fract_z
 _atom_site_occupancy
  Sr  Sr0  1  0.998745  0.998745  0.000000  1
  Al  Al1  1  0.615603  0.615603  0.000000  1
  Al  Al2  1  0.750928  0.250928  0.500000  1
  Al  Al3  1  0.250928  0.750928  0.500000  1
  Ga  Ga4  1  0.383797  0.383797  0.000000  1
