# generated using pymatgen
data_YPa(B4Os)2
_symmetry_space_group_name_H-M   'P 1'
_cell_length_a   3.58723900
_cell_length_b   5.99483389
_cell_length_c   11.62129658
_cell_angle_alpha   90.11240642
_cell_angle_beta   90.00000000
_cell_angle_gamma   90.00000000
_symmetry_Int_Tables_number   1
_chemical_formula_structural   YPa(B4Os)2
_chemical_formula_sum   'Y2 Pa2 B16 Os4'
_cell_volume   249.91436229
_cell_formula_units_Z   2
loop_
 _symmetry_equiv_pos_site_id
 _symmetry_equiv_pos_as_xyz
  1  'x, y, z'
loop_
 _atom_site_type_symbol
 _atom_site_label
 _atom_site_symmetry_multiplicity
 _atom_site_fract_x
 _atom_site_fract_y
 _atom_site_fract_z
 _atom_site_occupancy
  Y  Y0  1  0.000000  0.128856  0.851938  1
  Y  Y1  1  0.000000  0.871144  0.148062  1
  Pa  Pa2  1  0.000000  0.628920  0.650765  1
  Pa  Pa3  1  0.000000  0.371080  0.349235  1
  B  B4  1  0.500000  0.972754  0.691586  1
  B  B5  1  0.500000  0.027246  0.308414  1
  B  B6  1  0.500000  0.471798  0.809661  1
  B  B7  1  0.500000  0.528202  0.190339  1
  B  B8  1  0.500000  0.789095  0.813606  1
  B  B9  1  0.500000  0.210905  0.186394  1
  B  B10  1  0.500000  0.290896  0.687186  1
  B  B11  1  0.500000  0.709104  0.312814  1
  B  B12  1  0.500000  0.862966  0.969126  1
  B  B13  1  0.500000  0.137034  0.030874  1
  B  B14  1  0.500000  0.366088  0.532369  1
  B  B15  1  0.500000  0.633912  0.467631  1
  B  B16  1  0.500000  0.887153  0.546457  1
  B  B17  1  0.500000  0.112847  0.453543  1
  B  B18  1  0.500000  0.386654  0.954434  1
  B  B19  1  0.500000  0.613346  0.045566  1
  Os  Os20  1  0.000000  0.639821  0.904626  1
  Os  Os21  1  0.000000  0.360179  0.095374  1
  Os  Os22  1  0.000000  0.142186  0.595132  1
  Os  Os23  1  0.000000  0.857814  0.404868  1
