# generated using pymatgen
data_La9PrNd2Fe2I17
_symmetry_space_group_name_H-M   'P 1'
_cell_length_a   9.92980105
_cell_length_b   12.00687001
_cell_length_c   12.16554073
_cell_angle_alpha   73.61275200
_cell_angle_beta   74.86113274
_cell_angle_gamma   67.28604972
_symmetry_Int_Tables_number   1
_chemical_formula_structural   La9PrNd2Fe2I17
_chemical_formula_sum   'La9 Pr1 Nd2 Fe2 I17'
_cell_volume   1264.47278634
_cell_formula_units_Z   1
loop_
 _symmetry_equiv_pos_site_id
 _symmetry_equiv_pos_as_xyz
  1  'x, y, z'
loop_
 _atom_site_type_symbol
 _atom_site_label
 _atom_site_symmetry_multiplicity
 _atom_site_fract_x
 _atom_site_fract_y
 _atom_site_fract_z
 _atom_site_occupancy
  La  La0  1  0.840860  0.282323  0.848538  1
  La  La1  1  0.421905  0.236544  0.731192  1
  La  La2  1  0.705847  0.994815  0.917649  1
  La  La3  1  0.550148  0.520615  0.670728  1
  La  La4  1  0.436012  0.328964  0.002117  1
  La  La5  1  0.578307  0.762687  0.267066  1
  La  La6  1  0.830846  0.184228  0.576342  1
  La  La7  1  0.170161  0.813521  0.422536  1
  La  La8  1  0.158356  0.717210  0.152011  1
  Pr  Pr9  1  0.298204  0.997027  0.083089  1
  Nd  Nd10  1  0.451354  0.485743  0.324736  1
  Nd  Nd11  1  0.557802  0.676620  0.003497  1
  Fe  Fe12  1  0.362667  0.734782  0.213189  1
  Fe  Fe13  1  0.635172  0.265688  0.787623  1
  I  I14  1  0.059110  0.104617  0.316050  1
  I  I15  1  0.459232  0.940303  0.821422  1
  I  I16  1  0.429832  0.824574  0.528311  1
  I  I17  1  0.568264  0.181562  0.468777  1
  I  I18  1  0.857062  0.691554  0.048340  1
  I  I19  1  0.215906  0.417955  0.250921  1
  I  I20  1  0.688935  0.370755  0.106171  1
  I  I21  1  0.539449  0.058529  0.178601  1
  I  I22  1  0.744209  0.473621  0.410312  1
  I  I23  1  0.886853  0.783139  0.368301  1
  I  I24  1  0.942295  0.892917  0.683519  1
  I  I25  1  0.143682  0.304633  0.951046  1
  I  I26  1  0.312975  0.633571  0.894106  1
  I  I27  1  0.000914  0.999808  0.999930  1
  I  I28  1  0.111235  0.216703  0.631848  1
  I  I29  1  0.784406  0.582367  0.758249  1
  I  I30  1  0.257999  0.522626  0.583776  1
