# generated using pymatgen
data_Eu4Mg4Fe(CoH11)2
_symmetry_space_group_name_H-M   'P 1'
_cell_length_a   6.77604000
_cell_length_b   6.78962600
_cell_length_c   6.78962600
_cell_angle_alpha   90.00000000
_cell_angle_beta   90.00000000
_cell_angle_gamma   90.00000000
_symmetry_Int_Tables_number   1
_chemical_formula_structural   Eu4Mg4Fe(CoH11)2
_chemical_formula_sum   'Eu4 Mg4 Fe1 Co2 H22'
_cell_volume   312.36881175
_cell_formula_units_Z   1
loop_
 _symmetry_equiv_pos_site_id
 _symmetry_equiv_pos_as_xyz
  1  'x, y, z'
loop_
 _atom_site_type_symbol
 _atom_site_label
 _atom_site_symmetry_multiplicity
 _atom_site_fract_x
 _atom_site_fract_y
 _atom_site_fract_z
 _atom_site_occupancy
  Eu  Eu0  1  0.291943  0.291042  0.708958  1
  Eu  Eu1  1  0.291943  0.708958  0.291042  1
  Eu  Eu2  1  0.708057  0.291042  0.291042  1
  Eu  Eu3  1  0.708057  0.708958  0.708958  1
  Mg  Mg4  1  0.785608  0.790931  0.209069  1
  Mg  Mg5  1  0.785608  0.209069  0.790931  1
  Mg  Mg6  1  0.214392  0.790931  0.790931  1
  Mg  Mg7  1  0.214392  0.209069  0.209069  1
  Fe  Fe8  1  0.500000  0.000000  0.000000  1
  Co  Co9  1  0.000000  0.000000  0.500000  1
  Co  Co10  1  0.000000  0.500000  0.000000  1
  H  H11  1  0.000000  0.500000  0.235348  1
  H  H12  1  0.500000  0.763820  0.000000  1
  H  H13  1  0.764241  0.000000  0.500000  1
  H  H14  1  0.000000  0.764652  0.500000  1
  H  H15  1  0.500000  0.000000  0.236180  1
  H  H16  1  0.764241  0.500000  0.000000  1
  H  H17  1  0.000000  0.500000  0.764652  1
  H  H18  1  0.500000  0.236180  0.000000  1
  H  H19  1  0.000000  0.235348  0.500000  1
  H  H20  1  0.500000  0.000000  0.763820  1
  H  H21  1  0.235759  0.000000  0.500000  1
  H  H22  1  0.235759  0.500000  0.000000  1
  H  H23  1  0.000000  0.000000  0.265090  1
  H  H24  1  0.000000  0.734910  0.000000  1
  H  H25  1  0.736006  0.000000  0.000000  1
  H  H26  1  0.000000  0.000000  0.734910  1
  H  H27  1  0.000000  0.265090  0.000000  1
  H  H28  1  0.263994  0.000000  0.000000  1
  H  H29  1  0.630638  0.629863  0.370137  1
  H  H30  1  0.630638  0.370137  0.629863  1
  H  H31  1  0.369362  0.629863  0.629863  1
  H  H32  1  0.369362  0.370137  0.370137  1
