# generated using pymatgen
data_HfTa3Nb(NiP)4
_symmetry_space_group_name_H-M   'P 1'
_cell_length_a   7.28850927
_cell_length_b   7.28850918
_cell_length_c   7.30199939
_cell_angle_alpha   93.56004581
_cell_angle_beta   93.23123247
_cell_angle_gamma   151.80208402
_symmetry_Int_Tables_number   1
_chemical_formula_structural   HfTa3Nb(NiP)4
_chemical_formula_sum   'Hf1 Ta3 Nb1 Ni4 P4'
_cell_volume   177.78828131
_cell_formula_units_Z   1
loop_
 _symmetry_equiv_pos_site_id
 _symmetry_equiv_pos_as_xyz
  1  'x, y, z'
loop_
 _atom_site_type_symbol
 _atom_site_label
 _atom_site_symmetry_multiplicity
 _atom_site_fract_x
 _atom_site_fract_y
 _atom_site_fract_z
 _atom_site_occupancy
  Hf  Hf0  1  0.869489  0.197445  0.066935  1
  Ta  Ta1  1  0.196044  0.130518  0.326561  1
  Ta  Ta2  1  0.804904  0.867959  0.672862  1
  Ta  Ta3  1  0.500167  0.499292  0.999459  1
  Nb  Nb4  1  0.128320  0.806638  0.934958  1
  Ni  Ni5  1  0.609860  0.085379  0.695239  1
  Ni  Ni6  1  0.389766  0.915865  0.305632  1
  Ni  Ni7  1  0.088056  0.388731  0.476786  1
  Ni  Ni8  1  0.912262  0.611234  0.523497  1
  P  P9  1  0.758068  0.445929  0.203996  1
  P  P10  1  0.241049  0.553120  0.794168  1
  P  P11  1  0.444384  0.240251  0.684637  1
  P  P12  1  0.557631  0.757639  0.315269  1
