# generated using pymatgen
data_Tb(UPd4)3
_symmetry_space_group_name_H-M   'P 1'
_cell_length_a   5.84129100
_cell_length_b   5.84129177
_cell_length_c   9.64121800
_cell_angle_alpha   90.00000000
_cell_angle_beta   90.00000000
_cell_angle_gamma   120.00000129
_symmetry_Int_Tables_number   1
_chemical_formula_structural   Tb(UPd4)3
_chemical_formula_sum   'Tb1 U3 Pd12'
_cell_volume   284.89201117
_cell_formula_units_Z   1
loop_
 _symmetry_equiv_pos_site_id
 _symmetry_equiv_pos_as_xyz
  1  'x, y, z'
loop_
 _atom_site_type_symbol
 _atom_site_label
 _atom_site_symmetry_multiplicity
 _atom_site_fract_x
 _atom_site_fract_y
 _atom_site_fract_z
 _atom_site_occupancy
  Tb  Tb0  1  0.000000  0.000000  0.500000  1
  U  U1  1  0.000000  0.000000  0.000000  1
  U  U2  1  0.333333  0.666667  0.745403  1
  U  U3  1  0.666667  0.333333  0.254597  1
  Pd  Pd4  1  0.500000  0.500000  0.500000  1
  Pd  Pd5  1  0.500000  0.000000  0.500000  1
  Pd  Pd6  1  0.000000  0.500000  0.500000  1
  Pd  Pd7  1  0.500000  0.500000  0.000000  1
  Pd  Pd8  1  0.500000  0.000000  0.000000  1
  Pd  Pd9  1  0.000000  0.500000  0.000000  1
  Pd  Pd10  1  0.172460  0.827540  0.247263  1
  Pd  Pd11  1  0.172460  0.344921  0.247263  1
  Pd  Pd12  1  0.655079  0.827540  0.247263  1
  Pd  Pd13  1  0.827540  0.172460  0.752737  1
  Pd  Pd14  1  0.827540  0.655079  0.752737  1
  Pd  Pd15  1  0.344921  0.172460  0.752737  1
