# generated using pymatgen
data_ThPa3(CoAs)4
_symmetry_space_group_name_H-M   'P 1'
_cell_length_a   4.06827600
_cell_length_b   4.06827618
_cell_length_c   15.39289700
_cell_angle_alpha   90.00000000
_cell_angle_beta   90.00000000
_cell_angle_gamma   120.00001477
_symmetry_Int_Tables_number   1
_chemical_formula_structural   ThPa3(CoAs)4
_chemical_formula_sum   'Th1 Pa3 Co4 As4'
_cell_volume   220.63365894
_cell_formula_units_Z   1
loop_
 _symmetry_equiv_pos_site_id
 _symmetry_equiv_pos_as_xyz
  1  'x, y, z'
loop_
 _atom_site_type_symbol
 _atom_site_label
 _atom_site_symmetry_multiplicity
 _atom_site_fract_x
 _atom_site_fract_y
 _atom_site_fract_z
 _atom_site_occupancy
  Th  Th0  1  0.000000  0.000000  0.750000  1
  Pa  Pa1  1  0.000000  0.000000  0.250000  1
  Pa  Pa2  1  0.000000  0.000000  0.000891  1
  Pa  Pa3  1  0.000000  0.000000  0.499109  1
  Co  Co4  1  0.333333  0.666667  0.151675  1
  Co  Co5  1  0.666667  0.333333  0.899170  1
  Co  Co6  1  0.666667  0.333333  0.600830  1
  Co  Co7  1  0.333333  0.666667  0.348325  1
  As  As8  1  0.333333  0.666667  0.622691  1
  As  As9  1  0.666667  0.333333  0.378458  1
  As  As10  1  0.666667  0.333333  0.121542  1
  As  As11  1  0.333333  0.666667  0.877309  1
