# generated using pymatgen
data_Sr4InSb3Pt4
_symmetry_space_group_name_H-M   'P 1'
_cell_length_a   4.75212800
_cell_length_b   7.77791945
_cell_length_c   8.12355028
_cell_angle_alpha   89.13920438
_cell_angle_beta   90.00000000
_cell_angle_gamma   90.00000000
_symmetry_Int_Tables_number   1
_chemical_formula_structural   Sr4InSb3Pt4
_chemical_formula_sum   'Sr4 In1 Sb3 Pt4'
_cell_volume   300.22608938
_cell_formula_units_Z   1
loop_
 _symmetry_equiv_pos_site_id
 _symmetry_equiv_pos_as_xyz
  1  'x, y, z'
loop_
 _atom_site_type_symbol
 _atom_site_label
 _atom_site_symmetry_multiplicity
 _atom_site_fract_x
 _atom_site_fract_y
 _atom_site_fract_z
 _atom_site_occupancy
  Sr  Sr0  1  0.750000  0.990336  0.690725  1
  Sr  Sr1  1  0.250000  0.008698  0.310313  1
  Sr  Sr2  1  0.750000  0.483608  0.806864  1
  Sr  Sr3  1  0.250000  0.515296  0.193606  1
  In  In4  1  0.750000  0.823950  0.084137  1
  Sb  Sb5  1  0.750000  0.321110  0.412563  1
  Sb  Sb6  1  0.250000  0.173704  0.919574  1
  Sb  Sb7  1  0.250000  0.674266  0.585138  1
  Pt  Pt8  1  0.250000  0.808117  0.899914  1
  Pt  Pt9  1  0.250000  0.303570  0.592040  1
  Pt  Pt10  1  0.750000  0.694125  0.411416  1
  Pt  Pt11  1  0.750000  0.203220  0.093711  1
