# generated using pymatgen
data_RbNb(CuS2)2
_symmetry_space_group_name_H-M   'P 1'
_cell_length_a   9.86913665
_cell_length_b   9.86913688
_cell_length_c   7.59285300
_cell_angle_alpha   90.00000000
_cell_angle_beta   90.00000000
_cell_angle_gamma   147.25554351
_symmetry_Int_Tables_number   1
_chemical_formula_structural   RbNb(CuS2)2
_chemical_formula_sum   'Rb2 Nb2 Cu4 S8'
_cell_volume   400.01360749
_cell_formula_units_Z   2
loop_
 _symmetry_equiv_pos_site_id
 _symmetry_equiv_pos_as_xyz
  1  'x, y, z'
loop_
 _atom_site_type_symbol
 _atom_site_label
 _atom_site_symmetry_multiplicity
 _atom_site_fract_x
 _atom_site_fract_y
 _atom_site_fract_z
 _atom_site_occupancy
  Rb  Rb0  1  0.185082  0.824785  0.750000  1
  Rb  Rb1  1  0.824785  0.185082  0.250000  1
  Nb  Nb2  1  0.642594  0.860024  0.750000  1
  Nb  Nb3  1  0.860024  0.642594  0.250000  1
  Cu  Cu4  1  0.147794  0.354070  0.750000  1
  Cu  Cu5  1  0.354070  0.147794  0.250000  1
  Cu  Cu6  1  0.735138  0.735138  0.000000  1
  Cu  Cu7  1  0.735138  0.735138  0.500000  1
  S  S8  1  0.980058  0.992285  0.750000  1
  S  S9  1  0.992285  0.980058  0.250000  1
  S  S10  1  0.402706  0.609391  0.996346  1
  S  S11  1  0.609391  0.402706  0.003654  1
  S  S12  1  0.402706  0.609391  0.503654  1
  S  S13  1  0.609391  0.402706  0.496346  1
  S  S14  1  0.803605  0.211430  0.750000  1
  S  S15  1  0.211430  0.803605  0.250000  1
