# generated using pymatgen
data_Ba4Sr2EuHoBi12
_symmetry_space_group_name_H-M   'P 1'
_cell_length_a   6.86055263
_cell_length_b   7.06907198
_cell_length_c   15.39132100
_cell_angle_alpha   90.00000000
_cell_angle_beta   90.00000000
_cell_angle_gamma   88.87498112
_symmetry_Int_Tables_number   1
_chemical_formula_structural   Ba4Sr2EuHoBi12
_chemical_formula_sum   'Ba4 Sr2 Eu1 Ho1 Bi12'
_cell_volume   746.30040079
_cell_formula_units_Z   1
loop_
 _symmetry_equiv_pos_site_id
 _symmetry_equiv_pos_as_xyz
  1  'x, y, z'
loop_
 _atom_site_type_symbol
 _atom_site_label
 _atom_site_symmetry_multiplicity
 _atom_site_fract_x
 _atom_site_fract_y
 _atom_site_fract_z
 _atom_site_occupancy
  Ba  Ba0  1  0.541948  0.501122  0.247937  1
  Ba  Ba1  1  0.453690  0.496617  0.752385  1
  Ba  Ba2  1  0.958052  0.998878  0.247937  1
  Ba  Ba3  1  0.046310  0.003383  0.752385  1
  Sr  Sr4  1  0.750000  0.250000  0.500713  1
  Sr  Sr5  1  0.250000  0.750000  0.499500  1
  Eu  Eu6  1  0.250000  0.250000  0.000191  1
  Ho  Ho7  1  0.750000  0.750000  0.998793  1
  Bi  Bi8  1  0.750000  0.750000  0.441178  1
  Bi  Bi9  1  0.250000  0.250000  0.559213  1
  Bi  Bi10  1  0.750000  0.250000  0.054218  1
  Bi  Bi11  1  0.250000  0.750000  0.945748  1
  Bi  Bi12  1  0.068375  0.553164  0.144052  1
  Bi  Bi13  1  0.935604  0.444926  0.856004  1
  Bi  Bi14  1  0.065158  0.446084  0.347802  1
  Bi  Bi15  1  0.434842  0.053916  0.347802  1
  Bi  Bi16  1  0.935733  0.552980  0.652042  1
  Bi  Bi17  1  0.564267  0.947020  0.652042  1
  Bi  Bi18  1  0.431625  0.946836  0.144052  1
  Bi  Bi19  1  0.564396  0.055074  0.856004  1
