# generated using pymatgen
data_Y9Lu5Th2(CdNi)4
_symmetry_space_group_name_H-M   'P 1'
_cell_length_a   9.53050942
_cell_length_b   9.53317872
_cell_length_c   9.53555399
_cell_angle_alpha   60.01178085
_cell_angle_beta   60.05610146
_cell_angle_gamma   60.21741639
_symmetry_Int_Tables_number   1
_chemical_formula_structural   Y9Lu5Th2(CdNi)4
_chemical_formula_sum   'Y9 Lu5 Th2 Cd4 Ni4'
_cell_volume   613.92669831
_cell_formula_units_Z   1
loop_
 _symmetry_equiv_pos_site_id
 _symmetry_equiv_pos_as_xyz
  1  'x, y, z'
loop_
 _atom_site_type_symbol
 _atom_site_label
 _atom_site_symmetry_multiplicity
 _atom_site_fract_x
 _atom_site_fract_y
 _atom_site_fract_z
 _atom_site_occupancy
  Y  Y0  1  0.063875  0.439686  0.061691  1
  Y  Y1  1  0.436774  0.434648  0.065074  1
  Y  Y2  1  0.063554  0.063152  0.439006  1
  Y  Y3  1  0.188023  0.815813  0.813420  1
  Y  Y4  1  0.811792  0.186858  0.186025  1
  Y  Y5  1  0.814499  0.187232  0.814085  1
  Y  Y6  1  0.186585  0.813790  0.184563  1
  Y  Y7  1  0.812136  0.814881  0.188205  1
  Y  Y8  1  0.188901  0.187757  0.809995  1
  Lu  Lu9  1  0.598260  0.200441  0.600627  1
  Lu  Lu10  1  0.202235  0.598738  0.598605  1
  Lu  Lu11  1  0.060813  0.439304  0.441280  1
  Lu  Lu12  1  0.441711  0.063130  0.061270  1
  Lu  Lu13  1  0.439183  0.061706  0.439697  1
  Th  Th14  1  0.592329  0.593322  0.599354  1
  Th  Th15  1  0.592680  0.594472  0.209713  1
  Cd  Cd16  1  0.832719  0.833276  0.827381  1
  Cd  Cd17  1  0.833677  0.833162  0.505317  1
  Cd  Cd18  1  0.835344  0.505777  0.828891  1
  Cd  Cd19  1  0.506107  0.835247  0.828979  1
  Ni  Ni20  1  0.390031  0.391145  0.396798  1
  Ni  Ni21  1  0.391991  0.387552  0.817350  1
  Ni  Ni22  1  0.398259  0.821623  0.388494  1
  Ni  Ni23  1  0.818519  0.397287  0.394180  1
