# generated using pymatgen
data_Ac8Ho12Si13Hg3
_symmetry_space_group_name_H-M   'P 1'
_cell_length_a   7.78459564
_cell_length_b   7.99789736
_cell_length_c   15.39357900
_cell_angle_alpha   90.02974433
_cell_angle_beta   89.35475159
_cell_angle_gamma   89.83257504
_symmetry_Int_Tables_number   1
_chemical_formula_structural   Ac8Ho12Si13Hg3
_chemical_formula_sum   'Ac8 Ho12 Si13 Hg3'
_cell_volume   958.34532639
_cell_formula_units_Z   1
loop_
 _symmetry_equiv_pos_site_id
 _symmetry_equiv_pos_as_xyz
  1  'x, y, z'
loop_
 _atom_site_type_symbol
 _atom_site_label
 _atom_site_symmetry_multiplicity
 _atom_site_fract_x
 _atom_site_fract_y
 _atom_site_fract_z
 _atom_site_occupancy
  Ac  Ac0  1  0.993873  0.823047  0.103770  1
  Ac  Ac1  1  0.484551  0.671039  0.400491  1
  Ac  Ac2  1  0.507309  0.321746  0.896654  1
  Ac  Ac3  1  0.013603  0.178817  0.599258  1
  Ac  Ac4  1  0.017239  0.172724  0.898820  1
  Ac  Ac5  1  0.519616  0.329730  0.597605  1
  Ac  Ac6  1  0.482955  0.671797  0.102012  1
  Ac  Ac7  1  0.982019  0.826373  0.399944  1
  Ho  Ho8  1  0.654739  0.002057  0.256603  1
  Ho  Ho9  1  0.159672  0.499328  0.250974  1
  Ho  Ho10  1  0.842111  0.500760  0.745732  1
  Ho  Ho11  1  0.338173  0.000498  0.751442  1
  Ho  Ho12  1  0.663904  0.829727  0.868652  1
  Ho  Ho13  1  0.169888  0.670990  0.625091  1
  Ho  Ho14  1  0.836043  0.331195  0.132122  1
  Ho  Ho15  1  0.322627  0.177493  0.375392  1
  Ho  Ho16  1  0.322894  0.171741  0.125182  1
  Ho  Ho17  1  0.825163  0.325990  0.375404  1
  Ho  Ho18  1  0.178337  0.670623  0.875313  1
  Ho  Ho19  1  0.682784  0.826690  0.623134  1
  Si  Si20  1  0.784950  0.618720  0.251820  1
  Si  Si21  1  0.288162  0.883340  0.252474  1
  Si  Si22  1  0.715301  0.117281  0.747661  1
  Si  Si23  1  0.214643  0.384115  0.747362  1
  Si  Si24  1  0.031720  0.126103  0.252073  1
  Si  Si25  1  0.527324  0.369750  0.251728  1
  Si  Si26  1  0.469380  0.625124  0.748188  1
  Si  Si27  1  0.969776  0.871342  0.748570  1
  Si  Si28  1  0.141926  0.464037  0.460404  1
  Si  Si29  1  0.154885  0.457598  0.043218  1
  Si  Si30  1  0.652859  0.040528  0.456712  1
  Si  Si31  1  0.345341  0.956643  0.957077  1
  Si  Si32  1  0.858756  0.536868  0.537190  1
  Hg  Hg33  1  0.836852  0.544732  0.960919  1
  Hg  Hg34  1  0.347082  0.957928  0.541691  1
  Hg  Hg35  1  0.663540  0.043523  0.039321  1
