# generated using pymatgen
data_NdY9(In2Ir)4
_symmetry_space_group_name_H-M   'P 1'
_cell_length_a   3.67775800
_cell_length_b   8.05888044
_cell_length_c   18.36101958
_cell_angle_alpha   90.17583502
_cell_angle_beta   90.00000000
_cell_angle_gamma   90.00000000
_symmetry_Int_Tables_number   1
_chemical_formula_structural   NdY9(In2Ir)4
_chemical_formula_sum   'Nd1 Y9 In8 Ir4'
_cell_volume   544.19257289
_cell_formula_units_Z   1
loop_
 _symmetry_equiv_pos_site_id
 _symmetry_equiv_pos_as_xyz
  1  'x, y, z'
loop_
 _atom_site_type_symbol
 _atom_site_label
 _atom_site_symmetry_multiplicity
 _atom_site_fract_x
 _atom_site_fract_y
 _atom_site_fract_z
 _atom_site_occupancy
  Nd  Nd0  1  0.500000  0.000000  0.000000  1
  Y  Y1  1  0.500000  0.243391  0.777705  1
  Y  Y2  1  0.500000  0.756609  0.222295  1
  Y  Y3  1  0.500000  0.257956  0.279712  1
  Y  Y4  1  0.500000  0.742044  0.720288  1
  Y  Y5  1  0.500000  0.114825  0.588836  1
  Y  Y6  1  0.500000  0.885175  0.411164  1
  Y  Y7  1  0.500000  0.382484  0.089824  1
  Y  Y8  1  0.500000  0.617516  0.910176  1
  Y  Y9  1  0.500000  0.500000  0.500000  1
  In  In10  1  0.000000  0.073365  0.152812  1
  In  In11  1  0.000000  0.926635  0.847188  1
  In  In12  1  0.000000  0.426139  0.649561  1
  In  In13  1  0.000000  0.573861  0.350439  1
  In  In14  1  0.000000  0.206869  0.432537  1
  In  In15  1  0.000000  0.793131  0.567463  1
  In  In16  1  0.000000  0.296873  0.930157  1
  In  In17  1  0.000000  0.703127  0.069843  1
  Ir  Ir18  1  0.000000  0.017657  0.694639  1
  Ir  Ir19  1  0.000000  0.982343  0.305361  1
  Ir  Ir20  1  0.000000  0.480542  0.196150  1
  Ir  Ir21  1  0.000000  0.519458  0.803850  1
