# generated using pymatgen
data_Tb4Hf3AlIr4
_symmetry_space_group_name_H-M   'P 1'
_cell_length_a   4.45771700
_cell_length_b   7.10679605
_cell_length_c   8.23364422
_cell_angle_alpha   93.32914387
_cell_angle_beta   90.00000000
_cell_angle_gamma   90.00000000
_symmetry_Int_Tables_number   1
_chemical_formula_structural   Tb4Hf3AlIr4
_chemical_formula_sum   'Tb4 Hf3 Al1 Ir4'
_cell_volume   260.40235746
_cell_formula_units_Z   1
loop_
 _symmetry_equiv_pos_site_id
 _symmetry_equiv_pos_as_xyz
  1  'x, y, z'
loop_
 _atom_site_type_symbol
 _atom_site_label
 _atom_site_symmetry_multiplicity
 _atom_site_fract_x
 _atom_site_fract_y
 _atom_site_fract_z
 _atom_site_occupancy
  Tb  Tb0  1  0.250000  0.982980  0.314779  1
  Tb  Tb1  1  0.250000  0.463003  0.167319  1
  Tb  Tb2  1  0.750000  0.032431  0.686657  1
  Tb  Tb3  1  0.750000  0.507152  0.836032  1
  Hf  Hf4  1  0.250000  0.368527  0.570929  1
  Hf  Hf5  1  0.250000  0.860195  0.937424  1
  Hf  Hf6  1  0.750000  0.638888  0.428113  1
  Al  Al7  1  0.750000  0.139911  0.070056  1
  Ir  Ir8  1  0.250000  0.226095  0.880285  1
  Ir  Ir9  1  0.250000  0.740509  0.599909  1
  Ir  Ir10  1  0.750000  0.771485  0.112135  1
  Ir  Ir11  1  0.750000  0.268824  0.396362  1
