# generated using pymatgen
data_Sc20Cd3CoNiAu3
_symmetry_space_group_name_H-M   'P 1'
_cell_length_a   8.88847900
_cell_length_b   8.88856582
_cell_length_c   8.93891300
_cell_angle_alpha   90.00000000
_cell_angle_beta   90.00000000
_cell_angle_gamma   119.99671633
_symmetry_Int_Tables_number   1
_chemical_formula_structural   Sc20Cd3CoNiAu3
_chemical_formula_sum   'Sc20 Cd3 Co1 Ni1 Au3'
_cell_volume   611.63010675
_cell_formula_units_Z   1
loop_
 _symmetry_equiv_pos_site_id
 _symmetry_equiv_pos_as_xyz
  1  'x, y, z'
loop_
 _atom_site_type_symbol
 _atom_site_label
 _atom_site_symmetry_multiplicity
 _atom_site_fract_x
 _atom_site_fract_y
 _atom_site_fract_z
 _atom_site_occupancy
  Sc  Sc0  1  0.000018  0.999980  0.477286  1
  Sc  Sc1  1  0.000018  0.999980  0.022714  1
  Sc  Sc2  1  0.541688  0.458016  0.250000  1
  Sc  Sc3  1  0.541975  0.083692  0.250000  1
  Sc  Sc4  1  0.916307  0.458311  0.250000  1
  Sc  Sc5  1  0.457276  0.542499  0.750000  1
  Sc  Sc6  1  0.457477  0.914796  0.750000  1
  Sc  Sc7  1  0.085206  0.542756  0.750000  1
  Sc  Sc8  1  0.210771  0.789340  0.435093  1
  Sc  Sc9  1  0.210660  0.421464  0.435075  1
  Sc  Sc10  1  0.578532  0.789220  0.435075  1
  Sc  Sc11  1  0.790009  0.210110  0.557770  1
  Sc  Sc12  1  0.789904  0.579903  0.557806  1
  Sc  Sc13  1  0.420097  0.209976  0.557807  1
  Sc  Sc14  1  0.790009  0.210110  0.942230  1
  Sc  Sc15  1  0.789904  0.579903  0.942194  1
  Sc  Sc16  1  0.420097  0.209976  0.942193  1
  Sc  Sc17  1  0.210771  0.789340  0.064907  1
  Sc  Sc18  1  0.210660  0.421464  0.064925  1
  Sc  Sc19  1  0.578532  0.789220  0.064925  1
  Cd  Cd20  1  0.113161  0.887021  0.750000  1
  Cd  Cd21  1  0.112967  0.226085  0.750000  1
  Cd  Cd22  1  0.773916  0.886859  0.750000  1
  Co  Co23  1  0.333357  0.666637  0.250000  1
  Ni  Ni24  1  0.666681  0.333349  0.750000  1
  Au  Au25  1  0.876908  0.123217  0.250000  1
  Au  Au26  1  0.876812  0.753714  0.250000  1
  Au  Au27  1  0.246282  0.123064  0.250000  1
