# generated using pymatgen
data_Dy4ErIr2Ru
_symmetry_space_group_name_H-M   'P 1'
_cell_length_a   10.81396600
_cell_length_b   10.81396600
_cell_length_c   6.42507000
_cell_angle_alpha   90.00000000
_cell_angle_beta   90.00000000
_cell_angle_gamma   90.00000000
_symmetry_Int_Tables_number   1
_chemical_formula_structural   Dy4ErIr2Ru
_chemical_formula_sum   'Dy16 Er4 Ir8 Ru4'
_cell_volume   751.35964060
_cell_formula_units_Z   4
loop_
 _symmetry_equiv_pos_site_id
 _symmetry_equiv_pos_as_xyz
  1  'x, y, z'
loop_
 _atom_site_type_symbol
 _atom_site_label
 _atom_site_symmetry_multiplicity
 _atom_site_fract_x
 _atom_site_fract_y
 _atom_site_fract_z
 _atom_site_occupancy
  Dy  Dy0  1  0.293094  0.086786  0.378587  1
  Dy  Dy1  1  0.293094  0.913214  0.878587  1
  Dy  Dy2  1  0.706906  0.086786  0.878587  1
  Dy  Dy3  1  0.706906  0.913214  0.378587  1
  Dy  Dy4  1  0.586786  0.793094  0.878587  1
  Dy  Dy5  1  0.586786  0.206906  0.378587  1
  Dy  Dy6  1  0.413214  0.793094  0.378587  1
  Dy  Dy7  1  0.413214  0.206906  0.878587  1
  Dy  Dy8  1  0.206906  0.413214  0.621413  1
  Dy  Dy9  1  0.206906  0.586786  0.121413  1
  Dy  Dy10  1  0.793094  0.413214  0.121413  1
  Dy  Dy11  1  0.793094  0.586786  0.621413  1
  Dy  Dy12  1  0.913214  0.706906  0.121413  1
  Dy  Dy13  1  0.913214  0.293094  0.621413  1
  Dy  Dy14  1  0.086786  0.706906  0.621413  1
  Dy  Dy15  1  0.086786  0.293094  0.121413  1
  Er  Er16  1  0.000000  0.000000  0.500000  1
  Er  Er17  1  0.000000  0.000000  0.000000  1
  Er  Er18  1  0.500000  0.500000  0.000000  1
  Er  Er19  1  0.500000  0.500000  0.500000  1
  Ir  Ir20  1  0.848481  0.151519  0.250000  1
  Ir  Ir21  1  0.848481  0.848481  0.750000  1
  Ir  Ir22  1  0.151519  0.151519  0.750000  1
  Ir  Ir23  1  0.151519  0.848481  0.250000  1
  Ir  Ir24  1  0.651519  0.348481  0.750000  1
  Ir  Ir25  1  0.651519  0.651519  0.250000  1
  Ir  Ir26  1  0.348481  0.348481  0.250000  1
  Ir  Ir27  1  0.348481  0.651519  0.750000  1
  Ru  Ru28  1  0.500000  0.000000  0.123402  1
  Ru  Ru29  1  0.500000  0.000000  0.623402  1
  Ru  Ru30  1  0.000000  0.500000  0.876598  1
  Ru  Ru31  1  0.000000  0.500000  0.376598  1
