# generated using pymatgen
data_La5ZnRuO12
_symmetry_space_group_name_H-M   'P 1'
_cell_length_a   7.13293369
_cell_length_b   7.13293446
_cell_length_c   7.74286323
_cell_angle_alpha   74.38350616
_cell_angle_beta   74.38350537
_cell_angle_gamma   51.75887730
_symmetry_Int_Tables_number   1
_chemical_formula_structural   La5ZnRuO12
_chemical_formula_sum   'La5 Zn1 Ru1 O12'
_cell_volume   295.23691611
_cell_formula_units_Z   1
loop_
 _symmetry_equiv_pos_site_id
 _symmetry_equiv_pos_as_xyz
  1  'x, y, z'
loop_
 _atom_site_type_symbol
 _atom_site_label
 _atom_site_symmetry_multiplicity
 _atom_site_fract_x
 _atom_site_fract_y
 _atom_site_fract_z
 _atom_site_occupancy
  La  La0  1  0.317398  0.299049  0.355424  1
  La  La1  1  0.700951  0.682602  0.644576  1
  La  La2  1  0.693797  0.692447  0.164255  1
  La  La3  1  0.307553  0.306203  0.835745  1
  La  La4  1  0.009619  0.990381  0.500000  1
  Zn  Zn5  1  0.749956  0.250044  0.000000  1
  Ru  Ru6  1  0.234476  0.765524  0.000000  1
  O  O7  1  0.098355  0.592078  0.577203  1
  O  O8  1  0.021875  0.975581  0.173414  1
  O  O9  1  0.407922  0.901645  0.422797  1
  O  O10  1  0.465363  0.537347  0.174348  1
  O  O11  1  0.101192  0.583431  0.078961  1
  O  O12  1  0.911740  0.395731  0.421024  1
  O  O13  1  0.024419  0.978125  0.826586  1
  O  O14  1  0.604269  0.088259  0.578976  1
  O  O15  1  0.462653  0.534637  0.825652  1
  O  O16  1  0.576649  0.104757  0.077237  1
  O  O17  1  0.416569  0.898808  0.921039  1
  O  O18  1  0.895243  0.423351  0.922763  1
