# generated using pymatgen
data_InCoBr18
_symmetry_space_group_name_H-M   'P 1'
_cell_length_a   9.08623127
_cell_length_b   9.05427781
_cell_length_c   9.10921065
_cell_angle_alpha   88.91204860
_cell_angle_beta   88.85030855
_cell_angle_gamma   89.12037595
_symmetry_Int_Tables_number   1
_chemical_formula_structural   InCoBr18
_chemical_formula_sum   'In1 Co1 Br18'
_cell_volume   749.03808570
_cell_formula_units_Z   1
loop_
 _symmetry_equiv_pos_site_id
 _symmetry_equiv_pos_as_xyz
  1  'x, y, z'
loop_
 _atom_site_type_symbol
 _atom_site_label
 _atom_site_symmetry_multiplicity
 _atom_site_fract_x
 _atom_site_fract_y
 _atom_site_fract_z
 _atom_site_occupancy
  In  In0  1  0.000000  0.000000  0.000000  1
  Co  Co1  1  0.500000  0.500000  0.500000  1
  Br  Br2  1  0.764439  0.470872  0.510212  1
  Br  Br3  1  0.511045  0.765199  0.470464  1
  Br  Br4  1  0.471182  0.510805  0.763824  1
  Br  Br5  1  0.235561  0.529128  0.489788  1
  Br  Br6  1  0.488955  0.234801  0.529536  1
  Br  Br7  1  0.528818  0.489195  0.236176  1
  Br  Br8  1  0.880418  0.381898  0.749560  1
  Br  Br9  1  0.751235  0.881499  0.381235  1
  Br  Br10  1  0.381617  0.750859  0.879776  1
  Br  Br11  1  0.119582  0.618102  0.250440  1
  Br  Br12  1  0.248765  0.118501  0.618765  1
  Br  Br13  1  0.618383  0.249141  0.120224  1
  Br  Br14  1  0.022080  0.965419  0.702767  1
  Br  Br15  1  0.701900  0.022601  0.967565  1
  Br  Br16  1  0.966959  0.701013  0.024767  1
  Br  Br17  1  0.977920  0.034581  0.297233  1
  Br  Br18  1  0.298100  0.977399  0.032435  1
  Br  Br19  1  0.033041  0.298987  0.975233  1
