# generated using pymatgen
data_YTh6Ir2Os
_symmetry_space_group_name_H-M   'P 1'
_cell_length_a   10.00333648
_cell_length_b   10.02874677
_cell_length_c   6.36212331
_cell_angle_alpha   90.21709029
_cell_angle_beta   89.83918013
_cell_angle_gamma   119.98157270
_symmetry_Int_Tables_number   1
_chemical_formula_structural   YTh6Ir2Os
_chemical_formula_sum   'Y2 Th12 Ir4 Os2'
_cell_volume   552.84261150
_cell_formula_units_Z   2
loop_
 _symmetry_equiv_pos_site_id
 _symmetry_equiv_pos_as_xyz
  1  'x, y, z'
loop_
 _atom_site_type_symbol
 _atom_site_label
 _atom_site_symmetry_multiplicity
 _atom_site_fract_x
 _atom_site_fract_y
 _atom_site_fract_z
 _atom_site_occupancy
  Y  Y0  1  0.461579  0.538967  0.295487  1
  Y  Y1  1  0.077970  0.538242  0.296412  1
  Th  Th2  1  0.918018  0.459152  0.802845  1
  Th  Th3  1  0.253927  0.129550  0.501603  1
  Th  Th4  1  0.542638  0.083774  0.796012  1
  Th  Th5  1  0.747512  0.873926  0.002618  1
  Th  Th6  1  0.666392  0.332691  0.293935  1
  Th  Th7  1  0.126638  0.869638  0.001433  1
  Th  Th8  1  0.459045  0.916042  0.292849  1
  Th  Th9  1  0.542147  0.458485  0.798762  1
  Th  Th10  1  0.874315  0.130178  0.501410  1
  Th  Th11  1  0.125201  0.254939  0.002006  1
  Th  Th12  1  0.871983  0.743312  0.500096  1
  Th  Th13  1  0.333394  0.666529  0.779970  1
  Ir  Ir14  1  0.625940  0.816442  0.550689  1
  Ir  Ir15  1  0.374050  0.187980  0.053746  1
  Ir  Ir16  1  0.186548  0.373347  0.557418  1
  Ir  Ir17  1  0.190675  0.815601  0.550853  1
  Os  Os18  1  0.811088  0.624737  0.052831  1
  Os  Os19  1  0.810938  0.186469  0.053024  1
