# generated using pymatgen
data_Yb2Y2TmIr2
_symmetry_space_group_name_H-M   'P 1'
_cell_length_a   6.51457301
_cell_length_b   7.27425362
_cell_length_c   8.48647060
_cell_angle_alpha   97.14751193
_cell_angle_beta   112.57057932
_cell_angle_gamma   90.00000018
_symmetry_Int_Tables_number   1
_chemical_formula_structural   Yb2Y2TmIr2
_chemical_formula_sum   'Yb4 Y4 Tm2 Ir4'
_cell_volume   367.97310754
_cell_formula_units_Z   2
loop_
 _symmetry_equiv_pos_site_id
 _symmetry_equiv_pos_as_xyz
  1  'x, y, z'
loop_
 _atom_site_type_symbol
 _atom_site_label
 _atom_site_symmetry_multiplicity
 _atom_site_fract_x
 _atom_site_fract_y
 _atom_site_fract_z
 _atom_site_occupancy
  Yb  Yb0  1  0.974195  0.920500  0.182661  1
  Yb  Yb1  1  0.791534  0.579500  0.817339  1
  Yb  Yb2  1  0.025805  0.079500  0.817339  1
  Yb  Yb3  1  0.208466  0.420500  0.182661  1
  Y  Y4  1  0.648082  0.817540  0.439086  1
  Y  Y5  1  0.208996  0.682460  0.560914  1
  Y  Y6  1  0.351918  0.182460  0.560914  1
  Y  Y7  1  0.791004  0.317540  0.439086  1
  Tm  Tm8  1  0.432341  0.750000  0.000000  1
  Tm  Tm9  1  0.567659  0.250000  0.000000  1
  Ir  Ir10  1  0.811613  0.572896  0.222599  1
  Ir  Ir11  1  0.589014  0.927104  0.777401  1
  Ir  Ir12  1  0.188388  0.427104  0.777401  1
  Ir  Ir13  1  0.410986  0.072896  0.222599  1
