# generated using pymatgen
data_Tm12Co4SnRh
_symmetry_space_group_name_H-M   'P 1'
_cell_length_a   8.17444911
_cell_length_b   8.17444900
_cell_length_c   8.17444865
_cell_angle_alpha   111.01930946
_cell_angle_beta   110.88659488
_cell_angle_gamma   106.54677680
_symmetry_Int_Tables_number   1
_chemical_formula_structural   Tm12Co4SnRh
_chemical_formula_sum   'Tm12 Co4 Sn1 Rh1'
_cell_volume   419.67108443
_cell_formula_units_Z   1
loop_
 _symmetry_equiv_pos_site_id
 _symmetry_equiv_pos_as_xyz
  1  'x, y, z'
loop_
 _atom_site_type_symbol
 _atom_site_label
 _atom_site_symmetry_multiplicity
 _atom_site_fract_x
 _atom_site_fract_y
 _atom_site_fract_z
 _atom_site_occupancy
  Tm  Tm0  1  0.411982  0.216800  0.195182  1
  Tm  Tm1  1  0.588018  0.783200  0.804818  1
  Tm  Tm2  1  0.021619  0.216800  0.804818  1
  Tm  Tm3  1  0.978381  0.783200  0.195182  1
  Tm  Tm4  1  0.185051  0.287256  0.472307  1
  Tm  Tm5  1  0.814949  0.712744  0.527693  1
  Tm  Tm6  1  0.185051  0.712744  0.897795  1
  Tm  Tm7  1  0.814949  0.287256  0.102205  1
  Tm  Tm8  1  0.315171  0.622176  0.307003  1
  Tm  Tm9  1  0.684829  0.377824  0.692997  1
  Tm  Tm10  1  0.315171  0.008168  0.692997  1
  Tm  Tm11  1  0.684829  0.991832  0.307003  1
  Co  Co12  1  0.372066  0.000000  0.372066  1
  Co  Co13  1  0.627934  0.000000  0.627934  1
  Co  Co14  1  0.112572  0.612572  0.500000  1
  Co  Co15  1  0.887428  0.387428  0.500000  1
  Sn  Sn16  1  0.500000  0.500000  0.000000  1
  Rh  Rh17  1  0.000000  0.000000  0.000000  1
