# generated using pymatgen
data_Li3La6Cd20As
_symmetry_space_group_name_H-M   'P 1'
_cell_length_a   10.08995027
_cell_length_b   10.14542734
_cell_length_c   10.14260469
_cell_angle_alpha   59.99079700
_cell_angle_beta   59.98447217
_cell_angle_gamma   59.81795005
_symmetry_Int_Tables_number   1
_chemical_formula_structural   Li3La6Cd20As
_chemical_formula_sum   'Li3 La6 Cd20 As1'
_cell_volume   733.01322496
_cell_formula_units_Z   1
loop_
 _symmetry_equiv_pos_site_id
 _symmetry_equiv_pos_as_xyz
  1  'x, y, z'
loop_
 _atom_site_type_symbol
 _atom_site_label
 _atom_site_symmetry_multiplicity
 _atom_site_fract_x
 _atom_site_fract_y
 _atom_site_fract_z
 _atom_site_occupancy
  Li  Li0  1  0.821253  0.818396  0.541956  1
  Li  Li1  1  0.000441  0.500919  0.997721  1
  Li  Li2  1  0.499900  0.498975  0.502150  1
  La  La3  1  0.788399  0.792609  0.209986  1
  La  La4  1  0.210685  0.790754  0.207806  1
  La  La5  1  0.788399  0.209006  0.209986  1
  La  La6  1  0.211774  0.207220  0.787393  1
  La  La7  1  0.790754  0.209614  0.790017  1
  La  La8  1  0.211774  0.793612  0.787393  1
  Cd  Cd9  1  0.834694  0.508961  0.834600  1
  Cd  Cd10  1  0.513320  0.828276  0.830130  1
  Cd  Cd11  1  0.834694  0.821748  0.834600  1
  Cd  Cd12  1  0.169760  0.170986  0.488265  1
  Cd  Cd13  1  0.164622  0.491336  0.164676  1
  Cd  Cd14  1  0.487813  0.170733  0.170719  1
  Cd  Cd15  1  0.164622  0.179363  0.164676  1
  Cd  Cd16  1  0.626641  0.613790  0.145778  1
  Cd  Cd17  1  0.623070  0.141731  0.615895  1
  Cd  Cd18  1  0.139996  0.617887  0.624230  1
  Cd  Cd19  1  0.623070  0.619304  0.615895  1
  Cd  Cd20  1  0.372604  0.387922  0.851553  1
  Cd  Cd21  1  0.380490  0.852507  0.382100  1
  Cd  Cd22  1  0.855118  0.385442  0.373999  1
  Cd  Cd23  1  0.380490  0.384904  0.382100  1
  Cd  Cd24  1  0.996779  0.995513  0.495839  1
  Cd  Cd25  1  0.512623  0.995306  0.496765  1
  Cd  Cd26  1  0.996779  0.511869  0.495839  1
  Cd  Cd27  1  0.499913  0.499724  0.998304  1
  Cd  Cd28  1  0.499913  0.002058  0.998304  1
  As  As29  1  0.999610  0.999534  0.001323  1
