# generated using pymatgen
data_K(Nb3S4)3
_symmetry_space_group_name_H-M   'P 1'
_cell_length_a   10.23087980
_cell_length_b   10.23088029
_cell_length_c   10.23088000
_cell_angle_alpha   109.95758377
_cell_angle_beta   109.95758477
_cell_angle_gamma   109.95758360
_symmetry_Int_Tables_number   1
_chemical_formula_structural   K(Nb3S4)3
_chemical_formula_sum   'K2 Nb18 S24'
_cell_volume   809.17578242
_cell_formula_units_Z   2
loop_
 _symmetry_equiv_pos_site_id
 _symmetry_equiv_pos_as_xyz
  1  'x, y, z'
loop_
 _atom_site_type_symbol
 _atom_site_label
 _atom_site_symmetry_multiplicity
 _atom_site_fract_x
 _atom_site_fract_y
 _atom_site_fract_z
 _atom_site_occupancy
  K  K0  1  0.000000  0.000000  0.000000  1
  K  K1  1  0.500000  0.500000  0.500000  1
  Nb  Nb2  1  0.663112  0.550204  0.036928  1
  Nb  Nb3  1  0.329081  0.216751  0.702905  1
  Nb  Nb4  1  0.996150  0.883755  0.370920  1
  Nb  Nb5  1  0.883755  0.370920  0.996150  1
  Nb  Nb6  1  0.550204  0.036928  0.663112  1
  Nb  Nb7  1  0.216751  0.702905  0.329081  1
  Nb  Nb8  1  0.702905  0.329081  0.216751  1
  Nb  Nb9  1  0.370920  0.996150  0.883755  1
  Nb  Nb10  1  0.036928  0.663112  0.550204  1
  Nb  Nb11  1  0.670919  0.783249  0.297095  1
  Nb  Nb12  1  0.336888  0.449796  0.963072  1
  Nb  Nb13  1  0.003850  0.116245  0.629080  1
  Nb  Nb14  1  0.449796  0.963072  0.336888  1
  Nb  Nb15  1  0.116245  0.629080  0.003850  1
  Nb  Nb16  1  0.783249  0.297095  0.670919  1
  Nb  Nb17  1  0.629080  0.003850  0.116245  1
  Nb  Nb18  1  0.297095  0.670919  0.783249  1
  Nb  Nb19  1  0.963072  0.336888  0.449796  1
  S  S20  1  0.083448  0.416580  0.749913  1
  S  S21  1  0.416580  0.749913  0.083448  1
  S  S22  1  0.749913  0.083448  0.416580  1
  S  S23  1  0.916552  0.583420  0.250087  1
  S  S24  1  0.250087  0.916552  0.583420  1
  S  S25  1  0.583420  0.250087  0.916552  1
  S  S26  1  0.159352  0.873016  0.219078  1
  S  S27  1  0.491405  0.205315  0.551111  1
  S  S28  1  0.825306  0.540727  0.884370  1
  S  S29  1  0.205315  0.551111  0.491405  1
  S  S30  1  0.540728  0.884370  0.825306  1
  S  S31  1  0.873016  0.219078  0.159352  1
  S  S32  1  0.884370  0.825306  0.540727  1
  S  S33  1  0.219078  0.159352  0.873016  1
  S  S34  1  0.551111  0.491405  0.205315  1
  S  S35  1  0.840648  0.126984  0.780922  1
  S  S36  1  0.174694  0.459273  0.115630  1
  S  S37  1  0.508595  0.794685  0.448889  1
  S  S38  1  0.794685  0.448889  0.508595  1
  S  S39  1  0.126984  0.780922  0.840648  1
  S  S40  1  0.459273  0.115630  0.174694  1
  S  S41  1  0.115630  0.174694  0.459273  1
  S  S42  1  0.448889  0.508595  0.794685  1
  S  S43  1  0.780922  0.840648  0.126984  1
