# generated using pymatgen
data_Lu12Fe2Bi2Os
_symmetry_space_group_name_H-M   'P 1'
_cell_length_a   8.29025389
_cell_length_b   8.29025492
_cell_length_c   8.29025349
_cell_angle_alpha   108.18575683
_cell_angle_beta   108.18574659
_cell_angle_gamma   112.07392930
_symmetry_Int_Tables_number   1
_chemical_formula_structural   Lu12Fe2Bi2Os
_chemical_formula_sum   'Lu12 Fe2 Bi2 Os1'
_cell_volume   437.93094879
_cell_formula_units_Z   1
loop_
 _symmetry_equiv_pos_site_id
 _symmetry_equiv_pos_as_xyz
  1  'x, y, z'
loop_
 _atom_site_type_symbol
 _atom_site_label
 _atom_site_symmetry_multiplicity
 _atom_site_fract_x
 _atom_site_fract_y
 _atom_site_fract_z
 _atom_site_occupancy
  Lu  Lu0  1  0.309396  0.309396  0.618791  1
  Lu  Lu1  1  0.690604  0.690604  0.381209  1
  Lu  Lu2  1  0.690604  0.309396  0.000000  1
  Lu  Lu3  1  0.309396  0.690604  0.000000  1
  Lu  Lu4  1  0.194886  0.426782  0.231897  1
  Lu  Lu5  1  0.805114  0.573218  0.768103  1
  Lu  Lu6  1  0.194886  0.962988  0.768103  1
  Lu  Lu7  1  0.962988  0.194886  0.768103  1
  Lu  Lu8  1  0.805114  0.037012  0.231897  1
  Lu  Lu9  1  0.037012  0.805114  0.231897  1
  Lu  Lu10  1  0.426782  0.194886  0.231897  1
  Lu  Lu11  1  0.573218  0.805114  0.768103  1
  Fe  Fe12  1  0.381681  0.381681  0.000000  1
  Fe  Fe13  1  0.618319  0.618319  0.000000  1
  Bi  Bi14  1  0.000000  0.500000  0.500000  1
  Bi  Bi15  1  0.500000  0.000000  0.500000  1
  Os  Os16  1  0.000000  0.000000  0.000000  1
