# generated using pymatgen
data_Rb2GaSn11
_symmetry_space_group_name_H-M   'P 1'
_cell_length_a   6.87714589
_cell_length_b   6.87714678
_cell_length_c   15.06168626
_cell_angle_alpha   90.16578831
_cell_angle_beta   89.83421203
_cell_angle_gamma   137.30279826
_symmetry_Int_Tables_number   1
_chemical_formula_structural   Rb2GaSn11
_chemical_formula_sum   'Rb2 Ga1 Sn11'
_cell_volume   483.05547024
_cell_formula_units_Z   1
loop_
 _symmetry_equiv_pos_site_id
 _symmetry_equiv_pos_as_xyz
  1  'x, y, z'
loop_
 _atom_site_type_symbol
 _atom_site_label
 _atom_site_symmetry_multiplicity
 _atom_site_fract_x
 _atom_site_fract_y
 _atom_site_fract_z
 _atom_site_occupancy
  Rb  Rb0  1  0.722840  0.277160  0.244127  1
  Rb  Rb1  1  0.277111  0.722889  0.758188  1
  Ga  Ga2  1  0.754234  0.245766  0.953438  1
  Sn  Sn3  1  0.249641  0.750359  0.034955  1
  Sn  Sn4  1  0.750221  0.249779  0.549570  1
  Sn  Sn5  1  0.248572  0.751428  0.451428  1
  Sn  Sn6  1  0.569660  0.430340  0.857584  1
  Sn  Sn7  1  0.434681  0.565319  0.149644  1
  Sn  Sn8  1  0.560441  0.439559  0.660222  1
  Sn  Sn9  1  0.439699  0.560301  0.345399  1
  Sn  Sn10  1  0.961060  0.038940  0.905019  1
  Sn  Sn11  1  0.031383  0.968617  0.089403  1
  Sn  Sn12  1  0.972320  0.027680  0.593913  1
  Sn  Sn13  1  0.028137  0.971863  0.407108  1
