# generated using pymatgen
data_DyEr2Sc2(In2Rh)2
_symmetry_space_group_name_H-M   'P 1'
_cell_length_a   3.53344200
_cell_length_b   7.87469600
_cell_length_c   17.93473500
_cell_angle_alpha   90.00000000
_cell_angle_beta   90.00000000
_cell_angle_gamma   90.00000000
_symmetry_Int_Tables_number   1
_chemical_formula_structural   DyEr2Sc2(In2Rh)2
_chemical_formula_sum   'Dy2 Er4 Sc4 In8 Rh4'
_cell_volume   499.03008414
_cell_formula_units_Z   2
loop_
 _symmetry_equiv_pos_site_id
 _symmetry_equiv_pos_as_xyz
  1  'x, y, z'
loop_
 _atom_site_type_symbol
 _atom_site_label
 _atom_site_symmetry_multiplicity
 _atom_site_fract_x
 _atom_site_fract_y
 _atom_site_fract_z
 _atom_site_occupancy
  Dy  Dy0  1  0.000000  0.000000  0.000000  1
  Dy  Dy1  1  0.000000  0.500000  0.500000  1
  Er  Er2  1  0.000000  0.748182  0.781887  1
  Er  Er3  1  0.000000  0.251818  0.218113  1
  Er  Er4  1  0.000000  0.248182  0.718113  1
  Er  Er5  1  0.000000  0.751818  0.281887  1
  Sc  Sc6  1  0.000000  0.877575  0.588764  1
  Sc  Sc7  1  0.000000  0.122425  0.411236  1
  Sc  Sc8  1  0.000000  0.377575  0.911236  1
  Sc  Sc9  1  0.000000  0.622425  0.088764  1
  In  In10  1  0.500000  0.809389  0.438040  1
  In  In11  1  0.500000  0.190611  0.561960  1
  In  In12  1  0.500000  0.309389  0.061960  1
  In  In13  1  0.500000  0.690611  0.938040  1
  In  In14  1  0.500000  0.925634  0.149754  1
  In  In15  1  0.500000  0.074366  0.850246  1
  In  In16  1  0.500000  0.425634  0.350246  1
  In  In17  1  0.500000  0.574366  0.649754  1
  Rh  Rh18  1  0.500000  0.963043  0.692776  1
  Rh  Rh19  1  0.500000  0.036957  0.307224  1
  Rh  Rh20  1  0.500000  0.463043  0.807224  1
  Rh  Rh21  1  0.500000  0.536957  0.192776  1
