# generated using pymatgen
data_Ac2ThGa3Ir2Ru
_symmetry_space_group_name_H-M   'P 1'
_cell_length_a   7.68920431
_cell_length_b   7.47934130
_cell_length_c   4.03720400
_cell_angle_alpha   90.00000000
_cell_angle_beta   90.00000000
_cell_angle_gamma   119.10119493
_symmetry_Int_Tables_number   1
_chemical_formula_structural   Ac2ThGa3Ir2Ru
_chemical_formula_sum   'Ac2 Th1 Ga3 Ir2 Ru1'
_cell_volume   202.87037889
_cell_formula_units_Z   1
loop_
 _symmetry_equiv_pos_site_id
 _symmetry_equiv_pos_as_xyz
  1  'x, y, z'
loop_
 _atom_site_type_symbol
 _atom_site_label
 _atom_site_symmetry_multiplicity
 _atom_site_fract_x
 _atom_site_fract_y
 _atom_site_fract_z
 _atom_site_occupancy
  Ac  Ac0  1  0.418847  0.418896  0.500000  1
  Ac  Ac1  1  0.581153  0.000050  0.500000  1
  Th  Th2  1  0.000000  0.578617  0.500000  1
  Ga  Ga3  1  0.784491  0.766560  0.000000  1
  Ga  Ga4  1  0.215509  0.982068  0.000000  1
  Ga  Ga5  1  0.000000  0.230128  0.000000  1
  Ir  Ir6  1  0.704834  0.367569  0.000000  1
  Ir  Ir7  1  0.295166  0.662735  0.000000  1
  Ru  Ru8  1  0.000000  0.993378  0.500000  1
