# generated using pymatgen
data_La2GeAs3Ir4
_symmetry_space_group_name_H-M   'P 1'
_cell_length_a   4.37046600
_cell_length_b   4.37046600
_cell_length_c   10.00276500
_cell_angle_alpha   90.00000000
_cell_angle_beta   90.00000000
_cell_angle_gamma   90.00000000
_symmetry_Int_Tables_number   1
_chemical_formula_structural   La2GeAs3Ir4
_chemical_formula_sum   'La2 Ge1 As3 Ir4'
_cell_volume   191.06254476
_cell_formula_units_Z   1
loop_
 _symmetry_equiv_pos_site_id
 _symmetry_equiv_pos_as_xyz
  1  'x, y, z'
loop_
 _atom_site_type_symbol
 _atom_site_label
 _atom_site_symmetry_multiplicity
 _atom_site_fract_x
 _atom_site_fract_y
 _atom_site_fract_z
 _atom_site_occupancy
  La  La0  1  0.000000  0.500000  0.258508  1
  La  La1  1  0.500000  0.000000  0.742342  1
  Ge  Ge2  1  0.500000  0.000000  0.135092  1
  As  As3  1  0.000000  0.000000  0.500170  1
  As  As4  1  0.500000  0.500000  0.500170  1
  As  As5  1  0.000000  0.500000  0.865290  1
  Ir  Ir6  1  0.000000  0.000000  0.998227  1
  Ir  Ir7  1  0.500000  0.500000  0.998227  1
  Ir  Ir8  1  0.000000  0.500000  0.619057  1
  Ir  Ir9  1  0.500000  0.000000  0.382917  1
