# generated using pymatgen
data_ScTa2(MoP)3
_symmetry_space_group_name_H-M   'P 1'
_cell_length_a   6.80855000
_cell_length_b   6.87727819
_cell_length_c   3.35307200
_cell_angle_alpha   90.00000000
_cell_angle_beta   90.00000000
_cell_angle_gamma   119.66996410
_symmetry_Int_Tables_number   1
_chemical_formula_structural   ScTa2(MoP)3
_chemical_formula_sum   'Sc1 Ta2 Mo3 P3'
_cell_volume   136.42044595
_cell_formula_units_Z   1
loop_
 _symmetry_equiv_pos_site_id
 _symmetry_equiv_pos_as_xyz
  1  'x, y, z'
loop_
 _atom_site_type_symbol
 _atom_site_label
 _atom_site_symmetry_multiplicity
 _atom_site_fract_x
 _atom_site_fract_y
 _atom_site_fract_z
 _atom_site_occupancy
  Sc  Sc0  1  0.597087  0.000000  0.500000  1
  Ta  Ta1  1  0.996934  0.596637  0.500000  1
  Ta  Ta2  1  0.400296  0.403363  0.500000  1
  Mo  Mo3  1  0.252975  0.000000  0.000000  1
  Mo  Mo4  1  0.746787  0.740094  0.000000  1
  Mo  Mo5  1  0.006693  0.259906  0.000000  1
  P  P6  1  0.667082  0.334185  0.000000  1
  P  P7  1  0.332897  0.665815  0.000000  1
  P  P8  1  0.999249  0.000000  0.500000  1
