# generated using pymatgen
data_Ca4Sn5SbRh7
_symmetry_space_group_name_H-M   'P 1'
_cell_length_a   7.64700031
_cell_length_b   7.64700273
_cell_length_c   7.64700175
_cell_angle_alpha   109.50023237
_cell_angle_beta   109.50024648
_cell_angle_gamma   109.41320251
_symmetry_Int_Tables_number   1
_chemical_formula_structural   Ca4Sn5SbRh7
_chemical_formula_sum   'Ca4 Sn5 Sb1 Rh7'
_cell_volume   344.23204519
_cell_formula_units_Z   1
loop_
 _symmetry_equiv_pos_site_id
 _symmetry_equiv_pos_as_xyz
  1  'x, y, z'
loop_
 _atom_site_type_symbol
 _atom_site_label
 _atom_site_symmetry_multiplicity
 _atom_site_fract_x
 _atom_site_fract_y
 _atom_site_fract_z
 _atom_site_occupancy
  Ca  Ca0  1  0.498779  0.999509  0.000000  1
  Ca  Ca1  1  0.999509  0.498779  0.000000  1
  Ca  Ca2  1  0.999509  0.999509  0.500731  1
  Ca  Ca3  1  0.498779  0.498779  0.499269  1
  Sn  Sn4  1  0.318197  0.998682  0.319515  1
  Sn  Sn5  1  0.998682  0.679165  0.680485  1
  Sn  Sn6  1  0.685180  0.685180  0.000000  1
  Sn  Sn7  1  0.679165  0.998682  0.680485  1
  Sn  Sn8  1  0.998682  0.318197  0.319515  1
  Sb  Sb9  1  0.322309  0.322309  0.000000  1
  Rh  Rh10  1  0.251003  0.499919  0.751083  1
  Rh  Rh11  1  0.499919  0.251003  0.751083  1
  Rh  Rh12  1  0.748418  0.248418  0.500000  1
  Rh  Rh13  1  0.499919  0.748837  0.248917  1
  Rh  Rh14  1  0.004693  0.004693  0.000000  1
  Rh  Rh15  1  0.248418  0.748418  0.500000  1
  Rh  Rh16  1  0.748837  0.499919  0.248917  1
