# generated using pymatgen
data_Zr8In4Cu7Au
_symmetry_space_group_name_H-M   'P 1'
_cell_length_a   7.34211907
_cell_length_b   7.34211907
_cell_length_c   6.87261100
_cell_angle_alpha   89.99860473
_cell_angle_beta   90.00139527
_cell_angle_gamma   90.25422953
_symmetry_Int_Tables_number   1
_chemical_formula_structural   Zr8In4Cu7Au
_chemical_formula_sum   'Zr8 In4 Cu7 Au1'
_cell_volume   370.47621764
_cell_formula_units_Z   1
loop_
 _symmetry_equiv_pos_site_id
 _symmetry_equiv_pos_as_xyz
  1  'x, y, z'
loop_
 _atom_site_type_symbol
 _atom_site_label
 _atom_site_symmetry_multiplicity
 _atom_site_fract_x
 _atom_site_fract_y
 _atom_site_fract_z
 _atom_site_occupancy
  Zr  Zr0  1  0.149720  0.155269  0.003939  1
  Zr  Zr1  1  0.844731  0.850280  0.003939  1
  Zr  Zr2  1  0.651115  0.348885  0.498835  1
  Zr  Zr3  1  0.354885  0.645115  0.496501  1
  Zr  Zr4  1  0.694644  0.305356  0.001179  1
  Zr  Zr5  1  0.308813  0.691187  0.004481  1
  Zr  Zr6  1  0.798669  0.803901  0.497097  1
  Zr  Zr7  1  0.196099  0.201331  0.497097  1
  In  In8  1  0.498517  0.000861  0.249147  1
  In  In9  1  0.506036  0.002520  0.751325  1
  In  In10  1  0.999139  0.501483  0.249147  1
  In  In11  1  0.997480  0.493964  0.751325  1
  Cu  Cu12  1  0.379628  0.376620  0.198929  1
  Cu  Cu13  1  0.622860  0.621650  0.799725  1
  Cu  Cu14  1  0.623380  0.620372  0.198929  1
  Cu  Cu15  1  0.871979  0.128021  0.700079  1
  Cu  Cu16  1  0.877720  0.122280  0.300574  1
  Cu  Cu17  1  0.378350  0.377140  0.799725  1
  Cu  Cu18  1  0.122407  0.877593  0.295868  1
  Au  Au19  1  0.123828  0.876172  0.702160  1
