# generated using pymatgen
data_Ce5Ho3Tm8(CdRu)4
_symmetry_space_group_name_H-M   'P 1'
_cell_length_a   9.49426612
_cell_length_b   9.57724286
_cell_length_c   9.57166726
_cell_angle_alpha   59.98307097
_cell_angle_beta   60.26352358
_cell_angle_gamma   60.30767406
_symmetry_Int_Tables_number   1
_chemical_formula_structural   Ce5Ho3Tm8(CdRu)4
_chemical_formula_sum   'Ce5 Ho3 Tm8 Cd4 Ru4'
_cell_volume   617.98743386
_cell_formula_units_Z   1
loop_
 _symmetry_equiv_pos_site_id
 _symmetry_equiv_pos_as_xyz
  1  'x, y, z'
loop_
 _atom_site_type_symbol
 _atom_site_label
 _atom_site_symmetry_multiplicity
 _atom_site_fract_x
 _atom_site_fract_y
 _atom_site_fract_z
 _atom_site_occupancy
  Ce  Ce0  1  0.814575  0.184902  0.185863  1
  Ce  Ce1  1  0.347622  0.347725  0.956944  1
  Ce  Ce2  1  0.347002  0.957809  0.348134  1
  Ce  Ce3  1  0.957447  0.349745  0.349931  1
  Ce  Ce4  1  0.342843  0.349482  0.350249  1
  Ho  Ho5  1  0.561171  0.562438  0.936319  1
  Ho  Ho6  1  0.940028  0.562497  0.936256  1
  Ho  Ho7  1  0.564259  0.936321  0.935190  1
  Tm  Tm8  1  0.939162  0.936630  0.562499  1
  Tm  Tm9  1  0.561701  0.936537  0.562547  1
  Tm  Tm10  1  0.934132  0.566255  0.565484  1
  Tm  Tm11  1  0.192083  0.186511  0.808706  1
  Tm  Tm12  1  0.812762  0.186515  0.808665  1
  Tm  Tm13  1  0.186663  0.813441  0.813254  1
  Tm  Tm14  1  0.812665  0.808796  0.187324  1
  Tm  Tm15  1  0.191252  0.808790  0.187287  1
  Cd  Cd16  1  0.580843  0.583675  0.254681  1
  Cd  Cd17  1  0.581453  0.253549  0.583574  1
  Cd  Cd18  1  0.255621  0.581455  0.580816  1
  Cd  Cd19  1  0.582145  0.581452  0.580750  1
  Ru  Ru20  1  0.146714  0.141996  0.564724  1
  Ru  Ru21  1  0.146789  0.564636  0.141753  1
  Ru  Ru22  1  0.582169  0.149427  0.149518  1
  Ru  Ru23  1  0.118901  0.149421  0.149533  1
