# generated using pymatgen
data_HoEr5(SbO7)2
_symmetry_space_group_name_H-M   'P 1'
_cell_length_a   6.43087602
_cell_length_b   6.43087636
_cell_length_c   7.46877601
_cell_angle_alpha   90.00432478
_cell_angle_beta   89.99567944
_cell_angle_gamma   109.26796700
_symmetry_Int_Tables_number   1
_chemical_formula_structural   HoEr5(SbO7)2
_chemical_formula_sum   'Ho1 Er5 Sb2 O14'
_cell_volume   291.57822932
_cell_formula_units_Z   1
loop_
 _symmetry_equiv_pos_site_id
 _symmetry_equiv_pos_as_xyz
  1  'x, y, z'
loop_
 _atom_site_type_symbol
 _atom_site_label
 _atom_site_symmetry_multiplicity
 _atom_site_fract_x
 _atom_site_fract_y
 _atom_site_fract_z
 _atom_site_occupancy
  Ho  Ho0  1  0.487799  0.487799  0.000000  1
  Er  Er1  1  0.999373  0.468268  0.746886  1
  Er  Er2  1  0.000665  0.531743  0.247376  1
  Er  Er3  1  0.531743  0.000665  0.752624  1
  Er  Er4  1  0.468268  0.999373  0.253114  1
  Er  Er5  1  0.512840  0.512840  0.500000  1
  Sb  Sb6  1  0.000104  0.000104  0.500000  1
  Sb  Sb7  1  0.999881  0.999881  0.000000  1
  O  O8  1  0.638354  0.361673  0.749134  1
  O  O9  1  0.361673  0.638354  0.250866  1
  O  O10  1  0.927718  0.072293  0.750044  1
  O  O11  1  0.072293  0.927718  0.249956  1
  O  O12  1  0.921896  0.673974  0.528078  1
  O  O13  1  0.077436  0.325974  0.028120  1
  O  O14  1  0.325974  0.077436  0.971880  1
  O  O15  1  0.673974  0.921896  0.471922  1
  O  O16  1  0.369661  0.630431  0.748918  1
  O  O17  1  0.630431  0.369661  0.251082  1
  O  O18  1  0.933464  0.678739  0.967020  1
  O  O19  1  0.066606  0.321110  0.467014  1
  O  O20  1  0.321110  0.066606  0.532986  1
  O  O21  1  0.678739  0.933464  0.032980  1
