# generated using pymatgen
data_Tb9Pr6Dy(CdPt)4
_symmetry_space_group_name_H-M   'P 1'
_cell_length_a   9.84802328
_cell_length_b   9.84802410
_cell_length_c   9.81199400
_cell_angle_alpha   60.12095229
_cell_angle_beta   60.12094957
_cell_angle_gamma   60.20684958
_symmetry_Int_Tables_number   1
_chemical_formula_structural   Tb9Pr6Dy(CdPt)4
_chemical_formula_sum   'Tb9 Pr6 Dy1 Cd4 Pt4'
_cell_volume   675.16325506
_cell_formula_units_Z   1
loop_
 _symmetry_equiv_pos_site_id
 _symmetry_equiv_pos_as_xyz
  1  'x, y, z'
loop_
 _atom_site_type_symbol
 _atom_site_label
 _atom_site_symmetry_multiplicity
 _atom_site_fract_x
 _atom_site_fract_y
 _atom_site_fract_z
 _atom_site_occupancy
  Tb  Tb0  1  0.350202  0.350202  0.349506  1
  Tb  Tb1  1  0.350202  0.350202  0.950089  1
  Tb  Tb2  1  0.351790  0.947303  0.350454  1
  Tb  Tb3  1  0.947303  0.351790  0.350454  1
  Tb  Tb4  1  0.811654  0.187935  0.189355  1
  Tb  Tb5  1  0.187935  0.811654  0.811056  1
  Tb  Tb6  1  0.187935  0.811654  0.189355  1
  Tb  Tb7  1  0.811654  0.187935  0.811056  1
  Tb  Tb8  1  0.188779  0.188779  0.811221  1
  Pr  Pr9  1  0.939283  0.560944  0.562105  1
  Pr  Pr10  1  0.560944  0.939283  0.937668  1
  Pr  Pr11  1  0.560944  0.939283  0.562105  1
  Pr  Pr12  1  0.939283  0.560944  0.937668  1
  Pr  Pr13  1  0.561323  0.561323  0.938677  1
  Pr  Pr14  1  0.938300  0.938300  0.561700  1
  Dy  Dy15  1  0.811233  0.811233  0.188767  1
  Cd  Cd16  1  0.579750  0.579750  0.579250  1
  Cd  Cd17  1  0.579750  0.579750  0.261249  1
  Cd  Cd18  1  0.579829  0.260951  0.579609  1
  Cd  Cd19  1  0.260951  0.579829  0.579609  1
  Pt  Pt20  1  0.143389  0.143389  0.143164  1
  Pt  Pt21  1  0.143389  0.143389  0.570058  1
  Pt  Pt22  1  0.142053  0.572126  0.142910  1
  Pt  Pt23  1  0.572126  0.142053  0.142910  1
