# generated using pymatgen
data_Lu8Sc11Si16Hg
_symmetry_space_group_name_H-M   'P 1'
_cell_length_a   6.97278528
_cell_length_b   7.32789137
_cell_length_c   13.88385600
_cell_angle_alpha   90.00000000
_cell_angle_beta   90.00000000
_cell_angle_gamma   89.87441398
_symmetry_Int_Tables_number   1
_chemical_formula_structural   Lu8Sc11Si16Hg
_chemical_formula_sum   'Lu8 Sc11 Si16 Hg1'
_cell_volume   709.40520679
_cell_formula_units_Z   1
loop_
 _symmetry_equiv_pos_site_id
 _symmetry_equiv_pos_as_xyz
  1  'x, y, z'
loop_
 _atom_site_type_symbol
 _atom_site_label
 _atom_site_symmetry_multiplicity
 _atom_site_fract_x
 _atom_site_fract_y
 _atom_site_fract_z
 _atom_site_occupancy
  Lu  Lu0  1  0.010386  0.176573  0.095990  1
  Lu  Lu1  1  0.989779  0.815142  0.903371  1
  Lu  Lu2  1  0.487461  0.673266  0.903689  1
  Lu  Lu3  1  0.989779  0.815142  0.596629  1
  Lu  Lu4  1  0.510396  0.323091  0.096291  1
  Lu  Lu5  1  0.010386  0.176573  0.404010  1
  Lu  Lu6  1  0.510396  0.323091  0.403709  1
  Lu  Lu7  1  0.487461  0.673266  0.596311  1
  Sc  Sc8  1  0.837150  0.496776  0.250000  1
  Sc  Sc9  1  0.341221  0.006060  0.250000  1
  Sc  Sc10  1  0.655337  0.995094  0.750000  1
  Sc  Sc11  1  0.323027  0.181876  0.626926  1
  Sc  Sc12  1  0.671907  0.825037  0.374693  1
  Sc  Sc13  1  0.168541  0.681725  0.373377  1
  Sc  Sc14  1  0.671907  0.825037  0.125307  1
  Sc  Sc15  1  0.840019  0.325182  0.626636  1
  Sc  Sc16  1  0.323027  0.181876  0.873074  1
  Sc  Sc17  1  0.840019  0.325182  0.873364  1
  Sc  Sc18  1  0.168541  0.681725  0.126623  1
  Si  Si19  1  0.023577  0.084827  0.750000  1
  Si  Si20  1  0.969964  0.894541  0.250000  1
  Si  Si21  1  0.467547  0.614729  0.250000  1
  Si  Si22  1  0.542434  0.381750  0.750000  1
  Si  Si23  1  0.289955  0.878569  0.750000  1
  Si  Si24  1  0.714179  0.133772  0.250000  1
  Si  Si25  1  0.212611  0.370564  0.250000  1
  Si  Si26  1  0.768823  0.634038  0.750000  1
  Si  Si27  1  0.166785  0.459756  0.528160  1
  Si  Si28  1  0.839801  0.535588  0.461974  1
  Si  Si29  1  0.342879  0.967489  0.462146  1
  Si  Si30  1  0.839801  0.535588  0.038026  1
  Si  Si31  1  0.658467  0.032997  0.540451  1
  Si  Si32  1  0.166785  0.459756  0.971840  1
  Si  Si33  1  0.658467  0.032997  0.959549  1
  Si  Si34  1  0.342879  0.967489  0.037854  1
  Hg  Hg35  1  0.158306  0.513838  0.750000  1
