# generated using pymatgen
data_CaTbLu4(Si3Ru)8
_symmetry_space_group_name_H-M   'P 1'
_cell_length_a   10.10490582
_cell_length_b   10.10490650
_cell_length_c   8.10823006
_cell_angle_alpha   89.89184376
_cell_angle_beta   90.10815660
_cell_angle_gamma   132.67541245
_symmetry_Int_Tables_number   1
_chemical_formula_structural   CaTbLu4(Si3Ru)8
_chemical_formula_sum   'Ca1 Tb1 Lu4 Si24 Ru8'
_cell_volume   608.69325040
_cell_formula_units_Z   1
loop_
 _symmetry_equiv_pos_site_id
 _symmetry_equiv_pos_as_xyz
  1  'x, y, z'
loop_
 _atom_site_type_symbol
 _atom_site_label
 _atom_site_symmetry_multiplicity
 _atom_site_fract_x
 _atom_site_fract_y
 _atom_site_fract_z
 _atom_site_occupancy
  Ca  Ca0  1  0.501907  0.001907  0.750000  1
  Tb  Tb1  1  0.002790  0.502790  0.750000  1
  Lu  Lu2  1  0.500199  0.500333  0.500439  1
  Lu  Lu3  1  0.000333  0.000199  0.999561  1
  Lu  Lu4  1  0.998687  0.498687  0.250000  1
  Lu  Lu5  1  0.497212  0.997212  0.250000  1
  Si  Si6  1  0.793837  0.204417  0.498444  1
  Si  Si7  1  0.295613  0.706513  0.000690  1
  Si  Si8  1  0.206513  0.795613  0.499310  1
  Si  Si9  1  0.704417  0.293837  0.001556  1
  Si  Si10  1  0.332238  0.333554  0.832748  1
  Si  Si11  1  0.667131  0.668733  0.167234  1
  Si  Si12  1  0.168733  0.167131  0.332766  1
  Si  Si13  1  0.833554  0.832238  0.667252  1
  Si  Si14  1  0.120225  0.886110  0.728885  1
  Si  Si15  1  0.111221  0.877746  0.272396  1
  Si  Si16  1  0.611443  0.378190  0.228315  1
  Si  Si17  1  0.623630  0.390035  0.771112  1
  Si  Si18  1  0.878190  0.111443  0.271685  1
  Si  Si19  1  0.890035  0.123630  0.728888  1
  Si  Si20  1  0.386110  0.620225  0.771115  1
  Si  Si21  1  0.377746  0.611221  0.227604  1
  Si  Si22  1  0.344928  0.111909  0.501979  1
  Si  Si23  1  0.888056  0.654983  0.494383  1
  Si  Si24  1  0.387746  0.154369  0.006741  1
  Si  Si25  1  0.844672  0.612151  0.995523  1
  Si  Si26  1  0.654369  0.887746  0.493259  1
  Si  Si27  1  0.112151  0.344672  0.504477  1
  Si  Si28  1  0.611909  0.844928  0.998021  1
  Si  Si29  1  0.154983  0.388056  0.005617  1
  Ru  Ru30  1  0.670062  0.331216  0.497397  1
  Ru  Ru31  1  0.167729  0.829550  0.003720  1
  Ru  Ru32  1  0.329550  0.667729  0.496280  1
  Ru  Ru33  1  0.831216  0.170062  0.002603  1
  Ru  Ru34  1  0.127136  0.126779  0.627448  1
  Ru  Ru35  1  0.873268  0.873678  0.372968  1
  Ru  Ru36  1  0.373678  0.373268  0.127032  1
  Ru  Ru37  1  0.626779  0.627136  0.872552  1
