# generated using pymatgen
data_CaYb6Er(Si4Mo3)4
_symmetry_space_group_name_H-M   'P 1'
_cell_length_a   6.72852635
_cell_length_b   6.93293245
_cell_length_c   13.04795730
_cell_angle_alpha   89.92459340
_cell_angle_beta   90.02964137
_cell_angle_gamma   89.92701584
_symmetry_Int_Tables_number   1
_chemical_formula_structural   CaYb6Er(Si4Mo3)4
_chemical_formula_sum   'Ca1 Yb6 Er1 Si16 Mo12'
_cell_volume   608.66547158
_cell_formula_units_Z   1
loop_
 _symmetry_equiv_pos_site_id
 _symmetry_equiv_pos_as_xyz
  1  'x, y, z'
loop_
 _atom_site_type_symbol
 _atom_site_label
 _atom_site_symmetry_multiplicity
 _atom_site_fract_x
 _atom_site_fract_y
 _atom_site_fract_z
 _atom_site_occupancy
  Ca  Ca0  1  0.498477  0.333628  0.409027  1
  Yb  Yb1  1  0.498499  0.333955  0.090427  1
  Yb  Yb2  1  0.998344  0.166111  0.409232  1
  Yb  Yb3  1  0.501339  0.666781  0.591504  1
  Yb  Yb4  1  0.000948  0.830980  0.907815  1
  Yb  Yb5  1  0.500923  0.667437  0.908860  1
  Yb  Yb6  1  0.001341  0.832936  0.591040  1
  Er  Er7  1  0.999354  0.170164  0.093802  1
  Si  Si8  1  0.657882  0.042722  0.545803  1
  Si  Si9  1  0.158659  0.457082  0.954928  1
  Si  Si10  1  0.340469  0.957891  0.045241  1
  Si  Si11  1  0.842195  0.543592  0.454454  1
  Si  Si12  1  0.342246  0.956204  0.454617  1
  Si  Si13  1  0.841375  0.543198  0.045023  1
  Si  Si14  1  0.659958  0.042144  0.954975  1
  Si  Si15  1  0.157901  0.456918  0.545830  1
  Si  Si16  1  0.535347  0.373120  0.750539  1
  Si  Si17  1  0.035203  0.125307  0.749873  1
  Si  Si18  1  0.464634  0.629125  0.248756  1
  Si  Si19  1  0.964798  0.872761  0.249706  1
  Si  Si20  1  0.800647  0.630230  0.749983  1
  Si  Si21  1  0.300996  0.868451  0.750154  1
  Si  Si22  1  0.199441  0.369525  0.250599  1
  Si  Si23  1  0.697259  0.131921  0.250189  1
  Mo  Mo24  1  0.835192  0.330576  0.628100  1
  Mo  Mo25  1  0.334008  0.168344  0.873069  1
  Mo  Mo26  1  0.165255  0.668411  0.126505  1
  Mo  Mo27  1  0.665903  0.831206  0.371728  1
  Mo  Mo28  1  0.164750  0.669528  0.371465  1
  Mo  Mo29  1  0.667713  0.833588  0.126557  1
  Mo  Mo30  1  0.836136  0.329234  0.873383  1
  Mo  Mo31  1  0.334908  0.168260  0.628187  1
  Mo  Mo32  1  0.661324  0.008471  0.750520  1
  Mo  Mo33  1  0.161512  0.490538  0.750441  1
  Mo  Mo34  1  0.337019  0.992547  0.248961  1
  Mo  Mo35  1  0.838041  0.507115  0.248708  1
