# generated using pymatgen
data_Hf4CuMoIr2
_symmetry_space_group_name_H-M   'P 1'
_cell_length_a   4.64508500
_cell_length_b   6.56016100
_cell_length_c   13.83261901
_cell_angle_alpha   90.00000000
_cell_angle_beta   89.99515919
_cell_angle_gamma   90.00000000
_symmetry_Int_Tables_number   1
_chemical_formula_structural   Hf4CuMoIr2
_chemical_formula_sum   'Hf12 Cu3 Mo3 Ir6'
_cell_volume   421.51455723
_cell_formula_units_Z   3
loop_
 _symmetry_equiv_pos_site_id
 _symmetry_equiv_pos_as_xyz
  1  'x, y, z'
loop_
 _atom_site_type_symbol
 _atom_site_label
 _atom_site_symmetry_multiplicity
 _atom_site_fract_x
 _atom_site_fract_y
 _atom_site_fract_z
 _atom_site_occupancy
  Hf  Hf0  1  0.499990  0.249333  0.000597  1
  Hf  Hf1  1  0.499990  0.750667  0.000597  1
  Hf  Hf2  1  0.999858  0.250828  0.166667  1
  Hf  Hf3  1  0.999858  0.749172  0.166667  1
  Hf  Hf4  1  0.499843  0.249336  0.332733  1
  Hf  Hf5  1  0.499843  0.750664  0.332733  1
  Hf  Hf6  1  0.999979  0.250998  0.498751  1
  Hf  Hf7  1  0.999979  0.749002  0.498751  1
  Hf  Hf8  1  0.500177  0.249141  0.666667  1
  Hf  Hf9  1  0.500177  0.750859  0.666667  1
  Hf  Hf10  1  0.000203  0.251013  0.834578  1
  Hf  Hf11  1  0.000203  0.748987  0.834578  1
  Cu  Cu12  1  0.499971  0.000000  0.499093  1
  Cu  Cu13  1  0.000359  0.500000  0.666673  1
  Cu  Cu14  1  0.499871  0.000000  0.834237  1
  Mo  Mo15  1  0.000000  0.500000  0.996180  1
  Mo  Mo16  1  0.499851  0.000000  0.166668  1
  Mo  Mo17  1  0.999829  0.500000  0.337153  1
  Ir  Ir18  1  0.999975  0.000000  0.996947  1
  Ir  Ir19  1  0.499859  0.500000  0.166666  1
  Ir  Ir20  1  0.999817  0.000000  0.336391  1
  Ir  Ir21  1  0.499938  0.500000  0.504756  1
  Ir  Ir22  1  0.000288  0.000000  0.666673  1
  Ir  Ir23  1  0.500143  0.500000  0.828579  1
