# generated using pymatgen
data_Pu4Ga6Ir7
_symmetry_space_group_name_H-M   'P 1'
_cell_length_a   7.32864113
_cell_length_b   7.34153661
_cell_length_c   7.31367100
_cell_angle_alpha   109.47434244
_cell_angle_beta   109.38979090
_cell_angle_gamma   109.54383361
_symmetry_Int_Tables_number   1
_chemical_formula_structural   Pu4Ga6Ir7
_chemical_formula_sum   'Pu4 Ga6 Ir7'
_cell_volume   302.93809014
_cell_formula_units_Z   1
loop_
 _symmetry_equiv_pos_site_id
 _symmetry_equiv_pos_as_xyz
  1  'x, y, z'
loop_
 _atom_site_type_symbol
 _atom_site_label
 _atom_site_symmetry_multiplicity
 _atom_site_fract_x
 _atom_site_fract_y
 _atom_site_fract_z
 _atom_site_occupancy
  Pu  Pu0  1  0.500000  0.500000  0.500000  1
  Pu  Pu1  1  0.000000  0.000000  0.500000  1
  Pu  Pu2  1  0.000000  0.500000  0.000000  1
  Pu  Pu3  1  0.500000  0.000000  0.000000  1
  Ga  Ga4  1  0.000000  0.311271  0.311133  1
  Ga  Ga5  1  0.000000  0.688729  0.688867  1
  Ga  Ga6  1  0.311126  0.999963  0.311095  1
  Ga  Ga7  1  0.688874  0.000037  0.688905  1
  Ga  Ga8  1  0.311126  0.311162  0.000031  1
  Ga  Ga9  1  0.688874  0.688838  0.999969  1
  Ir  Ir10  1  0.500122  0.750061  0.250061  1
  Ir  Ir11  1  0.499878  0.249939  0.749939  1
  Ir  Ir12  1  0.249738  0.499830  0.749750  1
  Ir  Ir13  1  0.750262  0.500170  0.250250  1
  Ir  Ir14  1  0.750262  0.250092  0.500012  1
  Ir  Ir15  1  0.249738  0.749908  0.499988  1
  Ir  Ir16  1  0.000000  0.000000  0.000000  1
