# generated using pymatgen
data_Zr5Nb5Ga6C
_symmetry_space_group_name_H-M   'P 1'
_cell_length_a   7.98031898
_cell_length_b   7.99545336
_cell_length_c   5.45504272
_cell_angle_alpha   89.82397056
_cell_angle_beta   90.35272111
_cell_angle_gamma   119.93739158
_symmetry_Int_Tables_number   1
_chemical_formula_structural   Zr5Nb5Ga6C
_chemical_formula_sum   'Zr5 Nb5 Ga6 C1'
_cell_volume   301.61820250
_cell_formula_units_Z   1
loop_
 _symmetry_equiv_pos_site_id
 _symmetry_equiv_pos_as_xyz
  1  'x, y, z'
loop_
 _atom_site_type_symbol
 _atom_site_label
 _atom_site_symmetry_multiplicity
 _atom_site_fract_x
 _atom_site_fract_y
 _atom_site_fract_z
 _atom_site_occupancy
  Zr  Zr0  1  0.001875  0.760274  0.253222  1
  Zr  Zr1  1  0.241600  0.239726  0.253222  1
  Zr  Zr2  1  0.762004  0.000000  0.261293  1
  Zr  Zr3  1  0.999345  0.240306  0.746015  1
  Zr  Zr4  1  0.759039  0.759694  0.746015  1
  Nb  Nb5  1  0.238744  0.000000  0.735062  1
  Nb  Nb6  1  0.332938  0.666409  0.000433  1
  Nb  Nb7  1  0.666530  0.333591  0.000433  1
  Nb  Nb8  1  0.663677  0.331591  0.500153  1
  Nb  Nb9  1  0.332085  0.668409  0.500153  1
  Ga  Ga10  1  0.999769  0.401890  0.247546  1
  Ga  Ga11  1  0.597879  0.598110  0.247546  1
  Ga  Ga12  1  0.402432  0.000000  0.241543  1
  Ga  Ga13  1  0.002065  0.602741  0.753277  1
  Ga  Ga14  1  0.399324  0.397259  0.753277  1
  Ga  Ga15  1  0.593357  0.000000  0.754927  1
  C  C16  1  0.007336  0.000000  0.505881  1
