# generated using pymatgen
data_La3PrHoIr2
_symmetry_space_group_name_H-M   'P 1'
_cell_length_a   6.70931695
_cell_length_b   7.30614314
_cell_length_c   9.14632325
_cell_angle_alpha   96.04819476
_cell_angle_beta   111.51696744
_cell_angle_gamma   90.00000177
_symmetry_Int_Tables_number   1
_chemical_formula_structural   La3PrHoIr2
_chemical_formula_sum   'La6 Pr2 Ho2 Ir4'
_cell_volume   414.41627151
_cell_formula_units_Z   2
loop_
 _symmetry_equiv_pos_site_id
 _symmetry_equiv_pos_as_xyz
  1  'x, y, z'
loop_
 _atom_site_type_symbol
 _atom_site_label
 _atom_site_symmetry_multiplicity
 _atom_site_fract_x
 _atom_site_fract_y
 _atom_site_fract_z
 _atom_site_occupancy
  La  La0  1  0.979744  0.917424  0.182506  1
  La  La1  1  0.797238  0.582576  0.817494  1
  La  La2  1  0.017305  0.086567  0.816103  1
  La  La3  1  0.201201  0.413433  0.183897  1
  La  La4  1  0.638014  0.816086  0.422644  1
  La  La5  1  0.215370  0.683914  0.577356  1
  Pr  Pr6  1  0.359288  0.186693  0.573418  1
  Pr  Pr7  1  0.785871  0.313307  0.426582  1
  Ho  Ho8  1  0.437357  0.750000  0.000000  1
  Ho  Ho9  1  0.565611  0.250000  0.000000  1
  Ir  Ir10  1  0.809698  0.575653  0.209903  1
  Ir  Ir11  1  0.599796  0.924347  0.790097  1
  Ir  Ir12  1  0.192659  0.427675  0.791812  1
  Ir  Ir13  1  0.400846  0.072325  0.208188  1
