# generated using pymatgen
data_La4DyIr2
_symmetry_space_group_name_H-M   'P 1'
_cell_length_a   6.72421317
_cell_length_b   7.31003681
_cell_length_c   9.12825021
_cell_angle_alpha   96.00076355
_cell_angle_beta   111.61197553
_cell_angle_gamma   90.00000043
_symmetry_Int_Tables_number   1
_chemical_formula_structural   La4DyIr2
_chemical_formula_sum   'La8 Dy2 Ir4'
_cell_volume   414.50331108
_cell_formula_units_Z   2
loop_
 _symmetry_equiv_pos_site_id
 _symmetry_equiv_pos_as_xyz
  1  'x, y, z'
loop_
 _atom_site_type_symbol
 _atom_site_label
 _atom_site_symmetry_multiplicity
 _atom_site_fract_x
 _atom_site_fract_y
 _atom_site_fract_z
 _atom_site_occupancy
  La  La0  1  0.798684  0.084189  0.818966  1
  La  La1  1  0.979717  0.415811  0.181034  1
  La  La2  1  0.201316  0.915811  0.181034  1
  La  La3  1  0.020283  0.584189  0.818966  1
  La  La4  1  0.216007  0.184971  0.573529  1
  La  La5  1  0.642479  0.315029  0.426471  1
  La  La6  1  0.783993  0.815029  0.426471  1
  La  La7  1  0.357521  0.684971  0.573529  1
  Dy  Dy8  1  0.434167  0.250000  0.000000  1
  Dy  Dy9  1  0.565833  0.750000  0.000000  1
  Ir  Ir10  1  0.596824  0.426176  0.787306  1
  Ir  Ir11  1  0.809518  0.073824  0.212694  1
  Ir  Ir12  1  0.403176  0.573824  0.212694  1
  Ir  Ir13  1  0.190482  0.926176  0.787306  1
