# generated using pymatgen
data_LiLa7CeIr6
_symmetry_space_group_name_H-M   'P 1'
_cell_length_a   7.77233769
_cell_length_b   7.77233701
_cell_length_c   7.77233831
_cell_angle_alpha   68.40338682
_cell_angle_beta   68.40339316
_cell_angle_gamma   68.40337622
_symmetry_Int_Tables_number   1
_chemical_formula_structural   LiLa7CeIr6
_chemical_formula_sum   'Li1 La7 Ce1 Ir6'
_cell_volume   390.94574765
_cell_formula_units_Z   1
loop_
 _symmetry_equiv_pos_site_id
 _symmetry_equiv_pos_as_xyz
  1  'x, y, z'
loop_
 _atom_site_type_symbol
 _atom_site_label
 _atom_site_symmetry_multiplicity
 _atom_site_fract_x
 _atom_site_fract_y
 _atom_site_fract_z
 _atom_site_occupancy
  Li  Li0  1  0.997921  0.997921  0.997921  1
  La  La1  1  0.185207  0.185207  0.185207  1
  La  La2  1  0.136429  0.381941  0.685154  1
  La  La3  1  0.685154  0.136429  0.381941  1
  La  La4  1  0.381941  0.685154  0.136429  1
  La  La5  1  0.862657  0.617759  0.316289  1
  La  La6  1  0.316289  0.862657  0.617759  1
  La  La7  1  0.617759  0.316289  0.862657  1
  Ce  Ce8  1  0.816665  0.816665  0.816665  1
  Ir  Ir9  1  0.947061  0.176015  0.580149  1
  Ir  Ir10  1  0.580149  0.947061  0.176015  1
  Ir  Ir11  1  0.176015  0.580149  0.947061  1
  Ir  Ir12  1  0.045039  0.810981  0.440733  1
  Ir  Ir13  1  0.440733  0.045039  0.810981  1
  Ir  Ir14  1  0.810981  0.440733  0.045039  1
