# generated using pymatgen
data_La3Th(Si4Tc3)2
_symmetry_space_group_name_H-M   'P 1'
_cell_length_a   8.23091165
_cell_length_b   5.78880323
_cell_length_c   7.03652495
_cell_angle_alpha   76.72301700
_cell_angle_beta   90.19257703
_cell_angle_gamma   89.98842649
_symmetry_Int_Tables_number   1
_chemical_formula_structural   La3Th(Si4Tc3)2
_chemical_formula_sum   'La3 Th1 Si8 Tc6'
_cell_volume   326.30683156
_cell_formula_units_Z   1
loop_
 _symmetry_equiv_pos_site_id
 _symmetry_equiv_pos_as_xyz
  1  'x, y, z'
loop_
 _atom_site_type_symbol
 _atom_site_label
 _atom_site_symmetry_multiplicity
 _atom_site_fract_x
 _atom_site_fract_y
 _atom_site_fract_z
 _atom_site_occupancy
  La  La0  1  0.432004  0.937034  0.746827  1
  La  La1  1  0.070322  0.435010  0.747195  1
  La  La2  1  0.567788  0.062433  0.254405  1
  Th  Th3  1  0.932179  0.566383  0.249730  1
  Si  Si4  1  0.586516  0.609324  0.113932  1
  Si  Si5  1  0.088926  0.889652  0.887858  1
  Si  Si6  1  0.414019  0.391400  0.887927  1
  Si  Si7  1  0.912460  0.109933  0.114427  1
  Si  Si8  1  0.751503  0.712783  0.593212  1
  Si  Si9  1  0.249879  0.782769  0.406091  1
  Si  Si10  1  0.247012  0.283849  0.407668  1
  Si  Si11  1  0.749349  0.220505  0.592772  1
  Tc  Tc12  1  0.289794  0.608850  0.119758  1
  Tc  Tc13  1  0.794548  0.887889  0.882795  1
  Tc  Tc14  1  0.709108  0.388259  0.884465  1
  Tc  Tc15  1  0.207538  0.112128  0.117761  1
  Tc  Tc16  1  0.499920  0.500412  0.498640  1
  Tc  Tc17  1  0.997136  0.001384  0.494537  1
