# generated using pymatgen
data_Ba8Ta6VO24
_symmetry_space_group_name_H-M   'P 1'
_cell_length_a   5.86073000
_cell_length_b   5.86073081
_cell_length_c   19.20782000
_cell_angle_alpha   90.00000000
_cell_angle_beta   90.00000000
_cell_angle_gamma   119.99999543
_symmetry_Int_Tables_number   1
_chemical_formula_structural   Ba8Ta6VO24
_chemical_formula_sum   'Ba8 Ta6 V1 O24'
_cell_volume   571.36313700
_cell_formula_units_Z   1
loop_
 _symmetry_equiv_pos_site_id
 _symmetry_equiv_pos_as_xyz
  1  'x, y, z'
loop_
 _atom_site_type_symbol
 _atom_site_label
 _atom_site_symmetry_multiplicity
 _atom_site_fract_x
 _atom_site_fract_y
 _atom_site_fract_z
 _atom_site_occupancy
  Ba  Ba0  1  0.666667  0.333333  0.319645  1
  Ba  Ba1  1  0.666667  0.333333  0.938886  1
  Ba  Ba2  1  0.333333  0.666667  0.061114  1
  Ba  Ba3  1  0.333333  0.666667  0.680355  1
  Ba  Ba4  1  0.333333  0.666667  0.457341  1
  Ba  Ba5  1  0.666667  0.333333  0.542659  1
  Ba  Ba6  1  0.000000  0.000000  0.813878  1
  Ba  Ba7  1  0.000000  0.000000  0.186122  1
  Ta  Ta8  1  0.000000  0.000000  0.383230  1
  Ta  Ta9  1  0.666667  0.333333  0.747372  1
  Ta  Ta10  1  0.000000  0.000000  0.616770  1
  Ta  Ta11  1  0.333333  0.666667  0.877388  1
  Ta  Ta12  1  0.333333  0.666667  0.252628  1
  Ta  Ta13  1  0.666667  0.333333  0.122612  1
  V  V14  1  0.000000  0.000000  0.000000  1
  O  O15  1  0.168860  0.831140  0.306564  1
  O  O16  1  0.337718  0.168860  0.693436  1
  O  O17  1  0.162927  0.837073  0.571421  1
  O  O18  1  0.837073  0.162927  0.428579  1
  O  O19  1  0.498501  0.501499  0.187191  1
  O  O20  1  0.501499  0.498501  0.812809  1
  O  O21  1  0.501499  0.002999  0.812809  1
  O  O22  1  0.997001  0.498501  0.812809  1
  O  O23  1  0.002999  0.501499  0.187191  1
  O  O24  1  0.498501  0.997001  0.187191  1
  O  O25  1  0.173212  0.826788  0.933455  1
  O  O26  1  0.325855  0.162927  0.428579  1
  O  O27  1  0.674145  0.837073  0.571421  1
  O  O28  1  0.168860  0.337718  0.306564  1
  O  O29  1  0.837073  0.674145  0.428579  1
  O  O30  1  0.826788  0.653575  0.066545  1
  O  O31  1  0.831140  0.662282  0.693436  1
  O  O32  1  0.662282  0.831140  0.306564  1
  O  O33  1  0.346425  0.173212  0.066545  1
  O  O34  1  0.826788  0.173212  0.066545  1
  O  O35  1  0.162927  0.325855  0.571421  1
  O  O36  1  0.173212  0.346425  0.933455  1
  O  O37  1  0.653575  0.826788  0.933455  1
  O  O38  1  0.831140  0.168860  0.693436  1
