# generated using pymatgen
data_Nd4Y2PtBr10
_symmetry_space_group_name_H-M   'P 1'
_cell_length_a   7.49676985
_cell_length_b   9.56343359
_cell_length_c   9.55648396
_cell_angle_alpha   108.47436418
_cell_angle_beta   96.12175427
_cell_angle_gamma   105.44190438
_symmetry_Int_Tables_number   1
_chemical_formula_structural   Nd4Y2PtBr10
_chemical_formula_sum   'Nd4 Y2 Pt1 Br10'
_cell_volume   612.55856295
_cell_formula_units_Z   1
loop_
 _symmetry_equiv_pos_site_id
 _symmetry_equiv_pos_as_xyz
  1  'x, y, z'
loop_
 _atom_site_type_symbol
 _atom_site_label
 _atom_site_symmetry_multiplicity
 _atom_site_fract_x
 _atom_site_fract_y
 _atom_site_fract_z
 _atom_site_occupancy
  Nd  Nd0  1  0.470622  0.803309  0.597283  1
  Nd  Nd1  1  0.529378  0.196691  0.402717  1
  Nd  Nd2  1  0.370599  0.453862  0.751737  1
  Nd  Nd3  1  0.629401  0.546138  0.248263  1
  Y  Y4  1  0.860328  0.634549  0.676233  1
  Y  Y5  1  0.139672  0.365451  0.323767  1
  Pt  Pt6  1  0.500000  0.500000  0.500000  1
  Br  Br7  1  0.412972  0.133651  0.674175  1
  Br  Br8  1  0.587028  0.866349  0.325825  1
  Br  Br9  1  0.047367  0.671034  0.418337  1
  Br  Br10  1  0.952633  0.328966  0.581663  1
  Br  Br11  1  0.270720  0.753234  0.844430  1
  Br  Br12  1  0.729280  0.246766  0.155570  1
  Br  Br13  1  0.241929  0.413814  0.050977  1
  Br  Br14  1  0.758071  0.586186  0.949023  1
  Br  Br15  1  0.859274  0.945429  0.770470  1
  Br  Br16  1  0.140726  0.054571  0.229530  1
