# generated using pymatgen
data_Tb2SmDy2(FeB3)2
_symmetry_space_group_name_H-M   'P 1'
_cell_length_a   5.42596167
_cell_length_b   5.42596180
_cell_length_c   8.35439628
_cell_angle_alpha   71.05036348
_cell_angle_beta   71.05035975
_cell_angle_gamma   59.99998696
_symmetry_Int_Tables_number   1
_chemical_formula_structural   Tb2SmDy2(FeB3)2
_chemical_formula_sum   'Tb2 Sm1 Dy2 Fe2 B6'
_cell_volume   197.46739840
_cell_formula_units_Z   1
loop_
 _symmetry_equiv_pos_site_id
 _symmetry_equiv_pos_as_xyz
  1  'x, y, z'
loop_
 _atom_site_type_symbol
 _atom_site_label
 _atom_site_symmetry_multiplicity
 _atom_site_fract_x
 _atom_site_fract_y
 _atom_site_fract_z
 _atom_site_occupancy
  Tb  Tb0  1  0.250870  0.250870  0.247389  1
  Tb  Tb1  1  0.749130  0.749130  0.752611  1
  Sm  Sm2  1  0.000000  0.000000  0.000000  1
  Dy  Dy3  1  0.417608  0.417608  0.747176  1
  Dy  Dy4  1  0.582392  0.582392  0.252824  1
  Fe  Fe5  1  0.118263  0.118263  0.645211  1
  Fe  Fe6  1  0.881737  0.881737  0.354789  1
  B  B7  1  0.167734  0.832266  0.500000  1
  B  B8  1  0.832266  0.500000  0.500000  1
  B  B9  1  0.500000  0.167734  0.500000  1
  B  B10  1  0.167734  0.500000  0.500000  1
  B  B11  1  0.500000  0.832266  0.500000  1
  B  B12  1  0.832266  0.167734  0.500000  1
