# generated using pymatgen
data_NaCo(PtO3)2
_symmetry_space_group_name_H-M   'P 1'
_cell_length_a   5.27882508
_cell_length_b   5.28205358
_cell_length_c   5.91996435
_cell_angle_alpha   72.89317633
_cell_angle_beta   98.48126631
_cell_angle_gamma   119.99904801
_symmetry_Int_Tables_number   1
_chemical_formula_structural   NaCo(PtO3)2
_chemical_formula_sum   'Na1 Co1 Pt2 O6'
_cell_volume   136.62867152
_cell_formula_units_Z   1
loop_
 _symmetry_equiv_pos_site_id
 _symmetry_equiv_pos_as_xyz
  1  'x, y, z'
loop_
 _atom_site_type_symbol
 _atom_site_label
 _atom_site_symmetry_multiplicity
 _atom_site_fract_x
 _atom_site_fract_y
 _atom_site_fract_z
 _atom_site_occupancy
  Na  Na0  1  0.327389  0.163711  0.500024  1
  Co  Co1  1  0.999485  0.999739  0.999998  1
  Pt  Pt2  1  0.669095  0.334572  0.000001  1
  Pt  Pt3  1  0.334227  0.667088  0.000000  1
  O  O4  1  0.323063  0.945158  0.174194  1
  O  O5  1  0.003090  0.263451  0.174805  1
  O  O6  1  0.675461  0.616819  0.176408  1
  O  O7  1  0.675444  0.058625  0.823572  1
  O  O8  1  0.323047  0.377895  0.825807  1
  O  O9  1  0.003034  0.739610  0.825189  1
