# generated using pymatgen
data_CaEu4Si2Sn
_symmetry_space_group_name_H-M   'P 1'
_cell_length_a   9.25285984
_cell_length_b   9.25286038
_cell_length_c   9.25286100
_cell_angle_alpha   128.74541487
_cell_angle_beta   128.74541753
_cell_angle_gamma   75.42056045
_symmetry_Int_Tables_number   1
_chemical_formula_structural   CaEu4Si2Sn
_chemical_formula_sum   'Ca2 Eu8 Si4 Sn2'
_cell_volume   468.95360277
_cell_formula_units_Z   2
loop_
 _symmetry_equiv_pos_site_id
 _symmetry_equiv_pos_as_xyz
  1  'x, y, z'
loop_
 _atom_site_type_symbol
 _atom_site_label
 _atom_site_symmetry_multiplicity
 _atom_site_fract_x
 _atom_site_fract_y
 _atom_site_fract_z
 _atom_site_occupancy
  Ca  Ca0  1  0.000000  0.000000  0.000000  1
  Ca  Ca1  1  0.500000  0.500000  0.000000  1
  Eu  Eu2  1  0.814349  0.314349  0.846968  1
  Eu  Eu3  1  0.185651  0.685651  0.153032  1
  Eu  Eu4  1  0.467382  0.967382  0.153032  1
  Eu  Eu5  1  0.314349  0.467382  0.500000  1
  Eu  Eu6  1  0.032618  0.185651  0.500000  1
  Eu  Eu7  1  0.532618  0.032618  0.846968  1
  Eu  Eu8  1  0.685651  0.532618  0.500000  1
  Eu  Eu9  1  0.967382  0.814349  0.500000  1
  Si  Si10  1  0.111102  0.611102  0.722204  1
  Si  Si11  1  0.888898  0.388898  0.277796  1
  Si  Si12  1  0.611102  0.888898  0.500000  1
  Si  Si13  1  0.388898  0.111102  0.500000  1
  Sn  Sn14  1  0.250000  0.250000  0.000000  1
  Sn  Sn15  1  0.750000  0.750000  0.000000  1
