# generated using pymatgen
data_YbY3Pd3PtO14
_symmetry_space_group_name_H-M   'P 1'
_cell_length_a   7.25788205
_cell_length_b   7.25788214
_cell_length_c   7.25656430
_cell_angle_alpha   60.00571977
_cell_angle_beta   60.00572152
_cell_angle_gamma   59.98207533
_symmetry_Int_Tables_number   1
_chemical_formula_structural   YbY3Pd3PtO14
_chemical_formula_sum   'Yb1 Y3 Pd3 Pt1 O14'
_cell_volume   270.28039059
_cell_formula_units_Z   1
loop_
 _symmetry_equiv_pos_site_id
 _symmetry_equiv_pos_as_xyz
  1  'x, y, z'
loop_
 _atom_site_type_symbol
 _atom_site_label
 _atom_site_symmetry_multiplicity
 _atom_site_fract_x
 _atom_site_fract_y
 _atom_site_fract_z
 _atom_site_occupancy
  Yb  Yb0  1  0.125000  0.125000  0.625000  1
  Y  Y1  1  0.125000  0.625000  0.125000  1
  Y  Y2  1  0.625000  0.125000  0.125000  1
  Y  Y3  1  0.125000  0.125000  0.125000  1
  Pd  Pd4  1  0.125000  0.625000  0.625000  1
  Pd  Pd5  1  0.625000  0.625000  0.125000  1
  Pd  Pd6  1  0.625000  0.125000  0.625000  1
  Pt  Pt7  1  0.625000  0.625000  0.625000  1
  O  O8  1  0.291871  0.705776  0.714134  1
  O  O9  1  0.536715  0.963746  0.964359  1
  O  O10  1  0.712580  0.712580  0.287721  1
  O  O11  1  0.287534  0.287534  0.714310  1
  O  O12  1  0.997527  0.997527  0.005523  1
  O  O13  1  0.286254  0.713285  0.285641  1
  O  O14  1  0.705776  0.291871  0.714134  1
  O  O15  1  0.963746  0.536715  0.964359  1
  O  O16  1  0.537420  0.537420  0.962279  1
  O  O17  1  0.962466  0.962466  0.535690  1
  O  O18  1  0.252473  0.252473  0.244477  1
  O  O19  1  0.544224  0.958129  0.535866  1
  O  O20  1  0.713285  0.286254  0.285641  1
  O  O21  1  0.958129  0.544224  0.535866  1
