# generated using pymatgen
data_Ca3Er3Al12(Si3Ru2)4
_symmetry_space_group_name_H-M   'P 1'
_cell_length_a   8.67226379
_cell_length_b   8.66436161
_cell_length_c   9.27263500
_cell_angle_alpha   90.00000000
_cell_angle_beta   90.00000000
_cell_angle_gamma   120.10393456
_symmetry_Int_Tables_number   1
_chemical_formula_structural   Ca3Er3Al12(Si3Ru2)4
_chemical_formula_sum   'Ca3 Er3 Al12 Si12 Ru8'
_cell_volume   602.76364417
_cell_formula_units_Z   1
loop_
 _symmetry_equiv_pos_site_id
 _symmetry_equiv_pos_as_xyz
  1  'x, y, z'
loop_
 _atom_site_type_symbol
 _atom_site_label
 _atom_site_symmetry_multiplicity
 _atom_site_fract_x
 _atom_site_fract_y
 _atom_site_fract_z
 _atom_site_occupancy
  Ca  Ca0  1  0.191623  0.383394  0.250000  1
  Ca  Ca1  1  0.808200  0.617015  0.750000  1
  Ca  Ca2  1  0.616912  0.808212  0.250000  1
  Er  Er3  1  0.384513  0.192376  0.750000  1
  Er  Er4  1  0.191854  0.807446  0.250000  1
  Er  Er5  1  0.807579  0.191878  0.750000  1
  Al  Al6  1  0.166025  0.332812  0.579285  1
  Al  Al7  1  0.833594  0.667213  0.421463  1
  Al  Al8  1  0.666871  0.833704  0.579179  1
  Al  Al9  1  0.833594  0.667213  0.078537  1
  Al  Al10  1  0.332128  0.165775  0.419766  1
  Al  Al11  1  0.166025  0.332812  0.920715  1
  Al  Al12  1  0.166173  0.833734  0.580874  1
  Al  Al13  1  0.332128  0.165775  0.080234  1
  Al  Al14  1  0.833480  0.166042  0.420246  1
  Al  Al15  1  0.666871  0.833704  0.920821  1
  Al  Al16  1  0.833480  0.166042  0.079754  1
  Al  Al17  1  0.166173  0.833734  0.919126  1
  Si  Si18  1  0.333525  0.666733  0.043904  1
  Si  Si19  1  0.666946  0.333747  0.954618  1
  Si  Si20  1  0.666946  0.333747  0.545382  1
  Si  Si21  1  0.333525  0.666733  0.456096  1
  Si  Si22  1  0.562240  0.123578  0.250000  1
  Si  Si23  1  0.438624  0.876815  0.750000  1
  Si  Si24  1  0.876659  0.438061  0.250000  1
  Si  Si25  1  0.123574  0.561778  0.750000  1
  Si  Si26  1  0.562006  0.438230  0.250000  1
  Si  Si27  1  0.438460  0.561858  0.750000  1
  Si  Si28  1  0.002587  0.997646  0.250000  1
  Si  Si29  1  0.002013  0.004302  0.750000  1
  Ru  Ru30  1  0.499246  0.001284  0.998345  1
  Ru  Ru31  1  0.999468  0.499757  0.999253  1
  Ru  Ru32  1  0.499246  0.001284  0.501655  1
  Ru  Ru33  1  0.499218  0.497839  0.998055  1
  Ru  Ru34  1  0.999468  0.499757  0.500747  1
  Ru  Ru35  1  0.499218  0.497839  0.501945  1
  Ru  Ru36  1  0.999906  0.000067  0.999388  1
  Ru  Ru37  1  0.999906  0.000067  0.500612  1
