# generated using pymatgen
data_Tb4NdSmTa2O14
_symmetry_space_group_name_H-M   'P 1'
_cell_length_a   6.51970587
_cell_length_b   6.51970600
_cell_length_c   7.61326506
_cell_angle_alpha   89.98839147
_cell_angle_beta   90.01160923
_cell_angle_gamma   109.42124285
_symmetry_Int_Tables_number   1
_chemical_formula_structural   Tb4NdSmTa2O14
_chemical_formula_sum   'Tb4 Nd1 Sm1 Ta2 O14'
_cell_volume   305.19993721
_cell_formula_units_Z   1
loop_
 _symmetry_equiv_pos_site_id
 _symmetry_equiv_pos_as_xyz
  1  'x, y, z'
loop_
 _atom_site_type_symbol
 _atom_site_label
 _atom_site_symmetry_multiplicity
 _atom_site_fract_x
 _atom_site_fract_y
 _atom_site_fract_z
 _atom_site_occupancy
  Tb  Tb0  1  0.534086  0.000551  0.750733  1
  Tb  Tb1  1  0.000551  0.534086  0.249267  1
  Tb  Tb2  1  0.465914  0.999449  0.249267  1
  Tb  Tb3  1  0.999449  0.465914  0.750733  1
  Nd  Nd4  1  0.500000  0.500000  0.500000  1
  Sm  Sm5  1  0.500000  0.500000  0.000000  1
  Ta  Ta6  1  0.000000  0.000000  0.500000  1
  Ta  Ta7  1  0.000000  0.000000  0.000000  1
  O  O8  1  0.680600  0.930929  0.468269  1
  O  O9  1  0.930929  0.680600  0.531731  1
  O  O10  1  0.680572  0.929910  0.031626  1
  O  O11  1  0.929910  0.680572  0.968374  1
  O  O12  1  0.319400  0.069071  0.531731  1
  O  O13  1  0.069071  0.319400  0.468269  1
  O  O14  1  0.319428  0.070090  0.968374  1
  O  O15  1  0.070090  0.319428  0.031626  1
  O  O16  1  0.936398  0.063602  0.749921  1
  O  O17  1  0.063602  0.936398  0.250079  1
  O  O18  1  0.366155  0.633844  0.752858  1
  O  O19  1  0.633844  0.366155  0.247142  1
  O  O20  1  0.640295  0.359705  0.752368  1
  O  O21  1  0.359705  0.640295  0.247632  1
