# generated using pymatgen
data_Tb2PaGa6(Co2Ni)3
_symmetry_space_group_name_H-M   'P 1'
_cell_length_a   4.17705900
_cell_length_b   8.62229327
_cell_length_c   8.62229501
_cell_angle_alpha   60.00392709
_cell_angle_beta   90.00000000
_cell_angle_gamma   90.00000000
_symmetry_Int_Tables_number   1
_chemical_formula_structural   Tb2PaGa6(Co2Ni)3
_chemical_formula_sum   'Tb2 Pa1 Ga6 Co6 Ni3'
_cell_volume   268.94538388
_cell_formula_units_Z   1
loop_
 _symmetry_equiv_pos_site_id
 _symmetry_equiv_pos_as_xyz
  1  'x, y, z'
loop_
 _atom_site_type_symbol
 _atom_site_label
 _atom_site_symmetry_multiplicity
 _atom_site_fract_x
 _atom_site_fract_y
 _atom_site_fract_z
 _atom_site_occupancy
  Tb  Tb0  1  0.500000  0.333312  0.333372  1
  Tb  Tb1  1  0.500000  0.666628  0.666688  1
  Pa  Pa2  1  0.000000  0.999936  0.000064  1
  Ga  Ga3  1  0.000000  0.492767  0.507233  1
  Ga  Ga4  1  0.000000  0.507327  0.000032  1
  Ga  Ga5  1  0.000000  0.999968  0.492673  1
  Ga  Ga6  1  0.500000  0.722470  0.277530  1
  Ga  Ga7  1  0.500000  0.277614  0.000058  1
  Ga  Ga8  1  0.500000  0.999942  0.722386  1
  Co  Co9  1  0.000000  0.176780  0.172086  1
  Co  Co10  1  0.000000  0.171987  0.651120  1
  Co  Co11  1  0.000000  0.651027  0.176919  1
  Co  Co12  1  0.000000  0.827914  0.823220  1
  Co  Co13  1  0.000000  0.348880  0.828013  1
  Co  Co14  1  0.000000  0.823081  0.348973  1
  Ni  Ni15  1  0.500000  0.300170  0.699830  1
  Ni  Ni16  1  0.500000  0.699861  0.999762  1
  Ni  Ni17  1  0.500000  0.000238  0.300139  1
