# generated using pymatgen
data_Yb3CeY4(B6Ru)4
_symmetry_space_group_name_H-M   'P 1'
_cell_length_a   3.67081500
_cell_length_b   9.16743047
_cell_length_c   11.55074991
_cell_angle_alpha   90.16324915
_cell_angle_beta   90.00000000
_cell_angle_gamma   90.00000000
_symmetry_Int_Tables_number   1
_chemical_formula_structural   Yb3CeY4(B6Ru)4
_chemical_formula_sum   'Yb3 Ce1 Y4 B24 Ru4'
_cell_volume   388.70358020
_cell_formula_units_Z   1
loop_
 _symmetry_equiv_pos_site_id
 _symmetry_equiv_pos_as_xyz
  1  'x, y, z'
loop_
 _atom_site_type_symbol
 _atom_site_label
 _atom_site_symmetry_multiplicity
 _atom_site_fract_x
 _atom_site_fract_y
 _atom_site_fract_z
 _atom_site_occupancy
  Yb  Yb0  1  0.000000  0.677097  0.587550  1
  Yb  Yb1  1  0.000000  0.825731  0.083988  1
  Yb  Yb2  1  0.000000  0.173660  0.914143  1
  Ce  Ce3  1  0.000000  0.325213  0.414832  1
  Y  Y4  1  0.000000  0.941105  0.369328  1
  Y  Y5  1  0.000000  0.055363  0.632275  1
  Y  Y6  1  0.000000  0.442712  0.128693  1
  Y  Y7  1  0.000000  0.559256  0.868451  1
  B  B8  1  0.500000  0.555119  0.432235  1
  B  B9  1  0.500000  0.445942  0.568291  1
  B  B10  1  0.500000  0.054373  0.067597  1
  B  B11  1  0.500000  0.946125  0.933164  1
  B  B12  1  0.500000  0.747792  0.418207  1
  B  B13  1  0.500000  0.251846  0.582233  1
  B  B14  1  0.500000  0.247164  0.081445  1
  B  B15  1  0.500000  0.752976  0.918148  1
  B  B16  1  0.500000  0.789853  0.265135  1
  B  B17  1  0.500000  0.209411  0.735543  1
  B  B18  1  0.500000  0.290311  0.233949  1
  B  B19  1  0.500000  0.709684  0.765313  1
  B  B20  1  0.500000  0.632047  0.185042  1
  B  B21  1  0.500000  0.368365  0.813564  1
  B  B22  1  0.500000  0.131635  0.314326  1
  B  B23  1  0.500000  0.867792  0.686656  1
  B  B24  1  0.500000  0.984263  0.211076  1
  B  B25  1  0.500000  0.015504  0.789432  1
  B  B26  1  0.500000  0.485282  0.287908  1
  B  B27  1  0.500000  0.515910  0.711748  1
  B  B28  1  0.500000  0.600999  0.027170  1
  B  B29  1  0.500000  0.399459  0.971355  1
  B  B30  1  0.500000  0.101338  0.472156  1
  B  B31  1  0.500000  0.896425  0.528614  1
  Ru  Ru32  1  0.000000  0.636921  0.320588  1
  Ru  Ru33  1  0.000000  0.361220  0.677385  1
  Ru  Ru34  1  0.000000  0.140717  0.181747  1
  Ru  Ru35  1  0.000000  0.861389  0.820712  1
