# generated using pymatgen
data_LiTb16Ag3Ir4
_symmetry_space_group_name_H-M   'P 1'
_cell_length_a   9.59987993
_cell_length_b   9.59987971
_cell_length_c   9.59987969
_cell_angle_alpha   60.35890243
_cell_angle_beta   60.35890587
_cell_angle_gamma   60.35889513
_symmetry_Int_Tables_number   1
_chemical_formula_structural   LiTb16Ag3Ir4
_chemical_formula_sum   'Li1 Tb16 Ag3 Ir4'
_cell_volume   630.65812943
_cell_formula_units_Z   1
loop_
 _symmetry_equiv_pos_site_id
 _symmetry_equiv_pos_as_xyz
  1  'x, y, z'
loop_
 _atom_site_type_symbol
 _atom_site_label
 _atom_site_symmetry_multiplicity
 _atom_site_fract_x
 _atom_site_fract_y
 _atom_site_fract_z
 _atom_site_occupancy
  Li  Li0  1  0.315590  0.315590  0.315590  1
  Tb  Tb1  1  0.100214  0.700449  0.100214  1
  Tb  Tb2  1  0.939212  0.939212  0.562147  1
  Tb  Tb3  1  0.939212  0.562147  0.939212  1
  Tb  Tb4  1  0.312537  0.690309  0.312537  1
  Tb  Tb5  1  0.935416  0.563658  0.563658  1
  Tb  Tb6  1  0.312537  0.312537  0.690309  1
  Tb  Tb7  1  0.102769  0.102769  0.102769  1
  Tb  Tb8  1  0.563658  0.563658  0.935416  1
  Tb  Tb9  1  0.100214  0.100214  0.700449  1
  Tb  Tb10  1  0.687018  0.314453  0.687018  1
  Tb  Tb11  1  0.687018  0.687018  0.314453  1
  Tb  Tb12  1  0.690309  0.312537  0.312537  1
  Tb  Tb13  1  0.314453  0.687018  0.687018  1
  Tb  Tb14  1  0.563658  0.935416  0.563658  1
  Tb  Tb15  1  0.700449  0.100214  0.100214  1
  Tb  Tb16  1  0.562147  0.939212  0.939212  1
  Ag  Ag17  1  0.997498  0.334856  0.334856  1
  Ag  Ag18  1  0.334856  0.997498  0.334856  1
  Ag  Ag19  1  0.334856  0.334856  0.997498  1
  Ir  Ir20  1  0.892699  0.892699  0.892699  1
  Ir  Ir21  1  0.895255  0.895255  0.323168  1
  Ir  Ir22  1  0.323168  0.895255  0.895255  1
  Ir  Ir23  1  0.895255  0.323168  0.895255  1
