# generated using pymatgen
data_DyHo19Si15As
_symmetry_space_group_name_H-M   'P 1'
_cell_length_a   7.48867982
_cell_length_b   7.61731911
_cell_length_c   14.58693646
_cell_angle_alpha   89.89194580
_cell_angle_beta   85.59506824
_cell_angle_gamma   89.97277333
_symmetry_Int_Tables_number   1
_chemical_formula_structural   DyHo19Si15As
_chemical_formula_sum   'Dy1 Ho19 Si15 As1'
_cell_volume   829.63289998
_cell_formula_units_Z   1
loop_
 _symmetry_equiv_pos_site_id
 _symmetry_equiv_pos_as_xyz
  1  'x, y, z'
loop_
 _atom_site_type_symbol
 _atom_site_label
 _atom_site_symmetry_multiplicity
 _atom_site_fract_x
 _atom_site_fract_y
 _atom_site_fract_z
 _atom_site_occupancy
  Dy  Dy0  1  0.675142  0.823712  0.622201  1
  Ho  Ho1  1  0.672546  0.995089  0.245468  1
  Ho  Ho2  1  0.171367  0.503572  0.245425  1
  Ho  Ho3  1  0.828655  0.495987  0.751470  1
  Ho  Ho4  1  0.327498  0.004825  0.753942  1
  Ho  Ho5  1  0.010927  0.823295  0.102847  1
  Ho  Ho6  1  0.472285  0.685615  0.397659  1
  Ho  Ho7  1  0.487853  0.319713  0.897732  1
  Ho  Ho8  1  0.028067  0.186169  0.603098  1
  Ho  Ho9  1  0.992480  0.178531  0.898047  1
  Ho  Ho10  1  0.526699  0.314029  0.602109  1
  Ho  Ho11  1  0.506367  0.681682  0.102663  1
  Ho  Ho12  1  0.972053  0.812772  0.397326  1
  Ho  Ho13  1  0.639265  0.838278  0.881296  1
  Ho  Ho14  1  0.174756  0.677321  0.622219  1
  Ho  Ho15  1  0.861280  0.335782  0.117731  1
  Ho  Ho16  1  0.325138  0.176269  0.378164  1
  Ho  Ho17  1  0.359951  0.163177  0.118695  1
  Ho  Ho18  1  0.825301  0.322330  0.378349  1
  Ho  Ho19  1  0.140849  0.665025  0.882255  1
  Si  Si20  1  0.785698  0.627776  0.251751  1
  Si  Si21  1  0.286057  0.870412  0.252173  1
  Si  Si22  1  0.712903  0.130671  0.748542  1
  Si  Si23  1  0.213074  0.371711  0.748628  1
  Si  Si24  1  0.045742  0.109360  0.251981  1
  Si  Si25  1  0.546071  0.390111  0.251340  1
  Si  Si26  1  0.454354  0.609546  0.749327  1
  Si  Si27  1  0.954286  0.891151  0.749225  1
  Si  Si28  1  0.356604  0.972380  0.542802  1
  Si  Si29  1  0.710757  0.031923  0.043229  1
  Si  Si30  1  0.144385  0.471092  0.458123  1
  Si  Si31  1  0.214112  0.467961  0.043520  1
  Si  Si32  1  0.643586  0.027010  0.457065  1
  Si  Si33  1  0.291238  0.968267  0.955942  1
  Si  Si34  1  0.856470  0.527207  0.542653  1
  As  As35  1  0.786186  0.530251  0.955008  1
