# generated using pymatgen
data_Tb15Dy5(Ir5Au)2
_symmetry_space_group_name_H-M   'P 1'
_cell_length_a   11.08313009
_cell_length_b   11.02907903
_cell_length_c   6.35141504
_cell_angle_alpha   90.00008197
_cell_angle_beta   89.90033233
_cell_angle_gamma   89.99131458
_symmetry_Int_Tables_number   1
_chemical_formula_structural   Tb15Dy5(Ir5Au)2
_chemical_formula_sum   'Tb15 Dy5 Ir10 Au2'
_cell_volume   776.37494400
_cell_formula_units_Z   1
loop_
 _symmetry_equiv_pos_site_id
 _symmetry_equiv_pos_as_xyz
  1  'x, y, z'
loop_
 _atom_site_type_symbol
 _atom_site_label
 _atom_site_symmetry_multiplicity
 _atom_site_fract_x
 _atom_site_fract_y
 _atom_site_fract_z
 _atom_site_occupancy
  Tb  Tb0  1  0.291550  0.089051  0.373445  1
  Tb  Tb1  1  0.291656  0.911126  0.873509  1
  Tb  Tb2  1  0.698289  0.092360  0.866403  1
  Tb  Tb3  1  0.698297  0.907637  0.366412  1
  Tb  Tb4  1  0.578526  0.789482  0.878585  1
  Tb  Tb5  1  0.578544  0.210501  0.378554  1
  Tb  Tb6  1  0.408157  0.790806  0.377991  1
  Tb  Tb7  1  0.408088  0.209226  0.878048  1
  Tb  Tb8  1  0.209943  0.410965  0.620160  1
  Tb  Tb9  1  0.209940  0.588753  0.120249  1
  Tb  Tb10  1  0.789369  0.419200  0.121968  1
  Tb  Tb11  1  0.789293  0.580713  0.621956  1
  Tb  Tb12  1  0.916899  0.705407  0.138080  1
  Tb  Tb13  1  0.916991  0.294504  0.638078  1
  Tb  Tb14  1  0.096352  0.702823  0.622715  1
  Dy  Dy15  1  0.096364  0.297474  0.122411  1
  Dy  Dy16  1  0.009203  0.997522  0.499902  1
  Dy  Dy17  1  0.009243  0.002727  0.999957  1
  Dy  Dy18  1  0.499618  0.498768  0.000372  1
  Dy  Dy19  1  0.499634  0.501179  0.500337  1
  Ir  Ir20  1  0.153466  0.153689  0.751198  1
  Ir  Ir21  1  0.153583  0.846564  0.250668  1
  Ir  Ir22  1  0.655432  0.346918  0.748074  1
  Ir  Ir23  1  0.655470  0.653067  0.248116  1
  Ir  Ir24  1  0.347678  0.346405  0.251387  1
  Ir  Ir25  1  0.348002  0.653506  0.751599  1
  Ir  Ir26  1  0.499752  0.999615  0.121032  1
  Ir  Ir27  1  0.499756  0.000398  0.621059  1
  Ir  Ir28  1  0.999735  0.500878  0.879141  1
  Ir  Ir29  1  0.999695  0.498636  0.378711  1
  Au  Au30  1  0.845789  0.154811  0.249899  1
  Au  Au31  1  0.845688  0.845290  0.749979  1
