# generated using pymatgen
data_Nd2Th(ZnPt)3
_symmetry_space_group_name_H-M   'P 1'
_cell_length_a   7.50773536
_cell_length_b   7.52564088
_cell_length_c   3.94071300
_cell_angle_alpha   90.00000000
_cell_angle_beta   90.00000000
_cell_angle_gamma   120.07892972
_symmetry_Int_Tables_number   1
_chemical_formula_structural   Nd2Th(ZnPt)3
_chemical_formula_sum   'Nd2 Th1 Zn3 Pt3'
_cell_volume   192.66903352
_cell_formula_units_Z   1
loop_
 _symmetry_equiv_pos_site_id
 _symmetry_equiv_pos_as_xyz
  1  'x, y, z'
loop_
 _atom_site_type_symbol
 _atom_site_label
 _atom_site_symmetry_multiplicity
 _atom_site_fract_x
 _atom_site_fract_y
 _atom_site_fract_z
 _atom_site_occupancy
  Nd  Nd0  1  0.407897  0.409274  0.500000  1
  Nd  Nd1  1  0.592103  0.001378  0.500000  1
  Th  Th2  1  0.000000  0.589116  0.500000  1
  Zn  Zn3  1  0.749808  0.756177  0.000000  1
  Zn  Zn4  1  0.250192  0.006369  0.000000  1
  Zn  Zn5  1  0.000000  0.236337  0.000000  1
  Pt  Pt6  1  0.679636  0.345224  0.000000  1
  Pt  Pt7  1  0.320364  0.665589  0.000000  1
  Pt  Pt8  1  0.000000  0.990535  0.500000  1
