# generated using pymatgen
data_Ti4AlCr3(BiO5)4
_symmetry_space_group_name_H-M   'P 1'
_cell_length_a   5.93879200
_cell_length_b   7.71037700
_cell_length_c   8.61578462
_cell_angle_alpha   90.14251431
_cell_angle_beta   90.00000000
_cell_angle_gamma   90.00000000
_symmetry_Int_Tables_number   1
_chemical_formula_structural   Ti4AlCr3(BiO5)4
_chemical_formula_sum   'Ti4 Al1 Cr3 Bi4 O20'
_cell_volume   394.51835965
_cell_formula_units_Z   1
loop_
 _symmetry_equiv_pos_site_id
 _symmetry_equiv_pos_as_xyz
  1  'x, y, z'
loop_
 _atom_site_type_symbol
 _atom_site_label
 _atom_site_symmetry_multiplicity
 _atom_site_fract_x
 _atom_site_fract_y
 _atom_site_fract_z
 _atom_site_occupancy
  Ti  Ti0  1  0.500910  0.873886  0.141811  1
  Ti  Ti1  1  0.501273  0.621969  0.644000  1
  Ti  Ti2  1  0.501273  0.378031  0.356000  1
  Ti  Ti3  1  0.500910  0.126114  0.858189  1
  Al  Al4  1  0.749385  0.500000  0.000000  1
  Cr  Cr5  1  0.250305  0.500000  0.000000  1
  Cr  Cr6  1  0.750061  0.000000  0.500000  1
  Cr  Cr7  1  0.250258  0.000000  0.500000  1
  Bi  Bi8  1  0.996364  0.835817  0.837136  1
  Bi  Bi9  1  0.999435  0.340063  0.666276  1
  Bi  Bi10  1  0.996364  0.164183  0.162864  1
  Bi  Bi11  1  0.999435  0.659937  0.333724  1
  O  O12  1  0.510620  0.651259  0.074218  1
  O  O13  1  0.999844  0.159318  0.441612  1
  O  O14  1  0.259258  0.879628  0.291868  1
  O  O15  1  0.707659  0.000000  0.000000  1
  O  O16  1  0.739500  0.611325  0.799552  1
  O  O17  1  0.741830  0.118615  0.707894  1
  O  O18  1  0.510620  0.348741  0.925782  1
  O  O19  1  0.294857  0.500000  0.500000  1
  O  O20  1  0.999844  0.840682  0.558388  1
  O  O21  1  0.259258  0.120372  0.708132  1
  O  O22  1  0.990653  0.654672  0.056384  1
  O  O23  1  0.739500  0.388675  0.200448  1
  O  O24  1  0.741830  0.881385  0.292106  1
  O  O25  1  0.256626  0.616562  0.792576  1
  O  O26  1  0.293192  0.000000  0.000000  1
  O  O27  1  0.500755  0.843602  0.578884  1
  O  O28  1  0.500755  0.156398  0.421116  1
  O  O29  1  0.710145  0.500000  0.500000  1
  O  O30  1  0.256626  0.383438  0.207424  1
  O  O31  1  0.990653  0.345328  0.943616  1
