# generated using pymatgen
data_Y(Zr3Sn2)3
_symmetry_space_group_name_H-M   'P 1'
_cell_length_a   8.64293023
_cell_length_b   8.64292958
_cell_length_c   5.85872400
_cell_angle_alpha   90.00000000
_cell_angle_beta   90.00000000
_cell_angle_gamma   120.86322005
_symmetry_Int_Tables_number   1
_chemical_formula_structural   Y(Zr3Sn2)3
_chemical_formula_sum   'Y1 Zr9 Sn6'
_cell_volume   375.67464981
_cell_formula_units_Z   1
loop_
 _symmetry_equiv_pos_site_id
 _symmetry_equiv_pos_as_xyz
  1  'x, y, z'
loop_
 _atom_site_type_symbol
 _atom_site_label
 _atom_site_symmetry_multiplicity
 _atom_site_fract_x
 _atom_site_fract_y
 _atom_site_fract_z
 _atom_site_occupancy
  Y  Y0  1  0.233646  0.233646  0.750000  1
  Zr  Zr1  1  0.760707  0.760707  0.250000  1
  Zr  Zr2  1  0.999585  0.251989  0.250000  1
  Zr  Zr3  1  0.747015  0.998452  0.750000  1
  Zr  Zr4  1  0.334764  0.666715  0.499038  1
  Zr  Zr5  1  0.251989  0.999585  0.250000  1
  Zr  Zr6  1  0.666715  0.334764  0.499038  1
  Zr  Zr7  1  0.998452  0.747015  0.750000  1
  Zr  Zr8  1  0.334764  0.666715  0.000962  1
  Zr  Zr9  1  0.666715  0.334764  0.000962  1
  Sn  Sn10  1  0.610545  0.610545  0.750000  1
  Sn  Sn11  1  0.393556  0.996544  0.750000  1
  Sn  Sn12  1  0.610628  0.000946  0.250000  1
  Sn  Sn13  1  0.996544  0.393556  0.750000  1
  Sn  Sn14  1  0.393428  0.393428  0.250000  1
  Sn  Sn15  1  0.000946  0.610628  0.250000  1
