# generated using pymatgen
data_HoFe3P3Rh2
_symmetry_space_group_name_H-M   'P 1'
_cell_length_a   3.75710400
_cell_length_b   10.31423800
_cell_length_c   12.15963800
_cell_angle_alpha   90.00000000
_cell_angle_beta   90.00000000
_cell_angle_gamma   90.00000000
_symmetry_Int_Tables_number   1
_chemical_formula_structural   HoFe3P3Rh2
_chemical_formula_sum   'Ho4 Fe12 P12 Rh8'
_cell_volume   471.20621643
_cell_formula_units_Z   4
loop_
 _symmetry_equiv_pos_site_id
 _symmetry_equiv_pos_as_xyz
  1  'x, y, z'
loop_
 _atom_site_type_symbol
 _atom_site_label
 _atom_site_symmetry_multiplicity
 _atom_site_fract_x
 _atom_site_fract_y
 _atom_site_fract_z
 _atom_site_occupancy
  Ho  Ho0  1  0.250000  0.580713  0.711379  1
  Ho  Ho1  1  0.250000  0.919287  0.211379  1
  Ho  Ho2  1  0.750000  0.419287  0.288621  1
  Ho  Ho3  1  0.750000  0.080713  0.788621  1
  Fe  Fe4  1  0.250000  0.223874  0.170683  1
  Fe  Fe5  1  0.250000  0.276126  0.670683  1
  Fe  Fe6  1  0.750000  0.776126  0.829317  1
  Fe  Fe7  1  0.750000  0.723874  0.329317  1
  Fe  Fe8  1  0.250000  0.877248  0.696991  1
  Fe  Fe9  1  0.250000  0.622752  0.196991  1
  Fe  Fe10  1  0.750000  0.122752  0.303009  1
  Fe  Fe11  1  0.750000  0.377248  0.803009  1
  Fe  Fe12  1  0.250000  0.458818  0.935403  1
  Fe  Fe13  1  0.250000  0.041182  0.435403  1
  Fe  Fe14  1  0.750000  0.541182  0.064597  1
  Fe  Fe15  1  0.750000  0.958818  0.564597  1
  P  P16  1  0.250000  0.429576  0.112848  1
  P  P17  1  0.250000  0.070424  0.612848  1
  P  P18  1  0.750000  0.570424  0.887152  1
  P  P19  1  0.750000  0.929576  0.387152  1
  P  P20  1  0.250000  0.273402  0.852760  1
  P  P21  1  0.250000  0.226598  0.352760  1
  P  P22  1  0.750000  0.726598  0.147240  1
  P  P23  1  0.750000  0.773402  0.647240  1
  P  P24  1  0.250000  0.605587  0.377479  1
  P  P25  1  0.250000  0.894413  0.877479  1
  P  P26  1  0.750000  0.394413  0.622521  1
  P  P27  1  0.750000  0.105587  0.122521  1
  Rh  Rh28  1  0.250000  0.707702  0.984928  1
  Rh  Rh29  1  0.250000  0.792298  0.484928  1
  Rh  Rh30  1  0.750000  0.292298  0.015072  1
  Rh  Rh31  1  0.750000  0.207702  0.515072  1
  Rh  Rh32  1  0.250000  0.404921  0.478399  1
  Rh  Rh33  1  0.250000  0.095079  0.978399  1
  Rh  Rh34  1  0.750000  0.595079  0.521601  1
  Rh  Rh35  1  0.750000  0.904921  0.021601  1
