# generated using pymatgen
data_Ta4VSi2Ge
_symmetry_space_group_name_H-M   'P 1'
_cell_length_a   7.55127429
_cell_length_b   7.55127412
_cell_length_c   7.55127462
_cell_angle_alpha   129.27179921
_cell_angle_beta   129.27179512
_cell_angle_gamma   74.57362989
_symmetry_Int_Tables_number   1
_chemical_formula_structural   Ta4VSi2Ge
_chemical_formula_sum   'Ta8 V2 Si4 Ge2'
_cell_volume   251.45412373
_cell_formula_units_Z   2
loop_
 _symmetry_equiv_pos_site_id
 _symmetry_equiv_pos_as_xyz
  1  'x, y, z'
loop_
 _atom_site_type_symbol
 _atom_site_label
 _atom_site_symmetry_multiplicity
 _atom_site_fract_x
 _atom_site_fract_y
 _atom_site_fract_z
 _atom_site_occupancy
  Ta  Ta0  1  0.015583  0.515583  0.828100  1
  Ta  Ta1  1  0.687484  0.187484  0.171900  1
  Ta  Ta2  1  0.515583  0.687484  0.500000  1
  Ta  Ta3  1  0.187484  0.015583  0.500000  1
  Ta  Ta4  1  0.984417  0.484417  0.171900  1
  Ta  Ta5  1  0.312516  0.812516  0.828100  1
  Ta  Ta6  1  0.484417  0.312516  0.500000  1
  Ta  Ta7  1  0.812516  0.984417  0.500000  1
  V  V8  1  0.000000  0.000000  0.000000  1
  V  V9  1  0.500000  0.500000  0.000000  1
  Si  Si10  1  0.633737  0.133737  0.767473  1
  Si  Si11  1  0.366263  0.866263  0.232527  1
  Si  Si12  1  0.133737  0.366263  0.500000  1
  Si  Si13  1  0.866263  0.633737  0.500000  1
  Ge  Ge14  1  0.750000  0.750000  0.000000  1
  Ge  Ge15  1  0.250000  0.250000  0.000000  1
