# generated using pymatgen
data_K2Tm4Cu4S9
_symmetry_space_group_name_H-M   'P 1'
_cell_length_a   7.09473789
_cell_length_b   7.09473707
_cell_length_c   15.72829523
_cell_angle_alpha   70.99414633
_cell_angle_beta   70.99414810
_cell_angle_gamma   32.00814754
_symmetry_Int_Tables_number   1
_chemical_formula_structural   K2Tm4Cu4S9
_chemical_formula_sum   'K2 Tm4 Cu4 S9'
_cell_volume   394.80970376
_cell_formula_units_Z   1
loop_
 _symmetry_equiv_pos_site_id
 _symmetry_equiv_pos_as_xyz
  1  'x, y, z'
loop_
 _atom_site_type_symbol
 _atom_site_label
 _atom_site_symmetry_multiplicity
 _atom_site_fract_x
 _atom_site_fract_y
 _atom_site_fract_z
 _atom_site_occupancy
  K  K0  1  0.030710  0.030710  0.730597  1
  K  K1  1  0.969290  0.969290  0.269403  1
  Tm  Tm2  1  0.233599  0.233599  0.895302  1
  Tm  Tm3  1  0.345786  0.345786  0.554633  1
  Tm  Tm4  1  0.654214  0.654214  0.445367  1
  Tm  Tm5  1  0.766401  0.766401  0.104698  1
  Cu  Cu6  1  0.428408  0.428408  0.963232  1
  Cu  Cu7  1  0.756136  0.756136  0.728628  1
  Cu  Cu8  1  0.243864  0.243864  0.271372  1
  Cu  Cu9  1  0.571592  0.571592  0.036768  1
  S  S10  1  0.861007  0.861007  0.924464  1
  S  S11  1  0.609891  0.609891  0.873243  1
  S  S12  1  0.351689  0.351689  0.721388  1
  S  S13  1  0.702226  0.702226  0.601761  1
  S  S14  1  0.000000  0.000000  0.500000  1
  S  S15  1  0.297774  0.297774  0.398239  1
  S  S16  1  0.648311  0.648311  0.278612  1
  S  S17  1  0.390109  0.390109  0.126757  1
  S  S18  1  0.138993  0.138993  0.075536  1
