# generated using pymatgen
data_Er6LuSe8
_symmetry_space_group_name_H-M   'P 1'
_cell_length_a   8.03876590
_cell_length_b   8.03855294
_cell_length_c   8.03585200
_cell_angle_alpha   120.01877938
_cell_angle_beta   89.94353645
_cell_angle_gamma   120.01752151
_symmetry_Int_Tables_number   1
_chemical_formula_structural   Er6LuSe8
_chemical_formula_sum   'Er6 Lu1 Se8'
_cell_volume   367.16363338
_cell_formula_units_Z   1
loop_
 _symmetry_equiv_pos_site_id
 _symmetry_equiv_pos_as_xyz
  1  'x, y, z'
loop_
 _atom_site_type_symbol
 _atom_site_label
 _atom_site_symmetry_multiplicity
 _atom_site_fract_x
 _atom_site_fract_y
 _atom_site_fract_z
 _atom_site_occupancy
  Er  Er0  1  0.250117  0.999901  0.250038  1
  Er  Er1  1  0.250004  0.500209  0.250146  1
  Er  Er2  1  0.749940  0.000030  0.250103  1
  Er  Er3  1  0.250047  0.000079  0.749937  1
  Er  Er4  1  0.749973  0.999856  0.749814  1
  Er  Er5  1  0.749848  0.500007  0.750037  1
  Lu  Lu6  1  0.250014  0.499990  0.749991  1
  Se  Se7  1  0.000026  0.999704  0.999647  1
  Se  Se8  1  0.500053  0.000062  0.499977  1
  Se  Se9  1  0.998023  0.996316  0.498232  1
  Se  Se10  1  0.998117  0.499897  0.498107  1
  Se  Se11  1  0.502293  0.500125  0.497850  1
  Se  Se12  1  0.997746  0.499989  0.002336  1
  Se  Se13  1  0.501927  0.500069  0.001833  1
  Se  Se14  1  0.501875  0.003770  0.001961  1
