# generated using pymatgen
data_Er3Tm17(IrPt5)2
_symmetry_space_group_name_H-M   'P 1'
_cell_length_a   10.90545102
_cell_length_b   10.90869101
_cell_length_c   6.33706100
_cell_angle_alpha   89.99941662
_cell_angle_beta   90.00287712
_cell_angle_gamma   89.99450528
_symmetry_Int_Tables_number   1
_chemical_formula_structural   Er3Tm17(IrPt5)2
_chemical_formula_sum   'Er3 Tm17 Ir2 Pt10'
_cell_volume   753.88335941
_cell_formula_units_Z   1
loop_
 _symmetry_equiv_pos_site_id
 _symmetry_equiv_pos_as_xyz
  1  'x, y, z'
loop_
 _atom_site_type_symbol
 _atom_site_label
 _atom_site_symmetry_multiplicity
 _atom_site_fract_x
 _atom_site_fract_y
 _atom_site_fract_z
 _atom_site_occupancy
  Er  Er0  1  0.912716  0.294387  0.623986  1
  Er  Er1  1  0.087211  0.705612  0.623905  1
  Er  Er2  1  0.087268  0.294368  0.123985  1
  Tm  Tm3  1  0.292292  0.087735  0.376921  1
  Tm  Tm4  1  0.292309  0.912260  0.876965  1
  Tm  Tm5  1  0.707708  0.087737  0.876918  1
  Tm  Tm6  1  0.707746  0.912182  0.376894  1
  Tm  Tm7  1  0.587835  0.792211  0.876924  1
  Tm  Tm8  1  0.587806  0.207803  0.376856  1
  Tm  Tm9  1  0.412178  0.792207  0.376886  1
  Tm  Tm10  1  0.412187  0.207800  0.876838  1
  Tm  Tm11  1  0.205529  0.412868  0.623804  1
  Tm  Tm12  1  0.205419  0.587184  0.123792  1
  Tm  Tm13  1  0.794473  0.412997  0.123822  1
  Tm  Tm14  1  0.794501  0.587192  0.623778  1
  Tm  Tm15  1  0.912741  0.705384  0.123801  1
  Tm  Tm16  1  0.999975  0.999973  0.500630  1
  Tm  Tm17  1  0.999944  0.999887  0.000743  1
  Tm  Tm18  1  0.499995  0.500002  0.000747  1
  Tm  Tm19  1  0.500016  0.500002  0.500679  1
  Ir  Ir20  1  0.999909  0.500227  0.880057  1
  Ir  Ir21  1  0.999921  0.500184  0.379704  1
  Pt  Pt22  1  0.845456  0.152606  0.249384  1
  Pt  Pt23  1  0.845574  0.847229  0.749936  1
  Pt  Pt24  1  0.154560  0.152559  0.749397  1
  Pt  Pt25  1  0.154383  0.847333  0.249313  1
  Pt  Pt26  1  0.652607  0.345866  0.749910  1
  Pt  Pt27  1  0.652911  0.654227  0.249802  1
  Pt  Pt28  1  0.347399  0.345840  0.249936  1
  Pt  Pt29  1  0.347382  0.654152  0.749921  1
  Pt  Pt30  1  0.500035  0.999992  0.116858  1
  Pt  Pt31  1  0.500015  0.999994  0.616897  1
