# generated using pymatgen
data_Tb4CoGe3F28
_symmetry_space_group_name_H-M   'P 1'
_cell_length_a   5.43568212
_cell_length_b   8.75562129
_cell_length_c   11.73730000
_cell_angle_alpha   62.18142865
_cell_angle_beta   90.01226935
_cell_angle_gamma   90.00162931
_symmetry_Int_Tables_number   1
_chemical_formula_structural   Tb4CoGe3F28
_chemical_formula_sum   'Tb4 Co1 Ge3 F28'
_cell_volume   494.05188528
_cell_formula_units_Z   1
loop_
 _symmetry_equiv_pos_site_id
 _symmetry_equiv_pos_as_xyz
  1  'x, y, z'
loop_
 _atom_site_type_symbol
 _atom_site_label
 _atom_site_symmetry_multiplicity
 _atom_site_fract_x
 _atom_site_fract_y
 _atom_site_fract_z
 _atom_site_occupancy
  Tb  Tb0  1  0.262438  0.810381  0.264811  1
  Tb  Tb1  1  0.738923  0.190492  0.735544  1
  Tb  Tb2  1  0.760764  0.190436  0.234799  1
  Tb  Tb3  1  0.238796  0.810000  0.762438  1
  Co  Co4  1  0.740356  0.725776  0.543096  1
  Ge  Ge5  1  0.758733  0.726563  0.042037  1
  Ge  Ge6  1  0.242031  0.274432  0.956920  1
  Ge  Ge7  1  0.257655  0.273781  0.457854  1
  F  F8  1  0.924814  0.706369  0.422577  1
  F  F9  1  0.065426  0.293566  0.577440  1
  F  F10  1  0.433790  0.293836  0.077225  1
  F  F11  1  0.565913  0.706750  0.922714  1
  F  F12  1  0.486371  0.728519  0.133101  1
  F  F13  1  0.515170  0.271881  0.867090  1
  F  F14  1  0.984383  0.269952  0.367753  1
  F  F15  1  0.015289  0.728523  0.629999  1
  F  F16  1  0.948766  0.740697  0.167040  1
  F  F17  1  0.052152  0.259650  0.832532  1
  F  F18  1  0.449049  0.258421  0.333511  1
  F  F19  1  0.556687  0.739087  0.668487  1
  F  F20  1  0.771842  0.491466  0.136338  1
  F  F21  1  0.228617  0.509013  0.863072  1
  F  F22  1  0.268910  0.509068  0.364148  1
  F  F23  1  0.727127  0.492843  0.636692  1
  F  F24  1  0.958973  0.282650  0.040221  1
  F  F25  1  0.041056  0.718117  0.958772  1
  F  F26  1  0.460076  0.716773  0.460693  1
  F  F27  1  0.540980  0.282840  0.540233  1
  F  F28  1  0.741314  0.957421  0.455772  1
  F  F29  1  0.261564  0.039029  0.547178  1
  F  F30  1  0.239288  0.039776  0.047833  1
  F  F31  1  0.761017  0.961141  0.952503  1
  F  F32  1  0.596183  0.969201  0.227088  1
  F  F33  1  0.404830  0.031044  0.771752  1
  F  F34  1  0.095291  0.031152  0.273241  1
  F  F35  1  0.905429  0.969352  0.727500  1
