# generated using pymatgen
data_HfZr(ScRu2)2
_symmetry_space_group_name_H-M   'P 1'
_cell_length_a   6.45917000
_cell_length_b   4.57778200
_cell_length_c   9.17650400
_cell_angle_alpha   90.00000000
_cell_angle_beta   89.99955708
_cell_angle_gamma   90.00000000
_symmetry_Int_Tables_number   1
_chemical_formula_structural   HfZr(ScRu2)2
_chemical_formula_sum   'Hf2 Zr2 Sc4 Ru8'
_cell_volume   271.33703836
_cell_formula_units_Z   2
loop_
 _symmetry_equiv_pos_site_id
 _symmetry_equiv_pos_as_xyz
  1  'x, y, z'
loop_
 _atom_site_type_symbol
 _atom_site_label
 _atom_site_symmetry_multiplicity
 _atom_site_fract_x
 _atom_site_fract_y
 _atom_site_fract_z
 _atom_site_occupancy
  Hf  Hf0  1  0.749969  0.250000  0.625361  1
  Hf  Hf1  1  0.249960  0.750000  0.874640  1
  Zr  Zr2  1  0.750037  0.250000  0.124635  1
  Zr  Zr3  1  0.250028  0.750000  0.375362  1
  Sc  Sc4  1  0.250026  0.250000  0.124091  1
  Sc  Sc5  1  0.750036  0.750000  0.375927  1
  Sc  Sc6  1  0.249973  0.250000  0.625926  1
  Sc  Sc7  1  0.749967  0.750000  0.874071  1
  Ru  Ru8  1  0.499419  0.750000  0.124039  1
  Ru  Ru9  1  0.000618  0.750000  0.124041  1
  Ru  Ru10  1  0.500628  0.250000  0.375954  1
  Ru  Ru11  1  0.999402  0.250000  0.375958  1
  Ru  Ru12  1  0.999323  0.750000  0.625921  1
  Ru  Ru13  1  0.500643  0.750000  0.625919  1
  Ru  Ru14  1  0.000657  0.250000  0.874078  1
  Ru  Ru15  1  0.499317  0.250000  0.874079  1
