# generated using pymatgen
data_TbPa3(InPd2)2
_symmetry_space_group_name_H-M   'P 1'
_cell_length_a   7.81749226
_cell_length_b   7.81749226
_cell_length_c   3.67221200
_cell_angle_alpha   90.00000000
_cell_angle_beta   90.00000000
_cell_angle_gamma   89.08124858
_symmetry_Int_Tables_number   1
_chemical_formula_structural   TbPa3(InPd2)2
_chemical_formula_sum   'Tb1 Pa3 In2 Pd4'
_cell_volume   224.39172038
_cell_formula_units_Z   1
loop_
 _symmetry_equiv_pos_site_id
 _symmetry_equiv_pos_as_xyz
  1  'x, y, z'
loop_
 _atom_site_type_symbol
 _atom_site_label
 _atom_site_symmetry_multiplicity
 _atom_site_fract_x
 _atom_site_fract_y
 _atom_site_fract_z
 _atom_site_occupancy
  Tb  Tb0  1  0.675476  0.175476  0.500000  1
  Pa  Pa1  1  0.328750  0.828750  0.500000  1
  Pa  Pa2  1  0.825922  0.673313  0.500000  1
  Pa  Pa3  1  0.173313  0.325922  0.500000  1
  In  In4  1  0.995575  0.001638  0.000000  1
  In  In5  1  0.501638  0.495575  0.000000  1
  Pd  Pd6  1  0.360995  0.122906  0.000000  1
  Pd  Pd7  1  0.881938  0.381938  0.000000  1
  Pd  Pd8  1  0.133488  0.633488  0.000000  1
  Pd  Pd9  1  0.622906  0.860995  0.000000  1
