# generated using pymatgen
data_Tb2Gd6TmPt6
_symmetry_space_group_name_H-M   'P 1'
_cell_length_a   7.55163147
_cell_length_b   7.55163108
_cell_length_c   7.55163300
_cell_angle_alpha   71.09096844
_cell_angle_beta   71.09096144
_cell_angle_gamma   71.09096475
_symmetry_Int_Tables_number   1
_chemical_formula_structural   Tb2Gd6TmPt6
_chemical_formula_sum   'Tb2 Gd6 Tm1 Pt6'
_cell_volume   373.69947449
_cell_formula_units_Z   1
loop_
 _symmetry_equiv_pos_site_id
 _symmetry_equiv_pos_as_xyz
  1  'x, y, z'
loop_
 _atom_site_type_symbol
 _atom_site_label
 _atom_site_symmetry_multiplicity
 _atom_site_fract_x
 _atom_site_fract_y
 _atom_site_fract_z
 _atom_site_occupancy
  Tb  Tb0  1  0.802553  0.802553  0.802553  1
  Tb  Tb1  1  0.197447  0.197447  0.197447  1
  Gd  Gd2  1  0.332645  0.604080  0.840082  1
  Gd  Gd3  1  0.840082  0.332645  0.604080  1
  Gd  Gd4  1  0.604080  0.840082  0.332645  1
  Gd  Gd5  1  0.667355  0.395920  0.159918  1
  Gd  Gd6  1  0.159918  0.667355  0.395920  1
  Gd  Gd7  1  0.395920  0.159918  0.667355  1
  Tm  Tm8  1  0.000000  0.000000  0.000000  1
  Pt  Pt9  1  0.163609  0.959164  0.593005  1
  Pt  Pt10  1  0.593005  0.163609  0.959164  1
  Pt  Pt11  1  0.959164  0.593005  0.163609  1
  Pt  Pt12  1  0.836391  0.040836  0.406995  1
  Pt  Pt13  1  0.406995  0.836391  0.040836  1
  Pt  Pt14  1  0.040836  0.406995  0.836391  1
