# generated using pymatgen
data_Cs8Na4DyHo3Sb8
_symmetry_space_group_name_H-M   'P 1'
_cell_length_a   11.63895638
_cell_length_b   11.63895511
_cell_length_c   7.58350104
_cell_angle_alpha   89.99127326
_cell_angle_beta   90.00872501
_cell_angle_gamma   99.78488316
_symmetry_Int_Tables_number   1
_chemical_formula_structural   Cs8Na4DyHo3Sb8
_chemical_formula_sum   'Cs8 Na4 Dy1 Ho3 Sb8'
_cell_volume   1012.35676930
_cell_formula_units_Z   1
loop_
 _symmetry_equiv_pos_site_id
 _symmetry_equiv_pos_as_xyz
  1  'x, y, z'
loop_
 _atom_site_type_symbol
 _atom_site_label
 _atom_site_symmetry_multiplicity
 _atom_site_fract_x
 _atom_site_fract_y
 _atom_site_fract_z
 _atom_site_occupancy
  Cs  Cs0  1  0.070503  0.429490  0.249988  1
  Cs  Cs1  1  0.429490  0.070503  0.750012  1
  Cs  Cs2  1  0.929546  0.570510  0.750031  1
  Cs  Cs3  1  0.570510  0.929546  0.249969  1
  Cs  Cs4  1  0.677206  0.322742  0.212730  1
  Cs  Cs5  1  0.822795  0.177199  0.712786  1
  Cs  Cs6  1  0.322742  0.677206  0.787270  1
  Cs  Cs7  1  0.177199  0.822795  0.287214  1
  Na  Na8  1  0.382133  0.382133  0.000000  1
  Na  Na9  1  0.117851  0.117851  0.500000  1
  Na  Na10  1  0.617843  0.617843  0.000000  1
  Na  Na11  1  0.882211  0.882211  0.500000  1
  Dy  Dy12  1  0.630957  0.630957  0.500000  1
  Ho  Ho13  1  0.130837  0.130837  0.000000  1
  Ho  Ho14  1  0.369053  0.369053  0.500000  1
  Ho  Ho15  1  0.869174  0.869174  0.000000  1
  Sb  Sb16  1  0.842142  0.658259  0.249551  1
  Sb  Sb17  1  0.658259  0.842142  0.750449  1
  Sb  Sb18  1  0.158251  0.341764  0.749986  1
  Sb  Sb19  1  0.341764  0.158251  0.250014  1
  Sb  Sb20  1  0.904712  0.095309  0.210491  1
  Sb  Sb21  1  0.595201  0.404310  0.710819  1
  Sb  Sb22  1  0.095309  0.904712  0.789509  1
  Sb  Sb23  1  0.404310  0.595201  0.289181  1
