# generated using pymatgen
data_HoErHf2(NiP)4
_symmetry_space_group_name_H-M   'P 1'
_cell_length_a   3.84115100
_cell_length_b   3.84115095
_cell_length_c   14.59780300
_cell_angle_alpha   90.00000000
_cell_angle_beta   90.00000000
_cell_angle_gamma   120.00000904
_symmetry_Int_Tables_number   1
_chemical_formula_structural   HoErHf2(NiP)4
_chemical_formula_sum   'Ho1 Er1 Hf2 Ni4 P4'
_cell_volume   186.52663060
_cell_formula_units_Z   1
loop_
 _symmetry_equiv_pos_site_id
 _symmetry_equiv_pos_as_xyz
  1  'x, y, z'
loop_
 _atom_site_type_symbol
 _atom_site_label
 _atom_site_symmetry_multiplicity
 _atom_site_fract_x
 _atom_site_fract_y
 _atom_site_fract_z
 _atom_site_occupancy
  Ho  Ho0  1  0.000000  0.000000  0.500000  1
  Er  Er1  1  0.000000  0.000000  0.000000  1
  Hf  Hf2  1  0.000000  0.000000  0.249417  1
  Hf  Hf3  1  0.000000  0.000000  0.750583  1
  Ni  Ni4  1  0.333333  0.666667  0.353055  1
  Ni  Ni5  1  0.666667  0.333333  0.646945  1
  Ni  Ni6  1  0.666667  0.333333  0.854747  1
  Ni  Ni7  1  0.333333  0.666667  0.145253  1
  P  P8  1  0.333333  0.666667  0.875617  1
  P  P9  1  0.666667  0.333333  0.124383  1
  P  P10  1  0.666667  0.333333  0.374569  1
  P  P11  1  0.333333  0.666667  0.625431  1
