# generated using pymatgen
data_Tm2Tc2C3
_symmetry_space_group_name_H-M   'P 1'
_cell_length_a   5.96611223
_cell_length_b   5.96611210
_cell_length_c   5.62340856
_cell_angle_alpha   68.01083315
_cell_angle_beta   68.01083375
_cell_angle_gamma   32.14800656
_symmetry_Int_Tables_number   1
_chemical_formula_structural   Tm2Tc2C3
_chemical_formula_sum   'Tm2 Tc2 C3'
_cell_volume   98.08927743
_cell_formula_units_Z   1
loop_
 _symmetry_equiv_pos_site_id
 _symmetry_equiv_pos_as_xyz
  1  'x, y, z'
loop_
 _atom_site_type_symbol
 _atom_site_label
 _atom_site_symmetry_multiplicity
 _atom_site_fract_x
 _atom_site_fract_y
 _atom_site_fract_z
 _atom_site_occupancy
  Tm  Tm0  1  0.609810  0.609810  0.174339  1
  Tm  Tm1  1  0.390190  0.390190  0.825661  1
  Tc  Tc2  1  0.842451  0.842451  0.322375  1
  Tc  Tc3  1  0.157549  0.157549  0.677625  1
  C  C4  1  0.754412  0.754412  0.731510  1
  C  C5  1  0.245588  0.245588  0.268490  1
  C  C6  1  0.000000  0.000000  0.000000  1
