# generated using pymatgen
data_Te13Os
_symmetry_space_group_name_H-M   'P 1'
_cell_length_a   10.27411605
_cell_length_b   10.74707222
_cell_length_c   9.54116380
_cell_angle_alpha   102.74291457
_cell_angle_beta   111.56077990
_cell_angle_gamma   88.73884201
_symmetry_Int_Tables_number   1
_chemical_formula_structural   Te13Os
_chemical_formula_sum   'Te26 Os2'
_cell_volume   953.62854045
_cell_formula_units_Z   2
loop_
 _symmetry_equiv_pos_site_id
 _symmetry_equiv_pos_as_xyz
  1  'x, y, z'
loop_
 _atom_site_type_symbol
 _atom_site_label
 _atom_site_symmetry_multiplicity
 _atom_site_fract_x
 _atom_site_fract_y
 _atom_site_fract_z
 _atom_site_occupancy
  Te  Te0  1  0.459009  0.700337  0.047106  1
  Te  Te1  1  0.540991  0.299663  0.952894  1
  Te  Te2  1  0.609512  0.855341  0.358904  1
  Te  Te3  1  0.390488  0.144659  0.641096  1
  Te  Te4  1  0.722527  0.726653  0.970548  1
  Te  Te5  1  0.277473  0.273347  0.029452  1
  Te  Te6  1  0.816650  0.962760  0.270134  1
  Te  Te7  1  0.183350  0.037240  0.729866  1
  Te  Te8  1  0.440362  0.061972  0.147598  1
  Te  Te9  1  0.559638  0.938028  0.852402  1
  Te  Te10  1  0.244723  0.685875  0.645791  1
  Te  Te11  1  0.755277  0.314125  0.354209  1
  Te  Te12  1  0.102716  0.827835  0.954644  1
  Te  Te13  1  0.897284  0.172165  0.045356  1
  Te  Te14  1  0.113900  0.025438  0.239752  1
  Te  Te15  1  0.886100  0.974562  0.760248  1
  Te  Te16  1  0.296431  0.838325  0.423739  1
  Te  Te17  1  0.703569  0.161675  0.576261  1
  Te  Te18  1  0.522893  0.567696  0.681782  1
  Te  Te19  1  0.477107  0.432304  0.318218  1
  Te  Te20  1  0.099082  0.490327  0.742358  1
  Te  Te21  1  0.900918  0.509673  0.257642  1
  Te  Te22  1  0.901920  0.685411  0.517617  1
  Te  Te23  1  0.098080  0.314589  0.482383  1
  Te  Te24  1  0.236394  0.632455  0.169717  1
  Te  Te25  1  0.763606  0.367545  0.830283  1
  Os  Os26  1  0.324851  0.873574  0.894637  1
  Os  Os27  1  0.675149  0.126426  0.105363  1
