# generated using pymatgen
data_VCu(NiP)2
_symmetry_space_group_name_H-M   'P 1'
_cell_length_a   3.54351800
_cell_length_b   5.89873800
_cell_length_c   6.74110600
_cell_angle_alpha   90.00000000
_cell_angle_beta   90.00000000
_cell_angle_gamma   90.00000000
_symmetry_Int_Tables_number   1
_chemical_formula_structural   VCu(NiP)2
_chemical_formula_sum   'V2 Cu2 Ni4 P4'
_cell_volume   140.90451398
_cell_formula_units_Z   2
loop_
 _symmetry_equiv_pos_site_id
 _symmetry_equiv_pos_as_xyz
  1  'x, y, z'
loop_
 _atom_site_type_symbol
 _atom_site_label
 _atom_site_symmetry_multiplicity
 _atom_site_fract_x
 _atom_site_fract_y
 _atom_site_fract_z
 _atom_site_occupancy
  V  V0  1  0.250000  0.532750  0.326447  1
  V  V1  1  0.250000  0.032750  0.173553  1
  Cu  Cu2  1  0.750000  0.466844  0.660245  1
  Cu  Cu3  1  0.750000  0.966844  0.839755  1
  Ni  Ni4  1  0.750000  0.362967  0.057060  1
  Ni  Ni5  1  0.750000  0.862967  0.442940  1
  Ni  Ni6  1  0.250000  0.644724  0.933529  1
  Ni  Ni7  1  0.250000  0.144724  0.566471  1
  P  P8  1  0.750000  0.737742  0.132462  1
  P  P9  1  0.750000  0.237742  0.367538  1
  P  P10  1  0.250000  0.254972  0.880749  1
  P  P11  1  0.250000  0.754972  0.619251  1
