# generated using pymatgen
data_CePr6Th(Si3Pd)4
_symmetry_space_group_name_H-M   'P 1'
_cell_length_a   8.27100815
_cell_length_b   8.27100854
_cell_length_c   8.56627500
_cell_angle_alpha   90.00000000
_cell_angle_beta   90.00000000
_cell_angle_gamma   119.88575384
_symmetry_Int_Tables_number   1
_chemical_formula_structural   CePr6Th(Si3Pd)4
_chemical_formula_sum   'Ce1 Pr6 Th1 Si12 Pd4'
_cell_volume   508.08734727
_cell_formula_units_Z   1
loop_
 _symmetry_equiv_pos_site_id
 _symmetry_equiv_pos_as_xyz
  1  'x, y, z'
loop_
 _atom_site_type_symbol
 _atom_site_label
 _atom_site_symmetry_multiplicity
 _atom_site_fract_x
 _atom_site_fract_y
 _atom_site_fract_z
 _atom_site_occupancy
  Ce  Ce0  1  0.000009  0.999991  0.750000  1
  Pr  Pr1  1  0.500243  0.499757  0.250000  1
  Pr  Pr2  1  0.000574  0.500333  0.750000  1
  Pr  Pr3  1  0.999433  0.499695  0.250000  1
  Pr  Pr4  1  0.499667  0.999426  0.750000  1
  Pr  Pr5  1  0.500305  0.000567  0.250000  1
  Pr  Pr6  1  0.999987  0.000013  0.250000  1
  Th  Th7  1  0.499881  0.500119  0.750000  1
  Si  Si8  1  0.834217  0.165783  0.998028  1
  Si  Si9  1  0.165783  0.834217  0.998098  1
  Si  Si10  1  0.329405  0.164482  0.996854  1
  Si  Si11  1  0.165783  0.834217  0.501902  1
  Si  Si12  1  0.670543  0.835491  0.996724  1
  Si  Si13  1  0.834217  0.165783  0.501972  1
  Si  Si14  1  0.835518  0.670595  0.996854  1
  Si  Si15  1  0.670543  0.835491  0.503276  1
  Si  Si16  1  0.164509  0.329457  0.996724  1
  Si  Si17  1  0.329405  0.164482  0.503146  1
  Si  Si18  1  0.164509  0.329457  0.503276  1
  Si  Si19  1  0.835518  0.670595  0.503146  1
  Pd  Pd20  1  0.665298  0.334702  0.997681  1
  Pd  Pd21  1  0.334677  0.665323  0.999350  1
  Pd  Pd22  1  0.334677  0.665323  0.500650  1
  Pd  Pd23  1  0.665298  0.334702  0.502319  1
