# generated using pymatgen
data_Dy3Mn7VCoP6
_symmetry_space_group_name_H-M   'P 1'
_cell_length_a   3.65483000
_cell_length_b   10.83537000
_cell_length_c   12.68288200
_cell_angle_alpha   90.00000000
_cell_angle_beta   90.00000000
_cell_angle_gamma   90.00000000
_symmetry_Int_Tables_number   1
_chemical_formula_structural   Dy3Mn7VCoP6
_chemical_formula_sum   'Dy6 Mn14 V2 Co2 P12'
_cell_volume   502.26033141
_cell_formula_units_Z   2
loop_
 _symmetry_equiv_pos_site_id
 _symmetry_equiv_pos_as_xyz
  1  'x, y, z'
loop_
 _atom_site_type_symbol
 _atom_site_label
 _atom_site_symmetry_multiplicity
 _atom_site_fract_x
 _atom_site_fract_y
 _atom_site_fract_z
 _atom_site_occupancy
  Dy  Dy0  1  0.000000  0.500000  0.531527  1
  Dy  Dy1  1  0.500000  0.000000  0.468473  1
  Dy  Dy2  1  0.500000  0.822421  0.205912  1
  Dy  Dy3  1  0.500000  0.177579  0.205912  1
  Dy  Dy4  1  0.000000  0.677579  0.794088  1
  Dy  Dy5  1  0.000000  0.322421  0.794088  1
  Mn  Mn6  1  0.000000  0.500000  0.990776  1
  Mn  Mn7  1  0.500000  0.000000  0.009224  1
  Mn  Mn8  1  0.500000  0.332479  0.997014  1
  Mn  Mn9  1  0.500000  0.667521  0.997014  1
  Mn  Mn10  1  0.000000  0.167521  0.002986  1
  Mn  Mn11  1  0.000000  0.832479  0.002986  1
  Mn  Mn12  1  0.500000  0.296901  0.433151  1
  Mn  Mn13  1  0.500000  0.703099  0.433151  1
  Mn  Mn14  1  0.000000  0.203099  0.566849  1
  Mn  Mn15  1  0.000000  0.796901  0.566849  1
  Mn  Mn16  1  0.500000  0.879932  0.700558  1
  Mn  Mn17  1  0.500000  0.120068  0.700558  1
  Mn  Mn18  1  0.000000  0.620068  0.299442  1
  Mn  Mn19  1  0.000000  0.379932  0.299442  1
  V  V20  1  0.500000  0.500000  0.161396  1
  V  V21  1  0.000000  0.000000  0.838604  1
  Co  Co22  1  0.500000  0.500000  0.704540  1
  Co  Co23  1  0.000000  0.000000  0.295460  1
  P  P24  1  0.500000  0.500000  0.879401  1
  P  P25  1  0.000000  0.000000  0.120599  1
  P  P26  1  0.500000  0.500000  0.358094  1
  P  P27  1  0.000000  0.000000  0.641906  1
  P  P28  1  0.500000  0.318361  0.617781  1
  P  P29  1  0.500000  0.681639  0.617781  1
  P  P30  1  0.000000  0.181639  0.382219  1
  P  P31  1  0.000000  0.818361  0.382219  1
  P  P32  1  0.500000  0.844901  0.885176  1
  P  P33  1  0.500000  0.155099  0.885176  1
  P  P34  1  0.000000  0.655099  0.114824  1
  P  P35  1  0.000000  0.344901  0.114824  1
