# generated using pymatgen
data_Lu10Os3Rh
_symmetry_space_group_name_H-M   'P 1'
_cell_length_a   8.22592566
_cell_length_b   8.20802721
_cell_length_c   7.24977290
_cell_angle_alpha   83.22395124
_cell_angle_beta   83.41466988
_cell_angle_gamma   44.65282489
_symmetry_Int_Tables_number   1
_chemical_formula_structural   Lu10Os3Rh
_chemical_formula_sum   'Lu10 Os3 Rh1'
_cell_volume   341.28663225
_cell_formula_units_Z   1
loop_
 _symmetry_equiv_pos_site_id
 _symmetry_equiv_pos_as_xyz
  1  'x, y, z'
loop_
 _atom_site_type_symbol
 _atom_site_label
 _atom_site_symmetry_multiplicity
 _atom_site_fract_x
 _atom_site_fract_y
 _atom_site_fract_z
 _atom_site_occupancy
  Lu  Lu0  1  0.419056  0.581003  0.750666  1
  Lu  Lu1  1  0.350223  0.208799  0.318215  1
  Lu  Lu2  1  0.210708  0.969474  0.082741  1
  Lu  Lu3  1  0.792190  0.029980  0.917829  1
  Lu  Lu4  1  0.974194  0.210927  0.582502  1
  Lu  Lu5  1  0.648617  0.788751  0.680619  1
  Lu  Lu6  1  0.205428  0.353447  0.823362  1
  Lu  Lu7  1  0.789752  0.649849  0.179172  1
  Lu  Lu8  1  0.031189  0.791378  0.415928  1
  Lu  Lu9  1  0.580877  0.420280  0.248418  1
  Os  Os10  1  0.395599  0.822679  0.423573  1
  Os  Os11  1  0.176893  0.604948  0.078313  1
  Os  Os12  1  0.823920  0.392421  0.921105  1
  Rh  Rh13  1  0.601351  0.176065  0.577560  1
