# generated using pymatgen
data_YbSc3(Si3Ni5)4
_symmetry_space_group_name_H-M   'P 1'
_cell_length_a   18.50604030
_cell_length_b   3.73597000
_cell_length_c   6.57571597
_cell_angle_alpha   90.00000000
_cell_angle_beta   90.10871171
_cell_angle_gamma   90.00000000
_symmetry_Int_Tables_number   1
_chemical_formula_structural   YbSc3(Si3Ni5)4
_chemical_formula_sum   'Yb1 Sc3 Si12 Ni20'
_cell_volume   454.63110715
_cell_formula_units_Z   1
loop_
 _symmetry_equiv_pos_site_id
 _symmetry_equiv_pos_as_xyz
  1  'x, y, z'
loop_
 _atom_site_type_symbol
 _atom_site_label
 _atom_site_symmetry_multiplicity
 _atom_site_fract_x
 _atom_site_fract_y
 _atom_site_fract_z
 _atom_site_occupancy
  Yb  Yb0  1  0.856825  0.750000  0.123381  1
  Sc  Sc1  1  0.643483  0.250000  0.622782  1
  Sc  Sc2  1  0.145433  0.250000  0.877871  1
  Sc  Sc3  1  0.355575  0.750000  0.376415  1
  Si  Si4  1  0.915306  0.250000  0.420172  1
  Si  Si5  1  0.413447  0.250000  0.090582  1
  Si  Si6  1  0.088650  0.750000  0.589018  1
  Si  Si7  1  0.584998  0.750000  0.908934  1
  Si  Si8  1  0.737375  0.250000  0.122492  1
  Si  Si9  1  0.240942  0.250000  0.378128  1
  Si  Si10  1  0.260113  0.750000  0.878869  1
  Si  Si11  1  0.758848  0.750000  0.622500  1
  Si  Si12  1  0.924748  0.250000  0.842513  1
  Si  Si13  1  0.422799  0.250000  0.648614  1
  Si  Si14  1  0.076460  0.750000  0.149251  1
  Si  Si15  1  0.575693  0.750000  0.351548  1
  Ni  Ni16  1  0.798932  0.250000  0.815586  1
  Ni  Ni17  1  0.300265  0.250000  0.683749  1
  Ni  Ni18  1  0.199862  0.750000  0.182551  1
  Ni  Ni19  1  0.698684  0.750000  0.317417  1
  Ni  Ni20  1  0.996093  0.250000  0.131113  1
  Ni  Ni21  1  0.494486  0.250000  0.369136  1
  Ni  Ni22  1  0.005391  0.750000  0.866150  1
  Ni  Ni23  1  0.504027  0.750000  0.630898  1
  Ni  Ni24  1  0.513538  0.250000  0.879952  1
  Ni  Ni25  1  0.018156  0.250000  0.619555  1
  Ni  Ni26  1  0.485243  0.750000  0.119230  1
  Ni  Ni27  1  0.986940  0.750000  0.384698  1
  Ni  Ni28  1  0.614236  0.250000  0.142889  1
  Ni  Ni29  1  0.117072  0.250000  0.354206  1
  Ni  Ni30  1  0.383995  0.750000  0.857124  1
  Ni  Ni31  1  0.882831  0.750000  0.640291  1
  Ni  Ni32  1  0.793089  0.250000  0.431881  1
  Ni  Ni33  1  0.293359  0.250000  0.070559  1
  Ni  Ni34  1  0.208021  0.750000  0.569258  1
  Ni  Ni35  1  0.705087  0.750000  0.930686  1
