# generated using pymatgen
data_Na(CrSe2)2
_symmetry_space_group_name_H-M   'P 1'
_cell_length_a   6.21588600
_cell_length_b   7.18595700
_cell_length_c   14.78931400
_cell_angle_alpha   90.00000000
_cell_angle_beta   90.00000000
_cell_angle_gamma   90.00000000
_symmetry_Int_Tables_number   1
_chemical_formula_structural   Na(CrSe2)2
_chemical_formula_sum   'Na4 Cr8 Se16'
_cell_volume   660.59561227
_cell_formula_units_Z   4
loop_
 _symmetry_equiv_pos_site_id
 _symmetry_equiv_pos_as_xyz
  1  'x, y, z'
loop_
 _atom_site_type_symbol
 _atom_site_label
 _atom_site_symmetry_multiplicity
 _atom_site_fract_x
 _atom_site_fract_y
 _atom_site_fract_z
 _atom_site_occupancy
  Na  Na0  1  0.335589  0.000000  0.000000  1
  Na  Na1  1  0.664411  0.500000  0.500000  1
  Na  Na2  1  0.021255  0.000000  0.500000  1
  Na  Na3  1  0.978745  0.500000  0.000000  1
  Cr  Cr4  1  0.994641  0.000000  0.248800  1
  Cr  Cr5  1  0.994641  0.000000  0.751200  1
  Cr  Cr6  1  0.005359  0.500000  0.251200  1
  Cr  Cr7  1  0.005359  0.500000  0.748800  1
  Cr  Cr8  1  0.500000  0.250000  0.250000  1
  Cr  Cr9  1  0.500000  0.750000  0.750000  1
  Cr  Cr10  1  0.500000  0.750000  0.250000  1
  Cr  Cr11  1  0.500000  0.250000  0.750000  1
  Se  Se12  1  0.833563  0.250795  0.347595  1
  Se  Se13  1  0.833563  0.749205  0.652405  1
  Se  Se14  1  0.166437  0.750795  0.152405  1
  Se  Se15  1  0.166437  0.249205  0.847595  1
  Se  Se16  1  0.166437  0.249205  0.152405  1
  Se  Se17  1  0.166437  0.750795  0.847595  1
  Se  Se18  1  0.833563  0.749205  0.347595  1
  Se  Se19  1  0.833563  0.250795  0.652405  1
  Se  Se20  1  0.664692  0.000000  0.151796  1
  Se  Se21  1  0.664692  0.000000  0.848204  1
  Se  Se22  1  0.335308  0.500000  0.348204  1
  Se  Se23  1  0.335308  0.500000  0.651796  1
  Se  Se24  1  0.332120  0.000000  0.345533  1
  Se  Se25  1  0.332120  0.000000  0.654467  1
  Se  Se26  1  0.667880  0.500000  0.154467  1
  Se  Se27  1  0.667880  0.500000  0.845533  1
