# generated using pymatgen
data_Tb2Tm(Ni3As2)3
_symmetry_space_group_name_H-M   'P 1'
_cell_length_a   3.89678100
_cell_length_b   10.83655300
_cell_length_c   12.74548000
_cell_angle_alpha   90.00000000
_cell_angle_beta   90.00000000
_cell_angle_gamma   90.00000000
_symmetry_Int_Tables_number   1
_chemical_formula_structural   Tb2Tm(Ni3As2)3
_chemical_formula_sum   'Tb4 Tm2 Ni18 As12'
_cell_volume   538.21197232
_cell_formula_units_Z   2
loop_
 _symmetry_equiv_pos_site_id
 _symmetry_equiv_pos_as_xyz
  1  'x, y, z'
loop_
 _atom_site_type_symbol
 _atom_site_label
 _atom_site_symmetry_multiplicity
 _atom_site_fract_x
 _atom_site_fract_y
 _atom_site_fract_z
 _atom_site_occupancy
  Tb  Tb0  1  0.000000  0.500000  0.523471  1
  Tb  Tb1  1  0.500000  0.000000  0.477522  1
  Tb  Tb2  1  0.500000  0.815823  0.206367  1
  Tb  Tb3  1  0.500000  0.184177  0.206367  1
  Tm  Tm4  1  0.000000  0.682750  0.793143  1
  Tm  Tm5  1  0.000000  0.317250  0.793143  1
  Ni  Ni6  1  0.500000  0.500000  0.156017  1
  Ni  Ni7  1  0.000000  0.000000  0.843996  1
  Ni  Ni8  1  0.500000  0.500000  0.699596  1
  Ni  Ni9  1  0.000000  0.000000  0.300609  1
  Ni  Ni10  1  0.000000  0.500000  0.980695  1
  Ni  Ni11  1  0.500000  0.000000  0.016020  1
  Ni  Ni12  1  0.500000  0.333850  0.996708  1
  Ni  Ni13  1  0.500000  0.666150  0.996708  1
  Ni  Ni14  1  0.000000  0.167887  0.001695  1
  Ni  Ni15  1  0.000000  0.832113  0.001695  1
  Ni  Ni16  1  0.500000  0.303092  0.426709  1
  Ni  Ni17  1  0.500000  0.696908  0.426709  1
  Ni  Ni18  1  0.000000  0.196975  0.575182  1
  Ni  Ni19  1  0.000000  0.803025  0.575182  1
  Ni  Ni20  1  0.500000  0.878796  0.708498  1
  Ni  Ni21  1  0.500000  0.121204  0.708498  1
  Ni  Ni22  1  0.000000  0.620161  0.292410  1
  Ni  Ni23  1  0.000000  0.379839  0.292410  1
  As  As24  1  0.500000  0.500000  0.875384  1
  As  As25  1  0.000000  0.000000  0.122784  1
  As  As26  1  0.500000  0.500000  0.344616  1
  As  As27  1  0.000000  0.000000  0.656310  1
  As  As28  1  0.500000  0.314327  0.614326  1
  As  As29  1  0.500000  0.685673  0.614326  1
  As  As30  1  0.000000  0.185874  0.387301  1
  As  As31  1  0.000000  0.814126  0.387301  1
  As  As32  1  0.500000  0.845528  0.890139  1
  As  As33  1  0.500000  0.154472  0.890139  1
  As  As34  1  0.000000  0.651893  0.109011  1
  As  As35  1  0.000000  0.348107  0.109011  1
