# generated using pymatgen
data_CeDyRe4(SiC)2
_symmetry_space_group_name_H-M   'P 1'
_cell_length_a   5.82351970
_cell_length_b   5.82352053
_cell_length_c   7.31191500
_cell_angle_alpha   90.00000000
_cell_angle_beta   90.00000000
_cell_angle_gamma   140.06291831
_symmetry_Int_Tables_number   1
_chemical_formula_structural   CeDyRe4(SiC)2
_chemical_formula_sum   'Ce1 Dy1 Re4 Si2 C2'
_cell_volume   159.18450615
_cell_formula_units_Z   1
loop_
 _symmetry_equiv_pos_site_id
 _symmetry_equiv_pos_as_xyz
  1  'x, y, z'
loop_
 _atom_site_type_symbol
 _atom_site_label
 _atom_site_symmetry_multiplicity
 _atom_site_fract_x
 _atom_site_fract_y
 _atom_site_fract_z
 _atom_site_occupancy
  Ce  Ce0  1  0.456702  0.543298  0.750000  1
  Dy  Dy1  1  0.542504  0.457496  0.250000  1
  Re  Re2  1  0.826414  0.173586  0.063261  1
  Re  Re3  1  0.173558  0.826442  0.939259  1
  Re  Re4  1  0.173558  0.826442  0.560741  1
  Re  Re5  1  0.826414  0.173586  0.436739  1
  Si  Si6  1  0.264396  0.735604  0.250000  1
  Si  Si7  1  0.735198  0.264802  0.750000  1
  C  C8  1  0.000628  0.999372  0.004456  1
  C  C9  1  0.000628  0.999372  0.495544  1
