# generated using pymatgen
data_Dy5Ta3Co16Si7P5
_symmetry_space_group_name_H-M   'P 1'
_cell_length_a   12.30604421
_cell_length_b   12.32700379
_cell_length_c   3.72201000
_cell_angle_alpha   90.00000000
_cell_angle_beta   90.00000000
_cell_angle_gamma   119.96507503
_symmetry_Int_Tables_number   1
_chemical_formula_structural   Dy5Ta3Co16Si7P5
_chemical_formula_sum   'Dy5 Ta3 Co16 Si7 P5'
_cell_volume   489.14419098
_cell_formula_units_Z   1
loop_
 _symmetry_equiv_pos_site_id
 _symmetry_equiv_pos_as_xyz
  1  'x, y, z'
loop_
 _atom_site_type_symbol
 _atom_site_label
 _atom_site_symmetry_multiplicity
 _atom_site_fract_x
 _atom_site_fract_y
 _atom_site_fract_z
 _atom_site_occupancy
  Dy  Dy0  1  0.666448  0.333572  0.000000  1
  Dy  Dy1  1  0.333690  0.664132  0.000000  1
  Dy  Dy2  1  0.182744  0.181719  0.500000  1
  Dy  Dy3  1  0.820030  0.001524  0.500000  1
  Dy  Dy4  1  0.999083  0.817280  0.500000  1
  Ta  Ta5  1  0.561797  0.564336  0.000000  1
  Ta  Ta6  1  0.436987  0.999593  0.000000  1
  Ta  Ta7  1  0.001598  0.437501  0.000000  1
  Co  Co8  1  0.826568  0.196063  0.000000  1
  Co  Co9  1  0.803346  0.629745  0.000000  1
  Co  Co10  1  0.370558  0.175558  0.000000  1
  Co  Co11  1  0.194947  0.822648  0.000000  1
  Co  Co12  1  0.626277  0.802649  0.000000  1
  Co  Co13  1  0.177435  0.375123  0.000000  1
  Co  Co14  1  0.640127  0.119232  0.500000  1
  Co  Co15  1  0.879171  0.519643  0.500000  1
  Co  Co16  1  0.478929  0.360727  0.500000  1
  Co  Co17  1  0.122386  0.637794  0.500000  1
  Co  Co18  1  0.519400  0.874661  0.500000  1
  Co  Co19  1  0.357277  0.484660  0.500000  1
  Co  Co20  1  0.719639  0.723405  0.500000  1
  Co  Co21  1  0.276802  0.998924  0.500000  1
  Co  Co22  1  0.004500  0.280512  0.500000  1
  Co  Co23  1  0.000051  0.000020  0.000000  1
  Si  Si24  1  0.356739  0.356895  0.000000  1
  Si  Si25  1  0.644417  0.000105  0.000000  1
  Si  Si26  1  0.999245  0.642354  0.000000  1
  Si  Si27  1  0.828960  0.306180  0.500000  1
  Si  Si28  1  0.692755  0.522758  0.500000  1
  Si  Si29  1  0.476977  0.171150  0.500000  1
  Si  Si30  1  0.306774  0.828080  0.500000  1
  P  P31  1  0.522630  0.693251  0.500000  1
  P  P32  1  0.170031  0.477980  0.500000  1
  P  P33  1  0.820046  0.820767  0.000000  1
  P  P34  1  0.179818  0.998914  0.000000  1
  P  P35  1  0.001820  0.180542  0.000000  1
