# generated using pymatgen
data_Ba2Li6P5
_symmetry_space_group_name_H-M   'P 1'
_cell_length_a   4.42564562
_cell_length_b   4.42564573
_cell_length_c   13.30414053
_cell_angle_alpha   99.57427224
_cell_angle_beta   99.57427345
_cell_angle_gamma   90.00000603
_symmetry_Int_Tables_number   1
_chemical_formula_structural   Ba2Li6P5
_chemical_formula_sum   'Ba2 Li6 P5'
_cell_volume   253.26808660
_cell_formula_units_Z   1
loop_
 _symmetry_equiv_pos_site_id
 _symmetry_equiv_pos_as_xyz
  1  'x, y, z'
loop_
 _atom_site_type_symbol
 _atom_site_label
 _atom_site_symmetry_multiplicity
 _atom_site_fract_x
 _atom_site_fract_y
 _atom_site_fract_z
 _atom_site_occupancy
  Ba  Ba0  1  0.646374  0.646374  0.292747  1
  Ba  Ba1  1  0.353626  0.353626  0.707253  1
  Li  Li2  1  0.950498  0.450498  0.900996  1
  Li  Li3  1  0.450498  0.950498  0.900996  1
  Li  Li4  1  0.049502  0.549502  0.099004  1
  Li  Li5  1  0.549502  0.049502  0.099004  1
  Li  Li6  1  0.250000  0.750000  0.500000  1
  Li  Li7  1  0.750000  0.250000  0.500000  1
  P  P8  1  0.500000  0.500000  0.000000  1
  P  P9  1  0.889719  0.889719  0.779439  1
  P  P10  1  0.110281  0.110281  0.220561  1
  P  P11  1  0.803343  0.803343  0.606686  1
  P  P12  1  0.196657  0.196657  0.393314  1
