# generated using pymatgen
data_YNb2(SnRu2)3
_symmetry_space_group_name_H-M   'P 1'
_cell_length_a   4.57520400
_cell_length_b   6.52123600
_cell_length_c   13.69781405
_cell_angle_alpha   90.00000000
_cell_angle_beta   89.99470506
_cell_angle_gamma   90.00000000
_symmetry_Int_Tables_number   1
_chemical_formula_structural   YNb2(SnRu2)3
_chemical_formula_sum   'Y2 Nb4 Sn6 Ru12'
_cell_volume   408.68777331
_cell_formula_units_Z   2
loop_
 _symmetry_equiv_pos_site_id
 _symmetry_equiv_pos_as_xyz
  1  'x, y, z'
loop_
 _atom_site_type_symbol
 _atom_site_label
 _atom_site_symmetry_multiplicity
 _atom_site_fract_x
 _atom_site_fract_y
 _atom_site_fract_z
 _atom_site_occupancy
  Y  Y0  1  0.000007  0.000000  0.998348  1
  Y  Y1  1  0.499969  0.500001  0.168361  1
  Nb  Nb2  1  0.999973  0.000000  0.335155  1
  Nb  Nb3  1  0.499997  0.500001  0.499627  1
  Nb  Nb4  1  0.000023  0.000000  0.667018  1
  Nb  Nb5  1  0.500035  0.500001  0.831501  1
  Sn  Sn6  1  0.000010  0.500001  0.000134  1
  Sn  Sn7  1  0.499981  0.000000  0.166556  1
  Sn  Sn8  1  0.999943  0.500001  0.336932  1
  Sn  Sn9  1  0.499994  0.000000  0.504033  1
  Sn  Sn10  1  0.000041  0.500001  0.662583  1
  Sn  Sn11  1  0.500026  0.000000  0.829772  1
  Ru  Ru12  1  0.500003  0.260944  0.989476  1
  Ru  Ru13  1  0.500003  0.739057  0.989476  1
  Ru  Ru14  1  0.999973  0.239083  0.177226  1
  Ru  Ru15  1  0.999973  0.760917  0.177226  1
  Ru  Ru16  1  0.499953  0.241486  0.343766  1
  Ru  Ru17  1  0.499953  0.758513  0.343766  1
  Ru  Ru18  1  0.999993  0.250079  0.502263  1
  Ru  Ru19  1  0.999993  0.749921  0.502263  1
  Ru  Ru20  1  0.500053  0.249876  0.664379  1
  Ru  Ru21  1  0.500053  0.750123  0.664379  1
  Ru  Ru22  1  0.000026  0.258564  0.822881  1
  Ru  Ru23  1  0.000026  0.741436  0.822881  1
