# generated using pymatgen
data_Ce2SmZn2Pd3Au
_symmetry_space_group_name_H-M   'P 1'
_cell_length_a   7.43268270
_cell_length_b   7.61257945
_cell_length_c   3.89272200
_cell_angle_alpha   90.00000000
_cell_angle_beta   90.00000000
_cell_angle_gamma   120.80391211
_symmetry_Int_Tables_number   1
_chemical_formula_structural   Ce2SmZn2Pd3Au
_chemical_formula_sum   'Ce2 Sm1 Zn2 Pd3 Au1'
_cell_volume   189.18470871
_cell_formula_units_Z   1
loop_
 _symmetry_equiv_pos_site_id
 _symmetry_equiv_pos_as_xyz
  1  'x, y, z'
loop_
 _atom_site_type_symbol
 _atom_site_label
 _atom_site_symmetry_multiplicity
 _atom_site_fract_x
 _atom_site_fract_y
 _atom_site_fract_z
 _atom_site_occupancy
  Ce  Ce0  1  0.604786  0.598403  0.000000  1
  Ce  Ce1  1  0.395214  0.993617  0.000000  1
  Sm  Sm2  1  0.000000  0.405620  0.000000  1
  Zn  Zn3  1  0.251284  0.254305  0.500000  1
  Zn  Zn4  1  0.748716  0.003020  0.500000  1
  Pd  Pd5  1  0.000000  0.022690  0.000000  1
  Pd  Pd6  1  0.649070  0.314424  0.500000  1
  Pd  Pd7  1  0.350930  0.665355  0.500000  1
  Au  Au8  1  0.000000  0.742566  0.500000  1
