# generated using pymatgen
data_KEr2CuSnSe5
_symmetry_space_group_name_H-M   'P 1'
_cell_length_a   4.10490100
_cell_length_b   7.51509023
_cell_length_c   17.86651800
_cell_angle_alpha   90.00000000
_cell_angle_beta   90.00000000
_cell_angle_gamma   74.15054065
_symmetry_Int_Tables_number   1
_chemical_formula_structural   KEr2CuSnSe5
_chemical_formula_sum   'K2 Er4 Cu2 Sn2 Se10'
_cell_volume   530.20524845
_cell_formula_units_Z   2
loop_
 _symmetry_equiv_pos_site_id
 _symmetry_equiv_pos_as_xyz
  1  'x, y, z'
loop_
 _atom_site_type_symbol
 _atom_site_label
 _atom_site_symmetry_multiplicity
 _atom_site_fract_x
 _atom_site_fract_y
 _atom_site_fract_z
 _atom_site_occupancy
  K  K0  1  0.522161  0.955681  0.250000  1
  K  K1  1  0.477840  0.044319  0.750000  1
  Er  Er2  1  0.272184  0.455630  0.103320  1
  Er  Er3  1  0.272184  0.455630  0.396680  1
  Er  Er4  1  0.727817  0.544370  0.603320  1
  Er  Er5  1  0.727817  0.544370  0.896681  1
  Cu  Cu6  1  0.792584  0.414835  0.250000  1
  Cu  Cu7  1  0.207417  0.585164  0.750000  1
  Sn  Sn8  1  0.000000  0.000000  0.000000  1
  Sn  Sn9  1  0.000000  0.000000  0.500000  1
  Se  Se10  1  0.646035  0.707934  0.047583  1
  Se  Se11  1  0.896601  0.206799  0.140395  1
  Se  Se12  1  0.198228  0.603542  0.250000  1
  Se  Se13  1  0.896601  0.206799  0.359605  1
  Se  Se14  1  0.646035  0.707934  0.452418  1
  Se  Se15  1  0.353966  0.292066  0.547582  1
  Se  Se16  1  0.103399  0.793201  0.640395  1
  Se  Se17  1  0.801773  0.396458  0.750000  1
  Se  Se18  1  0.103399  0.793201  0.859605  1
  Se  Se19  1  0.353966  0.292066  0.952418  1
