# generated using pymatgen
data_Th4Al24CoPd8
_symmetry_space_group_name_H-M   'P 1'
_cell_length_a   7.62351871
_cell_length_b   7.62639800
_cell_length_c   13.27642789
_cell_angle_alpha   84.32229433
_cell_angle_beta   78.94810866
_cell_angle_gamma   59.96018530
_symmetry_Int_Tables_number   1
_chemical_formula_structural   Th4Al24CoPd8
_chemical_formula_sum   'Th4 Al24 Co1 Pd8'
_cell_volume   655.81253990
_cell_formula_units_Z   1
loop_
 _symmetry_equiv_pos_site_id
 _symmetry_equiv_pos_as_xyz
  1  'x, y, z'
loop_
 _atom_site_type_symbol
 _atom_site_label
 _atom_site_symmetry_multiplicity
 _atom_site_fract_x
 _atom_site_fract_y
 _atom_site_fract_z
 _atom_site_occupancy
  Th  Th0  1  0.395929  0.165340  0.808043  1
  Th  Th1  1  0.604071  0.834660  0.191957  1
  Th  Th2  1  0.732858  0.497124  0.807943  1
  Th  Th3  1  0.267142  0.502876  0.192057  1
  Al  Al4  1  0.694447  0.824299  0.948291  1
  Al  Al5  1  0.305553  0.175701  0.051709  1
  Al  Al6  1  0.144940  0.834658  0.560485  1
  Al  Al7  1  0.855060  0.165342  0.439515  1
  Al  Al8  1  0.481151  0.166870  0.558302  1
  Al  Al9  1  0.518849  0.833130  0.441698  1
  Al  Al10  1  0.210620  0.166128  0.334678  1
  Al  Al11  1  0.789380  0.833872  0.665322  1
  Al  Al12  1  0.433273  0.510907  0.665533  1
  Al  Al13  1  0.566727  0.489093  0.334467  1
  Al  Al14  1  0.111503  0.155466  0.663698  1
  Al  Al15  1  0.888497  0.844534  0.336302  1
  Al  Al16  1  0.339675  0.501683  0.948298  1
  Al  Al17  1  0.660325  0.498317  0.051702  1
  Al  Al18  1  0.013684  0.173624  0.960229  1
  Al  Al19  1  0.986316  0.826376  0.039771  1
  Al  Al20  1  0.186318  0.500221  0.441924  1
  Al  Al21  1  0.813682  0.499779  0.558076  1
  Al  Al22  1  0.739729  0.163944  0.183106  1
  Al  Al23  1  0.260271  0.836056  0.816894  1
  Al  Al24  1  0.059881  0.627944  0.820586  1
  Al  Al25  1  0.940119  0.372056  0.179414  1
  Al  Al26  1  0.861897  0.035208  0.816823  1
  Al  Al27  1  0.138103  0.964792  0.183177  1
  Co  Co28  1  0.000000  0.500000  0.000000  1
  Pd  Pd29  1  0.120334  0.492874  0.638823  1
  Pd  Pd30  1  0.879666  0.507126  0.361177  1
  Pd  Pd31  1  0.656415  0.171620  0.999727  1
  Pd  Pd32  1  0.343585  0.828380  0.000273  1
  Pd  Pd33  1  0.537769  0.167203  0.362157  1
  Pd  Pd34  1  0.462231  0.832797  0.637843  1
  Pd  Pd35  1  0.778417  0.175174  0.638089  1
  Pd  Pd36  1  0.221583  0.824826  0.361911  1
