# generated using pymatgen
data_Gd4HoErSi4
_symmetry_space_group_name_H-M   'P 1'
_cell_length_a   7.49680500
_cell_length_b   7.49680500
_cell_length_c   4.26851600
_cell_angle_alpha   90.00000000
_cell_angle_beta   90.00000000
_cell_angle_gamma   90.00000000
_symmetry_Int_Tables_number   1
_chemical_formula_structural   Gd4HoErSi4
_chemical_formula_sum   'Gd4 Ho1 Er1 Si4'
_cell_volume   239.89949994
_cell_formula_units_Z   1
loop_
 _symmetry_equiv_pos_site_id
 _symmetry_equiv_pos_as_xyz
  1  'x, y, z'
loop_
 _atom_site_type_symbol
 _atom_site_label
 _atom_site_symmetry_multiplicity
 _atom_site_fract_x
 _atom_site_fract_y
 _atom_site_fract_z
 _atom_site_occupancy
  Gd  Gd0  1  0.675191  0.175388  0.500000  1
  Gd  Gd1  1  0.324809  0.824612  0.500000  1
  Gd  Gd2  1  0.175388  0.324809  0.500000  1
  Gd  Gd3  1  0.824612  0.675191  0.500000  1
  Ho  Ho4  1  0.500000  0.500000  0.000000  1
  Er  Er5  1  0.000000  0.000000  0.000000  1
  Si  Si6  1  0.115056  0.616116  0.000000  1
  Si  Si7  1  0.884944  0.383884  0.000000  1
  Si  Si8  1  0.616116  0.884944  0.000000  1
  Si  Si9  1  0.383884  0.115056  0.000000  1
