# generated using pymatgen
data_Sr5Sc3(Al4Au3)4
_symmetry_space_group_name_H-M   'P 1'
_cell_length_a   13.85815900
_cell_length_b   13.85815947
_cell_length_c   4.32607600
_cell_angle_alpha   90.00000000
_cell_angle_beta   90.00000000
_cell_angle_gamma   120.00000126
_symmetry_Int_Tables_number   1
_chemical_formula_structural   Sr5Sc3(Al4Au3)4
_chemical_formula_sum   'Sr5 Sc3 Al16 Au12'
_cell_volume   719.50839495
_cell_formula_units_Z   1
loop_
 _symmetry_equiv_pos_site_id
 _symmetry_equiv_pos_as_xyz
  1  'x, y, z'
loop_
 _atom_site_type_symbol
 _atom_site_label
 _atom_site_symmetry_multiplicity
 _atom_site_fract_x
 _atom_site_fract_y
 _atom_site_fract_z
 _atom_site_occupancy
  Sr  Sr0  1  0.333333  0.666667  0.000000  1
  Sr  Sr1  1  0.666667  0.333333  0.000000  1
  Sr  Sr2  1  0.812150  0.000000  0.500000  1
  Sr  Sr3  1  0.000000  0.812150  0.500000  1
  Sr  Sr4  1  0.187850  0.187850  0.500000  1
  Sc  Sc5  1  0.434624  0.000000  0.000000  1
  Sc  Sc6  1  0.000000  0.434624  0.000000  1
  Sc  Sc7  1  0.565376  0.565376  0.000000  1
  Al  Al8  1  0.188885  0.383719  0.000000  1
  Al  Al9  1  0.616281  0.805167  0.000000  1
  Al  Al10  1  0.383719  0.188885  0.000000  1
  Al  Al11  1  0.194833  0.811115  0.000000  1
  Al  Al12  1  0.805167  0.616281  0.000000  1
  Al  Al13  1  0.811115  0.194833  0.000000  1
  Al  Al14  1  0.279299  0.000000  0.500000  1
  Al  Al15  1  0.000000  0.279299  0.500000  1
  Al  Al16  1  0.720701  0.720701  0.500000  1
  Al  Al17  1  0.362730  0.479852  0.500000  1
  Al  Al18  1  0.520148  0.882879  0.500000  1
  Al  Al19  1  0.479852  0.362730  0.500000  1
  Al  Al20  1  0.117121  0.637270  0.500000  1
  Al  Al21  1  0.882879  0.520148  0.500000  1
  Al  Al22  1  0.637270  0.117121  0.500000  1
  Al  Al23  1  0.000000  0.000000  0.000000  1
  Au  Au24  1  0.169891  0.478496  0.500000  1
  Au  Au25  1  0.521504  0.691396  0.500000  1
  Au  Au26  1  0.478496  0.169891  0.500000  1
  Au  Au27  1  0.308604  0.830109  0.500000  1
  Au  Au28  1  0.691396  0.521504  0.500000  1
  Au  Au29  1  0.830109  0.308604  0.500000  1
  Au  Au30  1  0.182675  0.000000  0.000000  1
  Au  Au31  1  0.000000  0.182675  0.000000  1
  Au  Au32  1  0.817325  0.817325  0.000000  1
  Au  Au33  1  0.633412  0.000000  0.000000  1
  Au  Au34  1  0.000000  0.633412  0.000000  1
  Au  Au35  1  0.366588  0.366588  0.000000  1
