# generated using pymatgen
data_Sm6Co3P12Rh14W
_symmetry_space_group_name_H-M   'P 1'
_cell_length_a   3.88305600
_cell_length_b   11.13459008
_cell_length_c   12.83913005
_cell_angle_alpha   89.86935769
_cell_angle_beta   90.00000000
_cell_angle_gamma   90.00000000
_symmetry_Int_Tables_number   1
_chemical_formula_structural   Sm6Co3P12Rh14W
_chemical_formula_sum   'Sm6 Co3 P12 Rh14 W1'
_cell_volume   555.11422463
_cell_formula_units_Z   1
loop_
 _symmetry_equiv_pos_site_id
 _symmetry_equiv_pos_as_xyz
  1  'x, y, z'
loop_
 _atom_site_type_symbol
 _atom_site_label
 _atom_site_symmetry_multiplicity
 _atom_site_fract_x
 _atom_site_fract_y
 _atom_site_fract_z
 _atom_site_occupancy
  Sm  Sm0  1  0.000000  0.501847  0.518077  1
  Sm  Sm1  1  0.500000  0.000743  0.476745  1
  Sm  Sm2  1  0.500000  0.814094  0.203961  1
  Sm  Sm3  1  0.500000  0.186030  0.203838  1
  Sm  Sm4  1  0.000000  0.682588  0.800664  1
  Sm  Sm5  1  0.000000  0.317006  0.799967  1
  Co  Co6  1  0.000000  0.498511  0.993021  1
  Co  Co7  1  0.500000  0.000017  0.019888  1
  Co  Co8  1  0.000000  0.376516  0.287598  1
  P  P9  1  0.500000  0.499311  0.883266  1
  P  P10  1  0.000000  0.999877  0.117614  1
  P  P11  1  0.500000  0.491686  0.342163  1
  P  P12  1  0.000000  0.000982  0.650771  1
  P  P13  1  0.500000  0.316076  0.617150  1
  P  P14  1  0.500000  0.685556  0.618504  1
  P  P15  1  0.000000  0.192864  0.377393  1
  P  P16  1  0.000000  0.811998  0.381301  1
  P  P17  1  0.500000  0.855430  0.895230  1
  P  P18  1  0.500000  0.144274  0.894761  1
  P  P19  1  0.000000  0.648161  0.106422  1
  P  P20  1  0.000000  0.351555  0.112562  1
  Rh  Rh21  1  0.000000  0.002076  0.833878  1
  Rh  Rh22  1  0.500000  0.500173  0.703222  1
  Rh  Rh23  1  0.000000  0.000763  0.296772  1
  Rh  Rh24  1  0.500000  0.333662  0.990522  1
  Rh  Rh25  1  0.500000  0.664261  0.992376  1
  Rh  Rh26  1  0.000000  0.164603  0.010077  1
  Rh  Rh27  1  0.000000  0.836114  0.008144  1
  Rh  Rh28  1  0.500000  0.297135  0.427362  1
  Rh  Rh29  1  0.500000  0.707703  0.431554  1
  Rh  Rh30  1  0.000000  0.208185  0.568006  1
  Rh  Rh31  1  0.000000  0.795327  0.570733  1
  Rh  Rh32  1  0.500000  0.875310  0.712057  1
  Rh  Rh33  1  0.500000  0.125985  0.709692  1
  Rh  Rh34  1  0.000000  0.617901  0.288706  1
  W  W35  1  0.500000  0.495681  0.156002  1
