# generated using pymatgen
data_Ho5Tc5(P6Ir7)2
_symmetry_space_group_name_H-M   'P 1'
_cell_length_a   12.61672538
_cell_length_b   12.71695964
_cell_length_c   3.97624200
_cell_angle_alpha   90.00000000
_cell_angle_beta   90.00000000
_cell_angle_gamma   120.16212241
_symmetry_Int_Tables_number   1
_chemical_formula_structural   Ho5Tc5(P6Ir7)2
_chemical_formula_sum   'Ho5 Tc5 P12 Ir14'
_cell_volume   551.59659450
_cell_formula_units_Z   1
loop_
 _symmetry_equiv_pos_site_id
 _symmetry_equiv_pos_as_xyz
  1  'x, y, z'
loop_
 _atom_site_type_symbol
 _atom_site_label
 _atom_site_symmetry_multiplicity
 _atom_site_fract_x
 _atom_site_fract_y
 _atom_site_fract_z
 _atom_site_occupancy
  Ho  Ho0  1  0.334298  0.667995  0.500000  1
  Ho  Ho1  1  0.666622  0.333424  0.500000  1
  Ho  Ho2  1  0.999416  0.810912  0.000000  1
  Ho  Ho3  1  0.186582  0.185042  0.000000  1
  Ho  Ho4  1  0.810720  0.998546  0.000000  1
  Tc  Tc5  1  0.996568  0.450185  0.500000  1
  Tc  Tc6  1  0.548462  0.544825  0.500000  1
  Tc  Tc7  1  0.457013  0.009203  0.500000  1
  Tc  Tc8  1  0.620775  0.799354  0.500000  1
  Tc  Tc9  1  0.200987  0.821892  0.500000  1
  P  P10  1  0.006450  0.640047  0.500000  1
  P  P11  1  0.363377  0.364631  0.500000  1
  P  P12  1  0.633386  0.993620  0.500000  1
  P  P13  1  0.519916  0.693783  0.000000  1
  P  P14  1  0.308315  0.829817  0.000000  1
  P  P15  1  0.169981  0.483341  0.000000  1
  P  P16  1  0.483572  0.169685  0.000000  1
  P  P17  1  0.685822  0.516313  0.000000  1
  P  P18  1  0.832244  0.314839  0.000000  1
  P  P19  1  0.998995  0.176358  0.500000  1
  P  P20  1  0.817277  0.820489  0.500000  1
  P  P21  1  0.177059  0.993765  0.500000  1
  Ir  Ir22  1  0.507724  0.874477  0.000000  1
  Ir  Ir23  1  0.127967  0.636090  0.000000  1
  Ir  Ir24  1  0.361772  0.494184  0.000000  1
  Ir  Ir25  1  0.491023  0.359031  0.000000  1
  Ir  Ir26  1  0.865709  0.506223  0.000000  1
  Ir  Ir27  1  0.643421  0.136907  0.000000  1
  Ir  Ir28  1  0.000358  0.285315  0.000000  1
  Ir  Ir29  1  0.716596  0.711137  0.000000  1
  Ir  Ir30  1  0.287130  0.005269  0.000000  1
  Ir  Ir31  1  0.180069  0.375035  0.500000  1
  Ir  Ir32  1  0.373791  0.183748  0.500000  1
  Ir  Ir33  1  0.807765  0.622954  0.500000  1
  Ir  Ir34  1  0.819228  0.192339  0.500000  1
  Ir  Ir35  1  0.999607  0.999221  0.500000  1
