# generated using pymatgen
data_Sc10ZnGePb6
_symmetry_space_group_name_H-M   'P 1'
_cell_length_a   8.78550500
_cell_length_b   8.78550567
_cell_length_c   6.25023500
_cell_angle_alpha   90.00000000
_cell_angle_beta   90.00000000
_cell_angle_gamma   120.00000124
_symmetry_Int_Tables_number   1
_chemical_formula_structural   Sc10ZnGePb6
_chemical_formula_sum   'Sc10 Zn1 Ge1 Pb6'
_cell_volume   417.79233348
_cell_formula_units_Z   1
loop_
 _symmetry_equiv_pos_site_id
 _symmetry_equiv_pos_as_xyz
  1  'x, y, z'
loop_
 _atom_site_type_symbol
 _atom_site_label
 _atom_site_symmetry_multiplicity
 _atom_site_fract_x
 _atom_site_fract_y
 _atom_site_fract_z
 _atom_site_occupancy
  Sc  Sc0  1  0.256262  0.000000  0.737235  1
  Sc  Sc1  1  0.743738  0.000000  0.262765  1
  Sc  Sc2  1  0.000000  0.256262  0.737235  1
  Sc  Sc3  1  0.000000  0.743738  0.262765  1
  Sc  Sc4  1  0.743738  0.743738  0.737235  1
  Sc  Sc5  1  0.256262  0.256262  0.262765  1
  Sc  Sc6  1  0.333333  0.666667  0.500000  1
  Sc  Sc7  1  0.666667  0.333333  0.500000  1
  Sc  Sc8  1  0.666667  0.333333  0.000000  1
  Sc  Sc9  1  0.333333  0.666667  0.000000  1
  Zn  Zn10  1  0.000000  0.000000  0.000000  1
  Ge  Ge11  1  0.000000  0.000000  0.500000  1
  Pb  Pb12  1  0.609701  0.000000  0.750446  1
  Pb  Pb13  1  0.390299  0.000000  0.249554  1
  Pb  Pb14  1  0.000000  0.609701  0.750446  1
  Pb  Pb15  1  0.000000  0.390299  0.249554  1
  Pb  Pb16  1  0.390299  0.390299  0.750446  1
  Pb  Pb17  1  0.609701  0.609701  0.249554  1
