# generated using pymatgen
data_GdUS6
_symmetry_space_group_name_H-M   'P 1'
_cell_length_a   3.97018200
_cell_length_b   5.40728988
_cell_length_c   9.53916239
_cell_angle_alpha   82.74034563
_cell_angle_beta   90.00000000
_cell_angle_gamma   90.00000000
_symmetry_Int_Tables_number   1
_chemical_formula_structural   GdUS6
_chemical_formula_sum   'Gd1 U1 S6'
_cell_volume   203.14439021
_cell_formula_units_Z   1
loop_
 _symmetry_equiv_pos_site_id
 _symmetry_equiv_pos_as_xyz
  1  'x, y, z'
loop_
 _atom_site_type_symbol
 _atom_site_label
 _atom_site_symmetry_multiplicity
 _atom_site_fract_x
 _atom_site_fract_y
 _atom_site_fract_z
 _atom_site_occupancy
  Gd  Gd0  1  0.250000  0.717396  0.147018  1
  U  U1  1  0.750000  0.279897  0.864622  1
  S  S2  1  0.250000  0.129045  0.693228  1
  S  S3  1  0.750000  0.872598  0.315133  1
  S  S4  1  0.750000  0.486864  0.315076  1
  S  S5  1  0.250000  0.507914  0.693595  1
  S  S6  1  0.750000  0.767609  0.920470  1
  S  S7  1  0.250000  0.238676  0.050859  1
