# generated using pymatgen
data_Pr2Sm4CoP12Rh17
_symmetry_space_group_name_H-M   'P 1'
_cell_length_a   3.93030600
_cell_length_b   11.24373600
_cell_length_c   12.89450700
_cell_angle_alpha   90.00000000
_cell_angle_beta   90.00000000
_cell_angle_gamma   90.00000000
_symmetry_Int_Tables_number   1
_chemical_formula_structural   Pr2Sm4CoP12Rh17
_chemical_formula_sum   'Pr2 Sm4 Co1 P12 Rh17'
_cell_volume   569.82532458
_cell_formula_units_Z   1
loop_
 _symmetry_equiv_pos_site_id
 _symmetry_equiv_pos_as_xyz
  1  'x, y, z'
loop_
 _atom_site_type_symbol
 _atom_site_label
 _atom_site_symmetry_multiplicity
 _atom_site_fract_x
 _atom_site_fract_y
 _atom_site_fract_z
 _atom_site_occupancy
  Pr  Pr0  1  0.000000  0.500000  0.520621  1
  Pr  Pr1  1  0.500000  0.000000  0.478158  1
  Sm  Sm2  1  0.500000  0.817585  0.202985  1
  Sm  Sm3  1  0.500000  0.182415  0.202985  1
  Sm  Sm4  1  0.000000  0.688357  0.797681  1
  Sm  Sm5  1  0.000000  0.311643  0.797681  1
  Co  Co6  1  0.500000  0.000000  0.020679  1
  P  P7  1  0.500000  0.500000  0.881495  1
  P  P8  1  0.000000  0.000000  0.117736  1
  P  P9  1  0.500000  0.500000  0.345937  1
  P  P10  1  0.000000  0.000000  0.651546  1
  P  P11  1  0.500000  0.313058  0.619012  1
  P  P12  1  0.500000  0.686942  0.619012  1
  P  P13  1  0.000000  0.186983  0.381199  1
  P  P14  1  0.000000  0.813017  0.381199  1
  P  P15  1  0.500000  0.856291  0.897019  1
  P  P16  1  0.500000  0.143709  0.897019  1
  P  P17  1  0.000000  0.655191  0.105563  1
  P  P18  1  0.000000  0.344809  0.105563  1
  Rh  Rh19  1  0.500000  0.500000  0.166317  1
  Rh  Rh20  1  0.000000  0.000000  0.830622  1
  Rh  Rh21  1  0.500000  0.500000  0.704883  1
  Rh  Rh22  1  0.000000  0.000000  0.295693  1
  Rh  Rh23  1  0.000000  0.500000  0.981861  1
  Rh  Rh24  1  0.500000  0.331509  0.994908  1
  Rh  Rh25  1  0.500000  0.668491  0.994908  1
  Rh  Rh26  1  0.000000  0.160216  0.004586  1
  Rh  Rh27  1  0.000000  0.839784  0.004586  1
  Rh  Rh28  1  0.500000  0.292273  0.429146  1
  Rh  Rh29  1  0.500000  0.707727  0.429146  1
  Rh  Rh30  1  0.000000  0.207400  0.570806  1
  Rh  Rh31  1  0.000000  0.792600  0.570806  1
  Rh  Rh32  1  0.500000  0.875256  0.712247  1
  Rh  Rh33  1  0.500000  0.124744  0.712247  1
  Rh  Rh34  1  0.000000  0.626020  0.287072  1
  Rh  Rh35  1  0.000000  0.373980  0.287072  1
