# generated using pymatgen
data_Fe3CoRe2(Mo3N)2
_symmetry_space_group_name_H-M   'P 1'
_cell_length_a   7.96129053
_cell_length_b   7.96530765
_cell_length_c   7.96530739
_cell_angle_alpha   60.02379881
_cell_angle_beta   60.01668339
_cell_angle_gamma   60.01668389
_symmetry_Int_Tables_number   1
_chemical_formula_structural   Fe3CoRe2(Mo3N)2
_chemical_formula_sum   'Fe6 Co2 Re4 Mo12 N4'
_cell_volume   357.32313206
_cell_formula_units_Z   2
loop_
 _symmetry_equiv_pos_site_id
 _symmetry_equiv_pos_as_xyz
  1  'x, y, z'
loop_
 _atom_site_type_symbol
 _atom_site_label
 _atom_site_symmetry_multiplicity
 _atom_site_fract_x
 _atom_site_fract_y
 _atom_site_fract_z
 _atom_site_occupancy
  Fe  Fe0  1  0.832898  0.503752  0.830450  1
  Fe  Fe1  1  0.417102  0.419550  0.746248  1
  Fe  Fe2  1  0.746083  0.419451  0.416952  1
  Fe  Fe3  1  0.417515  0.419451  0.416952  1
  Fe  Fe4  1  0.503917  0.833048  0.830549  1
  Fe  Fe5  1  0.832485  0.833048  0.830549  1
  Co  Co6  1  0.833323  0.833655  0.499698  1
  Co  Co7  1  0.416677  0.750302  0.416345  1
  Re  Re8  1  0.624635  0.126282  0.624449  1
  Re  Re9  1  0.625365  0.625551  0.123718  1
  Re  Re10  1  0.125000  0.624465  0.625535  1
  Re  Re11  1  0.625000  0.624465  0.625535  1
  Mo  Mo12  1  0.195877  0.195459  0.804438  1
  Mo  Mo13  1  0.446334  0.052857  0.054475  1
  Mo  Mo14  1  0.053955  0.445393  0.446697  1
  Mo  Mo15  1  0.445775  0.445562  0.054541  1
  Mo  Mo16  1  0.446527  0.052127  0.447134  1
  Mo  Mo17  1  0.054123  0.445562  0.054541  1
  Mo  Mo18  1  0.804225  0.195459  0.804438  1
  Mo  Mo19  1  0.803666  0.195525  0.197143  1
  Mo  Mo20  1  0.196045  0.803303  0.804607  1
  Mo  Mo21  1  0.195787  0.802866  0.197873  1
  Mo  Mo22  1  0.054213  0.052127  0.447134  1
  Mo  Mo23  1  0.803473  0.802866  0.197873  1
  N  N24  1  0.124935  0.624611  0.125518  1
  N  N25  1  0.125065  0.124482  0.625389  1
  N  N26  1  0.625000  0.124391  0.125609  1
  N  N27  1  0.125000  0.124391  0.125609  1
