# generated using pymatgen
data_Ce6Al24Co2Os5Pd
_symmetry_space_group_name_H-M   'P 1'
_cell_length_a   8.87617301
_cell_length_b   8.92158863
_cell_length_c   9.47366941
_cell_angle_alpha   90.00000157
_cell_angle_beta   89.81003142
_cell_angle_gamma   120.16940378
_symmetry_Int_Tables_number   1
_chemical_formula_structural   Ce6Al24Co2Os5Pd
_chemical_formula_sum   'Ce6 Al24 Co2 Os5 Pd1'
_cell_volume   648.58922821
_cell_formula_units_Z   1
loop_
 _symmetry_equiv_pos_site_id
 _symmetry_equiv_pos_as_xyz
  1  'x, y, z'
loop_
 _atom_site_type_symbol
 _atom_site_label
 _atom_site_symmetry_multiplicity
 _atom_site_fract_x
 _atom_site_fract_y
 _atom_site_fract_z
 _atom_site_occupancy
  Ce  Ce0  1  0.198371  0.388158  0.252653  1
  Ce  Ce1  1  0.801629  0.611842  0.747347  1
  Ce  Ce2  1  0.609284  0.804641  0.252487  1
  Ce  Ce3  1  0.390716  0.195359  0.747513  1
  Ce  Ce4  1  0.198371  0.810211  0.252653  1
  Ce  Ce5  1  0.801629  0.189789  0.747347  1
  Al  Al6  1  0.336292  0.668147  0.021844  1
  Al  Al7  1  0.663708  0.331853  0.978156  1
  Al  Al8  1  0.667166  0.333582  0.517322  1
  Al  Al9  1  0.332834  0.666418  0.482678  1
  Al  Al10  1  0.160011  0.321088  0.577318  1
  Al  Al11  1  0.839989  0.678912  0.422682  1
  Al  Al12  1  0.677997  0.838998  0.576675  1
  Al  Al13  1  0.836593  0.681584  0.077461  1
  Al  Al14  1  0.322003  0.161002  0.423325  1
  Al  Al15  1  0.163407  0.318416  0.922539  1
  Al  Al16  1  0.160011  0.838922  0.577318  1
  Al  Al17  1  0.322948  0.161474  0.076834  1
  Al  Al18  1  0.839989  0.161078  0.422682  1
  Al  Al19  1  0.677052  0.838526  0.923166  1
  Al  Al20  1  0.836593  0.155009  0.077461  1
  Al  Al21  1  0.163407  0.844991  0.922539  1
  Al  Al22  1  0.563983  0.125960  0.249278  1
  Al  Al23  1  0.436017  0.874040  0.750722  1
  Al  Al24  1  0.876680  0.438339  0.251607  1
  Al  Al25  1  0.123320  0.561661  0.748393  1
  Al  Al26  1  0.563983  0.438021  0.249278  1
  Al  Al27  1  0.436017  0.561979  0.750722  1
  Al  Al28  1  0.001589  0.000795  0.250495  1
  Al  Al29  1  0.998411  0.999205  0.749505  1
  Co  Co30  1  0.000000  0.000000  0.000000  1
  Co  Co31  1  0.000000  0.000000  0.500000  1
  Os  Os32  1  0.500000  0.000000  0.000000  1
  Os  Os33  1  0.500000  0.000000  0.500000  1
  Os  Os34  1  0.500000  0.500000  0.000000  1
  Os  Os35  1  0.000000  0.500000  0.500000  1
  Os  Os36  1  0.500000  0.500000  0.500000  1
  Pd  Pd37  1  0.000000  0.500000  0.000000  1
