# generated using pymatgen
data_Dy5Sc3P12Ru7Rh9
_symmetry_space_group_name_H-M   'P 1'
_cell_length_a   12.81121280
_cell_length_b   12.76056192
_cell_length_c   3.95281100
_cell_angle_alpha   90.00000000
_cell_angle_beta   90.00000000
_cell_angle_gamma   119.80011717
_symmetry_Int_Tables_number   1
_chemical_formula_structural   Dy5Sc3P12Ru7Rh9
_chemical_formula_sum   'Dy5 Sc3 P12 Ru7 Rh9'
_cell_volume   560.74826872
_cell_formula_units_Z   1
loop_
 _symmetry_equiv_pos_site_id
 _symmetry_equiv_pos_as_xyz
  1  'x, y, z'
loop_
 _atom_site_type_symbol
 _atom_site_label
 _atom_site_symmetry_multiplicity
 _atom_site_fract_x
 _atom_site_fract_y
 _atom_site_fract_z
 _atom_site_occupancy
  Dy  Dy0  1  0.666609  0.332857  0.000000  1
  Dy  Dy1  1  0.334355  0.667403  0.000000  1
  Dy  Dy2  1  0.811912  0.998075  0.500000  1
  Dy  Dy3  1  0.186660  0.186964  0.500000  1
  Dy  Dy4  1  0.999291  0.812278  0.500000  1
  Sc  Sc5  1  0.440056  0.000547  0.000000  1
  Sc  Sc6  1  0.561587  0.558540  0.000000  1
  Sc  Sc7  1  0.998389  0.440146  0.000000  1
  P  P8  1  0.639016  0.998435  0.000000  1
  P  P9  1  0.357658  0.363497  0.000000  1
  P  P10  1  0.005696  0.643572  0.000000  1
  P  P11  1  0.691663  0.520216  0.500000  1
  P  P12  1  0.828126  0.304510  0.500000  1
  P  P13  1  0.313837  0.830033  0.500000  1
  P  P14  1  0.516798  0.685457  0.500000  1
  P  P15  1  0.181638  0.001675  0.000000  1
  P  P16  1  0.819452  0.818565  0.000000  1
  P  P17  1  0.995929  0.182195  0.000000  1
  P  P18  1  0.479178  0.169678  0.500000  1
  P  P19  1  0.170726  0.484439  0.500000  1
  Ru  Ru20  1  0.126148  0.643846  0.500000  1
  Ru  Ru21  1  0.356491  0.482168  0.500000  1
  Ru  Ru22  1  0.515780  0.871741  0.500000  1
  Ru  Ru23  1  0.723156  0.721329  0.500000  1
  Ru  Ru24  1  0.000819  0.277780  0.500000  1
  Ru  Ru25  1  0.817291  0.191921  0.000000  1
  Ru  Ru26  1  0.277736  0.001594  0.500000  1
  Rh  Rh27  1  0.627386  0.806454  0.000000  1
  Rh  Rh28  1  0.179287  0.375271  0.000000  1
  Rh  Rh29  1  0.371496  0.183094  0.000000  1
  Rh  Rh30  1  0.195221  0.821743  0.000000  1
  Rh  Rh31  1  0.811333  0.627486  0.000000  1
  Rh  Rh32  1  0.868819  0.506404  0.500000  1
  Rh  Rh33  1  0.491145  0.359683  0.500000  1
  Rh  Rh34  1  0.638786  0.127633  0.500000  1
  Rh  Rh35  1  0.000534  0.002769  0.000000  1
