# generated using pymatgen
data_Dy8Hf9Si16W3
_symmetry_space_group_name_H-M   'P 1'
_cell_length_a   7.18431872
_cell_length_b   7.18431931
_cell_length_c   13.15387202
_cell_angle_alpha   90.10973818
_cell_angle_beta   90.10973471
_cell_angle_gamma   90.08844832
_symmetry_Int_Tables_number   1
_chemical_formula_structural   Dy8Hf9Si16W3
_chemical_formula_sum   'Dy8 Hf9 Si16 W3'
_cell_volume   678.92643162
_cell_formula_units_Z   1
loop_
 _symmetry_equiv_pos_site_id
 _symmetry_equiv_pos_as_xyz
  1  'x, y, z'
loop_
 _atom_site_type_symbol
 _atom_site_label
 _atom_site_symmetry_multiplicity
 _atom_site_fract_x
 _atom_site_fract_y
 _atom_site_fract_z
 _atom_site_occupancy
  Dy  Dy0  1  0.999341  0.344230  0.215388  1
  Dy  Dy1  1  0.003353  0.656606  0.714761  1
  Dy  Dy2  1  0.154941  0.499832  0.464063  1
  Dy  Dy3  1  0.500168  0.845059  0.035937  1
  Dy  Dy4  1  0.846077  0.501864  0.967703  1
  Dy  Dy5  1  0.498136  0.153923  0.532297  1
  Dy  Dy6  1  0.343394  0.996647  0.785239  1
  Dy  Dy7  1  0.655770  0.000659  0.284612  1
  Hf  Hf8  1  0.675216  0.324784  0.750000  1
  Hf  Hf9  1  0.147160  0.993064  0.373516  1
  Hf  Hf10  1  0.854535  0.004539  0.876506  1
  Hf  Hf11  1  0.505607  0.649622  0.621403  1
  Hf  Hf12  1  0.350378  0.494393  0.878597  1
  Hf  Hf13  1  0.492997  0.352142  0.125486  1
  Hf  Hf14  1  0.647858  0.507003  0.374514  1
  Hf  Hf15  1  0.995461  0.145465  0.623494  1
  Hf  Hf16  1  0.006936  0.852840  0.126484  1
  Si  Si17  1  0.360736  0.298072  0.316655  1
  Si  Si18  1  0.638004  0.705250  0.817395  1
  Si  Si19  1  0.203146  0.861327  0.565818  1
  Si  Si20  1  0.138673  0.796854  0.934182  1
  Si  Si21  1  0.797582  0.138483  0.067155  1
  Si  Si22  1  0.861517  0.202418  0.432845  1
  Si  Si23  1  0.294750  0.361996  0.682605  1
  Si  Si24  1  0.701928  0.639264  0.183345  1
  Si  Si25  1  0.296180  0.050260  0.184059  1
  Si  Si26  1  0.704664  0.947720  0.682062  1
  Si  Si27  1  0.449369  0.795663  0.432284  1
  Si  Si28  1  0.204337  0.550631  0.067716  1
  Si  Si29  1  0.546868  0.202638  0.936130  1
  Si  Si30  1  0.797362  0.453132  0.563870  1
  Si  Si31  1  0.052280  0.295336  0.817938  1
  Si  Si32  1  0.949740  0.703820  0.315941  1
  W  W33  1  0.176667  0.175248  0.001456  1
  W  W34  1  0.824752  0.823333  0.498544  1
  W  W35  1  0.324117  0.675883  0.250000  1
