# generated using pymatgen
data_CaHo6NiI12
_symmetry_space_group_name_H-M   'P 1'
_cell_length_a   9.72902108
_cell_length_b   9.72902113
_cell_length_c   9.72902070
_cell_angle_alpha   106.80134402
_cell_angle_beta   106.80135097
_cell_angle_gamma   106.80134804
_symmetry_Int_Tables_number   1
_chemical_formula_structural   CaHo6NiI12
_chemical_formula_sum   'Ca1 Ho6 Ni1 I12'
_cell_volume   771.04363632
_cell_formula_units_Z   1
loop_
 _symmetry_equiv_pos_site_id
 _symmetry_equiv_pos_as_xyz
  1  'x, y, z'
loop_
 _atom_site_type_symbol
 _atom_site_label
 _atom_site_symmetry_multiplicity
 _atom_site_fract_x
 _atom_site_fract_y
 _atom_site_fract_z
 _atom_site_occupancy
  Ca  Ca0  1  0.500000  0.500000  0.500000  1
  Ho  Ho1  1  0.024072  0.094643  0.291410  1
  Ho  Ho2  1  0.094643  0.291410  0.024072  1
  Ho  Ho3  1  0.291410  0.024072  0.094643  1
  Ho  Ho4  1  0.975928  0.905357  0.708590  1
  Ho  Ho5  1  0.905357  0.708590  0.975928  1
  Ho  Ho6  1  0.708590  0.975928  0.905357  1
  Ni  Ni7  1  0.000000  0.000000  0.000000  1
  I  I8  1  0.149215  0.456613  0.378169  1
  I  I9  1  0.456613  0.378169  0.149215  1
  I  I10  1  0.378169  0.149215  0.456613  1
  I  I11  1  0.850785  0.543387  0.621831  1
  I  I12  1  0.543387  0.621831  0.850785  1
  I  I13  1  0.621831  0.850785  0.543387  1
  I  I14  1  0.678672  0.072116  0.223450  1
  I  I15  1  0.072116  0.223450  0.678672  1
  I  I16  1  0.223450  0.678672  0.072116  1
  I  I17  1  0.321328  0.927884  0.776550  1
  I  I18  1  0.927884  0.776550  0.321328  1
  I  I19  1  0.776550  0.321328  0.927884  1
