# generated using pymatgen
data_YEr(Tm9Pt8)2
_symmetry_space_group_name_H-M   'P 1'
_cell_length_a   7.39735606
_cell_length_b   7.48453538
_cell_length_c   14.58768201
_cell_angle_alpha   90.01103159
_cell_angle_beta   90.00869708
_cell_angle_gamma   90.03240097
_symmetry_Int_Tables_number   1
_chemical_formula_structural   YEr(Tm9Pt8)2
_chemical_formula_sum   'Y1 Er1 Tm18 Pt16'
_cell_volume   807.65813951
_cell_formula_units_Z   1
loop_
 _symmetry_equiv_pos_site_id
 _symmetry_equiv_pos_as_xyz
  1  'x, y, z'
loop_
 _atom_site_type_symbol
 _atom_site_label
 _atom_site_symmetry_multiplicity
 _atom_site_fract_x
 _atom_site_fract_y
 _atom_site_fract_z
 _atom_site_occupancy
  Y  Y0  1  0.998741  0.820629  0.092592  1
  Er  Er1  1  0.497862  0.680109  0.407195  1
  Tm  Tm2  1  0.680936  0.989091  0.250174  1
  Tm  Tm3  1  0.181019  0.510732  0.250168  1
  Tm  Tm4  1  0.818912  0.489006  0.749985  1
  Tm  Tm5  1  0.318968  0.011062  0.750065  1
  Tm  Tm6  1  0.656219  0.832636  0.622283  1
  Tm  Tm7  1  0.156638  0.667117  0.877631  1
  Tm  Tm8  1  0.844024  0.332428  0.377927  1
  Tm  Tm9  1  0.344413  0.167842  0.122288  1
  Tm  Tm10  1  0.343909  0.167517  0.377891  1
  Tm  Tm11  1  0.843825  0.332458  0.122131  1
  Tm  Tm12  1  0.156055  0.667604  0.622155  1
  Tm  Tm13  1  0.656048  0.832294  0.877825  1
  Tm  Tm14  1  0.997744  0.819987  0.406921  1
  Tm  Tm15  1  0.497801  0.679972  0.092891  1
  Tm  Tm16  1  0.502184  0.319652  0.592991  1
  Tm  Tm17  1  0.002500  0.180774  0.906912  1
  Tm  Tm18  1  0.002221  0.180121  0.592966  1
  Tm  Tm19  1  0.502049  0.319908  0.907074  1
  Pt  Pt20  1  0.816395  0.642738  0.250808  1
  Pt  Pt21  1  0.317665  0.856622  0.250120  1
  Pt  Pt22  1  0.682595  0.143560  0.749998  1
  Pt  Pt23  1  0.182563  0.356364  0.749995  1
  Pt  Pt24  1  0.546127  0.386660  0.249944  1
  Pt  Pt25  1  0.046490  0.113783  0.250397  1
  Pt  Pt26  1  0.953741  0.886922  0.750038  1
  Pt  Pt27  1  0.453780  0.613034  0.750000  1
  Pt  Pt28  1  0.816042  0.532016  0.542018  1
  Pt  Pt29  1  0.316372  0.968331  0.957698  1
  Pt  Pt30  1  0.684169  0.032324  0.458125  1
  Pt  Pt31  1  0.184650  0.466229  0.041407  1
  Pt  Pt32  1  0.183801  0.467508  0.458145  1
  Pt  Pt33  1  0.682027  0.033587  0.041526  1
  Pt  Pt34  1  0.315868  0.968060  0.542006  1
  Pt  Pt35  1  0.815649  0.531322  0.957710  1
