# generated using pymatgen
data_RbNa4(IrN)3
_symmetry_space_group_name_H-M   'P 1'
_cell_length_a   8.07934900
_cell_length_b   8.56774279
_cell_length_c   3.70684700
_cell_angle_alpha   90.00000000
_cell_angle_beta   90.00000000
_cell_angle_gamma   118.13158965
_symmetry_Int_Tables_number   1
_chemical_formula_structural   RbNa4(IrN)3
_chemical_formula_sum   'Rb1 Na4 Ir3 N3'
_cell_volume   226.28228844
_cell_formula_units_Z   1
loop_
 _symmetry_equiv_pos_site_id
 _symmetry_equiv_pos_as_xyz
  1  'x, y, z'
loop_
 _atom_site_type_symbol
 _atom_site_label
 _atom_site_symmetry_multiplicity
 _atom_site_fract_x
 _atom_site_fract_y
 _atom_site_fract_z
 _atom_site_occupancy
  Rb  Rb0  1  0.767367  0.000000  0.500001  1
  Na  Na1  1  0.276570  0.286019  0.500001  1
  Na  Na2  1  0.662912  0.321178  0.500001  1
  Na  Na3  1  0.341736  0.678823  0.500001  1
  Na  Na4  1  0.990551  0.713982  0.500001  1
  Ir  Ir5  1  0.342833  0.000000  0.000000  1
  Ir  Ir6  1  0.020244  0.402585  0.000000  1
  Ir  Ir7  1  0.617659  0.597415  0.000000  1
  N  N8  1  0.343313  0.000000  0.500001  1
  N  N9  1  0.019403  0.401993  0.500001  1
  N  N10  1  0.617412  0.598009  0.500001  1
