# generated using pymatgen
data_Th2Zn3Ga4Au
_symmetry_space_group_name_H-M   'P 1'
_cell_length_a   4.31168000
_cell_length_b   4.31168000
_cell_length_c   10.60897500
_cell_angle_alpha   90.00000000
_cell_angle_beta   90.00000000
_cell_angle_gamma   90.00000000
_symmetry_Int_Tables_number   1
_chemical_formula_structural   Th2Zn3Ga4Au
_chemical_formula_sum   'Th2 Zn3 Ga4 Au1'
_cell_volume   197.22704537
_cell_formula_units_Z   1
loop_
 _symmetry_equiv_pos_site_id
 _symmetry_equiv_pos_as_xyz
  1  'x, y, z'
loop_
 _atom_site_type_symbol
 _atom_site_label
 _atom_site_symmetry_multiplicity
 _atom_site_fract_x
 _atom_site_fract_y
 _atom_site_fract_z
 _atom_site_occupancy
  Th  Th0  1  0.000000  0.500000  0.239511  1
  Th  Th1  1  0.500000  0.000000  0.748013  1
  Zn  Zn2  1  0.000000  0.000000  0.998281  1
  Zn  Zn3  1  0.500000  0.500000  0.998281  1
  Zn  Zn4  1  0.000000  0.500000  0.639336  1
  Ga  Ga5  1  0.000000  0.000000  0.505540  1
  Ga  Ga6  1  0.500000  0.500000  0.505540  1
  Ga  Ga7  1  0.000000  0.500000  0.868332  1
  Ga  Ga8  1  0.500000  0.000000  0.129759  1
  Au  Au9  1  0.500000  0.000000  0.367407  1
