# generated using pymatgen
data_NbCd3(Pd2Au)4
_symmetry_space_group_name_H-M   'P 1'
_cell_length_a   5.88559800
_cell_length_b   5.88598900
_cell_length_c   7.81333700
_cell_angle_alpha   89.99999267
_cell_angle_beta   90.00121676
_cell_angle_gamma   90.00004867
_symmetry_Int_Tables_number   1
_chemical_formula_structural   NbCd3(Pd2Au)4
_chemical_formula_sum   'Nb1 Cd3 Pd8 Au4'
_cell_volume   270.67403553
_cell_formula_units_Z   1
loop_
 _symmetry_equiv_pos_site_id
 _symmetry_equiv_pos_as_xyz
  1  'x, y, z'
loop_
 _atom_site_type_symbol
 _atom_site_label
 _atom_site_symmetry_multiplicity
 _atom_site_fract_x
 _atom_site_fract_y
 _atom_site_fract_z
 _atom_site_occupancy
  Nb  Nb0  1  0.250505  0.250002  0.999995  1
  Cd  Cd1  1  0.749583  0.750000  0.000007  1
  Cd  Cd2  1  0.750518  0.749999  0.499999  1
  Cd  Cd3  1  0.249392  0.250001  0.500005  1
  Pd  Pd4  1  0.006141  0.005780  0.242641  1
  Pd  Pd5  1  0.006136  0.494224  0.242641  1
  Pd  Pd6  1  0.493993  0.005629  0.243669  1
  Pd  Pd7  1  0.493989  0.494368  0.243668  1
  Pd  Pd8  1  0.493949  0.005644  0.756346  1
  Pd  Pd9  1  0.493953  0.494358  0.756345  1
  Pd  Pd10  1  0.006090  0.005799  0.757340  1
  Pd  Pd11  1  0.006095  0.494195  0.757345  1
  Au  Au12  1  0.749069  0.250000  0.999994  1
  Au  Au13  1  0.250548  0.750001  0.000004  1
  Au  Au14  1  0.249623  0.749999  0.499996  1
  Au  Au15  1  0.750414  0.250002  0.500005  1
