# generated using pymatgen
data_Tb3TmPt4F28
_symmetry_space_group_name_H-M   'P 1'
_cell_length_a   5.53913073
_cell_length_b   8.90328814
_cell_length_c   12.01200906
_cell_angle_alpha   62.35017951
_cell_angle_beta   90.04842783
_cell_angle_gamma   90.00829579
_symmetry_Int_Tables_number   1
_chemical_formula_structural   Tb3TmPt4F28
_chemical_formula_sum   'Tb3 Tm1 Pt4 F28'
_cell_volume   524.73905889
_cell_formula_units_Z   1
loop_
 _symmetry_equiv_pos_site_id
 _symmetry_equiv_pos_as_xyz
  1  'x, y, z'
loop_
 _atom_site_type_symbol
 _atom_site_label
 _atom_site_symmetry_multiplicity
 _atom_site_fract_x
 _atom_site_fract_y
 _atom_site_fract_z
 _atom_site_occupancy
  Tb  Tb0  1  0.738745  0.185927  0.736192  1
  Tb  Tb1  1  0.760919  0.183387  0.236436  1
  Tb  Tb2  1  0.238614  0.813782  0.763760  1
  Tm  Tm3  1  0.261691  0.813942  0.263447  1
  Pt  Pt4  1  0.759764  0.727390  0.044377  1
  Pt  Pt5  1  0.241437  0.271671  0.958383  1
  Pt  Pt6  1  0.259017  0.274959  0.456455  1
  Pt  Pt7  1  0.740729  0.727429  0.540786  1
  F  F8  1  0.938914  0.706056  0.413073  1
  F  F9  1  0.064498  0.295813  0.585324  1
  F  F10  1  0.436269  0.294225  0.086464  1
  F  F11  1  0.563622  0.705200  0.916280  1
  F  F12  1  0.466988  0.728246  0.137249  1
  F  F13  1  0.535039  0.272955  0.866236  1
  F  F14  1  0.965693  0.273798  0.364728  1
  F  F15  1  0.033261  0.726371  0.633896  1
  F  F16  1  0.954185  0.744074  0.176059  1
  F  F17  1  0.051576  0.257091  0.825127  1
  F  F18  1  0.448862  0.258923  0.323882  1
  F  F19  1  0.549467  0.742046  0.673813  1
  F  F20  1  0.769984  0.478633  0.142122  1
  F  F21  1  0.230600  0.520384  0.859279  1
  F  F22  1  0.269445  0.524373  0.357982  1
  F  F23  1  0.729452  0.479083  0.639980  1
  F  F24  1  0.940982  0.280025  0.043043  1
  F  F25  1  0.058150  0.718837  0.958194  1
  F  F26  1  0.440331  0.720966  0.454072  1
  F  F27  1  0.559386  0.282137  0.541839  1
  F  F28  1  0.741396  0.976046  0.448854  1
  F  F29  1  0.259288  0.026167  0.549606  1
  F  F30  1  0.241012  0.022760  0.052430  1
  F  F31  1  0.759818  0.975965  0.950440  1
  F  F32  1  0.582268  0.965871  0.232249  1
  F  F33  1  0.409563  0.031820  0.768674  1
  F  F34  1  0.089554  0.025902  0.268003  1
  F  F35  1  0.909477  0.967739  0.731266  1
