# generated using pymatgen
data_Tb3In3PdPt2
_symmetry_space_group_name_H-M   'P 1'
_cell_length_a   7.80813500
_cell_length_b   7.80813589
_cell_length_c   3.77301700
_cell_angle_alpha   90.00000000
_cell_angle_beta   90.00000000
_cell_angle_gamma   120.00000049
_symmetry_Int_Tables_number   1
_chemical_formula_structural   Tb3In3PdPt2
_chemical_formula_sum   'Tb3 In3 Pd1 Pt2'
_cell_volume   199.21134509
_cell_formula_units_Z   1
loop_
 _symmetry_equiv_pos_site_id
 _symmetry_equiv_pos_as_xyz
  1  'x, y, z'
loop_
 _atom_site_type_symbol
 _atom_site_label
 _atom_site_symmetry_multiplicity
 _atom_site_fract_x
 _atom_site_fract_y
 _atom_site_fract_z
 _atom_site_occupancy
  Tb  Tb0  1  0.409422  0.000000  0.000000  1
  Tb  Tb1  1  0.000000  0.409422  0.000000  1
  Tb  Tb2  1  0.590578  0.590578  0.000000  1
  In  In3  1  0.261504  0.261504  0.500000  1
  In  In4  1  0.000000  0.738496  0.500000  1
  In  In5  1  0.738496  0.000000  0.500000  1
  Pd  Pd6  1  0.000000  0.000000  0.000000  1
  Pt  Pt7  1  0.666667  0.333333  0.500000  1
  Pt  Pt8  1  0.333333  0.666667  0.500000  1
