# generated using pymatgen
data_Dy9Lu(In2Te)2
_symmetry_space_group_name_H-M   'P 1'
_cell_length_a   6.53429100
_cell_length_b   8.97301691
_cell_length_c   8.99897442
_cell_angle_alpha   120.15482978
_cell_angle_beta   90.00019903
_cell_angle_gamma   89.99824338
_symmetry_Int_Tables_number   1
_chemical_formula_structural   Dy9Lu(In2Te)2
_chemical_formula_sum   'Dy9 Lu1 In4 Te2'
_cell_volume   456.22693121
_cell_formula_units_Z   1
loop_
 _symmetry_equiv_pos_site_id
 _symmetry_equiv_pos_as_xyz
  1  'x, y, z'
loop_
 _atom_site_type_symbol
 _atom_site_label
 _atom_site_symmetry_multiplicity
 _atom_site_fract_x
 _atom_site_fract_y
 _atom_site_fract_z
 _atom_site_occupancy
  Dy  Dy0  1  0.496589  0.331996  0.669142  1
  Dy  Dy1  1  0.496651  0.667655  0.336542  1
  Dy  Dy2  1  0.003331  0.667610  0.336557  1
  Dy  Dy3  1  0.003589  0.332072  0.669165  1
  Dy  Dy4  1  0.749955  0.233040  0.992304  1
  Dy  Dy5  1  0.749948  0.767950  0.759252  1
  Dy  Dy6  1  0.749995  0.000219  0.236478  1
  Dy  Dy7  1  0.249868  0.764797  0.001759  1
  Dy  Dy8  1  0.249895  0.233518  0.235573  1
  Lu  Lu9  1  0.249939  0.999848  0.763409  1
  In  In10  1  0.750048  0.000653  0.596821  1
  In  In11  1  0.250154  0.394406  0.003207  1
  In  In12  1  0.250019  0.605885  0.608830  1
  In  In13  1  0.249881  0.000803  0.398539  1
  Te  Te14  1  0.750098  0.610091  0.002395  1
  Te  Te15  1  0.750045  0.389460  0.390027  1
