# generated using pymatgen
data_SmDy3Er2CoBr10
_symmetry_space_group_name_H-M   'P 1'
_cell_length_a   7.34779434
_cell_length_b   9.07776648
_cell_length_c   9.19226510
_cell_angle_alpha   108.06974434
_cell_angle_beta   97.43706596
_cell_angle_gamma   104.53984181
_symmetry_Int_Tables_number   1
_chemical_formula_structural   SmDy3Er2CoBr10
_chemical_formula_sum   'Sm1 Dy3 Er2 Co1 Br10'
_cell_volume   549.72623614
_cell_formula_units_Z   1
loop_
 _symmetry_equiv_pos_site_id
 _symmetry_equiv_pos_as_xyz
  1  'x, y, z'
loop_
 _atom_site_type_symbol
 _atom_site_label
 _atom_site_symmetry_multiplicity
 _atom_site_fract_x
 _atom_site_fract_y
 _atom_site_fract_z
 _atom_site_occupancy
  Sm  Sm0  1  0.034403  0.713354  0.412570  1
  Dy  Dy1  1  0.644107  0.868371  0.320203  1
  Dy  Dy2  1  0.355827  0.133630  0.680119  1
  Dy  Dy3  1  0.966421  0.282525  0.586542  1
  Er  Er4  1  0.879606  0.954481  0.742602  1
  Er  Er5  1  0.120985  0.046052  0.257766  1
  Co  Co6  1  0.000531  0.999698  0.500044  1
  Br  Br7  1  0.544823  0.180275  0.415759  1
  Br  Br8  1  0.459865  0.822320  0.587106  1
  Br  Br9  1  0.216815  0.748237  0.148473  1
  Br  Br10  1  0.787314  0.254923  0.847385  1
  Br  Br11  1  0.910456  0.629041  0.678376  1
  Br  Br12  1  0.087452  0.367163  0.326171  1
  Br  Br13  1  0.751519  0.914528  0.038669  1
  Br  Br14  1  0.248822  0.085912  0.961247  1
  Br  Br15  1  0.645143  0.546445  0.224557  1
  Br  Br16  1  0.345911  0.453045  0.772410  1
