# generated using pymatgen
data_Rb8Ba4TiSnAs8
_symmetry_space_group_name_H-M   'P 1'
_cell_length_a   10.84632597
_cell_length_b   10.86067323
_cell_length_c   8.16787378
_cell_angle_alpha   88.45119125
_cell_angle_beta   88.40503107
_cell_angle_gamma   119.36585444
_symmetry_Int_Tables_number   1
_chemical_formula_structural   Rb8Ba4TiSnAs8
_chemical_formula_sum   'Rb8 Ba4 Ti1 Sn1 As8'
_cell_volume   837.29144296
_cell_formula_units_Z   1
loop_
 _symmetry_equiv_pos_site_id
 _symmetry_equiv_pos_as_xyz
  1  'x, y, z'
loop_
 _atom_site_type_symbol
 _atom_site_label
 _atom_site_symmetry_multiplicity
 _atom_site_fract_x
 _atom_site_fract_y
 _atom_site_fract_z
 _atom_site_occupancy
  Rb  Rb0  1  0.051796  0.523421  0.615261  1
  Rb  Rb1  1  0.525087  0.054928  0.114489  1
  Rb  Rb2  1  0.280405  0.137336  0.821697  1
  Rb  Rb3  1  0.869035  0.724019  0.768088  1
  Rb  Rb4  1  0.858896  0.149227  0.800779  1
  Rb  Rb5  1  0.727248  0.869595  0.273870  1
  Rb  Rb6  1  0.134558  0.276386  0.327720  1
  Rb  Rb7  1  0.146663  0.858857  0.304667  1
  Ba  Ba8  1  0.470393  0.940880  0.613371  1
  Ba  Ba9  1  0.470017  0.522535  0.620561  1
  Ba  Ba10  1  0.938129  0.468800  0.107948  1
  Ba  Ba11  1  0.523906  0.468569  0.118499  1
  Ti  Ti12  1  0.665936  0.335933  0.505414  1
  Sn  Sn13  1  0.336009  0.666812  0.002198  1
  As  As14  1  0.666429  0.351167  0.817840  1
  As  As15  1  0.350691  0.666592  0.333170  1
  As  As16  1  0.603722  0.794069  0.870093  1
  As  As17  1  0.202049  0.393924  0.918856  1
  As  As18  1  0.195156  0.796166  0.899568  1
  As  As19  1  0.411958  0.211357  0.421684  1
  As  As20  1  0.784601  0.583656  0.376807  1
  As  As21  1  0.787312  0.205769  0.404916  1
