# generated using pymatgen
data_Tb4Al3Re2Tc3
_symmetry_space_group_name_H-M   'P 1'
_cell_length_a   5.49144587
_cell_length_b   5.42513941
_cell_length_c   8.84201200
_cell_angle_alpha   90.00000000
_cell_angle_beta   90.00000000
_cell_angle_gamma   119.60138515
_symmetry_Int_Tables_number   1
_chemical_formula_structural   Tb4Al3Re2Tc3
_chemical_formula_sum   'Tb4 Al3 Re2 Tc3'
_cell_volume   229.03918992
_cell_formula_units_Z   1
loop_
 _symmetry_equiv_pos_site_id
 _symmetry_equiv_pos_as_xyz
  1  'x, y, z'
loop_
 _atom_site_type_symbol
 _atom_site_label
 _atom_site_symmetry_multiplicity
 _atom_site_fract_x
 _atom_site_fract_y
 _atom_site_fract_z
 _atom_site_occupancy
  Tb  Tb0  1  0.329051  0.664526  0.437153  1
  Tb  Tb1  1  0.668718  0.334358  0.557791  1
  Tb  Tb2  1  0.668718  0.334358  0.942209  1
  Tb  Tb3  1  0.329051  0.664526  0.062847  1
  Al  Al4  1  0.331622  0.165810  0.250000  1
  Al  Al5  1  0.186389  0.844207  0.750000  1
  Al  Al6  1  0.186389  0.342183  0.750000  1
  Re  Re7  1  0.832727  0.173873  0.250000  1
  Re  Re8  1  0.832727  0.658854  0.250000  1
  Tc  Tc9  1  0.973114  0.986557  0.503844  1
  Tc  Tc10  1  0.973114  0.986557  0.996156  1
  Tc  Tc11  1  0.688379  0.844190  0.750000  1
