# generated using pymatgen
data_Er9TmIn8(PdRu)2
_symmetry_space_group_name_H-M   'P 1'
_cell_length_a   3.58236100
_cell_length_b   8.06019566
_cell_length_c   18.24120148
_cell_angle_alpha   90.11869164
_cell_angle_beta   90.00000000
_cell_angle_gamma   90.00000000
_symmetry_Int_Tables_number   1
_chemical_formula_structural   Er9TmIn8(PdRu)2
_chemical_formula_sum   'Er9 Tm1 In8 Pd2 Ru2'
_cell_volume   526.70500010
_cell_formula_units_Z   1
loop_
 _symmetry_equiv_pos_site_id
 _symmetry_equiv_pos_as_xyz
  1  'x, y, z'
loop_
 _atom_site_type_symbol
 _atom_site_label
 _atom_site_symmetry_multiplicity
 _atom_site_fract_x
 _atom_site_fract_y
 _atom_site_fract_z
 _atom_site_occupancy
  Er  Er0  1  0.500000  0.229629  0.777591  1
  Er  Er1  1  0.500000  0.770371  0.222409  1
  Er  Er2  1  0.500000  0.244498  0.280101  1
  Er  Er3  1  0.500000  0.755502  0.719899  1
  Er  Er4  1  0.500000  0.116967  0.587184  1
  Er  Er5  1  0.500000  0.883033  0.412816  1
  Er  Er6  1  0.500000  0.380335  0.085181  1
  Er  Er7  1  0.500000  0.619665  0.914819  1
  Er  Er8  1  0.500000  0.000000  0.000000  1
  Tm  Tm9  1  0.500000  0.500000  0.500000  1
  In  In10  1  0.000000  0.071666  0.149640  1
  In  In11  1  0.000000  0.928334  0.850360  1
  In  In12  1  0.000000  0.425750  0.649560  1
  In  In13  1  0.000000  0.574250  0.350440  1
  In  In14  1  0.000000  0.207288  0.431724  1
  In  In15  1  0.000000  0.792712  0.568276  1
  In  In16  1  0.000000  0.292944  0.933049  1
  In  In17  1  0.000000  0.707056  0.066951  1
  Pd  Pd18  1  0.000000  0.478726  0.196397  1
  Pd  Pd19  1  0.000000  0.521274  0.803603  1
  Ru  Ru20  1  0.000000  0.021086  0.695907  1
  Ru  Ru21  1  0.000000  0.978914  0.304093  1
