# generated using pymatgen
data_Ho4Tc5Ge8Ru
_symmetry_space_group_name_H-M   'P 1'
_cell_length_a   6.92847580
_cell_length_b   6.93141100
_cell_length_c   12.99406491
_cell_angle_alpha   90.00000000
_cell_angle_beta   90.04600191
_cell_angle_gamma   90.00000000
_symmetry_Int_Tables_number   1
_chemical_formula_structural   Ho4Tc5Ge8Ru
_chemical_formula_sum   'Ho8 Tc10 Ge16 Ru2'
_cell_volume   624.02824478
_cell_formula_units_Z   2
loop_
 _symmetry_equiv_pos_site_id
 _symmetry_equiv_pos_as_xyz
  1  'x, y, z'
loop_
 _atom_site_type_symbol
 _atom_site_label
 _atom_site_symmetry_multiplicity
 _atom_site_fract_x
 _atom_site_fract_y
 _atom_site_fract_z
 _atom_site_occupancy
  Ho  Ho0  1  0.339466  0.991606  0.470720  1
  Ho  Ho1  1  0.505807  0.838387  0.722699  1
  Ho  Ho2  1  0.491195  0.158748  0.221334  1
  Ho  Ho3  1  0.840263  0.506963  0.276819  1
  Ho  Ho4  1  0.160534  0.491606  0.779280  1
  Ho  Ho5  1  0.659737  0.006963  0.973181  1
  Ho  Ho6  1  0.994193  0.338387  0.527301  1
  Ho  Ho7  1  0.008805  0.658748  0.028666  1
  Tc  Tc8  1  0.336516  0.335583  0.000414  1
  Tc  Tc9  1  0.163484  0.835583  0.249586  1
  Tc  Tc10  1  0.190647  0.977832  0.868474  1
  Tc  Tc11  1  0.522289  0.691996  0.118751  1
  Tc  Tc12  1  0.480509  0.313556  0.622261  1
  Tc  Tc13  1  0.688971  0.521168  0.877222  1
  Tc  Tc14  1  0.309353  0.477832  0.381526  1
  Tc  Tc15  1  0.811029  0.021168  0.372778  1
  Tc  Tc16  1  0.977711  0.191996  0.131249  1
  Tc  Tc17  1  0.019491  0.813556  0.627739  1
  Ge  Ge18  1  0.188696  0.112479  0.681223  1
  Ge  Ge19  1  0.387863  0.688510  0.931095  1
  Ge  Ge20  1  0.611385  0.311935  0.432006  1
  Ge  Ge21  1  0.688125  0.388449  0.068124  1
  Ge  Ge22  1  0.311304  0.612479  0.568777  1
  Ge  Ge23  1  0.811875  0.888449  0.181876  1
  Ge  Ge24  1  0.112137  0.188510  0.318905  1
  Ge  Ge25  1  0.888615  0.811935  0.817994  1
  Ge  Ge26  1  0.269115  0.983780  0.063210  1
  Ge  Ge27  1  0.515648  0.770449  0.312325  1
  Ge  Ge28  1  0.481765  0.225666  0.815281  1
  Ge  Ge29  1  0.776108  0.518748  0.685396  1
  Ge  Ge30  1  0.230885  0.483780  0.186790  1
  Ge  Ge31  1  0.723892  0.018748  0.564604  1
  Ge  Ge32  1  0.984352  0.270449  0.937675  1
  Ge  Ge33  1  0.018235  0.725666  0.434719  1
  Ru  Ru34  1  0.835391  0.164143  0.750496  1
  Ru  Ru35  1  0.664609  0.664143  0.499504  1
