# generated using pymatgen
data_Y2Zn5Sn
_symmetry_space_group_name_H-M   'P 1'
_cell_length_a   8.37167250
_cell_length_b   8.37167305
_cell_length_c   9.01412300
_cell_angle_alpha   90.00000000
_cell_angle_beta   90.00000000
_cell_angle_gamma   149.73776722
_symmetry_Int_Tables_number   1
_chemical_formula_structural   Y2Zn5Sn
_chemical_formula_sum   'Y4 Zn10 Sn2'
_cell_volume   318.37770991
_cell_formula_units_Z   2
loop_
 _symmetry_equiv_pos_site_id
 _symmetry_equiv_pos_as_xyz
  1  'x, y, z'
loop_
 _atom_site_type_symbol
 _atom_site_label
 _atom_site_symmetry_multiplicity
 _atom_site_fract_x
 _atom_site_fract_y
 _atom_site_fract_z
 _atom_site_occupancy
  Y  Y0  1  0.202154  0.797846  0.250000  1
  Y  Y1  1  0.797846  0.202154  0.750000  1
  Y  Y2  1  0.000000  0.000000  0.500000  1
  Y  Y3  1  0.000000  0.000000  0.000000  1
  Zn  Zn4  1  0.813381  0.186619  0.390657  1
  Zn  Zn5  1  0.186619  0.813381  0.609343  1
  Zn  Zn6  1  0.813381  0.186619  0.109343  1
  Zn  Zn7  1  0.186619  0.813381  0.890657  1
  Zn  Zn8  1  0.656179  0.343821  0.481845  1
  Zn  Zn9  1  0.343821  0.656179  0.518155  1
  Zn  Zn10  1  0.656179  0.343821  0.018155  1
  Zn  Zn11  1  0.343821  0.656179  0.981845  1
  Zn  Zn12  1  0.391927  0.608073  0.250000  1
  Zn  Zn13  1  0.608073  0.391927  0.750000  1
  Sn  Sn14  1  0.553414  0.446586  0.250000  1
  Sn  Sn15  1  0.446586  0.553414  0.750000  1
