# generated using pymatgen
data_Hf11V(Ga3Sb)3
_symmetry_space_group_name_H-M   'P 1'
_cell_length_a   5.62501684
_cell_length_b   8.68647101
_cell_length_c   9.27129269
_cell_angle_alpha   89.74675680
_cell_angle_beta   90.06871407
_cell_angle_gamma   90.23596935
_symmetry_Int_Tables_number   1
_chemical_formula_structural   Hf11V(Ga3Sb)3
_chemical_formula_sum   'Hf11 V1 Ga9 Sb3'
_cell_volume   453.00110831
_cell_formula_units_Z   1
loop_
 _symmetry_equiv_pos_site_id
 _symmetry_equiv_pos_as_xyz
  1  'x, y, z'
loop_
 _atom_site_type_symbol
 _atom_site_label
 _atom_site_symmetry_multiplicity
 _atom_site_fract_x
 _atom_site_fract_y
 _atom_site_fract_z
 _atom_site_occupancy
  Hf  Hf0  1  0.497494  0.254290  0.886712  1
  Hf  Hf1  1  0.002699  0.252674  0.885039  1
  Hf  Hf2  1  0.495125  0.744229  0.118495  1
  Hf  Hf3  1  0.751485  0.471519  0.612449  1
  Hf  Hf4  1  0.255040  0.530224  0.376455  1
  Hf  Hf5  1  0.744524  0.968549  0.391661  1
  Hf  Hf6  1  0.248532  0.028827  0.610438  1
  Hf  Hf7  1  0.746977  0.378264  0.197145  1
  Hf  Hf8  1  0.255678  0.617366  0.809861  1
  Hf  Hf9  1  0.745560  0.874589  0.804361  1
  Hf  Hf10  1  0.252235  0.133189  0.193533  1
  V  V11  1  0.003420  0.746487  0.115647  1
  Ga  Ga12  1  0.003525  0.747508  0.573729  1
  Ga  Ga13  1  0.500412  0.250875  0.429699  1
  Ga  Ga14  1  0.000012  0.251093  0.427578  1
  Ga  Ga15  1  0.496086  0.747126  0.569568  1
  Ga  Ga16  1  0.241881  0.452891  0.084124  1
  Ga  Ga17  1  0.749650  0.140971  0.648154  1
  Ga  Ga18  1  0.234810  0.861478  0.346603  1
  Ga  Ga19  1  0.765611  0.643034  0.348722  1
  Ga  Ga20  1  0.249972  0.361963  0.643545  1
  Sb  Sb21  1  0.755014  0.046715  0.088953  1
  Sb  Sb22  1  0.242739  0.943543  0.916353  1
  Sb  Sb23  1  0.761520  0.552596  0.921175  1
