# generated using pymatgen
data_Y2Al16IrPt8
_symmetry_space_group_name_H-M   'P 1'
_cell_length_a   11.12856240
_cell_length_b   11.12856230
_cell_length_c   11.12856279
_cell_angle_alpha   158.49434028
_cell_angle_beta   115.63265827
_cell_angle_gamma   68.71660875
_symmetry_Int_Tables_number   1
_chemical_formula_structural   Y2Al16IrPt8
_chemical_formula_sum   'Y2 Al16 Ir1 Pt8'
_cell_volume   452.25634551
_cell_formula_units_Z   1
loop_
 _symmetry_equiv_pos_site_id
 _symmetry_equiv_pos_as_xyz
  1  'x, y, z'
loop_
 _atom_site_type_symbol
 _atom_site_label
 _atom_site_symmetry_multiplicity
 _atom_site_fract_x
 _atom_site_fract_y
 _atom_site_fract_z
 _atom_site_occupancy
  Y  Y0  1  0.229249  0.228927  0.000322  1
  Y  Y1  1  0.771396  0.771073  0.000322  1
  Al  Al2  1  0.272692  0.390946  0.881746  1
  Al  Al3  1  0.091637  0.921913  0.169723  1
  Al  Al4  1  0.510445  0.203520  0.306926  1
  Al  Al5  1  0.247811  0.078087  0.169723  1
  Al  Al6  1  0.911129  0.414226  0.496902  1
  Al  Al7  1  0.726322  0.605078  0.121244  1
  Al  Al8  1  0.897537  0.206124  0.691413  1
  Al  Al9  1  0.485290  0.793876  0.691413  1
  Al  Al10  1  0.388896  0.000000  0.388896  1
  Al  Al11  1  0.621703  0.000000  0.621703  1
  Al  Al12  1  0.490799  0.609054  0.881746  1
  Al  Al13  1  0.103406  0.796480  0.306926  1
  Al  Al14  1  0.905049  0.081305  0.823745  1
  Al  Al15  1  0.742439  0.918695  0.823745  1
  Al  Al16  1  0.516167  0.394922  0.121244  1
  Al  Al17  1  0.082676  0.585774  0.496902  1
  Ir  Ir18  1  0.760875  0.500000  0.260875  1
  Pt  Pt19  1  0.023615  0.341145  0.682469  1
  Pt  Pt20  1  0.628315  0.126928  0.501387  1
  Pt  Pt21  1  0.254335  0.500000  0.754335  1
  Pt  Pt22  1  0.374459  0.873072  0.501387  1
  Pt  Pt23  1  0.993074  0.000000  0.993074  1
  Pt  Pt24  1  0.652701  0.338020  0.314681  1
  Pt  Pt25  1  0.341323  0.658855  0.682469  1
  Pt  Pt26  1  0.976661  0.661980  0.314681  1
