# generated using pymatgen
data_Lu2Th3(Ge5Rh2)2
_symmetry_space_group_name_H-M   'P 1'
_cell_length_a   13.09309100
_cell_length_b   13.09309100
_cell_length_c   4.36664800
_cell_angle_alpha   90.00000000
_cell_angle_beta   90.00000000
_cell_angle_gamma   90.00000000
_symmetry_Int_Tables_number   1
_chemical_formula_structural   Lu2Th3(Ge5Rh2)2
_chemical_formula_sum   'Lu4 Th6 Ge20 Rh8'
_cell_volume   748.57023944
_cell_formula_units_Z   2
loop_
 _symmetry_equiv_pos_site_id
 _symmetry_equiv_pos_as_xyz
  1  'x, y, z'
loop_
 _atom_site_type_symbol
 _atom_site_label
 _atom_site_symmetry_multiplicity
 _atom_site_fract_x
 _atom_site_fract_y
 _atom_site_fract_z
 _atom_site_occupancy
  Lu  Lu0  1  0.325685  0.825685  0.500000  1
  Lu  Lu1  1  0.825685  0.674315  0.500000  1
  Lu  Lu2  1  0.174315  0.325685  0.500000  1
  Lu  Lu3  1  0.674315  0.174315  0.500000  1
  Th  Th4  1  0.112728  0.612728  0.500000  1
  Th  Th5  1  0.612728  0.887272  0.500000  1
  Th  Th6  1  0.387272  0.112728  0.500000  1
  Th  Th7  1  0.887272  0.387272  0.500000  1
  Th  Th8  1  0.500000  0.500000  0.000000  1
  Th  Th9  1  0.000000  0.000000  0.000000  1
  Ge  Ge10  1  0.337654  0.495553  0.500000  1
  Ge  Ge11  1  0.662346  0.504447  0.500000  1
  Ge  Ge12  1  0.504447  0.337654  0.500000  1
  Ge  Ge13  1  0.495553  0.662346  0.500000  1
  Ge  Ge14  1  0.995553  0.837654  0.500000  1
  Ge  Ge15  1  0.837654  0.004447  0.500000  1
  Ge  Ge16  1  0.162346  0.995553  0.500000  1
  Ge  Ge17  1  0.004447  0.162346  0.500000  1
  Ge  Ge18  1  0.336828  0.300893  0.000000  1
  Ge  Ge19  1  0.663172  0.699107  0.000000  1
  Ge  Ge20  1  0.699107  0.336828  0.000000  1
  Ge  Ge21  1  0.300893  0.663172  0.000000  1
  Ge  Ge22  1  0.800893  0.836828  0.000000  1
  Ge  Ge23  1  0.836828  0.199107  0.000000  1
  Ge  Ge24  1  0.163172  0.800893  0.000000  1
  Ge  Ge25  1  0.199107  0.163172  0.000000  1
  Ge  Ge26  1  0.432880  0.932880  0.000000  1
  Ge  Ge27  1  0.932880  0.567120  0.000000  1
  Ge  Ge28  1  0.567120  0.067120  0.000000  1
  Ge  Ge29  1  0.067120  0.432880  0.000000  1
  Rh  Rh30  1  0.244728  0.977253  0.000000  1
  Rh  Rh31  1  0.755272  0.022747  0.000000  1
  Rh  Rh32  1  0.022747  0.244728  0.000000  1
  Rh  Rh33  1  0.977253  0.755272  0.000000  1
  Rh  Rh34  1  0.477253  0.744728  0.000000  1
  Rh  Rh35  1  0.744728  0.522747  0.000000  1
  Rh  Rh36  1  0.255272  0.477253  0.000000  1
  Rh  Rh37  1  0.522747  0.255272  0.000000  1
