# generated using pymatgen
data_DyEr2Al8(SiOs)4
_symmetry_space_group_name_H-M   'P 1'
_cell_length_a   8.70136425
_cell_length_b   8.70136471
_cell_length_c   9.40809700
_cell_angle_alpha   90.00000000
_cell_angle_beta   90.00000000
_cell_angle_gamma   120.13855658
_symmetry_Int_Tables_number   1
_chemical_formula_structural   DyEr2Al8(SiOs)4
_chemical_formula_sum   'Dy2 Er4 Al16 Si8 Os8'
_cell_volume   616.02606492
_cell_formula_units_Z   2
loop_
 _symmetry_equiv_pos_site_id
 _symmetry_equiv_pos_as_xyz
  1  'x, y, z'
loop_
 _atom_site_type_symbol
 _atom_site_label
 _atom_site_symmetry_multiplicity
 _atom_site_fract_x
 _atom_site_fract_y
 _atom_site_fract_z
 _atom_site_occupancy
  Dy  Dy0  1  0.194202  0.805798  0.250000  1
  Dy  Dy1  1  0.805798  0.194202  0.750000  1
  Er  Er2  1  0.192464  0.387840  0.250000  1
  Er  Er3  1  0.807536  0.612160  0.750000  1
  Er  Er4  1  0.612160  0.807536  0.250000  1
  Er  Er5  1  0.387840  0.192464  0.750000  1
  Al  Al6  1  0.165545  0.329806  0.577954  1
  Al  Al7  1  0.834455  0.670194  0.422046  1
  Al  Al8  1  0.670194  0.834455  0.577954  1
  Al  Al9  1  0.834455  0.670194  0.077954  1
  Al  Al10  1  0.329806  0.165545  0.422046  1
  Al  Al11  1  0.165545  0.329806  0.922046  1
  Al  Al12  1  0.164460  0.835540  0.578032  1
  Al  Al13  1  0.329806  0.165545  0.077954  1
  Al  Al14  1  0.835540  0.164460  0.421968  1
  Al  Al15  1  0.670194  0.834455  0.922046  1
  Al  Al16  1  0.835540  0.164460  0.078032  1
  Al  Al17  1  0.164460  0.835540  0.921968  1
  Al  Al18  1  0.564514  0.435486  0.250000  1
  Al  Al19  1  0.435486  0.564514  0.750000  1
  Al  Al20  1  0.999869  0.000131  0.250000  1
  Al  Al21  1  0.000131  0.999869  0.750000  1
  Si  Si22  1  0.335033  0.664967  0.041593  1
  Si  Si23  1  0.664967  0.335033  0.958407  1
  Si  Si24  1  0.664967  0.335033  0.541593  1
  Si  Si25  1  0.335033  0.664967  0.458407  1
  Si  Si26  1  0.565425  0.125028  0.250000  1
  Si  Si27  1  0.434575  0.874972  0.750000  1
  Si  Si28  1  0.874972  0.434575  0.250000  1
  Si  Si29  1  0.125028  0.565425  0.750000  1
  Os  Os30  1  0.500000  0.000000  0.000000  1
  Os  Os31  1  0.000000  0.500000  0.000000  1
  Os  Os32  1  0.500000  0.000000  0.500000  1
  Os  Os33  1  0.500000  0.500000  0.000000  1
  Os  Os34  1  0.000000  0.500000  0.500000  1
  Os  Os35  1  0.500000  0.500000  0.500000  1
  Os  Os36  1  0.000000  0.000000  0.000000  1
  Os  Os37  1  0.000000  0.000000  0.500000  1
