# generated using pymatgen
data_YEr3(IrOs3)2
_symmetry_space_group_name_H-M   'P 1'
_cell_length_a   5.26889400
_cell_length_b   5.26889532
_cell_length_c   8.96811900
_cell_angle_alpha   90.00000000
_cell_angle_beta   90.00000000
_cell_angle_gamma   120.00000427
_symmetry_Int_Tables_number   1
_chemical_formula_structural   YEr3(IrOs3)2
_chemical_formula_sum   'Y1 Er3 Ir2 Os6'
_cell_volume   215.61104631
_cell_formula_units_Z   1
loop_
 _symmetry_equiv_pos_site_id
 _symmetry_equiv_pos_as_xyz
  1  'x, y, z'
loop_
 _atom_site_type_symbol
 _atom_site_label
 _atom_site_symmetry_multiplicity
 _atom_site_fract_x
 _atom_site_fract_y
 _atom_site_fract_z
 _atom_site_occupancy
  Y  Y0  1  0.333333  0.666667  0.432391  1
  Er  Er1  1  0.666667  0.333333  0.568174  1
  Er  Er2  1  0.666667  0.333333  0.932074  1
  Er  Er3  1  0.333333  0.666667  0.067681  1
  Ir  Ir4  1  0.000000  0.000000  0.500245  1
  Ir  Ir5  1  0.000000  0.000000  0.000088  1
  Os  Os6  1  0.829305  0.170695  0.249427  1
  Os  Os7  1  0.829305  0.658609  0.249427  1
  Os  Os8  1  0.341391  0.170695  0.249427  1
  Os  Os9  1  0.170624  0.829376  0.750356  1
  Os  Os10  1  0.170624  0.341249  0.750356  1
  Os  Os11  1  0.658751  0.829376  0.750356  1
