# generated using pymatgen
data_Lu6Co17TcP12
_symmetry_space_group_name_H-M   'P 1'
_cell_length_a   3.66113600
_cell_length_b   10.45540300
_cell_length_c   12.10224100
_cell_angle_alpha   90.00000000
_cell_angle_beta   90.00000000
_cell_angle_gamma   90.00000000
_symmetry_Int_Tables_number   1
_chemical_formula_structural   Lu6Co17TcP12
_chemical_formula_sum   'Lu6 Co17 Tc1 P12'
_cell_volume   463.25747551
_cell_formula_units_Z   1
loop_
 _symmetry_equiv_pos_site_id
 _symmetry_equiv_pos_as_xyz
  1  'x, y, z'
loop_
 _atom_site_type_symbol
 _atom_site_label
 _atom_site_symmetry_multiplicity
 _atom_site_fract_x
 _atom_site_fract_y
 _atom_site_fract_z
 _atom_site_occupancy
  Lu  Lu0  1  0.000000  0.500000  0.525175  1
  Lu  Lu1  1  0.500000  0.000000  0.476627  1
  Lu  Lu2  1  0.500000  0.818163  0.206998  1
  Lu  Lu3  1  0.500000  0.181837  0.206998  1
  Lu  Lu4  1  0.000000  0.682099  0.794860  1
  Lu  Lu5  1  0.000000  0.317901  0.794860  1
  Co  Co6  1  0.000000  0.000000  0.838792  1
  Co  Co7  1  0.500000  0.500000  0.702486  1
  Co  Co8  1  0.000000  0.000000  0.296996  1
  Co  Co9  1  0.000000  0.500000  0.987428  1
  Co  Co10  1  0.500000  0.000000  0.014888  1
  Co  Co11  1  0.500000  0.331667  0.990250  1
  Co  Co12  1  0.500000  0.668333  0.990250  1
  Co  Co13  1  0.000000  0.166534  0.006155  1
  Co  Co14  1  0.000000  0.833466  0.006155  1
  Co  Co15  1  0.500000  0.296917  0.431394  1
  Co  Co16  1  0.500000  0.703083  0.431394  1
  Co  Co17  1  0.000000  0.202650  0.568617  1
  Co  Co18  1  0.000000  0.797350  0.568617  1
  Co  Co19  1  0.500000  0.877899  0.708169  1
  Co  Co20  1  0.500000  0.122101  0.708169  1
  Co  Co21  1  0.000000  0.622131  0.292793  1
  Co  Co22  1  0.000000  0.377869  0.292793  1
  Tc  Tc23  1  0.500000  0.500000  0.157612  1
  P  P24  1  0.500000  0.500000  0.879942  1
  P  P25  1  0.000000  0.000000  0.118810  1
  P  P26  1  0.500000  0.500000  0.351612  1
  P  P27  1  0.000000  0.000000  0.653333  1
  P  P28  1  0.500000  0.312848  0.617367  1
  P  P29  1  0.500000  0.687152  0.617367  1
  P  P30  1  0.000000  0.186838  0.383443  1
  P  P31  1  0.000000  0.813162  0.383443  1
  P  P32  1  0.500000  0.848898  0.890523  1
  P  P33  1  0.500000  0.151102  0.890523  1
  P  P34  1  0.000000  0.656894  0.107581  1
  P  P35  1  0.000000  0.343106  0.107581  1
