# generated using pymatgen
data_TbY4Bi3P
_symmetry_space_group_name_H-M   'P 1'
_cell_length_a   9.24110603
_cell_length_b   9.24110784
_cell_length_c   6.70379700
_cell_angle_alpha   90.00000000
_cell_angle_beta   90.00000000
_cell_angle_gamma   120.00982243
_symmetry_Int_Tables_number   1
_chemical_formula_structural   TbY4Bi3P
_chemical_formula_sum   'Tb2 Y8 Bi6 P2'
_cell_volume   495.74287881
_cell_formula_units_Z   2
loop_
 _symmetry_equiv_pos_site_id
 _symmetry_equiv_pos_as_xyz
  1  'x, y, z'
loop_
 _atom_site_type_symbol
 _atom_site_label
 _atom_site_symmetry_multiplicity
 _atom_site_fract_x
 _atom_site_fract_y
 _atom_site_fract_z
 _atom_site_occupancy
  Tb  Tb0  1  0.762557  0.000031  0.750000  1
  Tb  Tb1  1  0.000031  0.762557  0.750000  1
  Y  Y2  1  0.666675  0.333333  0.500017  1
  Y  Y3  1  0.333333  0.666675  0.500017  1
  Y  Y4  1  0.333333  0.666675  0.999983  1
  Y  Y5  1  0.666675  0.333333  0.999983  1
  Y  Y6  1  0.762567  0.762567  0.250000  1
  Y  Y7  1  0.237407  0.000006  0.250000  1
  Y  Y8  1  0.000006  0.237407  0.250000  1
  Y  Y9  1  0.237380  0.237380  0.750000  1
  Bi  Bi10  1  0.399820  0.399820  0.250000  1
  Bi  Bi11  1  0.600193  0.000000  0.250000  1
  Bi  Bi12  1  0.000000  0.600193  0.250000  1
  Bi  Bi13  1  0.600181  0.600181  0.750000  1
  Bi  Bi14  1  0.399757  0.000015  0.750000  1
  Bi  Bi15  1  0.000015  0.399757  0.750000  1
  P  P16  1  0.000035  0.000035  0.499919  1
  P  P17  1  0.000035  0.000035  0.000081  1
