# generated using pymatgen
data_Th3(GeRh)4
_symmetry_space_group_name_H-M   'P 1'
_cell_length_a   4.03270416
_cell_length_b   4.36610199
_cell_length_c   12.92493230
_cell_angle_alpha   99.72399743
_cell_angle_beta   98.97507294
_cell_angle_gamma   89.99999788
_symmetry_Int_Tables_number   1
_chemical_formula_structural   Th3(GeRh)4
_chemical_formula_sum   'Th3 Ge4 Rh4'
_cell_volume   221.47482103
_cell_formula_units_Z   1
loop_
 _symmetry_equiv_pos_site_id
 _symmetry_equiv_pos_as_xyz
  1  'x, y, z'
loop_
 _atom_site_type_symbol
 _atom_site_label
 _atom_site_symmetry_multiplicity
 _atom_site_fract_x
 _atom_site_fract_y
 _atom_site_fract_z
 _atom_site_occupancy
  Th  Th0  1  0.000000  0.000000  0.000000  1
  Th  Th1  1  0.145396  0.645397  0.290794  1
  Th  Th2  1  0.854603  0.354604  0.709207  1
  Ge  Ge3  1  0.549755  0.549757  0.099512  1
  Ge  Ge4  1  0.695639  0.195640  0.391279  1
  Ge  Ge5  1  0.304361  0.804361  0.608721  1
  Ge  Ge6  1  0.450244  0.450244  0.900488  1
  Rh  Rh7  1  0.596459  0.096460  0.192918  1
  Rh  Rh8  1  0.252026  0.252026  0.504053  1
  Rh  Rh9  1  0.747973  0.747974  0.495948  1
  Rh  Rh10  1  0.403540  0.903541  0.807081  1
