# generated using pymatgen
data_Dy3Ho5(TcC2)4
_symmetry_space_group_name_H-M   'P 1'
_cell_length_a   5.08747200
_cell_length_b   6.55980693
_cell_length_c   9.85654640
_cell_angle_alpha   89.93889425
_cell_angle_beta   90.00000000
_cell_angle_gamma   90.00000000
_symmetry_Int_Tables_number   1
_chemical_formula_structural   Dy3Ho5(TcC2)4
_chemical_formula_sum   'Dy3 Ho5 Tc4 C8'
_cell_volume   328.94070073
_cell_formula_units_Z   1
loop_
 _symmetry_equiv_pos_site_id
 _symmetry_equiv_pos_as_xyz
  1  'x, y, z'
loop_
 _atom_site_type_symbol
 _atom_site_label
 _atom_site_symmetry_multiplicity
 _atom_site_fract_x
 _atom_site_fract_y
 _atom_site_fract_z
 _atom_site_occupancy
  Dy  Dy0  1  0.250000  0.467113  0.784123  1
  Dy  Dy1  1  0.750000  0.032958  0.284073  1
  Dy  Dy2  1  0.250000  0.967099  0.715843  1
  Ho  Ho3  1  0.750000  0.533147  0.215986  1
  Ho  Ho4  1  0.250000  0.823195  0.057905  1
  Ho  Ho5  1  0.750000  0.676589  0.557754  1
  Ho  Ho6  1  0.250000  0.323443  0.442058  1
  Ho  Ho7  1  0.750000  0.176662  0.942288  1
  Tc  Tc8  1  0.250000  0.282014  0.133620  1
  Tc  Tc9  1  0.750000  0.218374  0.633469  1
  Tc  Tc10  1  0.250000  0.781548  0.366307  1
  Tc  Tc11  1  0.750000  0.718183  0.866536  1
  C  C12  1  0.250000  0.177655  0.951304  1
  C  C13  1  0.750000  0.821693  0.049182  1
  C  C14  1  0.250000  0.677562  0.548777  1
  C  C15  1  0.750000  0.322710  0.450933  1
  C  C16  1  0.250000  0.049210  0.258421  1
  C  C17  1  0.750000  0.450852  0.758414  1
  C  C18  1  0.250000  0.549131  0.241401  1
  C  C19  1  0.750000  0.950861  0.741606  1
