# generated using pymatgen
data_Rb4PaTiSe6
_symmetry_space_group_name_H-M   'P 1'
_cell_length_a   13.63352800
_cell_length_b   6.54654462
_cell_length_c   9.18957400
_cell_angle_alpha   71.94358484
_cell_angle_beta   90.00000000
_cell_angle_gamma   90.00000000
_symmetry_Int_Tables_number   1
_chemical_formula_structural   Rb4PaTiSe6
_chemical_formula_sum   'Rb8 Pa2 Ti2 Se12'
_cell_volume   779.79943585
_cell_formula_units_Z   2
loop_
 _symmetry_equiv_pos_site_id
 _symmetry_equiv_pos_as_xyz
  1  'x, y, z'
loop_
 _atom_site_type_symbol
 _atom_site_label
 _atom_site_symmetry_multiplicity
 _atom_site_fract_x
 _atom_site_fract_y
 _atom_site_fract_z
 _atom_site_occupancy
  Rb  Rb0  1  0.954179  0.671650  0.659788  1
  Rb  Rb1  1  0.454179  0.828350  0.340212  1
  Rb  Rb2  1  0.046175  0.329015  0.340966  1
  Rb  Rb3  1  0.546175  0.170985  0.659034  1
  Rb  Rb4  1  0.870202  0.086789  0.898086  1
  Rb  Rb5  1  0.370202  0.413211  0.101914  1
  Rb  Rb6  1  0.129342  0.922702  0.104333  1
  Rb  Rb7  1  0.629342  0.577298  0.895667  1
  Pa  Pa8  1  0.749974  0.653509  0.297444  1
  Pa  Pa9  1  0.249974  0.846491  0.702556  1
  Ti  Ti10  1  0.249834  0.345444  0.703935  1
  Ti  Ti11  1  0.749834  0.154556  0.296065  1
  Se  Se12  1  0.908393  0.927700  0.282150  1
  Se  Se13  1  0.408393  0.572300  0.717850  1
  Se  Se14  1  0.091287  0.107971  0.719023  1
  Se  Se15  1  0.591287  0.392029  0.280977  1
  Se  Se16  1  0.817860  0.289647  0.519199  1
  Se  Se17  1  0.317860  0.210353  0.480801  1
  Se  Se18  1  0.182890  0.675480  0.480166  1
  Se  Se19  1  0.682890  0.824520  0.519834  1
  Se  Se20  1  0.841290  0.483063  0.086822  1
  Se  Se21  1  0.341290  0.016937  0.913178  1
  Se  Se22  1  0.158574  0.489877  0.911921  1
  Se  Se23  1  0.658574  0.010123  0.088079  1
