# generated using pymatgen
data_Tb4Dy3Au10
_symmetry_space_group_name_H-M   'P 1'
_cell_length_a   8.76103036
_cell_length_b   8.76103171
_cell_length_c   10.42711400
_cell_angle_alpha   90.00000000
_cell_angle_beta   90.00000000
_cell_angle_gamma   106.97696429
_symmetry_Int_Tables_number   1
_chemical_formula_structural   Tb4Dy3Au10
_chemical_formula_sum   'Tb8 Dy6 Au20'
_cell_volume   765.46302933
_cell_formula_units_Z   2
loop_
 _symmetry_equiv_pos_site_id
 _symmetry_equiv_pos_as_xyz
  1  'x, y, z'
loop_
 _atom_site_type_symbol
 _atom_site_label
 _atom_site_symmetry_multiplicity
 _atom_site_fract_x
 _atom_site_fract_y
 _atom_site_fract_z
 _atom_site_occupancy
  Tb  Tb0  1  0.694668  0.305332  0.000000  1
  Tb  Tb1  1  0.194668  0.805332  0.500000  1
  Tb  Tb2  1  0.812817  0.812817  0.310547  1
  Tb  Tb3  1  0.312817  0.312817  0.189453  1
  Tb  Tb4  1  0.805332  0.194668  0.500000  1
  Tb  Tb5  1  0.305332  0.694668  0.000000  1
  Tb  Tb6  1  0.687183  0.687183  0.810547  1
  Tb  Tb7  1  0.187183  0.187183  0.689453  1
  Dy  Dy8  1  0.502559  0.002559  0.250000  1
  Dy  Dy9  1  0.997441  0.497441  0.750000  1
  Dy  Dy10  1  0.000000  0.000000  0.000000  1
  Dy  Dy11  1  0.002559  0.502559  0.250000  1
  Dy  Dy12  1  0.497441  0.997441  0.750000  1
  Dy  Dy13  1  0.500000  0.500000  0.500000  1
  Au  Au14  1  0.145027  0.436276  0.496996  1
  Au  Au15  1  0.895298  0.895298  0.602524  1
  Au  Au16  1  0.563724  0.854973  0.503004  1
  Au  Au17  1  0.860191  0.149830  0.209444  1
  Au  Au18  1  0.360191  0.649830  0.290556  1
  Au  Au19  1  0.649830  0.360191  0.290556  1
  Au  Au20  1  0.395298  0.395298  0.897476  1
  Au  Au21  1  0.936276  0.645027  0.003004  1
  Au  Au22  1  0.350170  0.639809  0.709444  1
  Au  Au23  1  0.354973  0.063724  0.996996  1
  Au  Au24  1  0.604702  0.604702  0.102524  1
  Au  Au25  1  0.645027  0.936276  0.003004  1
  Au  Au26  1  0.104702  0.104702  0.397476  1
  Au  Au27  1  0.639809  0.350170  0.709444  1
  Au  Au28  1  0.139809  0.850170  0.790556  1
  Au  Au29  1  0.063724  0.354973  0.996996  1
  Au  Au30  1  0.854973  0.563724  0.503004  1
  Au  Au31  1  0.149830  0.860191  0.209444  1
  Au  Au32  1  0.436276  0.145027  0.496996  1
  Au  Au33  1  0.850170  0.139809  0.790556  1
