# generated using pymatgen
data_Nd3In3NiSnIr
_symmetry_space_group_name_H-M   'P 1'
_cell_length_a   7.70965700
_cell_length_b   7.70965604
_cell_length_c   4.19495200
_cell_angle_alpha   90.00000000
_cell_angle_beta   90.00000000
_cell_angle_gamma   119.99999982
_symmetry_Int_Tables_number   1
_chemical_formula_structural   Nd3In3NiSnIr
_chemical_formula_sum   'Nd3 In3 Ni1 Sn1 Ir1'
_cell_volume   215.93731062
_cell_formula_units_Z   1
loop_
 _symmetry_equiv_pos_site_id
 _symmetry_equiv_pos_as_xyz
  1  'x, y, z'
loop_
 _atom_site_type_symbol
 _atom_site_label
 _atom_site_symmetry_multiplicity
 _atom_site_fract_x
 _atom_site_fract_y
 _atom_site_fract_z
 _atom_site_occupancy
  Nd  Nd0  1  0.419721  0.397334  0.500000  1
  Nd  Nd1  1  0.602666  0.022387  0.500000  1
  Nd  Nd2  1  0.977613  0.580279  0.500000  1
  In  In3  1  0.766172  0.753934  0.000000  1
  In  In4  1  0.246066  0.012238  0.000000  1
  In  In5  1  0.987762  0.233828  0.000000  1
  Ni  Ni6  1  0.000000  0.000000  0.500000  1
  Sn  Sn7  1  0.333333  0.666667  0.000000  1
  Ir  Ir8  1  0.666667  0.333333  0.000000  1
