# generated using pymatgen
data_Ba8Al(Si4Au)3
_symmetry_space_group_name_H-M   'P 1'
_cell_length_a   12.54694712
_cell_length_b   10.97847400
_cell_length_c   8.54476956
_cell_angle_alpha   78.90196180
_cell_angle_beta   59.25728603
_cell_angle_gamma   41.93508031
_symmetry_Int_Tables_number   1
_chemical_formula_structural   Ba8Al(Si4Au)3
_chemical_formula_sum   'Ba8 Al1 Si12 Au3'
_cell_volume   638.89442200
_cell_formula_units_Z   1
loop_
 _symmetry_equiv_pos_site_id
 _symmetry_equiv_pos_as_xyz
  1  'x, y, z'
loop_
 _atom_site_type_symbol
 _atom_site_label
 _atom_site_symmetry_multiplicity
 _atom_site_fract_x
 _atom_site_fract_y
 _atom_site_fract_z
 _atom_site_occupancy
  Ba  Ba0  1  0.129637  0.125818  0.369554  1
  Ba  Ba1  1  0.874214  0.872904  0.127800  1
  Ba  Ba2  1  0.127800  0.125083  0.874214  1
  Ba  Ba3  1  0.369554  0.374991  0.129637  1
  Ba  Ba4  1  0.624279  0.624986  0.374614  1
  Ba  Ba5  1  0.374614  0.376121  0.624279  1
  Ba  Ba6  1  0.626496  0.629445  0.873104  1
  Ba  Ba7  1  0.873104  0.870955  0.626496  1
  Al  Al8  1  0.831955  0.168045  0.831955  1
  Si  Si9  1  0.334094  0.660714  0.830999  1
  Si  Si10  1  0.180083  0.822998  0.659705  1
  Si  Si11  1  0.830999  0.174192  0.334094  1
  Si  Si12  1  0.659705  0.337214  0.180083  1
  Si  Si13  1  0.912189  0.589208  0.426310  1
  Si  Si14  1  0.069893  0.423288  0.592031  1
  Si  Si15  1  0.426310  0.072293  0.912189  1
  Si  Si16  1  0.912275  0.587725  0.912275  1
  Si  Si17  1  0.661728  0.338272  0.661728  1
  Si  Si18  1  0.334544  0.665456  0.334544  1
  Si  Si19  1  0.587928  0.912072  0.587928  1
  Si  Si20  1  0.592031  0.914788  0.069893  1
  Au  Au21  1  0.083151  0.416849  0.083151  1
  Au  Au22  1  0.166439  0.833561  0.166439  1
  Au  Au23  1  0.416974  0.083026  0.416974  1
