# generated using pymatgen
data_Tb3Er13(AlRh)4
_symmetry_space_group_name_H-M   'P 1'
_cell_length_a   9.47359078
_cell_length_b   9.47359152
_cell_length_c   9.47889500
_cell_angle_alpha   59.98148315
_cell_angle_beta   59.98148056
_cell_angle_gamma   59.94606312
_symmetry_Int_Tables_number   1
_chemical_formula_structural   Tb3Er13(AlRh)4
_chemical_formula_sum   'Tb3 Er13 Al4 Rh4'
_cell_volume   601.13654344
_cell_formula_units_Z   1
loop_
 _symmetry_equiv_pos_site_id
 _symmetry_equiv_pos_as_xyz
  1  'x, y, z'
loop_
 _atom_site_type_symbol
 _atom_site_label
 _atom_site_symmetry_multiplicity
 _atom_site_fract_x
 _atom_site_fract_y
 _atom_site_fract_z
 _atom_site_occupancy
  Tb  Tb0  1  0.314399  0.314399  0.685601  1
  Tb  Tb1  1  0.685050  0.685050  0.314950  1
  Tb  Tb2  1  0.056848  0.056848  0.443152  1
  Er  Er3  1  0.308154  0.896448  0.897699  1
  Er  Er4  1  0.686507  0.312985  0.688313  1
  Er  Er5  1  0.312985  0.686507  0.312194  1
  Er  Er6  1  0.057517  0.443837  0.442483  1
  Er  Er7  1  0.686507  0.312985  0.312194  1
  Er  Er8  1  0.443837  0.057517  0.442483  1
  Er  Er9  1  0.443837  0.057517  0.056163  1
  Er  Er10  1  0.897134  0.897134  0.900085  1
  Er  Er11  1  0.057517  0.443837  0.056163  1
  Er  Er12  1  0.896448  0.308154  0.897699  1
  Er  Er13  1  0.312985  0.686507  0.688313  1
  Er  Er14  1  0.897134  0.897134  0.305647  1
  Er  Er15  1  0.443053  0.443053  0.056947  1
  Al  Al16  1  0.983223  0.672552  0.672113  1
  Al  Al17  1  0.672552  0.983223  0.672113  1
  Al  Al18  1  0.671966  0.671966  0.983384  1
  Al  Al19  1  0.671966  0.671966  0.672683  1
  Rh  Rh20  1  0.107282  0.107282  0.678712  1
  Rh  Rh21  1  0.108507  0.677308  0.107092  1
  Rh  Rh22  1  0.107282  0.107282  0.106724  1
  Rh  Rh23  1  0.677308  0.108507  0.107092  1
