# generated using pymatgen
data_Mn3Pt7
_symmetry_space_group_name_H-M   'P 1'
_cell_length_a   10.10492378
_cell_length_b   10.10492416
_cell_length_c   3.88021200
_cell_angle_alpha   90.00000000
_cell_angle_beta   90.00000000
_cell_angle_gamma   157.40229350
_symmetry_Int_Tables_number   1
_chemical_formula_structural   Mn3Pt7
_chemical_formula_sum   'Mn3 Pt7'
_cell_volume   152.24564820
_cell_formula_units_Z   1
loop_
 _symmetry_equiv_pos_site_id
 _symmetry_equiv_pos_as_xyz
  1  'x, y, z'
loop_
 _atom_site_type_symbol
 _atom_site_label
 _atom_site_symmetry_multiplicity
 _atom_site_fract_x
 _atom_site_fract_y
 _atom_site_fract_z
 _atom_site_occupancy
  Mn  Mn0  1  0.000000  0.000000  0.000000  1
  Mn  Mn1  1  0.802656  0.197346  0.000000  1
  Mn  Mn2  1  0.197346  0.802656  0.000000  1
  Pt  Pt3  1  0.598828  0.401173  0.000000  1
  Pt  Pt4  1  0.401173  0.598828  0.000000  1
  Pt  Pt5  1  0.898738  0.101263  0.500001  1
  Pt  Pt6  1  0.701388  0.298614  0.500001  1
  Pt  Pt7  1  0.500001  0.500001  0.500001  1
  Pt  Pt8  1  0.298614  0.701388  0.500001  1
  Pt  Pt9  1  0.101263  0.898738  0.500001  1
