# generated using pymatgen
data_Dy20IrRu8Rh3
_symmetry_space_group_name_H-M   'P 1'
_cell_length_a   10.83577325
_cell_length_b   10.83580115
_cell_length_c   6.39583641
_cell_angle_alpha   90.01135789
_cell_angle_beta   90.01168667
_cell_angle_gamma   90.03824536
_symmetry_Int_Tables_number   1
_chemical_formula_structural   Dy20IrRu8Rh3
_chemical_formula_sum   'Dy20 Ir1 Ru8 Rh3'
_cell_volume   750.96235642
_cell_formula_units_Z   1
loop_
 _symmetry_equiv_pos_site_id
 _symmetry_equiv_pos_as_xyz
  1  'x, y, z'
loop_
 _atom_site_type_symbol
 _atom_site_label
 _atom_site_symmetry_multiplicity
 _atom_site_fract_x
 _atom_site_fract_y
 _atom_site_fract_z
 _atom_site_occupancy
  Dy  Dy0  1  0.293417  0.086287  0.376359  1
  Dy  Dy1  1  0.292493  0.912462  0.878038  1
  Dy  Dy2  1  0.707463  0.086893  0.878165  1
  Dy  Dy3  1  0.706612  0.913659  0.376253  1
  Dy  Dy4  1  0.585715  0.792062  0.878204  1
  Dy  Dy5  1  0.586329  0.206229  0.376257  1
  Dy  Dy6  1  0.413295  0.792755  0.376987  1
  Dy  Dy7  1  0.413131  0.207363  0.878308  1
  Dy  Dy8  1  0.207939  0.414288  0.621803  1
  Dy  Dy9  1  0.207244  0.586706  0.123011  1
  Dy  Dy10  1  0.793770  0.413673  0.123743  1
  Dy  Dy11  1  0.792637  0.586871  0.621682  1
  Dy  Dy12  1  0.913709  0.706580  0.123642  1
  Dy  Dy13  1  0.913106  0.292535  0.621837  1
  Dy  Dy14  1  0.087537  0.707507  0.621959  1
  Dy  Dy15  1  0.086338  0.293385  0.123746  1
  Dy  Dy16  1  0.000018  0.000089  0.497693  1
  Dy  Dy17  1  0.999910  0.999981  0.002304  1
  Dy  Dy18  1  0.500002  0.500295  0.002004  1
  Dy  Dy19  1  0.499709  0.500003  0.497999  1
  Ir  Ir20  1  0.346795  0.653205  0.750002  1
  Ru  Ru21  1  0.847641  0.152358  0.250002  1
  Ru  Ru22  1  0.152315  0.847688  0.250002  1
  Ru  Ru23  1  0.652601  0.652602  0.250150  1
  Ru  Ru24  1  0.347398  0.347397  0.249849  1
  Ru  Ru25  1  0.500309  0.000302  0.123957  1
  Ru  Ru26  1  0.500251  0.000516  0.625773  1
  Ru  Ru27  1  0.999480  0.499746  0.874226  1
  Ru  Ru28  1  0.999699  0.499687  0.376041  1
  Rh  Rh29  1  0.847011  0.846937  0.749780  1
  Rh  Rh30  1  0.153068  0.152991  0.750221  1
  Rh  Rh31  1  0.653055  0.346947  0.750001  1
