# generated using pymatgen
data_Pa2Co4Tc8P7
_symmetry_space_group_name_H-M   'P 1'
_cell_length_a   9.37411166
_cell_length_b   9.40325686
_cell_length_c   3.81209800
_cell_angle_alpha   90.00000000
_cell_angle_beta   90.00000000
_cell_angle_gamma   120.14097361
_symmetry_Int_Tables_number   1
_chemical_formula_structural   Pa2Co4Tc8P7
_chemical_formula_sum   'Pa2 Co4 Tc8 P7'
_cell_volume   290.59251359
_cell_formula_units_Z   1
loop_
 _symmetry_equiv_pos_site_id
 _symmetry_equiv_pos_as_xyz
  1  'x, y, z'
loop_
 _atom_site_type_symbol
 _atom_site_label
 _atom_site_symmetry_multiplicity
 _atom_site_fract_x
 _atom_site_fract_y
 _atom_site_fract_z
 _atom_site_occupancy
  Pa  Pa0  1  0.004425  0.002743  0.000000  1
  Pa  Pa1  1  0.331507  0.666174  0.500000  1
  Co  Co2  1  0.304609  0.906351  0.000000  1
  Co  Co3  1  0.821639  0.605898  0.000000  1
  Co  Co4  1  0.398278  0.212711  0.000000  1
  Co  Co5  1  0.779230  0.181079  0.000000  1
  Tc  Tc6  1  0.095419  0.400266  0.000000  1
  Tc  Tc7  1  0.599655  0.699226  0.000000  1
  Tc  Tc8  1  0.054298  0.772698  0.500000  1
  Tc  Tc9  1  0.228836  0.272435  0.500000  1
  Tc  Tc10  1  0.722670  0.952544  0.500000  1
  Tc  Tc11  1  0.870207  0.423902  0.500000  1
  Tc  Tc12  1  0.574444  0.447249  0.500000  1
  Tc  Tc13  1  0.548569  0.117793  0.500000  1
  P  P14  1  0.778904  0.729864  0.500000  1
  P  P15  1  0.272251  0.044806  0.500000  1
  P  P16  1  0.951618  0.224239  0.500000  1
  P  P17  1  0.667598  0.336220  0.000000  1
  P  P18  1  0.075830  0.638950  0.000000  1
  P  P19  1  0.366531  0.435666  0.000000  1
  P  P20  1  0.553484  0.929179  0.000000  1
