# generated using pymatgen
data_LuSi2(AsRh3)2
_symmetry_space_group_name_H-M   'P 1'
_cell_length_a   7.15434100
_cell_length_b   7.16334839
_cell_length_c   3.76811000
_cell_angle_alpha   90.00000000
_cell_angle_beta   90.00000000
_cell_angle_gamma   119.95840874
_symmetry_Int_Tables_number   1
_chemical_formula_structural   LuSi2(AsRh3)2
_chemical_formula_sum   'Lu1 Si2 As2 Rh6'
_cell_volume   167.30995203
_cell_formula_units_Z   1
loop_
 _symmetry_equiv_pos_site_id
 _symmetry_equiv_pos_as_xyz
  1  'x, y, z'
loop_
 _atom_site_type_symbol
 _atom_site_label
 _atom_site_symmetry_multiplicity
 _atom_site_fract_x
 _atom_site_fract_y
 _atom_site_fract_z
 _atom_site_occupancy
  Lu  Lu0  1  0.991658  0.983314  0.000000  1
  Si  Si1  1  0.804419  0.608837  0.500000  1
  Si  Si2  1  0.334051  0.668104  0.000000  1
  As  As3  1  0.381049  0.192989  0.500000  1
  As  As4  1  0.811941  0.192989  0.500000  1
  Rh  Rh5  1  0.532014  0.064028  0.000000  1
  Rh  Rh6  1  0.606040  0.798926  0.500000  1
  Rh  Rh7  1  0.202298  0.404595  0.500000  1
  Rh  Rh8  1  0.543260  0.476979  0.000000  1
  Rh  Rh9  1  0.192886  0.798926  0.500000  1
  Rh  Rh10  1  0.933718  0.476979  0.000000  1
