# generated using pymatgen
data_Li3Y3SiHgAs
_symmetry_space_group_name_H-M   'P 1'
_cell_length_a   7.21823900
_cell_length_b   7.21823882
_cell_length_c   4.18246100
_cell_angle_alpha   90.00000000
_cell_angle_beta   90.00000000
_cell_angle_gamma   119.99998709
_symmetry_Int_Tables_number   1
_chemical_formula_structural   Li3Y3SiHgAs
_chemical_formula_sum   'Li3 Y3 Si1 Hg1 As1'
_cell_volume   188.72311343
_cell_formula_units_Z   1
loop_
 _symmetry_equiv_pos_site_id
 _symmetry_equiv_pos_as_xyz
  1  'x, y, z'
loop_
 _atom_site_type_symbol
 _atom_site_label
 _atom_site_symmetry_multiplicity
 _atom_site_fract_x
 _atom_site_fract_y
 _atom_site_fract_z
 _atom_site_occupancy
  Li  Li0  1  0.250769  0.000706  0.500000  1
  Li  Li1  1  0.749937  0.749231  0.500000  1
  Li  Li2  1  0.999294  0.250063  0.500000  1
  Y  Y3  1  0.994103  0.565676  0.000000  1
  Y  Y4  1  0.571573  0.005897  0.000000  1
  Y  Y5  1  0.434324  0.428427  0.000000  1
  Si  Si6  1  0.666667  0.333333  0.500000  1
  Hg  Hg7  1  0.000000  0.000000  0.000000  1
  As  As8  1  0.333333  0.666667  0.500000  1
