# generated using pymatgen
data_LaNd6SI12
_symmetry_space_group_name_H-M   'P 1'
_cell_length_a   9.95770920
_cell_length_b   9.95771003
_cell_length_c   9.95771200
_cell_angle_alpha   107.58811641
_cell_angle_beta   107.58811190
_cell_angle_gamma   107.58810216
_symmetry_Int_Tables_number   1
_chemical_formula_structural   LaNd6SI12
_chemical_formula_sum   'La1 Nd6 S1 I12'
_cell_volume   808.73389399
_cell_formula_units_Z   1
loop_
 _symmetry_equiv_pos_site_id
 _symmetry_equiv_pos_as_xyz
  1  'x, y, z'
loop_
 _atom_site_type_symbol
 _atom_site_label
 _atom_site_symmetry_multiplicity
 _atom_site_fract_x
 _atom_site_fract_y
 _atom_site_fract_z
 _atom_site_occupancy
  La  La0  1  0.985016  0.985016  0.985016  1
  Nd  Nd1  1  0.532931  0.602097  0.800921  1
  Nd  Nd2  1  0.800921  0.532931  0.602097  1
  Nd  Nd3  1  0.602097  0.800921  0.532931  1
  Nd  Nd4  1  0.470536  0.400687  0.198794  1
  Nd  Nd5  1  0.198794  0.470536  0.400687  1
  Nd  Nd6  1  0.400687  0.198794  0.470536  1
  S  S7  1  0.498738  0.498738  0.498738  1
  I  I8  1  0.274115  0.815002  0.423156  1
  I  I9  1  0.423156  0.274115  0.815002  1
  I  I10  1  0.815002  0.423156  0.274115  1
  I  I11  1  0.727703  0.185436  0.574863  1
  I  I12  1  0.574863  0.727703  0.185436  1
  I  I13  1  0.185436  0.574863  0.727703  1
  I  I14  1  0.035485  0.115433  0.346775  1
  I  I15  1  0.346775  0.035485  0.115433  1
  I  I16  1  0.115433  0.346775  0.035485  1
  I  I17  1  0.965843  0.882094  0.639747  1
  I  I18  1  0.639747  0.965843  0.882094  1
  I  I19  1  0.882094  0.639747  0.965843  1
