# generated using pymatgen
data_Dy6AlFe3Os8
_symmetry_space_group_name_H-M   'P 1'
_cell_length_a   5.28788000
_cell_length_b   5.28585327
_cell_length_c   13.07136025
_cell_angle_alpha   90.63431609
_cell_angle_beta   89.76601710
_cell_angle_gamma   119.17740760
_symmetry_Int_Tables_number   1
_chemical_formula_structural   Dy6AlFe3Os8
_chemical_formula_sum   'Dy6 Al1 Fe3 Os8'
_cell_volume   318.97857390
_cell_formula_units_Z   1
loop_
 _symmetry_equiv_pos_site_id
 _symmetry_equiv_pos_as_xyz
  1  'x, y, z'
loop_
 _atom_site_type_symbol
 _atom_site_label
 _atom_site_symmetry_multiplicity
 _atom_site_fract_x
 _atom_site_fract_y
 _atom_site_fract_z
 _atom_site_occupancy
  Dy  Dy0  1  0.331984  0.666749  0.914079  1
  Dy  Dy1  1  0.994048  0.993068  0.254071  1
  Dy  Dy2  1  0.666315  0.334562  0.584558  1
  Dy  Dy3  1  0.333685  0.665438  0.665442  1
  Dy  Dy4  1  0.005952  0.006932  0.995929  1
  Dy  Dy5  1  0.668016  0.333251  0.335921  1
  Al  Al6  1  0.500000  0.000000  0.125000  1
  Fe  Fe7  1  0.500000  0.500000  0.125000  1
  Fe  Fe8  1  0.169275  0.838209  0.459025  1
  Fe  Fe9  1  0.830725  0.161791  0.790975  1
  Os  Os10  1  0.172434  0.343170  0.455872  1
  Os  Os11  1  0.827566  0.656830  0.794128  1
  Os  Os12  1  0.330057  0.666632  0.288697  1
  Os  Os13  1  0.000000  0.000000  0.625000  1
  Os  Os14  1  0.669943  0.333368  0.961303  1
  Os  Os15  1  0.000000  0.500000  0.125000  1
  Os  Os16  1  0.669970  0.836224  0.459586  1
  Os  Os17  1  0.330030  0.163776  0.790414  1
