# generated using pymatgen
data_Tm2Lu3Tl3Ir
_symmetry_space_group_name_H-M   'P 1'
_cell_length_a   9.19819900
_cell_length_b   9.19819925
_cell_length_c   6.43693300
_cell_angle_alpha   90.00000000
_cell_angle_beta   90.00000000
_cell_angle_gamma   120.00000271
_symmetry_Int_Tables_number   1
_chemical_formula_structural   Tm2Lu3Tl3Ir
_chemical_formula_sum   'Tm4 Lu6 Tl6 Ir2'
_cell_volume   471.64498675
_cell_formula_units_Z   2
loop_
 _symmetry_equiv_pos_site_id
 _symmetry_equiv_pos_as_xyz
  1  'x, y, z'
loop_
 _atom_site_type_symbol
 _atom_site_label
 _atom_site_symmetry_multiplicity
 _atom_site_fract_x
 _atom_site_fract_y
 _atom_site_fract_z
 _atom_site_occupancy
  Tm  Tm0  1  0.333333  0.666667  0.500000  1
  Tm  Tm1  1  0.666667  0.333333  0.500000  1
  Tm  Tm2  1  0.666667  0.333333  0.000000  1
  Tm  Tm3  1  0.333333  0.666667  0.000000  1
  Lu  Lu4  1  0.242429  0.000000  0.750000  1
  Lu  Lu5  1  0.757571  0.000000  0.250000  1
  Lu  Lu6  1  0.000000  0.242429  0.750000  1
  Lu  Lu7  1  0.000000  0.757571  0.250000  1
  Lu  Lu8  1  0.757571  0.757571  0.750000  1
  Lu  Lu9  1  0.242429  0.242429  0.250000  1
  Tl  Tl10  1  0.597877  0.000000  0.750000  1
  Tl  Tl11  1  0.402123  0.000000  0.250000  1
  Tl  Tl12  1  0.000000  0.597877  0.750000  1
  Tl  Tl13  1  0.000000  0.402123  0.250000  1
  Tl  Tl14  1  0.402123  0.402123  0.750000  1
  Tl  Tl15  1  0.597877  0.597877  0.250000  1
  Ir  Ir16  1  0.000000  0.000000  0.500000  1
  Ir  Ir17  1  0.000000  0.000000  0.000000  1
