# generated using pymatgen
data_Gd5Tm7Os4
_symmetry_space_group_name_H-M   'P 1'
_cell_length_a   7.38704909
_cell_length_b   8.95948162
_cell_length_c   6.29262300
_cell_angle_alpha   89.79804585
_cell_angle_beta   89.92641646
_cell_angle_gamma   89.95314678
_symmetry_Int_Tables_number   1
_chemical_formula_structural   Gd5Tm7Os4
_chemical_formula_sum   'Gd5 Tm7 Os4'
_cell_volume   416.46871389
_cell_formula_units_Z   1
loop_
 _symmetry_equiv_pos_site_id
 _symmetry_equiv_pos_as_xyz
  1  'x, y, z'
loop_
 _atom_site_type_symbol
 _atom_site_label
 _atom_site_symmetry_multiplicity
 _atom_site_fract_x
 _atom_site_fract_y
 _atom_site_fract_z
 _atom_site_occupancy
  Gd  Gd0  1  0.038417  0.251050  0.630705  1
  Gd  Gd1  1  0.960706  0.749359  0.371025  1
  Gd  Gd2  1  0.460332  0.749078  0.128477  1
  Gd  Gd3  1  0.538859  0.250632  0.871458  1
  Gd  Gd4  1  0.175611  0.063589  0.165785  1
  Tm  Tm5  1  0.824184  0.935712  0.833517  1
  Tm  Tm6  1  0.327653  0.935844  0.666181  1
  Tm  Tm7  1  0.825230  0.563204  0.834450  1
  Tm  Tm8  1  0.673968  0.062993  0.334640  1
  Tm  Tm9  1  0.173897  0.437956  0.165389  1
  Tm  Tm10  1  0.674251  0.436949  0.334056  1
  Tm  Tm11  1  0.327079  0.562965  0.665596  1
  Os  Os12  1  0.382953  0.251535  0.459239  1
  Os  Os13  1  0.618817  0.750637  0.542128  1
  Os  Os14  1  0.117941  0.747234  0.954557  1
  Os  Os15  1  0.880103  0.251262  0.042798  1
