# generated using pymatgen
data_LaAg2(SO4)4
_symmetry_space_group_name_H-M   'P 1'
_cell_length_a   6.51735058
_cell_length_b   6.51734917
_cell_length_c   8.94282448
_cell_angle_alpha   76.14775432
_cell_angle_beta   76.14775793
_cell_angle_gamma   89.21466065
_symmetry_Int_Tables_number   1
_chemical_formula_structural   LaAg2(SO4)4
_chemical_formula_sum   'La1 Ag2 S4 O16'
_cell_volume   357.69683407
_cell_formula_units_Z   1
loop_
 _symmetry_equiv_pos_site_id
 _symmetry_equiv_pos_as_xyz
  1  'x, y, z'
loop_
 _atom_site_type_symbol
 _atom_site_label
 _atom_site_symmetry_multiplicity
 _atom_site_fract_x
 _atom_site_fract_y
 _atom_site_fract_z
 _atom_site_occupancy
  La  La0  1  0.000000  0.000000  0.000000  1
  Ag  Ag1  1  0.000000  0.000000  0.500000  1
  Ag  Ag2  1  0.500000  0.500000  0.500000  1
  S  S3  1  0.082690  0.580512  0.739309  1
  S  S4  1  0.580512  0.082690  0.739309  1
  S  S5  1  0.917310  0.419488  0.260691  1
  S  S6  1  0.419488  0.917310  0.260691  1
  O  O7  1  0.321821  0.622872  0.679319  1
  O  O8  1  0.622872  0.321821  0.679319  1
  O  O9  1  0.678179  0.377128  0.320681  1
  O  O10  1  0.377128  0.678179  0.320681  1
  O  O11  1  0.022475  0.699785  0.862597  1
  O  O12  1  0.699785  0.022475  0.862597  1
  O  O13  1  0.977525  0.300215  0.137403  1
  O  O14  1  0.300215  0.977525  0.137403  1
  O  O15  1  0.979042  0.660263  0.605930  1
  O  O16  1  0.660263  0.979042  0.605930  1
  O  O17  1  0.020958  0.339737  0.394070  1
  O  O18  1  0.339737  0.020958  0.394070  1
  O  O19  1  0.032062  0.352015  0.799917  1
  O  O20  1  0.352015  0.032062  0.799917  1
  O  O21  1  0.967938  0.647985  0.200083  1
  O  O22  1  0.647985  0.967938  0.200083  1
