# generated using pymatgen
data_LaPr5NpO12
_symmetry_space_group_name_H-M   'P 1'
_cell_length_a   6.86744216
_cell_length_b   6.87660591
_cell_length_c   6.87704650
_cell_angle_alpha   98.80571689
_cell_angle_beta   98.59795667
_cell_angle_gamma   98.60006749
_symmetry_Int_Tables_number   1
_chemical_formula_structural   LaPr5NpO12
_chemical_formula_sum   'La1 Pr5 Np1 O12'
_cell_volume   312.35186758
_cell_formula_units_Z   1
loop_
 _symmetry_equiv_pos_site_id
 _symmetry_equiv_pos_as_xyz
  1  'x, y, z'
loop_
 _atom_site_type_symbol
 _atom_site_label
 _atom_site_symmetry_multiplicity
 _atom_site_fract_x
 _atom_site_fract_y
 _atom_site_fract_z
 _atom_site_occupancy
  La  La0  1  0.145376  0.313348  0.607013  1
  Pr  Pr1  1  0.313869  0.611216  0.144774  1
  Pr  Pr2  1  0.609836  0.144746  0.312487  1
  Pr  Pr3  1  0.390343  0.855284  0.687000  1
  Pr  Pr4  1  0.687336  0.389881  0.855647  1
  Pr  Pr5  1  0.854577  0.687053  0.389155  1
  Np  Np6  1  0.999293  0.999002  0.999849  1
  O  O7  1  0.437905  0.178750  0.592246  1
  O  O8  1  0.930166  0.702638  0.041754  1
  O  O9  1  0.177904  0.593841  0.436639  1
  O  O10  1  0.823309  0.409453  0.562834  1
  O  O11  1  0.562792  0.822905  0.408515  1
  O  O12  1  0.591056  0.436724  0.177778  1
  O  O13  1  0.410713  0.564508  0.822644  1
  O  O14  1  0.954074  0.066921  0.295603  1
  O  O15  1  0.042437  0.928590  0.704099  1
  O  O16  1  0.702780  0.042418  0.929584  1
  O  O17  1  0.069574  0.295094  0.961689  1
  O  O18  1  0.296659  0.957626  0.070690  1
