# generated using pymatgen
data_La8Al4InGa3Rh8
_symmetry_space_group_name_H-M   'P 1'
_cell_length_a   4.29038600
_cell_length_b   7.37551605
_cell_length_c   16.27406950
_cell_angle_alpha   90.69763096
_cell_angle_beta   90.00000000
_cell_angle_gamma   90.00000000
_symmetry_Int_Tables_number   1
_chemical_formula_structural   La8Al4InGa3Rh8
_chemical_formula_sum   'La8 Al4 In1 Ga3 Rh8'
_cell_volume   514.93540346
_cell_formula_units_Z   1
loop_
 _symmetry_equiv_pos_site_id
 _symmetry_equiv_pos_as_xyz
  1  'x, y, z'
loop_
 _atom_site_type_symbol
 _atom_site_label
 _atom_site_symmetry_multiplicity
 _atom_site_fract_x
 _atom_site_fract_y
 _atom_site_fract_z
 _atom_site_occupancy
  La  La0  1  0.250000  0.520034  0.778323  1
  La  La1  1  0.750000  0.485352  0.220798  1
  La  La2  1  0.750000  0.972298  0.286303  1
  La  La3  1  0.250000  0.020001  0.719674  1
  La  La4  1  0.250000  0.655880  0.560514  1
  La  La5  1  0.750000  0.343700  0.441191  1
  La  La6  1  0.750000  0.836722  0.057855  1
  La  La7  1  0.250000  0.157526  0.937944  1
  Al  Al8  1  0.250000  0.508490  0.057795  1
  Al  Al9  1  0.750000  0.498111  0.935319  1
  Al  Al10  1  0.750000  0.996436  0.561075  1
  Al  Al11  1  0.250000  0.004430  0.442580  1
  In  In12  1  0.250000  0.149370  0.151754  1
  Ga  Ga13  1  0.250000  0.648601  0.352954  1
  Ga  Ga14  1  0.750000  0.347881  0.648986  1
  Ga  Ga15  1  0.750000  0.849540  0.849473  1
  Rh  Rh16  1  0.250000  0.757445  0.178582  1
  Rh  Rh17  1  0.750000  0.232614  0.821535  1
  Rh  Rh18  1  0.750000  0.736726  0.676190  1
  Rh  Rh19  1  0.250000  0.265667  0.327712  1
  Rh  Rh20  1  0.250000  0.714102  0.926193  1
  Rh  Rh21  1  0.750000  0.299480  0.064219  1
  Rh  Rh22  1  0.750000  0.785821  0.430250  1
  Rh  Rh23  1  0.250000  0.213771  0.572778  1
