# generated using pymatgen
data_LiDy16In3Ir3Rh
_symmetry_space_group_name_H-M   'P 1'
_cell_length_a   9.65313896
_cell_length_b   9.65313932
_cell_length_c   9.65313989
_cell_angle_alpha   59.96170462
_cell_angle_beta   59.96170662
_cell_angle_gamma   59.96169885
_symmetry_Int_Tables_number   1
_chemical_formula_structural   LiDy16In3Ir3Rh
_chemical_formula_sum   'Li1 Dy16 In3 Ir3 Rh1'
_cell_volume   635.49683242
_cell_formula_units_Z   1
loop_
 _symmetry_equiv_pos_site_id
 _symmetry_equiv_pos_as_xyz
  1  'x, y, z'
loop_
 _atom_site_type_symbol
 _atom_site_label
 _atom_site_symmetry_multiplicity
 _atom_site_fract_x
 _atom_site_fract_y
 _atom_site_fract_z
 _atom_site_occupancy
  Li  Li0  1  0.821499  0.821499  0.821499  1
  Dy  Dy1  1  0.599465  0.599465  0.599465  1
  Dy  Dy2  1  0.598793  0.598793  0.204713  1
  Dy  Dy3  1  0.598793  0.204713  0.598793  1
  Dy  Dy4  1  0.204713  0.598793  0.598793  1
  Dy  Dy5  1  0.058319  0.441671  0.441671  1
  Dy  Dy6  1  0.437305  0.062036  0.062036  1
  Dy  Dy7  1  0.441671  0.058319  0.441671  1
  Dy  Dy8  1  0.062036  0.437305  0.062036  1
  Dy  Dy9  1  0.441671  0.441671  0.058319  1
  Dy  Dy10  1  0.062036  0.062036  0.437305  1
  Dy  Dy11  1  0.188996  0.811444  0.811444  1
  Dy  Dy12  1  0.811415  0.188868  0.188868  1
  Dy  Dy13  1  0.811444  0.188996  0.811444  1
  Dy  Dy14  1  0.188868  0.811415  0.188868  1
  Dy  Dy15  1  0.811444  0.811444  0.188996  1
  Dy  Dy16  1  0.188868  0.188868  0.811415  1
  In  In17  1  0.832937  0.832937  0.504214  1
  In  In18  1  0.832937  0.504214  0.832937  1
  In  In19  1  0.504214  0.832937  0.832937  1
  Ir  Ir20  1  0.392315  0.392315  0.825794  1
  Ir  Ir21  1  0.392315  0.825794  0.392315  1
  Ir  Ir22  1  0.825794  0.392315  0.392315  1
  Rh  Rh23  1  0.392151  0.392151  0.392151  1
