# generated using pymatgen
data_Sr3Pa7O20
_symmetry_space_group_name_H-M   'P 1'
_cell_length_a   10.33590629
_cell_length_b   10.33590737
_cell_length_c   6.66916768
_cell_angle_alpha   83.85552181
_cell_angle_beta   83.85552139
_cell_angle_gamma   142.09731774
_symmetry_Int_Tables_number   1
_chemical_formula_structural   Sr3Pa7O20
_chemical_formula_sum   'Sr3 Pa7 O20'
_cell_volume   413.23372262
_cell_formula_units_Z   1
loop_
 _symmetry_equiv_pos_site_id
 _symmetry_equiv_pos_as_xyz
  1  'x, y, z'
loop_
 _atom_site_type_symbol
 _atom_site_label
 _atom_site_symmetry_multiplicity
 _atom_site_fract_x
 _atom_site_fract_y
 _atom_site_fract_z
 _atom_site_occupancy
  Sr  Sr0  1  0.500000  0.500000  0.000000  1
  Sr  Sr1  1  0.201463  0.798537  0.500000  1
  Sr  Sr2  1  0.798537  0.201463  0.500000  1
  Pa  Pa3  1  0.899885  0.100115  0.000000  1
  Pa  Pa4  1  0.399888  0.600112  0.500000  1
  Pa  Pa5  1  0.100115  0.899885  0.000000  1
  Pa  Pa6  1  0.000000  0.000000  0.500000  1
  Pa  Pa7  1  0.698519  0.301481  0.000000  1
  Pa  Pa8  1  0.600112  0.399888  0.500000  1
  Pa  Pa9  1  0.301481  0.698519  0.000000  1
  O  O10  1  0.257797  0.461515  0.874083  1
  O  O11  1  0.896989  0.896989  0.864671  1
  O  O12  1  0.776325  0.966348  0.368663  1
  O  O13  1  0.033652  0.223675  0.631337  1
  O  O14  1  0.461515  0.257797  0.874083  1
  O  O15  1  0.366098  0.366098  0.397123  1
  O  O16  1  0.633902  0.633902  0.602877  1
  O  O17  1  0.064589  0.666435  0.901956  1
  O  O18  1  0.538485  0.742203  0.125917  1
  O  O19  1  0.966348  0.776325  0.368663  1
  O  O20  1  0.223675  0.033652  0.631337  1
  O  O21  1  0.666435  0.064589  0.901956  1
  O  O22  1  0.103011  0.103011  0.135329  1
  O  O23  1  0.586000  0.203894  0.350367  1
  O  O24  1  0.796106  0.414000  0.649633  1
  O  O25  1  0.414000  0.796106  0.649633  1
  O  O26  1  0.742203  0.538485  0.125917  1
  O  O27  1  0.203894  0.586000  0.350367  1
  O  O28  1  0.333565  0.935411  0.098044  1
  O  O29  1  0.935411  0.333565  0.098044  1
