# generated using pymatgen
data_Th4Ru(WN4)3
_symmetry_space_group_name_H-M   'P 1'
_cell_length_a   5.59870841
_cell_length_b   5.68061687
_cell_length_c   7.94822260
_cell_angle_alpha   89.82036600
_cell_angle_beta   90.18829540
_cell_angle_gamma   89.93534055
_symmetry_Int_Tables_number   1
_chemical_formula_structural   Th4Ru(WN4)3
_chemical_formula_sum   'Th4 Ru1 W3 N12'
_cell_volume   252.78343390
_cell_formula_units_Z   1
loop_
 _symmetry_equiv_pos_site_id
 _symmetry_equiv_pos_as_xyz
  1  'x, y, z'
loop_
 _atom_site_type_symbol
 _atom_site_label
 _atom_site_symmetry_multiplicity
 _atom_site_fract_x
 _atom_site_fract_y
 _atom_site_fract_z
 _atom_site_occupancy
  Th  Th0  1  0.502244  0.540866  0.242868  1
  Th  Th1  1  0.994751  0.050086  0.242769  1
  Th  Th2  1  0.497756  0.459134  0.757132  1
  Th  Th3  1  0.005249  0.949914  0.757231  1
  Ru  Ru4  1  0.000000  0.500000  0.000000  1
  W  W5  1  0.500000  0.000000  0.500000  1
  W  W6  1  0.000000  0.500000  0.500000  1
  W  W7  1  0.500000  0.000000  0.000000  1
  N  N8  1  0.422979  0.982854  0.251953  1
  N  N9  1  0.073220  0.483333  0.255968  1
  N  N10  1  0.577021  0.017146  0.748047  1
  N  N11  1  0.926780  0.516667  0.744032  1
  N  N12  1  0.794686  0.803041  0.039020  1
  N  N13  1  0.700016  0.296364  0.460366  1
  N  N14  1  0.203576  0.200584  0.540022  1
  N  N15  1  0.305183  0.706042  0.961059  1
  N  N16  1  0.205314  0.196959  0.960980  1
  N  N17  1  0.299984  0.703636  0.539634  1
  N  N18  1  0.796424  0.799416  0.459978  1
  N  N19  1  0.694817  0.293958  0.038941  1
