# generated using pymatgen
data_Dy12Tc3As
_symmetry_space_group_name_H-M   'P 1'
_cell_length_a   6.31115966
_cell_length_b   7.46436672
_cell_length_c   9.17786500
_cell_angle_alpha   90.00000000
_cell_angle_beta   90.00000000
_cell_angle_gamma   89.73793633
_symmetry_Int_Tables_number   1
_chemical_formula_structural   Dy12Tc3As
_chemical_formula_sum   'Dy12 Tc3 As1'
_cell_volume   432.35377665
_cell_formula_units_Z   1
loop_
 _symmetry_equiv_pos_site_id
 _symmetry_equiv_pos_as_xyz
  1  'x, y, z'
loop_
 _atom_site_type_symbol
 _atom_site_label
 _atom_site_symmetry_multiplicity
 _atom_site_fract_x
 _atom_site_fract_y
 _atom_site_fract_z
 _atom_site_occupancy
  Dy  Dy0  1  0.331939  0.676363  0.064855  1
  Dy  Dy1  1  0.165320  0.179874  0.434835  1
  Dy  Dy2  1  0.659368  0.310412  0.559564  1
  Dy  Dy3  1  0.848940  0.832791  0.940389  1
  Dy  Dy4  1  0.659368  0.310412  0.940436  1
  Dy  Dy5  1  0.848940  0.832791  0.559611  1
  Dy  Dy6  1  0.331939  0.676363  0.435145  1
  Dy  Dy7  1  0.165320  0.179874  0.065165  1
  Dy  Dy8  1  0.866743  0.540691  0.250000  1
  Dy  Dy9  1  0.622338  0.034044  0.250000  1
  Dy  Dy10  1  0.123972  0.452865  0.750000  1
  Dy  Dy11  1  0.367027  0.973932  0.750000  1
  Tc  Tc12  1  0.036591  0.882432  0.250000  1
  Tc  Tc13  1  0.464141  0.384256  0.250000  1
  Tc  Tc14  1  0.947726  0.116231  0.750000  1
  As  As15  1  0.560328  0.616667  0.750000  1
