# generated using pymatgen
data_Nd2Si(GeRh2)3
_symmetry_space_group_name_H-M   'P 1'
_cell_length_a   6.78616185
_cell_length_b   6.78700738
_cell_length_c   6.78616212
_cell_angle_alpha   130.54279812
_cell_angle_beta   113.57990063
_cell_angle_gamma   87.12724549
_symmetry_Int_Tables_number   1
_chemical_formula_structural   Nd2Si(GeRh2)3
_chemical_formula_sum   'Nd2 Si1 Ge3 Rh6'
_cell_volume   207.56333946
_cell_formula_units_Z   1
loop_
 _symmetry_equiv_pos_site_id
 _symmetry_equiv_pos_as_xyz
  1  'x, y, z'
loop_
 _atom_site_type_symbol
 _atom_site_label
 _atom_site_symmetry_multiplicity
 _atom_site_fract_x
 _atom_site_fract_y
 _atom_site_fract_z
 _atom_site_occupancy
  Nd  Nd0  1  0.750924  0.035980  0.285056  1
  Nd  Nd1  1  0.249225  0.957291  0.708065  1
  Si  Si2  1  0.921746  0.716406  0.794661  1
  Ge  Ge3  1  0.574980  0.371582  0.796602  1
  Ge  Ge4  1  0.416121  0.620828  0.204706  1
  Ge  Ge5  1  0.086093  0.287341  0.201248  1
  Rh  Rh6  1  0.212724  0.502097  0.716110  1
  Rh  Rh7  1  0.725230  0.997451  0.723578  1
  Rh  Rh8  1  0.785988  0.502097  0.289373  1
  Rh  Rh9  1  0.273873  0.997451  0.272221  1
  Rh  Rh10  1  0.513630  0.505738  0.516272  1
  Rh  Rh11  1  0.989466  0.505738  0.992107  1
