# generated using pymatgen
data_TbLu11(Si3Ir)4
_symmetry_space_group_name_H-M   'P 1'
_cell_length_a   4.18397000
_cell_length_b   10.47367291
_cell_length_c   12.07672435
_cell_angle_alpha   89.91461848
_cell_angle_beta   90.00000000
_cell_angle_gamma   90.00000000
_symmetry_Int_Tables_number   1
_chemical_formula_structural   TbLu11(Si3Ir)4
_chemical_formula_sum   'Tb1 Lu11 Si12 Ir4'
_cell_volume   529.21998995
_cell_formula_units_Z   1
loop_
 _symmetry_equiv_pos_site_id
 _symmetry_equiv_pos_as_xyz
  1  'x, y, z'
loop_
 _atom_site_type_symbol
 _atom_site_label
 _atom_site_symmetry_multiplicity
 _atom_site_fract_x
 _atom_site_fract_y
 _atom_site_fract_z
 _atom_site_occupancy
  Tb  Tb0  1  0.250000  0.878787  0.019472  1
  Lu  Lu1  1  0.250000  0.620743  0.519972  1
  Lu  Lu2  1  0.750000  0.121709  0.980204  1
  Lu  Lu3  1  0.750000  0.379286  0.480295  1
  Lu  Lu4  1  0.250000  0.919364  0.602677  1
  Lu  Lu5  1  0.250000  0.579256  0.103675  1
  Lu  Lu6  1  0.750000  0.080829  0.397390  1
  Lu  Lu7  1  0.750000  0.419367  0.896940  1
  Lu  Lu8  1  0.250000  0.658667  0.799348  1
  Lu  Lu9  1  0.250000  0.840706  0.301186  1
  Lu  Lu10  1  0.750000  0.341092  0.200045  1
  Lu  Lu11  1  0.750000  0.159555  0.699444  1
  Si  Si12  1  0.250000  0.013392  0.818863  1
  Si  Si13  1  0.250000  0.487703  0.321782  1
  Si  Si14  1  0.750000  0.988733  0.179730  1
  Si  Si15  1  0.750000  0.512127  0.678651  1
  Si  Si16  1  0.250000  0.248103  0.840738  1
  Si  Si17  1  0.250000  0.252945  0.341965  1
  Si  Si18  1  0.750000  0.751086  0.160072  1
  Si  Si19  1  0.750000  0.747556  0.658067  1
  Si  Si20  1  0.250000  0.197639  0.544263  1
  Si  Si21  1  0.250000  0.302329  0.044475  1
  Si  Si22  1  0.750000  0.802420  0.455714  1
  Si  Si23  1  0.750000  0.694646  0.955240  1
  Ir  Ir24  1  0.250000  0.390403  0.678333  1
  Ir  Ir25  1  0.250000  0.111400  0.180575  1
  Ir  Ir26  1  0.750000  0.609533  0.322228  1
  Ir  Ir27  1  0.750000  0.890625  0.818656  1
