# generated using pymatgen
data_Y9PaPt18
_symmetry_space_group_name_H-M   'P 1'
_cell_length_a   9.83291529
_cell_length_b   9.83291529
_cell_length_c   5.79232700
_cell_angle_alpha   90.00000000
_cell_angle_beta   90.00000000
_cell_angle_gamma   90.07826743
_symmetry_Int_Tables_number   1
_chemical_formula_structural   Y9PaPt18
_chemical_formula_sum   'Y9 Pa1 Pt18'
_cell_volume   560.03769848
_cell_formula_units_Z   1
loop_
 _symmetry_equiv_pos_site_id
 _symmetry_equiv_pos_as_xyz
  1  'x, y, z'
loop_
 _atom_site_type_symbol
 _atom_site_label
 _atom_site_symmetry_multiplicity
 _atom_site_fract_x
 _atom_site_fract_y
 _atom_site_fract_z
 _atom_site_occupancy
  Y  Y0  1  0.452781  0.810492  0.000000  1
  Y  Y1  1  0.547219  0.189508  0.000000  1
  Y  Y2  1  0.189508  0.547219  0.000000  1
  Y  Y3  1  0.810492  0.452781  0.000000  1
  Y  Y4  1  0.306716  0.046585  0.500000  1
  Y  Y5  1  0.693284  0.953415  0.500000  1
  Y  Y6  1  0.953415  0.693284  0.500000  1
  Y  Y7  1  0.046585  0.306716  0.500000  1
  Y  Y8  1  0.000000  0.000000  0.000000  1
  Pa  Pa9  1  0.500000  0.500000  0.500000  1
  Pt  Pt10  1  0.192387  0.807613  0.249001  1
  Pt  Pt11  1  0.807613  0.192387  0.750999  1
  Pt  Pt12  1  0.807613  0.192387  0.249001  1
  Pt  Pt13  1  0.192387  0.807613  0.750999  1
  Pt  Pt14  1  0.439700  0.775001  0.500000  1
  Pt  Pt15  1  0.560300  0.224999  0.500000  1
  Pt  Pt16  1  0.224999  0.560300  0.500000  1
  Pt  Pt17  1  0.775001  0.439700  0.500000  1
  Pt  Pt18  1  0.308578  0.308578  0.250105  1
  Pt  Pt19  1  0.691422  0.691422  0.749895  1
  Pt  Pt20  1  0.691422  0.691422  0.250105  1
  Pt  Pt21  1  0.308578  0.308578  0.749895  1
  Pt  Pt22  1  0.281281  0.059658  0.000000  1
  Pt  Pt23  1  0.718719  0.940342  0.000000  1
  Pt  Pt24  1  0.940342  0.718719  0.000000  1
  Pt  Pt25  1  0.059658  0.281281  0.000000  1
  Pt  Pt26  1  0.000000  0.000000  0.500000  1
  Pt  Pt27  1  0.500000  0.500000  0.000000  1
