# generated using pymatgen
data_Tb4Al4IrPd2Pt
_symmetry_space_group_name_H-M   'P 1'
_cell_length_a   4.43319500
_cell_length_b   6.86642140
_cell_length_c   7.83363200
_cell_angle_alpha   90.21293386
_cell_angle_beta   90.00000000
_cell_angle_gamma   90.00000000
_symmetry_Int_Tables_number   1
_chemical_formula_structural   Tb4Al4IrPd2Pt
_chemical_formula_sum   'Tb4 Al4 Ir1 Pd2 Pt1'
_cell_volume   238.45556075
_cell_formula_units_Z   1
loop_
 _symmetry_equiv_pos_site_id
 _symmetry_equiv_pos_as_xyz
  1  'x, y, z'
loop_
 _atom_site_type_symbol
 _atom_site_label
 _atom_site_symmetry_multiplicity
 _atom_site_fract_x
 _atom_site_fract_y
 _atom_site_fract_z
 _atom_site_occupancy
  Tb  Tb0  1  0.250000  0.534742  0.818817  1
  Tb  Tb1  1  0.750000  0.462795  0.183016  1
  Tb  Tb2  1  0.250000  0.033267  0.677778  1
  Tb  Tb3  1  0.750000  0.974188  0.320628  1
  Al  Al4  1  0.250000  0.637859  0.438317  1
  Al  Al5  1  0.750000  0.357867  0.559409  1
  Al  Al6  1  0.250000  0.145029  0.063969  1
  Al  Al7  1  0.750000  0.855595  0.938417  1
  Ir  Ir8  1  0.250000  0.268493  0.381111  1
  Pd  Pd9  1  0.750000  0.227813  0.880873  1
  Pd  Pd10  1  0.250000  0.772503  0.118135  1
  Pt  Pt11  1  0.750000  0.729847  0.619530  1
