# generated using pymatgen
data_Pr2NdDy(Sn5Rh3)2
_symmetry_space_group_name_H-M   'P 1'
_cell_length_a   13.60734006
_cell_length_b   13.60734041
_cell_length_c   7.25551088
_cell_angle_alpha   89.88354617
_cell_angle_beta   90.11645345
_cell_angle_gamma   160.82861839
_symmetry_Int_Tables_number   1
_chemical_formula_structural   Pr2NdDy(Sn5Rh3)2
_chemical_formula_sum   'Pr2 Nd1 Dy1 Sn10 Rh6'
_cell_volume   441.17406302
_cell_formula_units_Z   1
loop_
 _symmetry_equiv_pos_site_id
 _symmetry_equiv_pos_as_xyz
  1  'x, y, z'
loop_
 _atom_site_type_symbol
 _atom_site_label
 _atom_site_symmetry_multiplicity
 _atom_site_fract_x
 _atom_site_fract_y
 _atom_site_fract_z
 _atom_site_occupancy
  Pr  Pr0  1  0.172001  0.827999  0.752891  1
  Pr  Pr1  1  0.827933  0.172067  0.253172  1
  Nd  Nd2  1  0.476508  0.523492  0.739394  1
  Dy  Dy3  1  0.524338  0.475662  0.239315  1
  Sn  Sn4  1  0.879118  0.120882  0.733140  1
  Sn  Sn5  1  0.120322  0.879678  0.233589  1
  Sn  Sn6  1  0.703926  0.296074  0.047947  1
  Sn  Sn7  1  0.295649  0.704351  0.548041  1
  Sn  Sn8  1  0.595718  0.404282  0.610662  1
  Sn  Sn9  1  0.404799  0.595201  0.112419  1
  Sn  Sn10  1  0.953049  0.046951  0.399528  1
  Sn  Sn11  1  0.047805  0.952195  0.903018  1
  Sn  Sn12  1  0.290122  0.709878  0.974345  1
  Sn  Sn13  1  0.709708  0.290292  0.474030  1
  Rh  Rh14  1  0.050750  0.949250  0.515709  1
  Rh  Rh15  1  0.949462  0.050538  0.020656  1
  Rh  Rh16  1  0.777447  0.222553  0.763124  1
  Rh  Rh17  1  0.222304  0.777696  0.262982  1
  Rh  Rh18  1  0.395076  0.604924  0.484606  1
  Rh  Rh19  1  0.603965  0.396035  0.987433  1
