# generated using pymatgen
data_Sm4Mn4FeCo3O20
_symmetry_space_group_name_H-M   'P 1'
_cell_length_a   5.76606700
_cell_length_b   7.46158438
_cell_length_c   8.62753710
_cell_angle_alpha   89.82644667
_cell_angle_beta   90.00000000
_cell_angle_gamma   90.00000000
_symmetry_Int_Tables_number   1
_chemical_formula_structural   Sm4Mn4FeCo3O20
_chemical_formula_sum   'Sm4 Mn4 Fe1 Co3 O20'
_cell_volume   371.18941426
_cell_formula_units_Z   1
loop_
 _symmetry_equiv_pos_site_id
 _symmetry_equiv_pos_as_xyz
  1  'x, y, z'
loop_
 _atom_site_type_symbol
 _atom_site_label
 _atom_site_symmetry_multiplicity
 _atom_site_fract_x
 _atom_site_fract_y
 _atom_site_fract_z
 _atom_site_occupancy
  Sm  Sm0  1  0.000000  0.365132  0.672492  1
  Sm  Sm1  1  0.000000  0.637048  0.327117  1
  Sm  Sm2  1  0.000000  0.861120  0.828766  1
  Sm  Sm3  1  0.000000  0.141141  0.170148  1
  Mn  Mn4  1  0.256787  0.500517  0.998940  1
  Mn  Mn5  1  0.744945  0.997969  0.500771  1
  Mn  Mn6  1  0.743213  0.500517  0.998940  1
  Mn  Mn7  1  0.255055  0.997969  0.500771  1
  Fe  Fe8  1  0.500000  0.393835  0.355094  1
  Co  Co9  1  0.500000  0.089661  0.851384  1
  Co  Co10  1  0.500000  0.911616  0.148270  1
  Co  Co11  1  0.500000  0.591286  0.650131  1
  O  O12  1  0.248276  0.899564  0.291142  1
  O  O13  1  0.247560  0.101104  0.708531  1
  O  O14  1  0.756694  0.398755  0.206974  1
  O  O15  1  0.752670  0.603312  0.791409  1
  O  O16  1  0.752440  0.101104  0.708531  1
  O  O17  1  0.751724  0.899564  0.291142  1
  O  O18  1  0.247330  0.603312  0.791409  1
  O  O19  1  0.243306  0.398755  0.206974  1
  O  O20  1  0.500000  0.344289  0.933660  1
  O  O21  1  0.500000  0.653288  0.065462  1
  O  O22  1  0.500000  0.844995  0.566296  1
  O  O23  1  0.500000  0.152600  0.433481  1
  O  O24  1  0.280023  0.999727  0.999973  1
  O  O25  1  0.724838  0.505311  0.502783  1
  O  O26  1  0.719977  0.999727  0.999973  1
  O  O27  1  0.275162  0.505311  0.502783  1
  O  O28  1  0.000000  0.160281  0.446611  1
  O  O29  1  0.000000  0.839923  0.553409  1
  O  O30  1  0.000000  0.661517  0.051983  1
  O  O31  1  0.000000  0.339751  0.944649  1
