# generated using pymatgen
data_Er8ZnIn3
_symmetry_space_group_name_H-M   'P 1'
_cell_length_a   10.57217900
_cell_length_b   10.57217874
_cell_length_c   6.74624700
_cell_angle_alpha   90.00000000
_cell_angle_beta   90.00000000
_cell_angle_gamma   120.00000394
_symmetry_Int_Tables_number   1
_chemical_formula_structural   Er8ZnIn3
_chemical_formula_sum   'Er16 Zn2 In6'
_cell_volume   653.01304500
_cell_formula_units_Z   2
loop_
 _symmetry_equiv_pos_site_id
 _symmetry_equiv_pos_as_xyz
  1  'x, y, z'
loop_
 _atom_site_type_symbol
 _atom_site_label
 _atom_site_symmetry_multiplicity
 _atom_site_fract_x
 _atom_site_fract_y
 _atom_site_fract_z
 _atom_site_occupancy
  Er  Er0  1  0.522208  0.044414  0.518372  1
  Er  Er1  1  0.955586  0.477792  0.518372  1
  Er  Er2  1  0.522208  0.477792  0.518372  1
  Er  Er3  1  0.477792  0.955586  0.018372  1
  Er  Er4  1  0.044414  0.522208  0.018372  1
  Er  Er5  1  0.477792  0.522208  0.018372  1
  Er  Er6  1  0.172909  0.345819  0.731709  1
  Er  Er7  1  0.654181  0.827091  0.731709  1
  Er  Er8  1  0.172909  0.827091  0.731709  1
  Er  Er9  1  0.827091  0.654181  0.231709  1
  Er  Er10  1  0.345819  0.172909  0.231709  1
  Er  Er11  1  0.827091  0.172909  0.231709  1
  Er  Er12  1  0.666667  0.333333  0.872030  1
  Er  Er13  1  0.333333  0.666667  0.372030  1
  Er  Er14  1  0.000000  0.000000  0.497925  1
  Er  Er15  1  0.000000  0.000000  0.997925  1
  Zn  Zn16  1  0.666667  0.333333  0.301635  1
  Zn  Zn17  1  0.333333  0.666667  0.801635  1
  In  In18  1  0.835633  0.671267  0.750089  1
  In  In19  1  0.328733  0.164367  0.750089  1
  In  In20  1  0.835633  0.164367  0.750089  1
  In  In21  1  0.164367  0.328733  0.250089  1
  In  In22  1  0.671267  0.835633  0.250089  1
  In  In23  1  0.164367  0.835633  0.250089  1
