# generated using pymatgen
data_Nd11SmGaSi12Au11
_symmetry_space_group_name_H-M   'P 1'
_cell_length_a   4.35833600
_cell_length_b   7.53375147
_cell_length_c   24.46823500
_cell_angle_alpha   89.93760683
_cell_angle_beta   90.00000000
_cell_angle_gamma   90.00000000
_symmetry_Int_Tables_number   1
_chemical_formula_structural   Nd11SmGaSi12Au11
_chemical_formula_sum   'Nd11 Sm1 Ga1 Si12 Au11'
_cell_volume   803.40472765
_cell_formula_units_Z   1
loop_
 _symmetry_equiv_pos_site_id
 _symmetry_equiv_pos_as_xyz
  1  'x, y, z'
loop_
 _atom_site_type_symbol
 _atom_site_label
 _atom_site_symmetry_multiplicity
 _atom_site_fract_x
 _atom_site_fract_y
 _atom_site_fract_z
 _atom_site_occupancy
  Nd  Nd0  1  0.250000  0.750133  0.333180  1
  Nd  Nd1  1  0.750000  0.247095  0.668030  1
  Nd  Nd2  1  0.750000  0.249149  0.166522  1
  Nd  Nd3  1  0.250000  0.749952  0.833181  1
  Nd  Nd4  1  0.250000  0.751141  0.166679  1
  Nd  Nd5  1  0.750000  0.250009  0.833408  1
  Nd  Nd6  1  0.750000  0.248762  0.333961  1
  Nd  Nd7  1  0.250000  0.753870  0.667883  1
  Nd  Nd8  1  0.250000  0.750788  0.999721  1
  Nd  Nd9  1  0.750000  0.248704  0.999657  1
  Nd  Nd10  1  0.250000  0.755448  0.498511  1
  Sm  Sm11  1  0.750000  0.245923  0.498648  1
  Ga  Ga12  1  0.250000  0.084284  0.587014  1
  Si  Si13  1  0.250000  0.083016  0.079503  1
  Si  Si14  1  0.750000  0.915271  0.918213  1
  Si  Si15  1  0.750000  0.583450  0.420293  1
  Si  Si16  1  0.250000  0.412073  0.579665  1
  Si  Si17  1  0.250000  0.083437  0.249864  1
  Si  Si18  1  0.750000  0.915714  0.751182  1
  Si  Si19  1  0.750000  0.582347  0.251690  1
  Si  Si20  1  0.250000  0.417822  0.750132  1
  Si  Si21  1  0.250000  0.084406  0.418422  1
  Si  Si22  1  0.750000  0.921223  0.580732  1
  Si  Si23  1  0.750000  0.583609  0.081935  1
  Si  Si24  1  0.250000  0.417414  0.918829  1
  Au  Au25  1  0.250000  0.416176  0.250034  1
  Au  Au26  1  0.750000  0.582759  0.748332  1
  Au  Au27  1  0.750000  0.916157  0.250141  1
  Au  Au28  1  0.250000  0.084103  0.749189  1
  Au  Au29  1  0.250000  0.416773  0.417093  1
  Au  Au30  1  0.750000  0.582528  0.583697  1
  Au  Au31  1  0.750000  0.916631  0.085547  1
  Au  Au32  1  0.250000  0.083253  0.914674  1
  Au  Au33  1  0.250000  0.416662  0.084526  1
  Au  Au34  1  0.750000  0.582670  0.914461  1
  Au  Au35  1  0.750000  0.917247  0.415453  1
