# generated using pymatgen
data_Ho9Er(PPb3)2
_symmetry_space_group_name_H-M   'P 1'
_cell_length_a   9.11138800
_cell_length_b   9.11138796
_cell_length_c   6.79257300
_cell_angle_alpha   90.00000000
_cell_angle_beta   90.00000000
_cell_angle_gamma   119.99999289
_symmetry_Int_Tables_number   1
_chemical_formula_structural   Ho9Er(PPb3)2
_chemical_formula_sum   'Ho9 Er1 P2 Pb6'
_cell_volume   488.35322198
_cell_formula_units_Z   1
loop_
 _symmetry_equiv_pos_site_id
 _symmetry_equiv_pos_as_xyz
  1  'x, y, z'
loop_
 _atom_site_type_symbol
 _atom_site_label
 _atom_site_symmetry_multiplicity
 _atom_site_fract_x
 _atom_site_fract_y
 _atom_site_fract_z
 _atom_site_occupancy
  Ho  Ho0  1  0.762593  0.762534  0.249968  1
  Ho  Ho1  1  0.237466  0.000059  0.249968  1
  Ho  Ho2  1  0.999941  0.237407  0.249968  1
  Ho  Ho3  1  0.237466  0.237407  0.750032  1
  Ho  Ho4  1  0.762593  0.000059  0.750032  1
  Ho  Ho5  1  0.999941  0.762534  0.750032  1
  Ho  Ho6  1  0.666667  0.333333  0.500000  1
  Ho  Ho7  1  0.333333  0.666667  0.500000  1
  Ho  Ho8  1  0.333333  0.666667  0.000000  1
  Er  Er9  1  0.666667  0.333333  0.000000  1
  P  P10  1  0.000000  0.000000  0.500000  1
  P  P11  1  0.000000  0.000000  0.000000  1
  Pb  Pb12  1  0.400800  0.400500  0.249784  1
  Pb  Pb13  1  0.599500  0.000299  0.249784  1
  Pb  Pb14  1  0.999701  0.599200  0.249784  1
  Pb  Pb15  1  0.599500  0.599200  0.750216  1
  Pb  Pb16  1  0.400800  0.000299  0.750216  1
  Pb  Pb17  1  0.999701  0.400500  0.750216  1
