# generated using pymatgen
data_Tb3ErPdPt3O14
_symmetry_space_group_name_H-M   'P 1'
_cell_length_a   7.26719485
_cell_length_b   7.26719688
_cell_length_c   7.28103705
_cell_angle_alpha   60.06286996
_cell_angle_beta   60.06286891
_cell_angle_gamma   60.00000865
_symmetry_Int_Tables_number   1
_chemical_formula_structural   Tb3ErPdPt3O14
_chemical_formula_sum   'Tb3 Er1 Pd1 Pt3 O14'
_cell_volume   272.15984351
_cell_formula_units_Z   1
loop_
 _symmetry_equiv_pos_site_id
 _symmetry_equiv_pos_as_xyz
  1  'x, y, z'
loop_
 _atom_site_type_symbol
 _atom_site_label
 _atom_site_symmetry_multiplicity
 _atom_site_fract_x
 _atom_site_fract_y
 _atom_site_fract_z
 _atom_site_occupancy
  Tb  Tb0  1  0.625000  0.625000  0.625000  1
  Tb  Tb1  1  0.625000  0.125000  0.625000  1
  Tb  Tb2  1  0.125000  0.625000  0.625000  1
  Er  Er3  1  0.625000  0.625000  0.125000  1
  Pd  Pd4  1  0.125000  0.125000  0.625000  1
  Pt  Pt5  1  0.625000  0.125000  0.125000  1
  Pt  Pt6  1  0.125000  0.125000  0.125000  1
  Pt  Pt7  1  0.125000  0.625000  0.125000  1
  O  O8  1  0.034667  0.466698  0.463969  1
  O  O9  1  0.783874  0.783874  0.213745  1
  O  O10  1  0.783874  0.218506  0.213745  1
  O  O11  1  0.748337  0.748337  0.754989  1
  O  O12  1  0.031494  0.466126  0.036255  1
  O  O13  1  0.466698  0.034667  0.463969  1
  O  O14  1  0.034667  0.034667  0.463969  1
  O  O15  1  0.501663  0.501663  0.495011  1
  O  O16  1  0.215333  0.215333  0.786031  1
  O  O17  1  0.218506  0.783874  0.213745  1
  O  O18  1  0.783302  0.215333  0.786031  1
  O  O19  1  0.466126  0.031494  0.036255  1
  O  O20  1  0.466126  0.466126  0.036255  1
  O  O21  1  0.215333  0.783302  0.786031  1
