# generated using pymatgen
data_NiI9
_symmetry_space_group_name_H-M   'P 1'
_cell_length_a   9.86118379
_cell_length_b   9.86118232
_cell_length_c   9.86118179
_cell_angle_alpha   96.12619472
_cell_angle_beta   96.12620262
_cell_angle_gamma   96.12619759
_symmetry_Int_Tables_number   1
_chemical_formula_structural   NiI9
_chemical_formula_sum   'Ni2 I18'
_cell_volume   941.21946037
_cell_formula_units_Z   2
loop_
 _symmetry_equiv_pos_site_id
 _symmetry_equiv_pos_as_xyz
  1  'x, y, z'
loop_
 _atom_site_type_symbol
 _atom_site_label
 _atom_site_symmetry_multiplicity
 _atom_site_fract_x
 _atom_site_fract_y
 _atom_site_fract_z
 _atom_site_occupancy
  Ni  Ni0  1  0.000000  0.000000  0.000000  1
  Ni  Ni1  1  0.500000  0.500000  0.500000  1
  I  I2  1  0.271090  0.018741  0.031934  1
  I  I3  1  0.031934  0.271090  0.018741  1
  I  I4  1  0.018741  0.031934  0.271090  1
  I  I5  1  0.728910  0.981259  0.968066  1
  I  I6  1  0.968066  0.728910  0.981259  1
  I  I7  1  0.981259  0.968066  0.728910  1
  I  I8  1  0.626782  0.228836  0.105518  1
  I  I9  1  0.105518  0.626782  0.228836  1
  I  I10  1  0.228836  0.105518  0.626782  1
  I  I11  1  0.373218  0.771164  0.894482  1
  I  I12  1  0.894482  0.373218  0.771164  1
  I  I13  1  0.771164  0.894482  0.373218  1
  I  I14  1  0.471299  0.223081  0.516610  1
  I  I15  1  0.516610  0.471299  0.223081  1
  I  I16  1  0.223081  0.516610  0.471299  1
  I  I17  1  0.528701  0.776919  0.483390  1
  I  I18  1  0.483390  0.528701  0.776919  1
  I  I19  1  0.776919  0.483390  0.528701  1
