# generated using pymatgen
data_La2Y3(SnPb)2
_symmetry_space_group_name_H-M   'P 1'
_cell_length_a   8.31911000
_cell_length_b   8.43539400
_cell_length_c   15.93903000
_cell_angle_alpha   90.00000000
_cell_angle_beta   90.00000000
_cell_angle_gamma   90.00000000
_symmetry_Int_Tables_number   1
_chemical_formula_structural   La2Y3(SnPb)2
_chemical_formula_sum   'La8 Y12 Sn8 Pb8'
_cell_volume   1118.52096131
_cell_formula_units_Z   4
loop_
 _symmetry_equiv_pos_site_id
 _symmetry_equiv_pos_as_xyz
  1  'x, y, z'
loop_
 _atom_site_type_symbol
 _atom_site_label
 _atom_site_symmetry_multiplicity
 _atom_site_fract_x
 _atom_site_fract_y
 _atom_site_fract_z
 _atom_site_occupancy
  La  La0  1  0.476137  0.677427  0.599659  1
  La  La1  1  0.976137  0.822573  0.900341  1
  La  La2  1  0.523863  0.322573  0.099659  1
  La  La3  1  0.023863  0.177427  0.400341  1
  La  La4  1  0.523863  0.322573  0.400341  1
  La  La5  1  0.023863  0.177427  0.099659  1
  La  La6  1  0.476137  0.677427  0.900341  1
  La  La7  1  0.976137  0.822573  0.599659  1
  Y  Y8  1  0.634447  0.159403  0.624828  1
  Y  Y9  1  0.134447  0.340597  0.875172  1
  Y  Y10  1  0.365553  0.840597  0.124828  1
  Y  Y11  1  0.865553  0.659403  0.375172  1
  Y  Y12  1  0.365553  0.840597  0.375172  1
  Y  Y13  1  0.865553  0.659403  0.124828  1
  Y  Y14  1  0.634447  0.159403  0.875172  1
  Y  Y15  1  0.134447  0.340597  0.624828  1
  Y  Y16  1  0.800078  0.495398  0.750000  1
  Y  Y17  1  0.300078  0.004602  0.750000  1
  Y  Y18  1  0.199922  0.504602  0.250000  1
  Y  Y19  1  0.699922  0.995398  0.250000  1
  Sn  Sn20  1  0.437292  0.373310  0.750000  1
  Sn  Sn21  1  0.937292  0.126690  0.750000  1
  Sn  Sn22  1  0.562708  0.626690  0.250000  1
  Sn  Sn23  1  0.062708  0.873310  0.250000  1
  Sn  Sn24  1  0.669444  0.855968  0.750000  1
  Sn  Sn25  1  0.169444  0.644032  0.750000  1
  Sn  Sn26  1  0.330556  0.144032  0.250000  1
  Sn  Sn27  1  0.830556  0.355968  0.250000  1
  Pb  Pb28  1  0.702428  0.958682  0.457107  1
  Pb  Pb29  1  0.202428  0.541318  0.042893  1
  Pb  Pb30  1  0.297572  0.041318  0.957107  1
  Pb  Pb31  1  0.797572  0.458682  0.542893  1
  Pb  Pb32  1  0.297572  0.041318  0.542893  1
  Pb  Pb33  1  0.797572  0.458682  0.957107  1
  Pb  Pb34  1  0.702428  0.958682  0.042893  1
  Pb  Pb35  1  0.202428  0.541318  0.457107  1
