# generated using pymatgen
data_Ho4Sc16(GaBi3)3
_symmetry_space_group_name_H-M   'P 1'
_cell_length_a   7.74180310
_cell_length_b   8.96827600
_cell_length_c   11.43508244
_cell_angle_alpha   90.00000000
_cell_angle_beta   90.15501278
_cell_angle_gamma   90.00000000
_symmetry_Int_Tables_number   1
_chemical_formula_structural   Ho4Sc16(GaBi3)3
_chemical_formula_sum   'Ho4 Sc16 Ga3 Bi9'
_cell_volume   793.94203708
_cell_formula_units_Z   1
loop_
 _symmetry_equiv_pos_site_id
 _symmetry_equiv_pos_as_xyz
  1  'x, y, z'
loop_
 _atom_site_type_symbol
 _atom_site_label
 _atom_site_symmetry_multiplicity
 _atom_site_fract_x
 _atom_site_fract_y
 _atom_site_fract_z
 _atom_site_occupancy
  Ho  Ho0  1  0.325207  0.250000  0.210520  1
  Ho  Ho1  1  0.808402  0.250000  0.276231  1
  Ho  Ho2  1  0.677467  0.750000  0.786479  1
  Ho  Ho3  1  0.178795  0.750000  0.713620  1
  Sc  Sc4  1  0.344800  0.750000  0.207329  1
  Sc  Sc5  1  0.849791  0.750000  0.291165  1
  Sc  Sc6  1  0.653997  0.250000  0.791752  1
  Sc  Sc7  1  0.157817  0.250000  0.720269  1
  Sc  Sc8  1  0.680744  0.559125  0.057638  1
  Sc  Sc9  1  0.184114  0.926053  0.440110  1
  Sc  Sc10  1  0.319210  0.058512  0.943377  1
  Sc  Sc11  1  0.809243  0.449458  0.562083  1
  Sc  Sc12  1  0.319210  0.441488  0.943377  1
  Sc  Sc13  1  0.809243  0.050542  0.562083  1
  Sc  Sc14  1  0.680744  0.940875  0.057638  1
  Sc  Sc15  1  0.184114  0.573947  0.440110  1
  Sc  Sc16  1  0.484904  0.250000  0.489542  1
  Sc  Sc17  1  0.969929  0.250000  0.009741  1
  Sc  Sc18  1  0.532464  0.750000  0.511933  1
  Sc  Sc19  1  0.030765  0.750000  0.989240  1
  Ga  Ga20  1  0.403709  0.750000  0.965848  1
  Ga  Ga21  1  0.903381  0.750000  0.534186  1
  Ga  Ga22  1  0.598543  0.250000  0.032326  1
  Bi  Bi23  1  0.096216  0.250000  0.464173  1
  Bi  Bi24  1  0.557824  0.989073  0.326483  1
  Bi  Bi25  1  0.057727  0.508226  0.172408  1
  Bi  Bi26  1  0.440887  0.490997  0.674687  1
  Bi  Bi27  1  0.942158  0.007835  0.826037  1
  Bi  Bi28  1  0.440887  0.009003  0.674687  1
  Bi  Bi29  1  0.942158  0.492165  0.826037  1
  Bi  Bi30  1  0.557824  0.510927  0.326483  1
  Bi  Bi31  1  0.057727  0.991774  0.172408  1
