# generated using pymatgen
data_Ca5LaGa2(GeRh2)2
_symmetry_space_group_name_H-M   'P 1'
_cell_length_a   5.74503096
_cell_length_b   7.91127697
_cell_length_c   13.82555601
_cell_angle_alpha   89.87885049
_cell_angle_beta   90.01552331
_cell_angle_gamma   89.74964445
_symmetry_Int_Tables_number   1
_chemical_formula_structural   Ca5LaGa2(GeRh2)2
_chemical_formula_sum   'Ca10 La2 Ga4 Ge4 Rh8'
_cell_volume   628.37143506
_cell_formula_units_Z   2
loop_
 _symmetry_equiv_pos_site_id
 _symmetry_equiv_pos_as_xyz
  1  'x, y, z'
loop_
 _atom_site_type_symbol
 _atom_site_label
 _atom_site_symmetry_multiplicity
 _atom_site_fract_x
 _atom_site_fract_y
 _atom_site_fract_z
 _atom_site_occupancy
  Ca  Ca0  1  0.637888  0.252956  0.251781  1
  Ca  Ca1  1  0.362112  0.747044  0.748219  1
  Ca  Ca2  1  0.359230  0.743993  0.253879  1
  Ca  Ca3  1  0.640770  0.256007  0.746121  1
  Ca  Ca4  1  0.145168  0.402155  0.102565  1
  Ca  Ca5  1  0.854832  0.597845  0.897435  1
  Ca  Ca6  1  0.856584  0.602043  0.598008  1
  Ca  Ca7  1  0.856444  0.898146  0.401088  1
  Ca  Ca8  1  0.143416  0.397957  0.401992  1
  Ca  Ca9  1  0.143556  0.101854  0.598912  1
  La  La10  1  0.160846  0.107532  0.903340  1
  La  La11  1  0.839154  0.892468  0.096660  1
  Ga  Ga12  1  0.628181  0.256474  0.001206  1
  Ga  Ga13  1  0.371819  0.743526  0.998794  1
  Ga  Ga14  1  0.394798  0.750589  0.499528  1
  Ga  Ga15  1  0.605202  0.249411  0.500472  1
  Ge  Ge16  1  0.152963  0.097266  0.251499  1
  Ge  Ge17  1  0.847037  0.902734  0.748501  1
  Ge  Ge18  1  0.848013  0.598653  0.253118  1
  Ge  Ge19  1  0.151987  0.401347  0.746882  1
  Rh  Rh20  1  0.366137  0.030825  0.093950  1
  Rh  Rh21  1  0.633863  0.969175  0.906050  1
  Rh  Rh22  1  0.635810  0.970632  0.594382  1
  Rh  Rh23  1  0.639221  0.527682  0.407500  1
  Rh  Rh24  1  0.364190  0.029368  0.405618  1
  Rh  Rh25  1  0.360779  0.472318  0.592500  1
  Rh  Rh26  1  0.362181  0.464053  0.907455  1
  Rh  Rh27  1  0.637819  0.535947  0.092545  1
