# generated using pymatgen
data_Pr8Sc12Si15P
_symmetry_space_group_name_H-M   'P 1'
_cell_length_a   7.25277070
_cell_length_b   7.55078959
_cell_length_c   14.21271200
_cell_angle_alpha   90.00000000
_cell_angle_beta   90.00000000
_cell_angle_gamma   90.28657508
_symmetry_Int_Tables_number   1
_chemical_formula_structural   Pr8Sc12Si15P
_chemical_formula_sum   'Pr8 Sc12 Si15 P1'
_cell_volume   778.33729221
_cell_formula_units_Z   1
loop_
 _symmetry_equiv_pos_site_id
 _symmetry_equiv_pos_as_xyz
  1  'x, y, z'
loop_
 _atom_site_type_symbol
 _atom_site_label
 _atom_site_symmetry_multiplicity
 _atom_site_fract_x
 _atom_site_fract_y
 _atom_site_fract_z
 _atom_site_occupancy
  Pr  Pr0  1  0.011842  0.172172  0.402666  1
  Pr  Pr1  1  0.511717  0.327626  0.402640  1
  Pr  Pr2  1  0.488163  0.673559  0.900579  1
  Pr  Pr3  1  0.488163  0.673559  0.599421  1
  Pr  Pr4  1  0.991962  0.829199  0.600829  1
  Pr  Pr5  1  0.991962  0.829199  0.899171  1
  Pr  Pr6  1  0.511717  0.327626  0.097360  1
  Pr  Pr7  1  0.011842  0.172172  0.097334  1
  Sc  Sc8  1  0.327630  0.170846  0.627745  1
  Sc  Sc9  1  0.670364  0.824038  0.374756  1
  Sc  Sc10  1  0.656461  0.001233  0.750000  1
  Sc  Sc11  1  0.169689  0.676144  0.375102  1
  Sc  Sc12  1  0.829082  0.325143  0.874821  1
  Sc  Sc13  1  0.829082  0.325143  0.625179  1
  Sc  Sc14  1  0.840271  0.501478  0.250000  1
  Sc  Sc15  1  0.340989  0.997976  0.250000  1
  Sc  Sc16  1  0.327630  0.170846  0.872255  1
  Sc  Sc17  1  0.169689  0.676144  0.124898  1
  Sc  Sc18  1  0.670364  0.824038  0.125244  1
  Sc  Sc19  1  0.158080  0.496637  0.750000  1
  Si  Si20  1  0.465269  0.625006  0.250000  1
  Si  Si21  1  0.023781  0.135373  0.750000  1
  Si  Si22  1  0.532334  0.372530  0.750000  1
  Si  Si23  1  0.152526  0.463235  0.540520  1
  Si  Si24  1  0.966310  0.874594  0.250000  1
  Si  Si25  1  0.711593  0.116096  0.250000  1
  Si  Si26  1  0.848546  0.538103  0.038998  1
  Si  Si27  1  0.349105  0.963495  0.039382  1
  Si  Si28  1  0.152526  0.463235  0.959480  1
  Si  Si29  1  0.651101  0.035773  0.540653  1
  Si  Si30  1  0.349105  0.963495  0.460618  1
  Si  Si31  1  0.848546  0.538103  0.461002  1
  Si  Si32  1  0.790086  0.618238  0.750000  1
  Si  Si33  1  0.211657  0.383930  0.250000  1
  Si  Si34  1  0.651101  0.035773  0.959347  1
  P  P35  1  0.299717  0.878246  0.750000  1
