# generated using pymatgen
data_CsCuPd7O16
_symmetry_space_group_name_H-M   'P 1'
_cell_length_a   6.15417911
_cell_length_b   7.49221246
_cell_length_c   7.61272700
_cell_angle_alpha   88.56716795
_cell_angle_beta   78.36137748
_cell_angle_gamma   78.06300423
_symmetry_Int_Tables_number   1
_chemical_formula_structural   CsCuPd7O16
_chemical_formula_sum   'Cs1 Cu1 Pd7 O16'
_cell_volume   336.30829179
_cell_formula_units_Z   1
loop_
 _symmetry_equiv_pos_site_id
 _symmetry_equiv_pos_as_xyz
  1  'x, y, z'
loop_
 _atom_site_type_symbol
 _atom_site_label
 _atom_site_symmetry_multiplicity
 _atom_site_fract_x
 _atom_site_fract_y
 _atom_site_fract_z
 _atom_site_occupancy
  Cs  Cs0  1  0.000024  0.997339  0.999435  1
  Cu  Cu1  1  0.578930  0.514140  0.188904  1
  Pd  Pd2  1  0.081431  0.508008  0.184679  1
  Pd  Pd3  1  0.172977  0.814673  0.517124  1
  Pd  Pd4  1  0.669797  0.814594  0.518774  1
  Pd  Pd5  1  0.338087  0.187194  0.477383  1
  Pd  Pd6  1  0.838263  0.185649  0.479506  1
  Pd  Pd7  1  0.429610  0.487334  0.817988  1
  Pd  Pd8  1  0.926352  0.488828  0.818127  1
  O  O9  1  0.832716  0.634122  0.053970  1
  O  O10  1  0.331778  0.633941  0.053895  1
  O  O11  1  0.982845  0.712587  0.372151  1
  O  O12  1  0.483970  0.707555  0.377491  1
  O  O13  1  0.855565  0.955803  0.639756  1
  O  O14  1  0.355240  0.956226  0.639565  1
  O  O15  1  0.349344  0.367275  0.278854  1
  O  O16  1  0.836838  0.366943  0.280030  1
  O  O17  1  0.164135  0.639262  0.724732  1
  O  O18  1  0.661029  0.641374  0.728281  1
  O  O19  1  0.154600  0.044234  0.357445  1
  O  O20  1  0.653495  0.043245  0.358213  1
  O  O21  1  0.026406  0.290047  0.621900  1
  O  O22  1  0.526422  0.290027  0.621394  1
  O  O23  1  0.178837  0.357245  0.946410  1
  O  O24  1  0.678412  0.362355  0.943985  1
