# generated using pymatgen
data_TbTmMn3Ni9P7
_symmetry_space_group_name_H-M   'P 1'
_cell_length_a   9.09472600
_cell_length_b   9.09472584
_cell_length_c   3.66850400
_cell_angle_alpha   90.00000000
_cell_angle_beta   90.00000000
_cell_angle_gamma   120.00000154
_symmetry_Int_Tables_number   1
_chemical_formula_structural   TbTmMn3Ni9P7
_chemical_formula_sum   'Tb1 Tm1 Mn3 Ni9 P7'
_cell_volume   262.78396030
_cell_formula_units_Z   1
loop_
 _symmetry_equiv_pos_site_id
 _symmetry_equiv_pos_as_xyz
  1  'x, y, z'
loop_
 _atom_site_type_symbol
 _atom_site_label
 _atom_site_symmetry_multiplicity
 _atom_site_fract_x
 _atom_site_fract_y
 _atom_site_fract_z
 _atom_site_occupancy
  Tb  Tb0  1  0.000000  0.000000  0.000000  1
  Tm  Tm1  1  0.666667  0.333333  0.500000  1
  Mn  Mn2  1  0.454889  0.568116  0.500000  1
  Mn  Mn3  1  0.431884  0.886775  0.500000  1
  Mn  Mn4  1  0.113225  0.545111  0.500000  1
  Ni  Ni5  1  0.704770  0.603521  0.000000  1
  Ni  Ni6  1  0.396479  0.101249  0.000000  1
  Ni  Ni7  1  0.898751  0.295230  0.000000  1
  Ni  Ni8  1  0.209349  0.388815  0.000000  1
  Ni  Ni9  1  0.611185  0.820534  0.000000  1
  Ni  Ni10  1  0.179466  0.790651  0.000000  1
  Ni  Ni11  1  0.282919  0.232551  0.500000  1
  Ni  Ni12  1  0.767449  0.050367  0.500000  1
  Ni  Ni13  1  0.949633  0.717081  0.500000  1
  P  P14  1  0.446881  0.370970  0.000000  1
  P  P15  1  0.629030  0.075912  0.000000  1
  P  P16  1  0.924088  0.553119  0.000000  1
  P  P17  1  0.040880  0.261867  0.500000  1
  P  P18  1  0.738133  0.779014  0.500000  1
  P  P19  1  0.220986  0.959120  0.500000  1
  P  P20  1  0.333333  0.666667  0.000000  1
