# generated using pymatgen
data_Lu8In3Fe
_symmetry_space_group_name_H-M   'P 1'
_cell_length_a   10.12194200
_cell_length_b   10.12194208
_cell_length_c   6.87224200
_cell_angle_alpha   90.00000000
_cell_angle_beta   90.00000000
_cell_angle_gamma   119.99999974
_symmetry_Int_Tables_number   1
_chemical_formula_structural   Lu8In3Fe
_chemical_formula_sum   'Lu16 In6 Fe2'
_cell_volume   609.75696461
_cell_formula_units_Z   2
loop_
 _symmetry_equiv_pos_site_id
 _symmetry_equiv_pos_as_xyz
  1  'x, y, z'
loop_
 _atom_site_type_symbol
 _atom_site_label
 _atom_site_symmetry_multiplicity
 _atom_site_fract_x
 _atom_site_fract_y
 _atom_site_fract_z
 _atom_site_occupancy
  Lu  Lu0  1  0.534883  0.069766  0.522680  1
  Lu  Lu1  1  0.930234  0.465117  0.522680  1
  Lu  Lu2  1  0.534883  0.465117  0.522680  1
  Lu  Lu3  1  0.465784  0.931569  0.022396  1
  Lu  Lu4  1  0.068431  0.534216  0.022396  1
  Lu  Lu5  1  0.465784  0.534216  0.022396  1
  Lu  Lu6  1  0.179769  0.359539  0.727122  1
  Lu  Lu7  1  0.640461  0.820231  0.727122  1
  Lu  Lu8  1  0.179769  0.820231  0.727122  1
  Lu  Lu9  1  0.820376  0.640751  0.227635  1
  Lu  Lu10  1  0.359249  0.179624  0.227635  1
  Lu  Lu11  1  0.820376  0.179624  0.227635  1
  Lu  Lu12  1  0.666667  0.333333  0.911733  1
  Lu  Lu13  1  0.333333  0.666667  0.411925  1
  Lu  Lu14  1  0.000000  0.000000  0.508332  1
  Lu  Lu15  1  0.000000  0.000000  0.008263  1
  In  In16  1  0.837294  0.674589  0.770073  1
  In  In17  1  0.325411  0.162706  0.770073  1
  In  In18  1  0.837294  0.162706  0.770073  1
  In  In19  1  0.163078  0.326157  0.269124  1
  In  In20  1  0.673843  0.836922  0.269124  1
  In  In21  1  0.163078  0.836922  0.269124  1
  Fe  Fe22  1  0.666667  0.333333  0.299096  1
  Fe  Fe23  1  0.333333  0.666667  0.799244  1
