# generated using pymatgen
data_NiOsBr18
_symmetry_space_group_name_H-M   'P 1'
_cell_length_a   9.23804064
_cell_length_b   9.23803804
_cell_length_c   9.23803843
_cell_angle_alpha   89.48620308
_cell_angle_beta   89.48619954
_cell_angle_gamma   89.48620190
_symmetry_Int_Tables_number   1
_chemical_formula_structural   NiOsBr18
_chemical_formula_sum   'Ni1 Os1 Br18'
_cell_volume   788.29233153
_cell_formula_units_Z   1
loop_
 _symmetry_equiv_pos_site_id
 _symmetry_equiv_pos_as_xyz
  1  'x, y, z'
loop_
 _atom_site_type_symbol
 _atom_site_label
 _atom_site_symmetry_multiplicity
 _atom_site_fract_x
 _atom_site_fract_y
 _atom_site_fract_z
 _atom_site_occupancy
  Ni  Ni0  1  0.500000  0.500000  0.500000  1
  Os  Os1  1  0.000000  0.000000  0.000000  1
  Br  Br2  1  0.268528  0.980825  0.021088  1
  Br  Br3  1  0.021088  0.268528  0.980825  1
  Br  Br4  1  0.980825  0.021088  0.268528  1
  Br  Br5  1  0.731472  0.019175  0.978912  1
  Br  Br6  1  0.978912  0.731472  0.019175  1
  Br  Br7  1  0.019175  0.978912  0.731472  1
  Br  Br8  1  0.632390  0.252426  0.124411  1
  Br  Br9  1  0.124411  0.632390  0.252426  1
  Br  Br10  1  0.252426  0.124411  0.632390  1
  Br  Br11  1  0.367610  0.747574  0.875589  1
  Br  Br12  1  0.875589  0.367610  0.747574  1
  Br  Br13  1  0.747574  0.875589  0.367610  1
  Br  Br14  1  0.482598  0.230747  0.538998  1
  Br  Br15  1  0.538998  0.482598  0.230747  1
  Br  Br16  1  0.230747  0.538998  0.482598  1
  Br  Br17  1  0.517402  0.769253  0.461002  1
  Br  Br18  1  0.461002  0.517402  0.769253  1
  Br  Br19  1  0.769253  0.461002  0.517402  1
