# generated using pymatgen
data_Dy2AlCo3O10
_symmetry_space_group_name_H-M   'P 1'
_cell_length_a   5.66458400
_cell_length_b   7.21190312
_cell_length_c   8.35450876
_cell_angle_alpha   89.67521762
_cell_angle_beta   90.00000000
_cell_angle_gamma   90.00000000
_symmetry_Int_Tables_number   1
_chemical_formula_structural   Dy2AlCo3O10
_chemical_formula_sum   'Dy4 Al2 Co6 O20'
_cell_volume   341.29650971
_cell_formula_units_Z   2
loop_
 _symmetry_equiv_pos_site_id
 _symmetry_equiv_pos_as_xyz
  1  'x, y, z'
loop_
 _atom_site_type_symbol
 _atom_site_label
 _atom_site_symmetry_multiplicity
 _atom_site_fract_x
 _atom_site_fract_y
 _atom_site_fract_z
 _atom_site_occupancy
  Dy  Dy0  1  0.000000  0.856940  0.830244  1
  Dy  Dy1  1  0.000000  0.143060  0.169756  1
  Dy  Dy2  1  0.000000  0.368524  0.671967  1
  Dy  Dy3  1  0.000000  0.631476  0.328033  1
  Al  Al4  1  0.500000  0.607805  0.641962  1
  Al  Al5  1  0.500000  0.392195  0.358038  1
  Co  Co6  1  0.746570  0.000000  0.500000  1
  Co  Co7  1  0.500000  0.907927  0.151568  1
  Co  Co8  1  0.500000  0.092073  0.848432  1
  Co  Co9  1  0.256285  0.500000  0.000000  1
  Co  Co10  1  0.743715  0.500000  0.000000  1
  Co  Co11  1  0.253430  0.000000  0.500000  1
  O  O12  1  0.000000  0.338061  0.945337  1
  O  O13  1  0.725883  0.000000  0.000000  1
  O  O14  1  0.274117  0.000000  0.000000  1
  O  O15  1  0.500000  0.153337  0.428816  1
  O  O16  1  0.000000  0.161023  0.445963  1
  O  O17  1  0.720138  0.500000  0.500000  1
  O  O18  1  0.000000  0.838977  0.554037  1
  O  O19  1  0.748809  0.602563  0.790308  1
  O  O20  1  0.242701  0.103389  0.706151  1
  O  O21  1  0.500000  0.654487  0.066012  1
  O  O22  1  0.500000  0.345513  0.933988  1
  O  O23  1  0.000000  0.661939  0.054663  1
  O  O24  1  0.757299  0.896611  0.293849  1
  O  O25  1  0.748809  0.397437  0.209692  1
  O  O26  1  0.757299  0.103389  0.706151  1
  O  O27  1  0.251191  0.602563  0.790308  1
  O  O28  1  0.279862  0.500000  0.500000  1
  O  O29  1  0.242701  0.896611  0.293849  1
  O  O30  1  0.251191  0.397437  0.209692  1
  O  O31  1  0.500000  0.846663  0.571184  1
