# generated using pymatgen
data_Lu2Al2Ga7Ir3
_symmetry_space_group_name_H-M   'P 1'
_cell_length_a   7.53837520
_cell_length_b   7.53837496
_cell_length_c   9.45616000
_cell_angle_alpha   90.00000000
_cell_angle_beta   90.00000000
_cell_angle_gamma   119.75737066
_symmetry_Int_Tables_number   1
_chemical_formula_structural   Lu2Al2Ga7Ir3
_chemical_formula_sum   'Lu4 Al4 Ga14 Ir6'
_cell_volume   466.50633841
_cell_formula_units_Z   2
loop_
 _symmetry_equiv_pos_site_id
 _symmetry_equiv_pos_as_xyz
  1  'x, y, z'
loop_
 _atom_site_type_symbol
 _atom_site_label
 _atom_site_symmetry_multiplicity
 _atom_site_fract_x
 _atom_site_fract_y
 _atom_site_fract_z
 _atom_site_occupancy
  Lu  Lu0  1  0.001718  0.671262  0.250000  1
  Lu  Lu1  1  0.998282  0.328738  0.750000  1
  Lu  Lu2  1  0.671262  0.001718  0.250000  1
  Lu  Lu3  1  0.328738  0.998282  0.750000  1
  Al  Al4  1  0.331002  0.331002  0.554375  1
  Al  Al5  1  0.668998  0.668998  0.445625  1
  Al  Al6  1  0.668998  0.668998  0.054375  1
  Al  Al7  1  0.331002  0.331002  0.945625  1
  Ga  Ga8  1  0.127384  0.127384  0.250000  1
  Ga  Ga9  1  0.872616  0.872616  0.750000  1
  Ga  Ga10  1  0.000312  0.335876  0.081312  1
  Ga  Ga11  1  0.999688  0.664124  0.918688  1
  Ga  Ga12  1  0.999688  0.664124  0.581312  1
  Ga  Ga13  1  0.335876  0.000312  0.418688  1
  Ga  Ga14  1  0.000312  0.335876  0.418688  1
  Ga  Ga15  1  0.664124  0.999688  0.581312  1
  Ga  Ga16  1  0.664124  0.999688  0.918688  1
  Ga  Ga17  1  0.335876  0.000312  0.081312  1
  Ga  Ga18  1  0.348895  0.552237  0.250000  1
  Ga  Ga19  1  0.651105  0.447763  0.750000  1
  Ga  Ga20  1  0.552237  0.348895  0.250000  1
  Ga  Ga21  1  0.447763  0.651105  0.750000  1
  Ir  Ir22  1  0.670265  0.329735  0.000000  1
  Ir  Ir23  1  0.329735  0.670265  0.000000  1
  Ir  Ir24  1  0.329735  0.670265  0.500000  1
  Ir  Ir25  1  0.670265  0.329735  0.500000  1
  Ir  Ir26  1  0.000000  0.000000  0.000000  1
  Ir  Ir27  1  0.000000  0.000000  0.500000  1
