# generated using pymatgen
data_Sr2GaPtBr
_symmetry_space_group_name_H-M   'P 1'
_cell_length_a   4.42460300
_cell_length_b   4.42460360
_cell_length_c   17.52886900
_cell_angle_alpha   90.00000000
_cell_angle_beta   90.00000000
_cell_angle_gamma   120.00000302
_symmetry_Int_Tables_number   1
_chemical_formula_structural   Sr2GaPtBr
_chemical_formula_sum   'Sr4 Ga2 Pt2 Br2'
_cell_volume   297.18931530
_cell_formula_units_Z   2
loop_
 _symmetry_equiv_pos_site_id
 _symmetry_equiv_pos_as_xyz
  1  'x, y, z'
loop_
 _atom_site_type_symbol
 _atom_site_label
 _atom_site_symmetry_multiplicity
 _atom_site_fract_x
 _atom_site_fract_y
 _atom_site_fract_z
 _atom_site_occupancy
  Sr  Sr0  1  0.000000  0.000000  0.116357  1
  Sr  Sr1  1  0.000000  0.000000  0.383643  1
  Sr  Sr2  1  0.000000  0.000000  0.616725  1
  Sr  Sr3  1  0.000000  0.000000  0.883275  1
  Ga  Ga4  1  0.666667  0.333332  0.501129  1
  Ga  Ga5  1  0.666667  0.333332  0.998871  1
  Pt  Pt6  1  0.333334  0.666667  0.001686  1
  Pt  Pt7  1  0.333334  0.666667  0.498314  1
  Br  Br8  1  0.666667  0.333332  0.250000  1
  Br  Br9  1  0.333334  0.666667  0.750000  1
