# generated using pymatgen
data_Th3Co9(CuB2)2
_symmetry_space_group_name_H-M   'P 1'
_cell_length_a   5.07494400
_cell_length_b   5.07575252
_cell_length_c   9.99092500
_cell_angle_alpha   89.99995610
_cell_angle_beta   90.00008782
_cell_angle_gamma   119.99473085
_symmetry_Int_Tables_number   1
_chemical_formula_structural   Th3Co9(CuB2)2
_chemical_formula_sum   'Th3 Co9 Cu2 B4'
_cell_volume   222.89025463
_cell_formula_units_Z   1
loop_
 _symmetry_equiv_pos_site_id
 _symmetry_equiv_pos_as_xyz
  1  'x, y, z'
loop_
 _atom_site_type_symbol
 _atom_site_label
 _atom_site_symmetry_multiplicity
 _atom_site_fract_x
 _atom_site_fract_y
 _atom_site_fract_z
 _atom_site_occupancy
  Th  Th0  1  0.999972  0.000000  0.000030  1
  Th  Th1  1  0.000000  0.000000  0.339277  1
  Th  Th2  1  0.000002  0.000000  0.660875  1
  Co  Co3  1  0.500002  0.000000  0.499975  1
  Co  Co4  1  0.500003  0.500001  0.500014  1
  Co  Co5  1  0.000002  0.499999  0.500014  1
  Co  Co6  1  0.499995  0.000000  0.207219  1
  Co  Co7  1  0.499996  0.500001  0.207229  1
  Co  Co8  1  0.999995  0.499999  0.207229  1
  Co  Co9  1  0.499995  0.000000  0.792782  1
  Co  Co10  1  0.499995  0.500001  0.792715  1
  Co  Co11  1  0.999994  0.499999  0.792715  1
  Cu  Cu12  1  0.333181  0.666406  0.999947  1
  Cu  Cu13  1  0.666775  0.333594  0.999947  1
  B  B14  1  0.333232  0.666466  0.349575  1
  B  B15  1  0.666766  0.333534  0.349575  1
  B  B16  1  0.666717  0.333435  0.650442  1
  B  B17  1  0.333281  0.666565  0.650442  1
