# generated using pymatgen
data_Tb15Ho(HgPd)4
_symmetry_space_group_name_H-M   'P 1'
_cell_length_a   9.69953737
_cell_length_b   9.69957671
_cell_length_c   9.69428901
_cell_angle_alpha   60.01900314
_cell_angle_beta   60.02229630
_cell_angle_gamma   60.12114394
_symmetry_Int_Tables_number   1
_chemical_formula_structural   Tb15Ho(HgPd)4
_chemical_formula_sum   'Tb15 Ho1 Hg4 Pd4'
_cell_volume   645.70854870
_cell_formula_units_Z   1
loop_
 _symmetry_equiv_pos_site_id
 _symmetry_equiv_pos_as_xyz
  1  'x, y, z'
loop_
 _atom_site_type_symbol
 _atom_site_label
 _atom_site_symmetry_multiplicity
 _atom_site_fract_x
 _atom_site_fract_y
 _atom_site_fract_z
 _atom_site_occupancy
  Tb  Tb0  1  0.356377  0.356379  0.353366  1
  Tb  Tb1  1  0.356356  0.356389  0.933882  1
  Tb  Tb2  1  0.360006  0.926308  0.356845  1
  Tb  Tb3  1  0.926317  0.360004  0.356835  1
  Tb  Tb4  1  0.811890  0.188475  0.189531  1
  Tb  Tb5  1  0.188454  0.811890  0.810100  1
  Tb  Tb6  1  0.188466  0.811888  0.189543  1
  Tb  Tb7  1  0.811897  0.188474  0.810087  1
  Tb  Tb8  1  0.190136  0.190156  0.809858  1
  Tb  Tb9  1  0.811890  0.811882  0.188112  1
  Tb  Tb10  1  0.935598  0.565124  0.564840  1
  Tb  Tb11  1  0.565148  0.935602  0.934423  1
  Tb  Tb12  1  0.565134  0.935606  0.564823  1
  Tb  Tb13  1  0.935611  0.565124  0.934439  1
  Tb  Tb14  1  0.566018  0.566011  0.933987  1
  Ho  Ho15  1  0.936091  0.936113  0.563911  1
  Hg  Hg16  1  0.585978  0.585964  0.588813  1
  Hg  Hg17  1  0.585961  0.585968  0.239256  1
  Hg  Hg18  1  0.585172  0.238959  0.587936  1
  Hg  Hg19  1  0.238976  0.585165  0.587935  1
  Pd  Pd20  1  0.145199  0.145204  0.148465  1
  Pd  Pd21  1  0.145205  0.145194  0.561133  1
  Pd  Pd22  1  0.143238  0.564882  0.145938  1
  Pd  Pd23  1  0.564882  0.143239  0.145943  1
