# generated using pymatgen
data_Yb10RuPt3
_symmetry_space_group_name_H-M   'P 1'
_cell_length_a   8.57232869
_cell_length_b   8.56617031
_cell_length_c   7.51488974
_cell_angle_alpha   82.82928896
_cell_angle_beta   82.95855215
_cell_angle_gamma   43.97045206
_symmetry_Int_Tables_number   1
_chemical_formula_structural   Yb10RuPt3
_chemical_formula_sum   'Yb10 Ru1 Pt3'
_cell_volume   379.70459475
_cell_formula_units_Z   1
loop_
 _symmetry_equiv_pos_site_id
 _symmetry_equiv_pos_as_xyz
  1  'x, y, z'
loop_
 _atom_site_type_symbol
 _atom_site_label
 _atom_site_symmetry_multiplicity
 _atom_site_fract_x
 _atom_site_fract_y
 _atom_site_fract_z
 _atom_site_occupancy
  Yb  Yb0  1  0.029358  0.791039  0.915307  1
  Yb  Yb1  1  0.204387  0.969115  0.578330  1
  Yb  Yb2  1  0.972919  0.203758  0.079485  1
  Yb  Yb3  1  0.799185  0.021162  0.423972  1
  Yb  Yb4  1  0.362745  0.205314  0.816640  1
  Yb  Yb5  1  0.803904  0.635153  0.679522  1
  Yb  Yb6  1  0.636155  0.800606  0.179006  1
  Yb  Yb7  1  0.200969  0.368127  0.326352  1
  Yb  Yb8  1  0.572122  0.424297  0.745944  1
  Yb  Yb9  1  0.419998  0.576109  0.256011  1
  Ru  Ru10  1  0.177131  0.603366  0.580612  1
  Pt  Pt11  1  0.401088  0.820417  0.920105  1
  Pt  Pt12  1  0.818527  0.402958  0.417630  1
  Pt  Pt13  1  0.601513  0.178580  0.081084  1
