# generated using pymatgen
data_PaCCl
_symmetry_space_group_name_H-M   'P 1'
_cell_length_a   4.04213569
_cell_length_b   4.04213547
_cell_length_c   9.91207594
_cell_angle_alpha   86.13692613
_cell_angle_beta   86.13692466
_cell_angle_gamma   54.18025324
_symmetry_Int_Tables_number   1
_chemical_formula_structural   PaCCl
_chemical_formula_sum   'Pa2 C2 Cl2'
_cell_volume   130.94421523
_cell_formula_units_Z   2
loop_
 _symmetry_equiv_pos_site_id
 _symmetry_equiv_pos_as_xyz
  1  'x, y, z'
loop_
 _atom_site_type_symbol
 _atom_site_label
 _atom_site_symmetry_multiplicity
 _atom_site_fract_x
 _atom_site_fract_y
 _atom_site_fract_z
 _atom_site_occupancy
  Pa  Pa0  1  0.855709  0.855709  0.134001  1
  Pa  Pa1  1  0.144291  0.144291  0.865999  1
  C  C2  1  0.577079  0.577079  0.040935  1
  C  C3  1  0.422921  0.422921  0.959065  1
  Cl  Cl4  1  0.824656  0.824656  0.682697  1
  Cl  Cl5  1  0.175344  0.175344  0.317303  1
