# generated using pymatgen
data_BaSr3TaNbO9
_symmetry_space_group_name_H-M   'P 1'
_cell_length_a   5.99695001
_cell_length_b   5.99691934
_cell_length_c   15.90597900
_cell_angle_alpha   90.00000000
_cell_angle_beta   90.00000000
_cell_angle_gamma   119.99913979
_symmetry_Int_Tables_number   1
_chemical_formula_structural   BaSr3TaNbO9
_chemical_formula_sum   'Ba2 Sr6 Ta2 Nb2 O18'
_cell_volume   495.39707347
_cell_formula_units_Z   2
loop_
 _symmetry_equiv_pos_site_id
 _symmetry_equiv_pos_as_xyz
  1  'x, y, z'
loop_
 _atom_site_type_symbol
 _atom_site_label
 _atom_site_symmetry_multiplicity
 _atom_site_fract_x
 _atom_site_fract_y
 _atom_site_fract_z
 _atom_site_occupancy
  Ba  Ba0  1  0.000012  0.000035  0.750537  1
  Ba  Ba1  1  0.999988  0.999965  0.250537  1
  Sr  Sr2  1  0.666674  0.333356  0.638462  1
  Sr  Sr3  1  0.333326  0.666644  0.138462  1
  Sr  Sr4  1  0.333327  0.666644  0.362582  1
  Sr  Sr5  1  0.666673  0.333356  0.862582  1
  Sr  Sr6  1  0.000000  0.000000  0.498832  1
  Sr  Sr7  1  0.000000  0.000000  0.998832  1
  Ta  Ta8  1  0.666657  0.333300  0.345131  1
  Ta  Ta9  1  0.333343  0.666700  0.845131  1
  Nb  Nb10  1  0.333345  0.666706  0.652738  1
  Nb  Nb11  1  0.666655  0.333294  0.152738  1
  O  O12  1  0.531375  0.962799  0.750614  1
  O  O13  1  0.037257  0.568638  0.750613  1
  O  O14  1  0.431400  0.468671  0.750613  1
  O  O15  1  0.468625  0.037201  0.250614  1
  O  O16  1  0.962743  0.431362  0.250613  1
  O  O17  1  0.568600  0.531329  0.250613  1
  O  O18  1  0.082009  0.352978  0.601113  1
  O  O19  1  0.647085  0.729095  0.601126  1
  O  O20  1  0.270953  0.918052  0.601126  1
  O  O21  1  0.917991  0.647022  0.101113  1
  O  O22  1  0.352915  0.270905  0.101126  1
  O  O23  1  0.729047  0.081948  0.101126  1
  O  O24  1  0.915518  0.644634  0.398847  1
  O  O25  1  0.355307  0.270821  0.398833  1
  O  O26  1  0.729130  0.084421  0.398833  1
  O  O27  1  0.084482  0.355366  0.898847  1
  O  O28  1  0.644693  0.729179  0.898833  1
  O  O29  1  0.270870  0.915579  0.898833  1
