# generated using pymatgen
data_Pr6Ho10Cd3AgIr4
_symmetry_space_group_name_H-M   'P 1'
_cell_length_a   9.73627793
_cell_length_b   9.73627816
_cell_length_c   9.73627847
_cell_angle_alpha   60.03565679
_cell_angle_beta   60.03566281
_cell_angle_gamma   60.03565816
_symmetry_Int_Tables_number   1
_chemical_formula_structural   Pr6Ho10Cd3AgIr4
_chemical_formula_sum   'Pr6 Ho10 Cd3 Ag1 Ir4'
_cell_volume   653.15284673
_cell_formula_units_Z   1
loop_
 _symmetry_equiv_pos_site_id
 _symmetry_equiv_pos_as_xyz
  1  'x, y, z'
loop_
 _atom_site_type_symbol
 _atom_site_label
 _atom_site_symmetry_multiplicity
 _atom_site_fract_x
 _atom_site_fract_y
 _atom_site_fract_z
 _atom_site_occupancy
  Pr  Pr0  1  0.937827  0.558894  0.558894  1
  Pr  Pr1  1  0.558027  0.940317  0.940317  1
  Pr  Pr2  1  0.558894  0.937827  0.558894  1
  Pr  Pr3  1  0.940317  0.558027  0.940317  1
  Pr  Pr4  1  0.558894  0.558894  0.937827  1
  Pr  Pr5  1  0.940317  0.940317  0.558027  1
  Ho  Ho6  1  0.346509  0.346509  0.346509  1
  Ho  Ho7  1  0.348457  0.348457  0.957932  1
  Ho  Ho8  1  0.348457  0.957932  0.348457  1
  Ho  Ho9  1  0.957932  0.348457  0.348457  1
  Ho  Ho10  1  0.811718  0.187336  0.187336  1
  Ho  Ho11  1  0.186409  0.812457  0.812457  1
  Ho  Ho12  1  0.187336  0.811718  0.187336  1
  Ho  Ho13  1  0.812457  0.186409  0.812457  1
  Ho  Ho14  1  0.187336  0.187336  0.811718  1
  Ho  Ho15  1  0.812457  0.812457  0.186409  1
  Cd  Cd16  1  0.579764  0.579764  0.263755  1
  Cd  Cd17  1  0.579764  0.263755  0.579764  1
  Cd  Cd18  1  0.263755  0.579764  0.579764  1
  Ag  Ag19  1  0.580812  0.580812  0.580812  1
  Ir  Ir20  1  0.141302  0.141302  0.141302  1
  Ir  Ir21  1  0.142088  0.142088  0.577079  1
  Ir  Ir22  1  0.142088  0.577079  0.142088  1
  Ir  Ir23  1  0.577079  0.142088  0.142088  1
