# generated using pymatgen
data_Eu2Ga2(GePt)3
_symmetry_space_group_name_H-M   'P 1'
_cell_length_a   8.64075857
_cell_length_b   8.64075936
_cell_length_c   8.64075913
_cell_angle_alpha   137.87224730
_cell_angle_beta   105.16347614
_cell_angle_gamma   89.81522335
_symmetry_Int_Tables_number   1
_chemical_formula_structural   Eu2Ga2(GePt)3
_chemical_formula_sum   'Eu4 Ga4 Ge6 Pt6'
_cell_volume   399.14134918
_cell_formula_units_Z   2
loop_
 _symmetry_equiv_pos_site_id
 _symmetry_equiv_pos_as_xyz
  1  'x, y, z'
loop_
 _atom_site_type_symbol
 _atom_site_label
 _atom_site_symmetry_multiplicity
 _atom_site_fract_x
 _atom_site_fract_y
 _atom_site_fract_z
 _atom_site_occupancy
  Eu  Eu0  1  0.635020  0.369689  0.265330  1
  Eu  Eu1  1  0.364980  0.630311  0.734670  1
  Eu  Eu2  1  0.104358  0.869689  0.234670  1
  Eu  Eu3  1  0.895642  0.130311  0.765330  1
  Ga  Ga4  1  0.268403  0.518403  0.250000  1
  Ga  Ga5  1  0.731597  0.481597  0.750000  1
  Ga  Ga6  1  0.731597  0.981597  0.250000  1
  Ga  Ga7  1  0.268403  0.018403  0.750000  1
  Ge  Ge8  1  0.456466  0.107392  0.349073  1
  Ge  Ge9  1  0.543534  0.892608  0.650927  1
  Ge  Ge10  1  0.758319  0.607392  0.150927  1
  Ge  Ge11  1  0.241681  0.392608  0.849073  1
  Ge  Ge12  1  0.000000  0.250000  0.250000  1
  Ge  Ge13  1  0.000000  0.750000  0.750000  1
  Pt  Pt14  1  0.249042  0.134036  0.115004  1
  Pt  Pt15  1  0.750958  0.865964  0.884996  1
  Pt  Pt16  1  0.019032  0.634036  0.384996  1
  Pt  Pt17  1  0.980968  0.365964  0.615004  1
  Pt  Pt18  1  0.500000  0.250000  0.750000  1
  Pt  Pt19  1  0.500000  0.750000  0.250000  1
