# generated using pymatgen
data_Nd3Dy3Y2(CdIr)2
_symmetry_space_group_name_H-M   'P 1'
_cell_length_a   9.74786326
_cell_length_b   9.76191832
_cell_length_c   9.76191710
_cell_angle_alpha   59.90477893
_cell_angle_beta   60.04760871
_cell_angle_gamma   60.04761671
_symmetry_Int_Tables_number   1
_chemical_formula_structural   Nd3Dy3Y2(CdIr)2
_chemical_formula_sum   'Nd6 Dy6 Y4 Cd4 Ir4'
_cell_volume   656.84505086
_cell_formula_units_Z   2
loop_
 _symmetry_equiv_pos_site_id
 _symmetry_equiv_pos_as_xyz
  1  'x, y, z'
loop_
 _atom_site_type_symbol
 _atom_site_label
 _atom_site_symmetry_multiplicity
 _atom_site_fract_x
 _atom_site_fract_y
 _atom_site_fract_z
 _atom_site_occupancy
  Nd  Nd0  1  0.940832  0.559168  0.559168  1
  Nd  Nd1  1  0.559168  0.940832  0.940832  1
  Nd  Nd2  1  0.558528  0.941472  0.558528  1
  Nd  Nd3  1  0.941472  0.558528  0.941472  1
  Nd  Nd4  1  0.558528  0.558528  0.941472  1
  Nd  Nd5  1  0.941472  0.941472  0.558528  1
  Dy  Dy6  1  0.346976  0.347927  0.347927  1
  Dy  Dy7  1  0.347927  0.346976  0.957170  1
  Dy  Dy8  1  0.347927  0.957170  0.346976  1
  Dy  Dy9  1  0.957170  0.347927  0.347927  1
  Dy  Dy10  1  0.812051  0.187949  0.187949  1
  Dy  Dy11  1  0.187949  0.812051  0.812051  1
  Y  Y12  1  0.188382  0.811618  0.188382  1
  Y  Y13  1  0.811618  0.188382  0.811618  1
  Y  Y14  1  0.188382  0.188382  0.811618  1
  Y  Y15  1  0.811618  0.811618  0.188382  1
  Cd  Cd16  1  0.579980  0.579582  0.579582  1
  Cd  Cd17  1  0.579582  0.579980  0.260856  1
  Cd  Cd18  1  0.579582  0.260856  0.579980  1
  Cd  Cd19  1  0.260856  0.579582  0.579582  1
  Ir  Ir20  1  0.140075  0.142456  0.142456  1
  Ir  Ir21  1  0.142456  0.140075  0.575014  1
  Ir  Ir22  1  0.142456  0.575014  0.140075  1
  Ir  Ir23  1  0.575014  0.142456  0.142456  1
