# generated using pymatgen
data_MgScReH6
_symmetry_space_group_name_H-M   'P 1'
_cell_length_a   4.76134483
_cell_length_b   4.76128086
_cell_length_c   4.76132000
_cell_angle_alpha   120.00030092
_cell_angle_beta   120.00062758
_cell_angle_gamma   89.99880832
_symmetry_Int_Tables_number   1
_chemical_formula_structural   MgScReH6
_chemical_formula_sum   'Mg1 Sc1 Re1 H6'
_cell_volume   76.32454609
_cell_formula_units_Z   1
loop_
 _symmetry_equiv_pos_site_id
 _symmetry_equiv_pos_as_xyz
  1  'x, y, z'
loop_
 _atom_site_type_symbol
 _atom_site_label
 _atom_site_symmetry_multiplicity
 _atom_site_fract_x
 _atom_site_fract_y
 _atom_site_fract_z
 _atom_site_occupancy
  Mg  Mg0  1  0.249997  0.749997  0.499994  1
  Sc  Sc1  1  0.749998  0.249999  0.499998  1
  Re  Re2  1  0.000007  0.000005  0.000009  1
  H  H3  1  0.260345  0.260343  0.999999  1
  H  H4  1  0.739653  0.260342  0.000000  1
  H  H5  1  0.260344  0.739655  0.999999  1
  H  H6  1  0.739657  0.739660  0.000001  1
  H  H7  1  0.739654  0.739654  0.479310  1
  H  H8  1  0.260341  0.260341  0.520683  1
