# generated using pymatgen
data_Cs8Cd4Sn9Ge3Se32
_symmetry_space_group_name_H-M   'P 1'
_cell_length_a   8.05357346
_cell_length_b   13.48018337
_cell_length_c   18.92758706
_cell_angle_alpha   90.03811054
_cell_angle_beta   89.99411539
_cell_angle_gamma   89.80820002
_symmetry_Int_Tables_number   1
_chemical_formula_structural   Cs8Cd4Sn9Ge3Se32
_chemical_formula_sum   'Cs8 Cd4 Sn9 Ge3 Se32'
_cell_volume   2054.83589955
_cell_formula_units_Z   1
loop_
 _symmetry_equiv_pos_site_id
 _symmetry_equiv_pos_as_xyz
  1  'x, y, z'
loop_
 _atom_site_type_symbol
 _atom_site_label
 _atom_site_symmetry_multiplicity
 _atom_site_fract_x
 _atom_site_fract_y
 _atom_site_fract_z
 _atom_site_occupancy
  Cs  Cs0  1  0.747865  0.369924  0.550698  1
  Cs  Cs1  1  0.753096  0.629351  0.050396  1
  Cs  Cs2  1  0.248090  0.130331  0.449529  1
  Cs  Cs3  1  0.250369  0.869140  0.948562  1
  Cs  Cs4  1  0.254364  0.196230  0.840073  1
  Cs  Cs5  1  0.244195  0.802900  0.340690  1
  Cs  Cs6  1  0.754318  0.305252  0.160093  1
  Cs  Cs7  1  0.746406  0.696070  0.659939  1
  Cd  Cd8  1  0.520137  0.497416  0.847021  1
  Cd  Cd9  1  0.980053  0.502641  0.347086  1
  Cd  Cd10  1  0.018493  0.002652  0.152864  1
  Cd  Cd11  1  0.480336  0.997234  0.652931  1
  Sn  Sn12  1  0.511425  0.979382  0.152757  1
  Sn  Sn13  1  0.266764  0.434967  0.013876  1
  Sn  Sn14  1  0.233551  0.564994  0.514009  1
  Sn  Sn15  1  0.767996  0.067017  0.984087  1
  Sn  Sn16  1  0.733816  0.934673  0.486437  1
  Sn  Sn17  1  0.262072  0.451044  0.679461  1
  Sn  Sn18  1  0.237921  0.549096  0.179459  1
  Sn  Sn19  1  0.763775  0.051126  0.322605  1
  Sn  Sn20  1  0.738008  0.950848  0.820107  1
  Ge  Ge21  1  0.485560  0.481817  0.346983  1
  Ge  Ge22  1  0.014538  0.518210  0.846984  1
  Ge  Ge23  1  0.985415  0.018013  0.653016  1
  Se  Se24  1  0.525150  0.381730  0.730361  1
  Se  Se25  1  0.974474  0.617781  0.230546  1
  Se  Se26  1  0.024658  0.119051  0.269304  1
  Se  Se27  1  0.475058  0.881877  0.769566  1
  Se  Se28  1  0.010102  0.906506  0.755075  1
  Se  Se29  1  0.489825  0.100148  0.261202  1
  Se  Se30  1  0.509676  0.592748  0.244626  1
  Se  Se31  1  0.990528  0.407185  0.744615  1
  Se  Se32  1  0.746265  0.118404  0.657065  1
  Se  Se33  1  0.768046  0.873179  0.158236  1
  Se  Se34  1  0.247757  0.381532  0.343122  1
  Se  Se35  1  0.252383  0.618499  0.842851  1
  Se  Se36  1  0.218945  0.123319  0.648577  1
  Se  Se37  1  0.262351  0.866332  0.147848  1
  Se  Se38  1  0.720421  0.376568  0.351634  1
  Se  Se39  1  0.779795  0.623633  0.851447  1
  Se  Se40  1  0.032167  0.125681  0.040374  1
  Se  Se41  1  0.467457  0.875064  0.540028  1
  Se  Se42  1  0.533118  0.375142  0.959619  1
  Se  Se43  1  0.967192  0.625118  0.460042  1
  Se  Se44  1  0.004047  0.897884  0.555629  1
  Se  Se45  1  0.495195  0.108966  0.049591  1
  Se  Se46  1  0.503177  0.601505  0.444629  1
  Se  Se47  1  0.996847  0.398567  0.944482  1
  Se  Se48  1  0.229799  0.378514  0.551701  1
  Se  Se49  1  0.270176  0.621309  0.051661  1
  Se  Se50  1  0.733170  0.121929  0.450697  1
  Se  Se51  1  0.769900  0.879744  0.948270  1
  Se  Se52  1  0.234586  0.363486  0.140752  1
  Se  Se53  1  0.265677  0.636501  0.640930  1
  Se  Se54  1  0.737830  0.136975  0.856862  1
  Se  Se55  1  0.765665  0.864792  0.358997  1
