# generated using pymatgen
data_HfZr3NbSn3P
_symmetry_space_group_name_H-M   'P 1'
_cell_length_a   8.56896300
_cell_length_b   8.56896256
_cell_length_c   5.84806100
_cell_angle_alpha   90.00000000
_cell_angle_beta   90.00000000
_cell_angle_gamma   119.99999012
_symmetry_Int_Tables_number   1
_chemical_formula_structural   HfZr3NbSn3P
_chemical_formula_sum   'Hf2 Zr6 Nb2 Sn6 P2'
_cell_volume   371.87679712
_cell_formula_units_Z   2
loop_
 _symmetry_equiv_pos_site_id
 _symmetry_equiv_pos_as_xyz
  1  'x, y, z'
loop_
 _atom_site_type_symbol
 _atom_site_label
 _atom_site_symmetry_multiplicity
 _atom_site_fract_x
 _atom_site_fract_y
 _atom_site_fract_z
 _atom_site_occupancy
  Hf  Hf0  1  0.333333  0.666667  0.500000  1
  Hf  Hf1  1  0.666667  0.333333  0.500000  1
  Zr  Zr2  1  0.748744  0.748744  0.749256  1
  Zr  Zr3  1  0.251256  0.000000  0.749256  1
  Zr  Zr4  1  0.000000  0.251256  0.749256  1
  Zr  Zr5  1  0.251256  0.251256  0.250744  1
  Zr  Zr6  1  0.748744  0.000000  0.250744  1
  Zr  Zr7  1  0.000000  0.748744  0.250744  1
  Nb  Nb8  1  0.666667  0.333333  0.000000  1
  Nb  Nb9  1  0.333333  0.666667  0.000000  1
  Sn  Sn10  1  0.401210  0.401210  0.755859  1
  Sn  Sn11  1  0.598790  0.000000  0.755859  1
  Sn  Sn12  1  0.000000  0.598790  0.755859  1
  Sn  Sn13  1  0.598790  0.598790  0.244141  1
  Sn  Sn14  1  0.401210  0.000000  0.244141  1
  Sn  Sn15  1  0.000000  0.401210  0.244141  1
  P  P16  1  0.000000  0.000000  0.000000  1
  P  P17  1  0.000000  0.000000  0.500000  1
