# generated using pymatgen
data_LaYbAl20IrOs3
_symmetry_space_group_name_H-M   'P 1'
_cell_length_a   6.89818586
_cell_length_b   6.89922056
_cell_length_c   9.20126785
_cell_angle_alpha   90.18970956
_cell_angle_beta   90.02959160
_cell_angle_gamma   96.63533447
_symmetry_Int_Tables_number   1
_chemical_formula_structural   LaYbAl20IrOs3
_chemical_formula_sum   'La1 Yb1 Al20 Ir1 Os3'
_cell_volume   434.97191016
_cell_formula_units_Z   1
loop_
 _symmetry_equiv_pos_site_id
 _symmetry_equiv_pos_as_xyz
  1  'x, y, z'
loop_
 _atom_site_type_symbol
 _atom_site_label
 _atom_site_symmetry_multiplicity
 _atom_site_fract_x
 _atom_site_fract_y
 _atom_site_fract_z
 _atom_site_occupancy
  La  La0  1  0.626050  0.375917  0.749982  1
  Yb  Yb1  1  0.372195  0.625352  0.250425  1
  Al  Al2  1  0.279036  0.016308  0.747734  1
  Al  Al3  1  0.020046  0.283598  0.249360  1
  Al  Al4  1  0.717956  0.979738  0.252214  1
  Al  Al5  1  0.983988  0.719537  0.750668  1
  Al  Al6  1  0.880110  0.123049  0.949926  1
  Al  Al7  1  0.120986  0.876146  0.047185  1
  Al  Al8  1  0.878042  0.122277  0.547989  1
  Al  Al9  1  0.123223  0.876039  0.454147  1
  Al  Al10  1  0.644559  0.911284  0.749151  1
  Al  Al11  1  0.916647  0.645731  0.250432  1
  Al  Al12  1  0.353400  0.083403  0.250955  1
  Al  Al13  1  0.089442  0.356249  0.749722  1
  Al  Al14  1  0.339664  0.658698  0.897868  1
  Al  Al15  1  0.660942  0.340988  0.104524  1
  Al  Al16  1  0.341395  0.659215  0.600000  1
  Al  Al17  1  0.659287  0.339435  0.397212  1
  Al  Al18  1  0.724005  0.724895  0.002062  1
  Al  Al19  1  0.722970  0.724814  0.497317  1
  Al  Al20  1  0.274134  0.278233  0.004278  1
  Al  Al21  1  0.274505  0.277336  0.496439  1
  Ir  Ir22  1  0.499388  0.000543  0.000808  1
  Os  Os23  1  0.999400  0.500494  0.000900  1
  Os  Os24  1  0.499431  0.000442  0.499364  1
  Os  Os25  1  0.999198  0.500280  0.499338  1
