# generated using pymatgen
data_Ho2ErNiPd2Pb3
_symmetry_space_group_name_H-M   'P 1'
_cell_length_a   7.78566269
_cell_length_b   7.79131859
_cell_length_c   3.78148400
_cell_angle_alpha   90.00000000
_cell_angle_beta   90.00000000
_cell_angle_gamma   120.02403244
_symmetry_Int_Tables_number   1
_chemical_formula_structural   Ho2ErNiPd2Pb3
_chemical_formula_sum   'Ho2 Er1 Ni1 Pd2 Pb3'
_cell_volume   198.60685003
_cell_formula_units_Z   1
loop_
 _symmetry_equiv_pos_site_id
 _symmetry_equiv_pos_as_xyz
  1  'x, y, z'
loop_
 _atom_site_type_symbol
 _atom_site_label
 _atom_site_symmetry_multiplicity
 _atom_site_fract_x
 _atom_site_fract_y
 _atom_site_fract_z
 _atom_site_occupancy
  Ho  Ho0  1  0.398895  0.398838  0.500000  1
  Ho  Ho1  1  0.601105  0.999942  0.500000  1
  Er  Er2  1  0.000000  0.601309  0.500000  1
  Ni  Ni3  1  0.000000  0.999736  0.500000  1
  Pd  Pd4  1  0.667404  0.333931  0.000000  1
  Pd  Pd5  1  0.332596  0.666528  0.000000  1
  Pb  Pb6  1  0.742701  0.742414  0.000000  1
  Pb  Pb7  1  0.257299  0.999713  0.000000  1
  Pb  Pb8  1  0.000000  0.257588  0.000000  1
