# generated using pymatgen
data_Ce4Dy(SiB4)2
_symmetry_space_group_name_H-M   'P 1'
_cell_length_a   7.32345000
_cell_length_b   7.32345000
_cell_length_c   8.27906200
_cell_angle_alpha   90.00000000
_cell_angle_beta   90.00000000
_cell_angle_gamma   90.00000000
_symmetry_Int_Tables_number   1
_chemical_formula_structural   Ce4Dy(SiB4)2
_chemical_formula_sum   'Ce8 Dy2 Si4 B16'
_cell_volume   444.03026911
_cell_formula_units_Z   2
loop_
 _symmetry_equiv_pos_site_id
 _symmetry_equiv_pos_as_xyz
  1  'x, y, z'
loop_
 _atom_site_type_symbol
 _atom_site_label
 _atom_site_symmetry_multiplicity
 _atom_site_fract_x
 _atom_site_fract_y
 _atom_site_fract_z
 _atom_site_occupancy
  Ce  Ce0  1  0.681579  0.181579  0.226137  1
  Ce  Ce1  1  0.318421  0.818421  0.773863  1
  Ce  Ce2  1  0.318421  0.818421  0.226137  1
  Ce  Ce3  1  0.818421  0.681579  0.226137  1
  Ce  Ce4  1  0.818421  0.681579  0.773863  1
  Ce  Ce5  1  0.681579  0.181579  0.773863  1
  Ce  Ce6  1  0.181579  0.318421  0.773863  1
  Ce  Ce7  1  0.181579  0.318421  0.226137  1
  Dy  Dy8  1  0.000000  0.000000  0.500000  1
  Dy  Dy9  1  0.500000  0.500000  0.500000  1
  Si  Si10  1  0.115060  0.615060  0.500000  1
  Si  Si11  1  0.884940  0.384940  0.500000  1
  Si  Si12  1  0.384940  0.115060  0.500000  1
  Si  Si13  1  0.615060  0.884940  0.500000  1
  B  B14  1  0.172315  0.039235  0.000000  1
  B  B15  1  0.827685  0.960765  0.000000  1
  B  B16  1  0.960765  0.172315  0.000000  1
  B  B17  1  0.327685  0.539235  0.000000  1
  B  B18  1  0.039235  0.827685  0.000000  1
  B  B19  1  0.672315  0.460765  0.000000  1
  B  B20  1  0.539235  0.672315  0.000000  1
  B  B21  1  0.460765  0.327685  0.000000  1
  B  B22  1  0.091452  0.591452  0.000000  1
  B  B23  1  0.908548  0.408548  0.000000  1
  B  B24  1  0.408548  0.091452  0.000000  1
  B  B25  1  0.591452  0.908548  0.000000  1
  B  B26  1  0.000000  0.000000  0.159059  1
  B  B27  1  0.000000  0.000000  0.840941  1
  B  B28  1  0.500000  0.500000  0.840941  1
  B  B29  1  0.500000  0.500000  0.159059  1
