# generated using pymatgen
data_LiNd6AuI12
_symmetry_space_group_name_H-M   'P 1'
_cell_length_a   9.99934382
_cell_length_b   9.99934284
_cell_length_c   9.99934400
_cell_angle_alpha   107.10011378
_cell_angle_beta   107.10013602
_cell_angle_gamma   107.10012054
_symmetry_Int_Tables_number   1
_chemical_formula_structural   LiNd6AuI12
_chemical_formula_sum   'Li1 Nd6 Au1 I12'
_cell_volume   830.36091090
_cell_formula_units_Z   1
loop_
 _symmetry_equiv_pos_site_id
 _symmetry_equiv_pos_as_xyz
  1  'x, y, z'
loop_
 _atom_site_type_symbol
 _atom_site_label
 _atom_site_symmetry_multiplicity
 _atom_site_fract_x
 _atom_site_fract_y
 _atom_site_fract_z
 _atom_site_occupancy
  Li  Li0  1  0.500000  0.500000  0.500000  1
  Nd  Nd1  1  0.320764  0.110252  0.035337  1
  Nd  Nd2  1  0.035337  0.320764  0.110252  1
  Nd  Nd3  1  0.110252  0.035337  0.320764  1
  Nd  Nd4  1  0.889747  0.964663  0.679236  1
  Nd  Nd5  1  0.964663  0.679236  0.889747  1
  Nd  Nd6  1  0.679236  0.889748  0.964662  1
  Au  Au7  1  0.000000  0.000000  0.000000  1
  I  I8  1  0.684005  0.227029  0.075120  1
  I  I9  1  0.386391  0.464616  0.165754  1
  I  I10  1  0.075120  0.684005  0.227029  1
  I  I11  1  0.772970  0.924880  0.315995  1
  I  I12  1  0.464616  0.165755  0.386390  1
  I  I13  1  0.165755  0.386390  0.464616  1
  I  I14  1  0.834246  0.613610  0.535385  1
  I  I15  1  0.535384  0.834246  0.613610  1
  I  I16  1  0.227029  0.075120  0.684005  1
  I  I17  1  0.924880  0.315995  0.772970  1
  I  I18  1  0.613610  0.535385  0.834246  1
  I  I19  1  0.315995  0.772970  0.924880  1
