# generated using pymatgen
data_Sm6As7(P3Rh10)2
_symmetry_space_group_name_H-M   'P 1'
_cell_length_a   13.67360800
_cell_length_b   13.67360723
_cell_length_c   3.97633300
_cell_angle_alpha   90.00000000
_cell_angle_beta   90.00000000
_cell_angle_gamma   120.00000186
_symmetry_Int_Tables_number   1
_chemical_formula_structural   Sm6As7(P3Rh10)2
_chemical_formula_sum   'Sm6 As7 P6 Rh20'
_cell_volume   643.84243469
_cell_formula_units_Z   1
loop_
 _symmetry_equiv_pos_site_id
 _symmetry_equiv_pos_as_xyz
  1  'x, y, z'
loop_
 _atom_site_type_symbol
 _atom_site_label
 _atom_site_symmetry_multiplicity
 _atom_site_fract_x
 _atom_site_fract_y
 _atom_site_fract_z
 _atom_site_occupancy
  Sm  Sm0  1  0.189497  0.474124  0.000000  1
  Sm  Sm1  1  0.525876  0.715374  0.000000  1
  Sm  Sm2  1  0.284626  0.810503  0.000000  1
  Sm  Sm3  1  0.717731  0.190755  0.500000  1
  Sm  Sm4  1  0.809245  0.526977  0.500000  1
  Sm  Sm5  1  0.473023  0.282269  0.500000  1
  As  As6  1  0.051869  0.285724  0.500000  1
  As  As7  1  0.714276  0.766146  0.500000  1
  As  As8  1  0.233854  0.948131  0.500000  1
  As  As9  1  0.767526  0.054270  0.000000  1
  As  As10  1  0.945730  0.713256  0.000000  1
  As  As11  1  0.286744  0.232474  0.000000  1
  As  As12  1  0.000000  0.000000  0.000000  1
  P  P13  1  0.388659  0.525766  0.500000  1
  P  P14  1  0.474234  0.862892  0.500000  1
  P  P15  1  0.137108  0.611341  0.500000  1
  P  P16  1  0.526571  0.138658  0.000000  1
  P  P17  1  0.861342  0.387911  0.000000  1
  P  P18  1  0.612089  0.473429  0.000000  1
  Rh  Rh19  1  0.096619  0.200188  0.000000  1
  Rh  Rh20  1  0.799812  0.896431  0.000000  1
  Rh  Rh21  1  0.103569  0.903381  0.000000  1
  Rh  Rh22  1  0.333333  0.666667  0.500000  1
  Rh  Rh23  1  0.903765  0.088048  0.500000  1
  Rh  Rh24  1  0.911952  0.815716  0.500000  1
  Rh  Rh25  1  0.184284  0.096235  0.500000  1
  Rh  Rh26  1  0.666667  0.333333  0.000000  1
  Rh  Rh27  1  0.418688  0.449229  0.000000  1
  Rh  Rh28  1  0.550771  0.969459  0.000000  1
  Rh  Rh29  1  0.030541  0.581312  0.000000  1
  Rh  Rh30  1  0.256582  0.334254  0.500000  1
  Rh  Rh31  1  0.665746  0.922328  0.500000  1
  Rh  Rh32  1  0.077672  0.743418  0.500000  1
  Rh  Rh33  1  0.449664  0.030710  0.500000  1
  Rh  Rh34  1  0.969290  0.418955  0.500000  1
  Rh  Rh35  1  0.581045  0.550336  0.500000  1
  Rh  Rh36  1  0.920312  0.254738  0.000000  1
  Rh  Rh37  1  0.745262  0.665574  0.000000  1
  Rh  Rh38  1  0.334426  0.079688  0.000000  1
