# generated using pymatgen
data_Ca7Nd5(GaRh)8
_symmetry_space_group_name_H-M   'P 1'
_cell_length_a   5.75351246
_cell_length_b   7.92927429
_cell_length_c   13.91635731
_cell_angle_alpha   90.03939677
_cell_angle_beta   90.09204199
_cell_angle_gamma   90.05222926
_symmetry_Int_Tables_number   1
_chemical_formula_structural   Ca7Nd5(GaRh)8
_chemical_formula_sum   'Ca7 Nd5 Ga8 Rh8'
_cell_volume   634.87938596
_cell_formula_units_Z   1
loop_
 _symmetry_equiv_pos_site_id
 _symmetry_equiv_pos_as_xyz
  1  'x, y, z'
loop_
 _atom_site_type_symbol
 _atom_site_label
 _atom_site_symmetry_multiplicity
 _atom_site_fract_x
 _atom_site_fract_y
 _atom_site_fract_z
 _atom_site_occupancy
  Ca  Ca0  1  0.852439  0.393788  0.901042  1
  Ca  Ca1  1  0.853846  0.104516  0.097424  1
  Ca  Ca2  1  0.147497  0.893529  0.599910  1
  Ca  Ca3  1  0.145910  0.609447  0.401912  1
  Ca  Ca4  1  0.370144  0.246313  0.750134  1
  Ca  Ca5  1  0.628148  0.750706  0.249800  1
  Ca  Ca6  1  0.629614  0.746507  0.750092  1
  Nd  Nd7  1  0.142993  0.603397  0.094366  1
  Nd  Nd8  1  0.146130  0.899524  0.904498  1
  Nd  Nd9  1  0.855135  0.098430  0.406120  1
  Nd  Nd10  1  0.851989  0.401387  0.594467  1
  Nd  Nd11  1  0.378928  0.251938  0.248594  1
  Ga  Ga12  1  0.387594  0.250354  0.999034  1
  Ga  Ga13  1  0.611776  0.750319  0.499423  1
  Ga  Ga14  1  0.628175  0.750440  0.001290  1
  Ga  Ga15  1  0.371479  0.250688  0.501339  1
  Ga  Ga16  1  0.869592  0.405900  0.251353  1
  Ga  Ga17  1  0.854999  0.093158  0.748637  1
  Ga  Ga18  1  0.141232  0.902097  0.248499  1
  Ga  Ga19  1  0.146303  0.592344  0.751640  1
  Rh  Rh20  1  0.631108  0.469546  0.097144  1
  Rh  Rh21  1  0.636666  0.027340  0.904925  1
  Rh  Rh22  1  0.361723  0.976655  0.403870  1
  Rh  Rh23  1  0.361865  0.529308  0.594051  1
  Rh  Rh24  1  0.353526  0.535825  0.911163  1
  Rh  Rh25  1  0.351643  0.968439  0.090898  1
  Rh  Rh26  1  0.646631  0.035265  0.590035  1
  Rh  Rh27  1  0.642915  0.462839  0.408342  1
