# generated using pymatgen
data_Sm7Th5(ZnAu5)4
_symmetry_space_group_name_H-M   'P 1'
_cell_length_a   8.59005827
_cell_length_b   8.59005949
_cell_length_c   13.59635916
_cell_angle_alpha   89.95761355
_cell_angle_beta   90.04238838
_cell_angle_gamma   126.74989545
_symmetry_Int_Tables_number   1
_chemical_formula_structural   Sm7Th5(ZnAu5)4
_chemical_formula_sum   'Sm7 Th5 Zn4 Au20'
_cell_volume   803.86933502
_cell_formula_units_Z   1
loop_
 _symmetry_equiv_pos_site_id
 _symmetry_equiv_pos_as_xyz
  1  'x, y, z'
loop_
 _atom_site_type_symbol
 _atom_site_label
 _atom_site_symmetry_multiplicity
 _atom_site_fract_x
 _atom_site_fract_y
 _atom_site_fract_z
 _atom_site_occupancy
  Sm  Sm0  1  0.368695  0.631305  0.539889  1
  Sm  Sm1  1  0.630504  0.369496  0.038504  1
  Sm  Sm2  1  0.369350  0.630650  0.960533  1
  Sm  Sm3  1  0.883158  0.116842  0.951765  1
  Sm  Sm4  1  0.116797  0.883203  0.047586  1
  Sm  Sm5  1  0.883402  0.116598  0.549417  1
  Sm  Sm6  1  0.116637  0.883363  0.450997  1
  Th  Th7  1  0.929380  0.070620  0.249649  1
  Th  Th8  1  0.070440  0.929560  0.750606  1
  Th  Th9  1  0.319115  0.680885  0.249796  1
  Th  Th10  1  0.682258  0.317742  0.751342  1
  Th  Th11  1  0.631133  0.368867  0.460149  1
  Zn  Zn12  1  0.719538  0.280462  0.248698  1
  Zn  Zn13  1  0.280906  0.719094  0.750327  1
  Zn  Zn14  1  0.533206  0.466794  0.249057  1
  Zn  Zn15  1  0.466655  0.533345  0.750357  1
  Au  Au16  1  0.320285  0.065443  0.250549  1
  Au  Au17  1  0.065497  0.320541  0.749931  1
  Au  Au18  1  0.679459  0.934503  0.749931  1
  Au  Au19  1  0.934557  0.679715  0.250549  1
  Au  Au20  1  0.567924  0.001003  0.395886  1
  Au  Au21  1  0.002034  0.568462  0.603742  1
  Au  Au22  1  0.568902  0.002766  0.103581  1
  Au  Au23  1  0.002531  0.568642  0.896512  1
  Au  Au24  1  0.431538  0.997966  0.603742  1
  Au  Au25  1  0.998997  0.432076  0.395886  1
  Au  Au26  1  0.431358  0.997469  0.896512  1
  Au  Au27  1  0.997234  0.431098  0.103581  1
  Au  Au28  1  0.686570  0.742597  0.393961  1
  Au  Au29  1  0.741322  0.686436  0.606558  1
  Au  Au30  1  0.685636  0.741690  0.105898  1
  Au  Au31  1  0.741715  0.686010  0.894046  1
  Au  Au32  1  0.313564  0.258678  0.606558  1
  Au  Au33  1  0.257403  0.313430  0.393961  1
  Au  Au34  1  0.313990  0.258285  0.894046  1
  Au  Au35  1  0.258310  0.314364  0.105898  1
