# generated using pymatgen
data_Ca6MgTaSi2N9
_symmetry_space_group_name_H-M   'P 1'
_cell_length_a   9.89515500
_cell_length_b   5.97214860
_cell_length_c   8.89561137
_cell_angle_alpha   90.05505765
_cell_angle_beta   90.00000000
_cell_angle_gamma   90.00000000
_symmetry_Int_Tables_number   1
_chemical_formula_structural   Ca6MgTaSi2N9
_chemical_formula_sum   'Ca12 Mg2 Ta2 Si4 N18'
_cell_volume   525.68890045
_cell_formula_units_Z   2
loop_
 _symmetry_equiv_pos_site_id
 _symmetry_equiv_pos_as_xyz
  1  'x, y, z'
loop_
 _atom_site_type_symbol
 _atom_site_label
 _atom_site_symmetry_multiplicity
 _atom_site_fract_x
 _atom_site_fract_y
 _atom_site_fract_z
 _atom_site_occupancy
  Ca  Ca0  1  0.938034  0.427677  0.161262  1
  Ca  Ca1  1  0.078672  0.245519  0.494467  1
  Ca  Ca2  1  0.438034  0.572323  0.838738  1
  Ca  Ca3  1  0.578672  0.754481  0.505533  1
  Ca  Ca4  1  0.576227  0.069261  0.831207  1
  Ca  Ca5  1  0.923773  0.069261  0.831207  1
  Ca  Ca6  1  0.423773  0.930739  0.168793  1
  Ca  Ca7  1  0.421328  0.245519  0.494467  1
  Ca  Ca8  1  0.076227  0.930739  0.168793  1
  Ca  Ca9  1  0.921328  0.754481  0.505533  1
  Ca  Ca10  1  0.061966  0.572323  0.838738  1
  Ca  Ca11  1  0.561966  0.427677  0.161262  1
  Mg  Mg12  1  0.250000  0.105561  0.791218  1
  Mg  Mg13  1  0.750000  0.894439  0.208782  1
  Ta  Ta14  1  0.750000  0.277079  0.433445  1
  Ta  Ta15  1  0.250000  0.722921  0.566555  1
  Si  Si16  1  0.250000  0.315011  0.055799  1
  Si  Si17  1  0.750000  0.460285  0.722631  1
  Si  Si18  1  0.750000  0.684989  0.944201  1
  Si  Si19  1  0.250000  0.539715  0.277369  1
  N  N20  1  0.396362  0.223053  0.969404  1
  N  N21  1  0.250000  0.241320  0.254638  1
  N  N22  1  0.899794  0.102927  0.334741  1
  N  N23  1  0.610701  0.364103  0.625798  1
  N  N24  1  0.750000  0.560533  0.330230  1
  N  N25  1  0.250000  0.615867  0.083019  1
  N  N26  1  0.889299  0.364103  0.625798  1
  N  N27  1  0.389299  0.635897  0.374202  1
  N  N28  1  0.750000  0.384133  0.916981  1
  N  N29  1  0.100206  0.897073  0.665259  1
  N  N30  1  0.750000  0.758680  0.745362  1
  N  N31  1  0.110701  0.635897  0.374202  1
  N  N32  1  0.603638  0.776947  0.030596  1
  N  N33  1  0.250000  0.439467  0.669770  1
  N  N34  1  0.399794  0.897073  0.665259  1
  N  N35  1  0.600206  0.102927  0.334741  1
  N  N36  1  0.103638  0.223053  0.969404  1
  N  N37  1  0.896362  0.776947  0.030596  1
