# generated using pymatgen
data_DyHo3Tm4(ReB6)4
_symmetry_space_group_name_H-M   'P 1'
_cell_length_a   3.65652000
_cell_length_b   9.12611900
_cell_length_c   11.50917200
_cell_angle_alpha   89.99989999
_cell_angle_beta   90.00000000
_cell_angle_gamma   90.00000000
_symmetry_Int_Tables_number   1
_chemical_formula_structural   DyHo3Tm4(ReB6)4
_chemical_formula_sum   'Dy1 Ho3 Tm4 Re4 B24'
_cell_volume   384.05918957
_cell_formula_units_Z   1
loop_
 _symmetry_equiv_pos_site_id
 _symmetry_equiv_pos_as_xyz
  1  'x, y, z'
loop_
 _atom_site_type_symbol
 _atom_site_label
 _atom_site_symmetry_multiplicity
 _atom_site_fract_x
 _atom_site_fract_y
 _atom_site_fract_z
 _atom_site_occupancy
  Dy  Dy0  1  0.000000  0.323304  0.413898  1
  Ho  Ho1  1  0.000000  0.676648  0.586084  1
  Ho  Ho2  1  0.000000  0.823359  0.086071  1
  Ho  Ho3  1  0.000000  0.176624  0.913947  1
  Tm  Tm4  1  0.000000  0.943280  0.370208  1
  Tm  Tm5  1  0.000000  0.056637  0.629804  1
  Tm  Tm6  1  0.000000  0.443360  0.129712  1
  Tm  Tm7  1  0.000000  0.556678  0.870280  1
  Re  Re8  1  0.000000  0.639192  0.320351  1
  Re  Re9  1  0.000000  0.360948  0.679749  1
  Re  Re10  1  0.000000  0.138960  0.179499  1
  Re  Re11  1  0.000000  0.860950  0.820382  1
  B  B12  1  0.500000  0.553575  0.432850  1
  B  B13  1  0.500000  0.446633  0.567258  1
  B  B14  1  0.500000  0.053396  0.067109  1
  B  B15  1  0.500000  0.946576  0.932866  1
  B  B16  1  0.500000  0.750150  0.418687  1
  B  B17  1  0.500000  0.249850  0.581502  1
  B  B18  1  0.500000  0.250117  0.081292  1
  B  B19  1  0.500000  0.749898  0.918679  1
  B  B20  1  0.500000  0.792818  0.265424  1
  B  B21  1  0.500000  0.207174  0.734590  1
  B  B22  1  0.500000  0.292734  0.234429  1
  B  B23  1  0.500000  0.707201  0.765456  1
  B  B24  1  0.500000  0.630629  0.185112  1
  B  B25  1  0.500000  0.369402  0.814868  1
  B  B26  1  0.500000  0.130474  0.314740  1
  B  B27  1  0.500000  0.869388  0.685167  1
  B  B28  1  0.500000  0.981857  0.212320  1
  B  B29  1  0.500000  0.018119  0.787689  1
  B  B30  1  0.500000  0.482039  0.287566  1
  B  B31  1  0.500000  0.518179  0.712361  1
  B  B32  1  0.500000  0.599149  0.027631  1
  B  B33  1  0.500000  0.400882  0.972366  1
  B  B34  1  0.500000  0.098933  0.472424  1
  B  B35  1  0.500000  0.900885  0.527629  1
