# generated using pymatgen
data_Sm2Mn3Ni9As7
_symmetry_space_group_name_H-M   'P 1'
_cell_length_a   9.49082600
_cell_length_b   9.49082614
_cell_length_c   3.85999100
_cell_angle_alpha   90.00000000
_cell_angle_beta   90.00000000
_cell_angle_gamma   120.00000649
_symmetry_Int_Tables_number   1
_chemical_formula_structural   Sm2Mn3Ni9As7
_chemical_formula_sum   'Sm2 Mn3 Ni9 As7'
_cell_volume   301.10982350
_cell_formula_units_Z   1
loop_
 _symmetry_equiv_pos_site_id
 _symmetry_equiv_pos_as_xyz
  1  'x, y, z'
loop_
 _atom_site_type_symbol
 _atom_site_label
 _atom_site_symmetry_multiplicity
 _atom_site_fract_x
 _atom_site_fract_y
 _atom_site_fract_z
 _atom_site_occupancy
  Sm  Sm0  1  0.666667  0.333333  0.000000  1
  Sm  Sm1  1  0.333333  0.666667  0.500000  1
  Mn  Mn2  1  0.219602  0.102965  0.000000  1
  Mn  Mn3  1  0.897035  0.116638  0.000000  1
  Mn  Mn4  1  0.883362  0.780398  0.000000  1
  Ni  Ni5  1  0.429180  0.060185  0.500000  1
  Ni  Ni6  1  0.939815  0.368996  0.500000  1
  Ni  Ni7  1  0.631004  0.570820  0.500000  1
  Ni  Ni8  1  0.152401  0.279179  0.500000  1
  Ni  Ni9  1  0.720821  0.873221  0.500000  1
  Ni  Ni10  1  0.126779  0.847599  0.500000  1
  Ni  Ni11  1  0.379475  0.430563  0.000000  1
  Ni  Ni12  1  0.569437  0.948912  0.000000  1
  Ni  Ni13  1  0.051088  0.620525  0.000000  1
  As  As14  1  0.111383  0.406409  0.000000  1
  As  As15  1  0.593591  0.704972  0.000000  1
  As  As16  1  0.295028  0.888617  0.000000  1
  As  As17  1  0.000000  0.000000  0.500000  1
  As  As18  1  0.409634  0.299135  0.500000  1
  As  As19  1  0.700865  0.110498  0.500000  1
  As  As20  1  0.889502  0.590366  0.500000  1
