# generated using pymatgen
data_Li2Co5P6Rh5
_symmetry_space_group_name_H-M   'P 1'
_cell_length_a   3.65117600
_cell_length_b   10.52007200
_cell_length_c   11.97207400
_cell_angle_alpha   90.00000000
_cell_angle_beta   90.00000000
_cell_angle_gamma   90.00000000
_symmetry_Int_Tables_number   1
_chemical_formula_structural   Li2Co5P6Rh5
_chemical_formula_sum   'Li4 Co10 P12 Rh10'
_cell_volume   459.85495748
_cell_formula_units_Z   2
loop_
 _symmetry_equiv_pos_site_id
 _symmetry_equiv_pos_as_xyz
  1  'x, y, z'
loop_
 _atom_site_type_symbol
 _atom_site_label
 _atom_site_symmetry_multiplicity
 _atom_site_fract_x
 _atom_site_fract_y
 _atom_site_fract_z
 _atom_site_occupancy
  Li  Li0  1  0.250000  0.585983  0.711156  1
  Li  Li1  1  0.250000  0.914017  0.211156  1
  Li  Li2  1  0.750000  0.420828  0.289741  1
  Li  Li3  1  0.750000  0.079172  0.789741  1
  Co  Co4  1  0.750000  0.775434  0.820718  1
  Co  Co5  1  0.750000  0.724566  0.320718  1
  Co  Co6  1  0.250000  0.876382  0.698181  1
  Co  Co7  1  0.250000  0.623618  0.198181  1
  Co  Co8  1  0.750000  0.110769  0.301661  1
  Co  Co9  1  0.750000  0.389231  0.801661  1
  Co  Co10  1  0.250000  0.466204  0.932065  1
  Co  Co11  1  0.250000  0.033796  0.432065  1
  Co  Co12  1  0.750000  0.540532  0.068314  1
  Co  Co13  1  0.750000  0.959468  0.568314  1
  P  P14  1  0.250000  0.434022  0.114830  1
  P  P15  1  0.250000  0.065978  0.614830  1
  P  P16  1  0.750000  0.578548  0.883817  1
  P  P17  1  0.750000  0.921452  0.383817  1
  P  P18  1  0.250000  0.271944  0.871163  1
  P  P19  1  0.250000  0.228056  0.371163  1
  P  P20  1  0.750000  0.732347  0.138500  1
  P  P21  1  0.750000  0.767653  0.638500  1
  P  P22  1  0.250000  0.603313  0.378582  1
  P  P23  1  0.250000  0.896687  0.878582  1
  P  P24  1  0.750000  0.403829  0.617884  1
  P  P25  1  0.750000  0.096171  0.117884  1
  Rh  Rh26  1  0.250000  0.711539  0.983865  1
  Rh  Rh27  1  0.250000  0.788461  0.483865  1
  Rh  Rh28  1  0.750000  0.287630  0.009455  1
  Rh  Rh29  1  0.750000  0.212370  0.509455  1
  Rh  Rh30  1  0.250000  0.410865  0.479764  1
  Rh  Rh31  1  0.250000  0.089135  0.979764  1
  Rh  Rh32  1  0.750000  0.595382  0.518450  1
  Rh  Rh33  1  0.750000  0.904618  0.018450  1
  Rh  Rh34  1  0.250000  0.230509  0.181853  1
  Rh  Rh35  1  0.250000  0.269491  0.681853  1
