# generated using pymatgen
data_SrU(Tl2Se3)2
_symmetry_space_group_name_H-M   'P 1'
_cell_length_a   7.68687482
_cell_length_b   7.68687598
_cell_length_c   7.89549000
_cell_angle_alpha   80.42209346
_cell_angle_beta   80.42209956
_cell_angle_gamma   119.66741834
_symmetry_Int_Tables_number   1
_chemical_formula_structural   SrU(Tl2Se3)2
_chemical_formula_sum   'Sr1 U1 Tl4 Se6'
_cell_volume   382.50650712
_cell_formula_units_Z   1
loop_
 _symmetry_equiv_pos_site_id
 _symmetry_equiv_pos_as_xyz
  1  'x, y, z'
loop_
 _atom_site_type_symbol
 _atom_site_label
 _atom_site_symmetry_multiplicity
 _atom_site_fract_x
 _atom_site_fract_y
 _atom_site_fract_z
 _atom_site_occupancy
  Sr  Sr0  1  0.831659  0.168341  0.000000  1
  U  U1  1  0.167463  0.832537  0.000000  1
  Tl  Tl2  1  0.500206  0.499794  0.000000  1
  Tl  Tl3  1  0.658864  0.341136  0.500000  1
  Tl  Tl4  1  0.341056  0.658944  0.500000  1
  Tl  Tl5  1  0.000756  0.999244  0.500000  1
  Se  Se6  1  0.814907  0.774788  0.208504  1
  Se  Se7  1  0.225212  0.185093  0.791496  1
  Se  Se8  1  0.384909  0.038749  0.218713  1
  Se  Se9  1  0.531904  0.918186  0.785818  1
  Se  Se10  1  0.961251  0.615091  0.781287  1
  Se  Se11  1  0.081814  0.468096  0.214182  1
