# generated using pymatgen
data_Y2TmCoSn3Pt2
_symmetry_space_group_name_H-M   'P 1'
_cell_length_a   7.62440600
_cell_length_b   7.58976997
_cell_length_c   3.78131000
_cell_angle_alpha   90.00000000
_cell_angle_beta   90.00000000
_cell_angle_gamma   120.15108375
_symmetry_Int_Tables_number   1
_chemical_formula_structural   Y2TmCoSn3Pt2
_chemical_formula_sum   'Y2 Tm1 Co1 Sn3 Pt2'
_cell_volume   189.21011482
_cell_formula_units_Z   1
loop_
 _symmetry_equiv_pos_site_id
 _symmetry_equiv_pos_as_xyz
  1  'x, y, z'
loop_
 _atom_site_type_symbol
 _atom_site_label
 _atom_site_symmetry_multiplicity
 _atom_site_fract_x
 _atom_site_fract_y
 _atom_site_fract_z
 _atom_site_occupancy
  Y  Y0  1  0.000319  0.402192  0.000000  1
  Y  Y1  1  0.598128  0.597808  0.000000  1
  Tm  Tm2  1  0.401964  0.000000  0.000000  1
  Co  Co3  1  0.001192  0.000000  0.000000  1
  Sn  Sn4  1  0.001405  0.750369  0.500000  1
  Sn  Sn5  1  0.251037  0.249631  0.500000  1
  Sn  Sn6  1  0.749099  0.000000  0.500000  1
  Pt  Pt7  1  0.333999  0.671142  0.500000  1
  Pt  Pt8  1  0.662858  0.328858  0.500000  1
