# generated using pymatgen
data_Li3Hf2Rh6W
_symmetry_space_group_name_H-M   'P 1'
_cell_length_a   4.39424700
_cell_length_b   6.14771700
_cell_length_c   13.18802200
_cell_angle_alpha   90.00039122
_cell_angle_beta   89.99971755
_cell_angle_gamma   89.99964038
_symmetry_Int_Tables_number   1
_chemical_formula_structural   Li3Hf2Rh6W
_chemical_formula_sum   'Li6 Hf4 Rh12 W2'
_cell_volume   356.26896746
_cell_formula_units_Z   2
loop_
 _symmetry_equiv_pos_site_id
 _symmetry_equiv_pos_as_xyz
  1  'x, y, z'
loop_
 _atom_site_type_symbol
 _atom_site_label
 _atom_site_symmetry_multiplicity
 _atom_site_fract_x
 _atom_site_fract_y
 _atom_site_fract_z
 _atom_site_occupancy
  Li  Li0  1  0.000003  0.999998  0.000496  1
  Li  Li1  1  0.499935  0.500003  0.166194  1
  Li  Li2  1  0.999907  0.000000  0.331275  1
  Li  Li3  1  0.499998  0.500003  0.499936  1
  Li  Li4  1  0.000088  0.000003  0.666696  1
  Li  Li5  1  0.500082  0.500001  0.835354  1
  Hf  Hf6  1  0.999921  0.500002  0.331815  1
  Hf  Hf7  1  0.500001  0.999999  0.499404  1
  Hf  Hf8  1  0.000078  0.499998  0.667192  1
  Hf  Hf9  1  0.500077  0.000000  0.834853  1
  Rh  Rh10  1  0.500000  0.257342  0.006268  1
  Rh  Rh11  1  0.499988  0.742651  0.006271  1
  Rh  Rh12  1  0.999933  0.242632  0.160497  1
  Rh  Rh13  1  0.999918  0.757369  0.160501  1
  Rh  Rh14  1  0.499916  0.244562  0.326292  1
  Rh  Rh15  1  0.499915  0.755434  0.326289  1
  Rh  Rh16  1  0.000001  0.251152  0.498459  1
  Rh  Rh17  1  0.000001  0.748842  0.498455  1
  Rh  Rh18  1  0.500070  0.248850  0.668104  1
  Rh  Rh19  1  0.500075  0.751155  0.668101  1
  Rh  Rh20  1  0.000080  0.255483  0.840385  1
  Rh  Rh21  1  0.000085  0.744515  0.840388  1
  W  W22  1  0.999996  0.500003  0.000368  1
  W  W23  1  0.499927  0.999998  0.166404  1
