# generated using pymatgen
data_Ac5Tb5Sn8
_symmetry_space_group_name_H-M   'P 1'
_cell_length_a   8.42983000
_cell_length_b   8.56347734
_cell_length_c   16.32357021
_cell_angle_alpha   89.62656168
_cell_angle_beta   90.00000000
_cell_angle_gamma   90.00000000
_symmetry_Int_Tables_number   1
_chemical_formula_structural   Ac5Tb5Sn8
_chemical_formula_sum   'Ac10 Tb10 Sn16'
_cell_volume   1178.35160151
_cell_formula_units_Z   2
loop_
 _symmetry_equiv_pos_site_id
 _symmetry_equiv_pos_as_xyz
  1  'x, y, z'
loop_
 _atom_site_type_symbol
 _atom_site_label
 _atom_site_symmetry_multiplicity
 _atom_site_fract_x
 _atom_site_fract_y
 _atom_site_fract_z
 _atom_site_occupancy
  Ac  Ac0  1  0.489670  0.819695  0.905206  1
  Ac  Ac1  1  0.989670  0.680305  0.594794  1
  Ac  Ac2  1  0.511968  0.175501  0.401052  1
  Ac  Ac3  1  0.011968  0.324499  0.098948  1
  Ac  Ac4  1  0.510912  0.180462  0.098837  1
  Ac  Ac5  1  0.010912  0.319538  0.401163  1
  Ac  Ac6  1  0.486055  0.820221  0.595190  1
  Ac  Ac7  1  0.986055  0.679779  0.904810  1
  Ac  Ac8  1  0.643897  0.338692  0.884557  1
  Ac  Ac9  1  0.143897  0.161308  0.615443  1
  Tb  Tb10  1  0.357529  0.660752  0.372131  1
  Tb  Tb11  1  0.857529  0.839248  0.127869  1
  Tb  Tb12  1  0.353583  0.659520  0.123628  1
  Tb  Tb13  1  0.853583  0.840480  0.376372  1
  Tb  Tb14  1  0.647431  0.337453  0.624008  1
  Tb  Tb15  1  0.147431  0.162547  0.875992  1
  Tb  Tb16  1  0.311305  0.497837  0.751673  1
  Tb  Tb17  1  0.811305  0.002163  0.748327  1
  Tb  Tb18  1  0.689397  0.504096  0.250792  1
  Tb  Tb19  1  0.189397  0.995904  0.249208  1
  Sn  Sn20  1  0.188787  0.957190  0.043900  1
  Sn  Sn21  1  0.688787  0.542810  0.456100  1
  Sn  Sn22  1  0.791914  0.040963  0.541268  1
  Sn  Sn23  1  0.291914  0.459037  0.958732  1
  Sn  Sn24  1  0.824340  0.033702  0.960841  1
  Sn  Sn25  1  0.324340  0.466298  0.539159  1
  Sn  Sn26  1  0.191719  0.946491  0.446951  1
  Sn  Sn27  1  0.691719  0.553509  0.053049  1
  Sn  Sn28  1  0.683665  0.644821  0.747588  1
  Sn  Sn29  1  0.183665  0.855179  0.752412  1
  Sn  Sn30  1  0.317820  0.361763  0.249592  1
  Sn  Sn31  1  0.817820  0.138237  0.250408  1
  Sn  Sn32  1  0.447928  0.123910  0.751438  1
  Sn  Sn33  1  0.947928  0.376090  0.748562  1
  Sn  Sn34  1  0.552081  0.868132  0.249042  1
  Sn  Sn35  1  0.052081  0.631868  0.250958  1
