# generated using pymatgen
data_La4Ga8Ge2Ir5Pt
_symmetry_space_group_name_H-M   'P 1'
_cell_length_a   8.73095137
_cell_length_b   8.67552445
_cell_length_c   8.67562158
_cell_angle_alpha   140.03367974
_cell_angle_beta   107.77928569
_cell_angle_gamma   85.81377788
_symmetry_Int_Tables_number   1
_chemical_formula_structural   La4Ga8Ge2Ir5Pt
_chemical_formula_sum   'La4 Ga8 Ge2 Ir5 Pt1'
_cell_volume   387.76625514
_cell_formula_units_Z   1
loop_
 _symmetry_equiv_pos_site_id
 _symmetry_equiv_pos_as_xyz
  1  'x, y, z'
loop_
 _atom_site_type_symbol
 _atom_site_label
 _atom_site_symmetry_multiplicity
 _atom_site_fract_x
 _atom_site_fract_y
 _atom_site_fract_z
 _atom_site_occupancy
  La  La0  1  0.094748  0.868414  0.228921  1
  La  La1  1  0.636315  0.361150  0.273288  1
  La  La2  1  0.906946  0.136007  0.772136  1
  La  La3  1  0.363801  0.633716  0.727804  1
  Ga  Ga4  1  0.293818  0.043108  0.755151  1
  Ga  Ga5  1  0.289298  0.534544  0.250556  1
  Ga  Ga6  1  0.000245  0.248058  0.250047  1
  Ga  Ga7  1  0.239004  0.404574  0.836324  1
  Ga  Ga8  1  0.750296  0.593177  0.160173  1
  Ga  Ga9  1  0.711207  0.459458  0.749972  1
  Ga  Ga10  1  0.569794  0.904396  0.663155  1
  Ga  Ga11  1  0.716418  0.966045  0.251101  1
  Ge  Ge12  1  0.433734  0.094372  0.335733  1
  Ge  Ge13  1  0.000716  0.752505  0.753714  1
  Ir  Ir14  1  0.758267  0.848252  0.892910  1
  Ir  Ir15  1  0.956675  0.365782  0.608381  1
  Ir  Ir16  1  0.243975  0.136681  0.095117  1
  Ir  Ir17  1  0.495966  0.750421  0.247636  1
  Ir  Ir18  1  0.496229  0.248573  0.745620  1
  Pt  Pt19  1  0.042552  0.650767  0.402259  1
