# generated using pymatgen
data_LaNdY4Si4(BRh6)2
_symmetry_space_group_name_H-M   'P 1'
_cell_length_a   5.54967300
_cell_length_b   5.54967206
_cell_length_c   14.66470200
_cell_angle_alpha   90.00000000
_cell_angle_beta   90.00000000
_cell_angle_gamma   119.99999966
_symmetry_Int_Tables_number   1
_chemical_formula_structural   LaNdY4Si4(BRh6)2
_chemical_formula_sum   'La1 Nd1 Y4 Si4 B2 Rh12'
_cell_volume   391.14572670
_cell_formula_units_Z   1
loop_
 _symmetry_equiv_pos_site_id
 _symmetry_equiv_pos_as_xyz
  1  'x, y, z'
loop_
 _atom_site_type_symbol
 _atom_site_label
 _atom_site_symmetry_multiplicity
 _atom_site_fract_x
 _atom_site_fract_y
 _atom_site_fract_z
 _atom_site_occupancy
  La  La0  1  0.333333  0.666667  0.250000  1
  Nd  Nd1  1  0.666667  0.333333  0.750000  1
  Y  Y2  1  0.666667  0.333333  0.969358  1
  Y  Y3  1  0.666667  0.333333  0.530642  1
  Y  Y4  1  0.333333  0.666667  0.041406  1
  Y  Y5  1  0.333333  0.666667  0.458594  1
  Si  Si6  1  0.000000  0.000000  0.489791  1
  Si  Si7  1  0.000000  0.000000  0.750000  1
  Si  Si8  1  0.333333  0.666667  0.750000  1
  Si  Si9  1  0.000000  0.000000  0.010209  1
  B  B10  1  0.666667  0.333333  0.250000  1
  B  B11  1  0.000000  0.000000  0.250000  1
  Rh  Rh12  1  0.166285  0.332573  0.874377  1
  Rh  Rh13  1  0.166285  0.332573  0.625623  1
  Rh  Rh14  1  0.667427  0.833715  0.874377  1
  Rh  Rh15  1  0.332517  0.166258  0.352483  1
  Rh  Rh16  1  0.833742  0.667483  0.352483  1
  Rh  Rh17  1  0.833742  0.166258  0.352483  1
  Rh  Rh18  1  0.833742  0.166258  0.147517  1
  Rh  Rh19  1  0.332517  0.166258  0.147517  1
  Rh  Rh20  1  0.667427  0.833715  0.625623  1
  Rh  Rh21  1  0.166285  0.833715  0.625623  1
  Rh  Rh22  1  0.833742  0.667483  0.147517  1
  Rh  Rh23  1  0.166285  0.833715  0.874377  1
