# generated using pymatgen
data_Dy6Er3TmSb6
_symmetry_space_group_name_H-M   'P 1'
_cell_length_a   6.25908600
_cell_length_b   8.97142512
_cell_length_c   8.97158500
_cell_angle_alpha   119.99941327
_cell_angle_beta   90.00000000
_cell_angle_gamma   90.00000000
_symmetry_Int_Tables_number   1
_chemical_formula_structural   Dy6Er3TmSb6
_chemical_formula_sum   'Dy6 Er3 Tm1 Sb6'
_cell_volume   436.28946984
_cell_formula_units_Z   1
loop_
 _symmetry_equiv_pos_site_id
 _symmetry_equiv_pos_as_xyz
  1  'x, y, z'
loop_
 _atom_site_type_symbol
 _atom_site_label
 _atom_site_symmetry_multiplicity
 _atom_site_fract_x
 _atom_site_fract_y
 _atom_site_fract_z
 _atom_site_occupancy
  Dy  Dy0  1  0.749999  0.246706  0.000000  1
  Dy  Dy1  1  0.750001  0.753256  0.753253  1
  Dy  Dy2  1  0.750001  0.000003  0.246747  1
  Dy  Dy3  1  0.249999  0.753294  0.000000  1
  Dy  Dy4  1  0.250001  0.246744  0.246747  1
  Dy  Dy5  1  0.250001  0.999997  0.753253  1
  Er  Er6  1  0.499999  0.333337  0.666678  1
  Er  Er7  1  0.499999  0.666659  0.333322  1
  Er  Er8  1  0.999999  0.666663  0.333322  1
  Tm  Tm9  1  0.999999  0.333341  0.666678  1
  Sb  Sb10  1  0.749999  0.610476  0.000000  1
  Sb  Sb11  1  0.750001  0.389528  0.389537  1
  Sb  Sb12  1  0.750001  0.999991  0.610463  1
  Sb  Sb13  1  0.249999  0.389524  0.000000  1
  Sb  Sb14  1  0.250001  0.610472  0.610463  1
  Sb  Sb15  1  0.250001  0.000009  0.389537  1
