# generated using pymatgen
data_Tb4Ta5NbSi8
_symmetry_space_group_name_H-M   'P 1'
_cell_length_a   7.05688827
_cell_length_b   6.89607117
_cell_length_c   7.05299791
_cell_angle_alpha   71.22896129
_cell_angle_beta   89.99867841
_cell_angle_gamma   90.00238490
_symmetry_Int_Tables_number   1
_chemical_formula_structural   Tb4Ta5NbSi8
_chemical_formula_sum   'Tb4 Ta5 Nb1 Si8'
_cell_volume   324.97690673
_cell_formula_units_Z   1
loop_
 _symmetry_equiv_pos_site_id
 _symmetry_equiv_pos_as_xyz
  1  'x, y, z'
loop_
 _atom_site_type_symbol
 _atom_site_label
 _atom_site_symmetry_multiplicity
 _atom_site_fract_x
 _atom_site_fract_y
 _atom_site_fract_z
 _atom_site_occupancy
  Tb  Tb0  1  0.330696  0.564395  0.812785  1
  Tb  Tb1  1  0.830186  0.935605  0.187136  1
  Tb  Tb2  1  0.669685  0.435244  0.187781  1
  Tb  Tb3  1  0.170036  0.064760  0.812772  1
  Ta  Ta4  1  0.499776  0.999635  0.499788  1
  Ta  Ta5  1  0.000575  0.500397  0.499650  1
  Ta  Ta6  1  0.824038  0.747291  0.743861  1
  Ta  Ta7  1  0.323995  0.752088  0.255816  1
  Ta  Ta8  1  0.175786  0.252346  0.255907  1
  Nb  Nb9  1  0.675721  0.248207  0.744302  1
  Si  Si10  1  0.537080  0.867542  0.915869  1
  Si  Si11  1  0.037214  0.632235  0.083734  1
  Si  Si12  1  0.462451  0.132149  0.084622  1
  Si  Si13  1  0.962943  0.368333  0.916094  1
  Si  Si14  1  0.125254  0.871040  0.506160  1
  Si  Si15  1  0.625546  0.629282  0.493206  1
  Si  Si16  1  0.874580  0.128769  0.494458  1
  Si  Si17  1  0.374437  0.370683  0.506061  1
