# generated using pymatgen
data_Ho6Tm10Cd4IrPt3
_symmetry_space_group_name_H-M   'P 1'
_cell_length_a   9.60488949
_cell_length_b   9.56896772
_cell_length_c   9.56932750
_cell_angle_alpha   59.81001647
_cell_angle_beta   60.04444740
_cell_angle_gamma   60.04630959
_symmetry_Int_Tables_number   1
_chemical_formula_structural   Ho6Tm10Cd4IrPt3
_chemical_formula_sum   'Ho6 Tm10 Cd4 Ir1 Pt3'
_cell_volume   621.43130876
_cell_formula_units_Z   1
loop_
 _symmetry_equiv_pos_site_id
 _symmetry_equiv_pos_as_xyz
  1  'x, y, z'
loop_
 _atom_site_type_symbol
 _atom_site_label
 _atom_site_symmetry_multiplicity
 _atom_site_fract_x
 _atom_site_fract_y
 _atom_site_fract_z
 _atom_site_occupancy
  Ho  Ho0  1  0.184747  0.815121  0.815123  1
  Ho  Ho1  1  0.813246  0.187624  0.187651  1
  Ho  Ho2  1  0.814757  0.186867  0.811878  1
  Ho  Ho3  1  0.185435  0.813711  0.186194  1
  Ho  Ho4  1  0.814750  0.811869  0.186869  1
  Ho  Ho5  1  0.185456  0.186182  0.813720  1
  Tm  Tm6  1  0.602041  0.599505  0.599515  1
  Tm  Tm7  1  0.603538  0.600692  0.197148  1
  Tm  Tm8  1  0.603556  0.197164  0.600680  1
  Tm  Tm9  1  0.194886  0.602592  0.602561  1
  Tm  Tm10  1  0.058469  0.439481  0.439493  1
  Tm  Tm11  1  0.439342  0.060515  0.060494  1
  Tm  Tm12  1  0.441164  0.060236  0.438634  1
  Tm  Tm13  1  0.058397  0.437973  0.063268  1
  Tm  Tm14  1  0.441143  0.438616  0.060249  1
  Tm  Tm15  1  0.058431  0.063310  0.437924  1
  Cd  Cd16  1  0.831128  0.830616  0.830461  1
  Cd  Cd17  1  0.831133  0.830608  0.505723  1
  Cd  Cd18  1  0.831143  0.505607  0.830685  1
  Cd  Cd19  1  0.505789  0.830727  0.830796  1
  Ir  Ir20  1  0.823286  0.392534  0.392476  1
  Pt  Pt21  1  0.392827  0.392919  0.392941  1
  Pt  Pt22  1  0.392647  0.392609  0.822921  1
  Pt  Pt23  1  0.392691  0.822922  0.392599  1
