# generated using pymatgen
data_La3Mn2Zn7Ir6
_symmetry_space_group_name_H-M   'P 1'
_cell_length_a   9.46644250
_cell_length_b   9.46644219
_cell_length_c   4.19235300
_cell_angle_alpha   90.00000000
_cell_angle_beta   90.00000000
_cell_angle_gamma   120.24754508
_symmetry_Int_Tables_number   1
_chemical_formula_structural   La3Mn2Zn7Ir6
_chemical_formula_sum   'La3 Mn2 Zn7 Ir6'
_cell_volume   324.54381242
_cell_formula_units_Z   1
loop_
 _symmetry_equiv_pos_site_id
 _symmetry_equiv_pos_as_xyz
  1  'x, y, z'
loop_
 _atom_site_type_symbol
 _atom_site_label
 _atom_site_symmetry_multiplicity
 _atom_site_fract_x
 _atom_site_fract_y
 _atom_site_fract_z
 _atom_site_occupancy
  La  La0  1  0.667875  0.332125  0.500000  1
  La  La1  1  0.332125  0.667875  0.500000  1
  La  La2  1  0.000000  0.000000  0.000000  1
  Mn  Mn3  1  0.000000  0.500000  0.000000  1
  Mn  Mn4  1  0.500000  0.000000  0.000000  1
  Zn  Zn5  1  0.500000  0.500000  0.000000  1
  Zn  Zn6  1  0.697028  0.000304  0.500000  1
  Zn  Zn7  1  0.706465  0.706465  0.500000  1
  Zn  Zn8  1  0.999696  0.302972  0.500000  1
  Zn  Zn9  1  0.000304  0.697028  0.500000  1
  Zn  Zn10  1  0.302972  0.999696  0.500000  1
  Zn  Zn11  1  0.293535  0.293535  0.500000  1
  Ir  Ir12  1  0.815202  0.184798  0.000000  1
  Ir  Ir13  1  0.184798  0.815202  0.000000  1
  Ir  Ir14  1  0.631453  0.815532  0.000000  1
  Ir  Ir15  1  0.368547  0.184468  0.000000  1
  Ir  Ir16  1  0.184468  0.368547  0.000000  1
  Ir  Ir17  1  0.815532  0.631453  0.000000  1
