# generated using pymatgen
data_Na4TcN3
_symmetry_space_group_name_H-M   'P 1'
_cell_length_a   6.26085202
_cell_length_b   6.26085227
_cell_length_c   8.91219181
_cell_angle_alpha   68.34910941
_cell_angle_beta   68.34910641
_cell_angle_gamma   58.06996011
_symmetry_Int_Tables_number   1
_chemical_formula_structural   Na4TcN3
_chemical_formula_sum   'Na8 Tc2 N6'
_cell_volume   268.79437301
_cell_formula_units_Z   2
loop_
 _symmetry_equiv_pos_site_id
 _symmetry_equiv_pos_as_xyz
  1  'x, y, z'
loop_
 _atom_site_type_symbol
 _atom_site_label
 _atom_site_symmetry_multiplicity
 _atom_site_fract_x
 _atom_site_fract_y
 _atom_site_fract_z
 _atom_site_occupancy
  Na  Na0  1  0.373942  0.002953  0.864601  1
  Na  Na1  1  0.564322  0.205092  0.473242  1
  Na  Na2  1  0.466401  0.742230  0.543499  1
  Na  Na3  1  0.742230  0.466401  0.043499  1
  Na  Na4  1  0.630241  0.961280  0.138246  1
  Na  Na5  1  0.961280  0.630241  0.638246  1
  Na  Na6  1  0.205092  0.564322  0.973242  1
  Na  Na7  1  0.002953  0.373942  0.364601  1
  Tc  Tc8  1  0.156374  0.863155  0.249054  1
  Tc  Tc9  1  0.863155  0.156374  0.749054  1
  N  N10  1  0.454397  0.625426  0.311323  1
  N  N11  1  0.625426  0.454397  0.811323  1
  N  N12  1  0.861628  0.831196  0.354405  1
  N  N13  1  0.831196  0.861628  0.854405  1
  N  N14  1  0.147394  0.172371  0.133530  1
  N  N15  1  0.172371  0.147394  0.633530  1
