# generated using pymatgen
data_La8Y12Ga13Ge3
_symmetry_space_group_name_H-M   'P 1'
_cell_length_a   7.67243772
_cell_length_b   8.03711815
_cell_length_c   15.25435300
_cell_angle_alpha   90.03227964
_cell_angle_beta   89.91872854
_cell_angle_gamma   90.05631412
_symmetry_Int_Tables_number   1
_chemical_formula_structural   La8Y12Ga13Ge3
_chemical_formula_sum   'La8 Y12 Ga13 Ge3'
_cell_volume   940.64727435
_cell_formula_units_Z   1
loop_
 _symmetry_equiv_pos_site_id
 _symmetry_equiv_pos_as_xyz
  1  'x, y, z'
loop_
 _atom_site_type_symbol
 _atom_site_label
 _atom_site_symmetry_multiplicity
 _atom_site_fract_x
 _atom_site_fract_y
 _atom_site_fract_z
 _atom_site_occupancy
  La  La0  1  0.978761  0.819431  0.094035  1
  La  La1  1  0.478498  0.681068  0.406428  1
  La  La2  1  0.521112  0.321946  0.905879  1
  La  La3  1  0.020843  0.180088  0.593638  1
  La  La4  1  0.021589  0.176134  0.905674  1
  La  La5  1  0.521174  0.321869  0.594362  1
  La  La6  1  0.478834  0.679228  0.094843  1
  La  La7  1  0.978640  0.821393  0.405655  1
  Y  Y8  1  0.654258  0.987433  0.250327  1
  Y  Y9  1  0.154097  0.511910  0.249299  1
  Y  Y10  1  0.845824  0.487393  0.750104  1
  Y  Y11  1  0.346734  0.012685  0.750885  1
  Y  Y12  1  0.680097  0.824021  0.877127  1
  Y  Y13  1  0.180351  0.675015  0.622323  1
  Y  Y14  1  0.819441  0.326000  0.122710  1
  Y  Y15  1  0.319558  0.174338  0.377924  1
  Y  Y16  1  0.319332  0.174822  0.122071  1
  Y  Y17  1  0.818167  0.324153  0.378801  1
  Y  Y18  1  0.181116  0.675362  0.877528  1
  Y  Y19  1  0.681458  0.824810  0.621415  1
  Ga  Ga20  1  0.767644  0.620624  0.250974  1
  Ga  Ga21  1  0.267488  0.880138  0.250689  1
  Ga  Ga22  1  0.731970  0.120471  0.749470  1
  Ga  Ga23  1  0.232201  0.379000  0.749126  1
  Ga  Ga24  1  0.022982  0.113021  0.249756  1
  Ga  Ga25  1  0.523508  0.387040  0.252252  1
  Ga  Ga26  1  0.476419  0.613126  0.749740  1
  Ga  Ga27  1  0.976818  0.887190  0.748176  1
  Ga  Ga28  1  0.851323  0.531751  0.957687  1
  Ga  Ga29  1  0.348490  0.969017  0.542418  1
  Ga  Ga30  1  0.651077  0.032469  0.041402  1
  Ga  Ga31  1  0.150328  0.468440  0.457785  1
  Ga  Ga32  1  0.149075  0.467839  0.040911  1
  Ge  Ge33  1  0.649135  0.031154  0.458669  1
  Ge  Ge34  1  0.350796  0.968392  0.958224  1
  Ge  Ge35  1  0.850858  0.531233  0.541694  1
