# generated using pymatgen
data_Zn2Ni3PdO8
_symmetry_space_group_name_H-M   'P 1'
_cell_length_a   6.02848826
_cell_length_b   6.02848831
_cell_length_c   6.02848768
_cell_angle_alpha   58.83035757
_cell_angle_beta   58.83035685
_cell_angle_gamma   58.83034954
_symmetry_Int_Tables_number   1
_chemical_formula_structural   Zn2Ni3PdO8
_chemical_formula_sum   'Zn2 Ni3 Pd1 O8'
_cell_volume   150.78359010
_cell_formula_units_Z   1
loop_
 _symmetry_equiv_pos_site_id
 _symmetry_equiv_pos_as_xyz
  1  'x, y, z'
loop_
 _atom_site_type_symbol
 _atom_site_label
 _atom_site_symmetry_multiplicity
 _atom_site_fract_x
 _atom_site_fract_y
 _atom_site_fract_z
 _atom_site_occupancy
  Zn  Zn0  1  0.491844  0.491844  0.491844  1
  Zn  Zn1  1  0.758156  0.758156  0.758156  1
  Ni  Ni2  1  0.625000  0.125000  0.125000  1
  Ni  Ni3  1  0.125000  0.625000  0.125000  1
  Ni  Ni4  1  0.125000  0.125000  0.625000  1
  Pd  Pd5  1  0.125000  0.125000  0.125000  1
  O  O6  1  0.891608  0.891608  0.891608  1
  O  O7  1  0.901340  0.363064  0.363064  1
  O  O8  1  0.363064  0.901340  0.363064  1
  O  O9  1  0.363064  0.363064  0.901340  1
  O  O10  1  0.886936  0.348660  0.886936  1
  O  O11  1  0.886936  0.886936  0.348660  1
  O  O12  1  0.348660  0.886936  0.886936  1
  O  O13  1  0.358392  0.358392  0.358392  1
