# generated using pymatgen
data_Dy2CuTcOs2
_symmetry_space_group_name_H-M   'P 1'
_cell_length_a   5.31659420
_cell_length_b   5.27753050
_cell_length_c   8.84761300
_cell_angle_alpha   90.00000000
_cell_angle_beta   90.00000000
_cell_angle_gamma   119.75724710
_symmetry_Int_Tables_number   1
_chemical_formula_structural   Dy2CuTcOs2
_chemical_formula_sum   'Dy4 Cu2 Tc2 Os4'
_cell_volume   215.51533162
_cell_formula_units_Z   2
loop_
 _symmetry_equiv_pos_site_id
 _symmetry_equiv_pos_as_xyz
  1  'x, y, z'
loop_
 _atom_site_type_symbol
 _atom_site_label
 _atom_site_symmetry_multiplicity
 _atom_site_fract_x
 _atom_site_fract_y
 _atom_site_fract_z
 _atom_site_occupancy
  Dy  Dy0  1  0.321513  0.660757  0.439433  1
  Dy  Dy1  1  0.657358  0.328679  0.563035  1
  Dy  Dy2  1  0.657358  0.328679  0.936965  1
  Dy  Dy3  1  0.321513  0.660757  0.060567  1
  Cu  Cu4  1  0.192679  0.843150  0.750000  1
  Cu  Cu5  1  0.192679  0.349530  0.750000  1
  Tc  Tc6  1  0.825938  0.164069  0.250000  1
  Tc  Tc7  1  0.825938  0.661868  0.250000  1
  Os  Os8  1  0.981484  0.990742  0.504592  1
  Os  Os9  1  0.981484  0.990742  0.995408  1
  Os  Os10  1  0.341639  0.170819  0.250000  1
  Os  Os11  1  0.700418  0.850210  0.750000  1
