# generated using pymatgen
data_Tb12Pr8Si15Pd
_symmetry_space_group_name_H-M   'P 1'
_cell_length_a   7.58405732
_cell_length_b   7.81178949
_cell_length_c   14.89769800
_cell_angle_alpha   89.79434676
_cell_angle_beta   89.55834400
_cell_angle_gamma   90.30130845
_symmetry_Int_Tables_number   1
_chemical_formula_structural   Tb12Pr8Si15Pd
_chemical_formula_sum   'Tb12 Pr8 Si15 Pd1'
_cell_volume   882.57075925
_cell_formula_units_Z   1
loop_
 _symmetry_equiv_pos_site_id
 _symmetry_equiv_pos_as_xyz
  1  'x, y, z'
loop_
 _atom_site_type_symbol
 _atom_site_label
 _atom_site_symmetry_multiplicity
 _atom_site_fract_x
 _atom_site_fract_y
 _atom_site_fract_z
 _atom_site_occupancy
  Tb  Tb0  1  0.324696  0.181249  0.620743  1
  Tb  Tb1  1  0.675876  0.821865  0.376347  1
  Tb  Tb2  1  0.654153  0.989413  0.749268  1
  Tb  Tb3  1  0.176874  0.670043  0.379235  1
  Tb  Tb4  1  0.822166  0.318754  0.878175  1
  Tb  Tb5  1  0.822910  0.325206  0.621345  1
  Tb  Tb6  1  0.848001  0.489978  0.251910  1
  Tb  Tb7  1  0.347648  0.006962  0.250156  1
  Tb  Tb8  1  0.319147  0.178826  0.877429  1
  Tb  Tb9  1  0.178964  0.679784  0.122487  1
  Tb  Tb10  1  0.682109  0.822857  0.123229  1
  Tb  Tb11  1  0.155011  0.509092  0.747023  1
  Pr  Pr12  1  0.021587  0.178954  0.401100  1
  Pr  Pr13  1  0.524011  0.319595  0.399048  1
  Pr  Pr14  1  0.473950  0.679509  0.901267  1
  Pr  Pr15  1  0.477556  0.678768  0.600691  1
  Pr  Pr16  1  0.976450  0.823235  0.598489  1
  Pr  Pr17  1  0.974242  0.820467  0.901203  1
  Pr  Pr18  1  0.524654  0.321458  0.098088  1
  Pr  Pr19  1  0.025897  0.179794  0.099599  1
  Si  Si20  1  0.269587  0.881491  0.750150  1
  Si  Si21  1  0.471210  0.611247  0.248389  1
  Si  Si22  1  0.028811  0.114026  0.750472  1
  Si  Si23  1  0.531287  0.387221  0.752539  1
  Si  Si24  1  0.974131  0.886364  0.250994  1
  Si  Si25  1  0.730596  0.121127  0.248963  1
  Si  Si26  1  0.855552  0.531554  0.039538  1
  Si  Si27  1  0.357106  0.969462  0.040062  1
  Si  Si28  1  0.142905  0.469376  0.961382  1
  Si  Si29  1  0.646019  0.031383  0.538822  1
  Si  Si30  1  0.354103  0.967960  0.460130  1
  Si  Si31  1  0.844539  0.533054  0.458141  1
  Si  Si32  1  0.770321  0.619440  0.752513  1
  Si  Si33  1  0.231916  0.378033  0.248913  1
  Si  Si34  1  0.642906  0.030039  0.960411  1
  Pd  Pd35  1  0.143112  0.472414  0.541750  1
