# generated using pymatgen
data_Tb2SmNb(Co4P3)2
_symmetry_space_group_name_H-M   'P 1'
_cell_length_a   3.73009900
_cell_length_b   10.67668600
_cell_length_c   12.39346400
_cell_angle_alpha   90.00000000
_cell_angle_beta   90.00000000
_cell_angle_gamma   90.00000000
_symmetry_Int_Tables_number   1
_chemical_formula_structural   Tb2SmNb(Co4P3)2
_chemical_formula_sum   'Tb4 Sm2 Nb2 Co16 P12'
_cell_volume   493.57089075
_cell_formula_units_Z   2
loop_
 _symmetry_equiv_pos_site_id
 _symmetry_equiv_pos_as_xyz
  1  'x, y, z'
loop_
 _atom_site_type_symbol
 _atom_site_label
 _atom_site_symmetry_multiplicity
 _atom_site_fract_x
 _atom_site_fract_y
 _atom_site_fract_z
 _atom_site_occupancy
  Tb  Tb0  1  0.500000  0.819857  0.204931  1
  Tb  Tb1  1  0.500000  0.180143  0.204931  1
  Tb  Tb2  1  0.000000  0.680143  0.795069  1
  Tb  Tb3  1  0.000000  0.319857  0.795069  1
  Sm  Sm4  1  0.000000  0.500000  0.526264  1
  Sm  Sm5  1  0.500000  0.000000  0.473736  1
  Nb  Nb6  1  0.500000  0.500000  0.155170  1
  Nb  Nb7  1  0.000000  0.000000  0.844830  1
  Co  Co8  1  0.500000  0.500000  0.703550  1
  Co  Co9  1  0.000000  0.000000  0.296450  1
  Co  Co10  1  0.000000  0.500000  0.985489  1
  Co  Co11  1  0.500000  0.000000  0.014511  1
  Co  Co12  1  0.500000  0.332381  0.991492  1
  Co  Co13  1  0.500000  0.667619  0.991492  1
  Co  Co14  1  0.000000  0.167619  0.008508  1
  Co  Co15  1  0.000000  0.832381  0.008508  1
  Co  Co16  1  0.500000  0.295163  0.431726  1
  Co  Co17  1  0.500000  0.704837  0.431726  1
  Co  Co18  1  0.000000  0.204837  0.568274  1
  Co  Co19  1  0.000000  0.795163  0.568274  1
  Co  Co20  1  0.500000  0.877854  0.706033  1
  Co  Co21  1  0.500000  0.122146  0.706033  1
  Co  Co22  1  0.000000  0.622146  0.293967  1
  Co  Co23  1  0.000000  0.377854  0.293967  1
  P  P24  1  0.500000  0.500000  0.882628  1
  P  P25  1  0.000000  0.000000  0.117372  1
  P  P26  1  0.500000  0.500000  0.352728  1
  P  P27  1  0.000000  0.000000  0.647272  1
  P  P28  1  0.500000  0.308932  0.615956  1
  P  P29  1  0.500000  0.691068  0.615956  1
  P  P30  1  0.000000  0.191068  0.384044  1
  P  P31  1  0.000000  0.808932  0.384044  1
  P  P32  1  0.500000  0.841694  0.894089  1
  P  P33  1  0.500000  0.158306  0.894089  1
  P  P34  1  0.000000  0.658306  0.105911  1
  P  P35  1  0.000000  0.341694  0.105911  1
