# generated using pymatgen
data_Rb3HoIr2O9
_symmetry_space_group_name_H-M   'P 1'
_cell_length_a   6.07302204
_cell_length_b   6.07417939
_cell_length_c   14.61787400
_cell_angle_alpha   90.00000000
_cell_angle_beta   90.00000000
_cell_angle_gamma   120.00755994
_symmetry_Int_Tables_number   1
_chemical_formula_structural   Rb3HoIr2O9
_chemical_formula_sum   'Rb6 Ho2 Ir4 O18'
_cell_volume   466.95413802
_cell_formula_units_Z   2
loop_
 _symmetry_equiv_pos_site_id
 _symmetry_equiv_pos_as_xyz
  1  'x, y, z'
loop_
 _atom_site_type_symbol
 _atom_site_label
 _atom_site_symmetry_multiplicity
 _atom_site_fract_x
 _atom_site_fract_y
 _atom_site_fract_z
 _atom_site_occupancy
  Rb  Rb0  1  0.333328  0.666695  0.900178  1
  Rb  Rb1  1  0.999934  0.000070  0.750000  1
  Rb  Rb2  1  0.666672  0.333305  0.400178  1
  Rb  Rb3  1  0.666672  0.333305  0.099822  1
  Rb  Rb4  1  0.000066  0.999930  0.250000  1
  Rb  Rb5  1  0.333328  0.666695  0.599822  1
  Ho  Ho6  1  0.000000  0.000000  0.500000  1
  Ho  Ho7  1  0.000000  0.000000  0.000000  1
  Ir  Ir8  1  0.333367  0.666688  0.347049  1
  Ir  Ir9  1  0.333367  0.666688  0.152951  1
  Ir  Ir10  1  0.666633  0.333312  0.652951  1
  Ir  Ir11  1  0.666633  0.333312  0.847049  1
  O  O12  1  0.178821  0.821039  0.083869  1
  O  O13  1  0.178812  0.357619  0.083858  1
  O  O14  1  0.642282  0.821071  0.083875  1
  O  O15  1  0.357718  0.178929  0.583875  1
  O  O16  1  0.821188  0.642381  0.916142  1
  O  O17  1  0.821179  0.178961  0.583869  1
  O  O18  1  0.821188  0.642381  0.583858  1
  O  O19  1  0.178821  0.821039  0.416131  1
  O  O20  1  0.642282  0.821071  0.416125  1
  O  O21  1  0.357718  0.178929  0.916125  1
  O  O22  1  0.821179  0.178961  0.916131  1
  O  O23  1  0.178812  0.357619  0.416142  1
  O  O24  1  0.468183  0.936295  0.250000  1
  O  O25  1  0.531754  0.468288  0.750000  1
  O  O26  1  0.936488  0.468303  0.750000  1
  O  O27  1  0.063512  0.531697  0.250000  1
  O  O28  1  0.468246  0.531712  0.250000  1
  O  O29  1  0.531817  0.063705  0.750000  1
