# generated using pymatgen
data_Ce4MgPb3N
_symmetry_space_group_name_H-M   'P 1'
_cell_length_a   9.52680319
_cell_length_b   9.52680456
_cell_length_c   9.52680483
_cell_angle_alpha   129.74400593
_cell_angle_beta   129.74401042
_cell_angle_gamma   73.81634846
_symmetry_Int_Tables_number   1
_chemical_formula_structural   Ce4MgPb3N
_chemical_formula_sum   'Ce8 Mg2 Pb6 N2'
_cell_volume   498.67722696
_cell_formula_units_Z   2
loop_
 _symmetry_equiv_pos_site_id
 _symmetry_equiv_pos_as_xyz
  1  'x, y, z'
loop_
 _atom_site_type_symbol
 _atom_site_label
 _atom_site_symmetry_multiplicity
 _atom_site_fract_x
 _atom_site_fract_y
 _atom_site_fract_z
 _atom_site_occupancy
  Ce  Ce0  1  0.000331  0.190071  0.500000  1
  Ce  Ce1  1  0.809929  0.309929  0.810261  1
  Ce  Ce2  1  0.500331  0.000331  0.810261  1
  Ce  Ce3  1  0.499669  0.999669  0.189739  1
  Ce  Ce4  1  0.999669  0.809929  0.500000  1
  Ce  Ce5  1  0.190071  0.690071  0.189739  1
  Ce  Ce6  1  0.690071  0.500331  0.500000  1
  Ce  Ce7  1  0.309929  0.499669  0.500000  1
  Mg  Mg8  1  0.500000  0.500000  0.000000  1
  Mg  Mg9  1  0.000000  0.000000  0.000000  1
  Pb  Pb10  1  0.858523  0.358523  0.217045  1
  Pb  Pb11  1  0.141477  0.641477  0.782955  1
  Pb  Pb12  1  0.358523  0.141477  0.500000  1
  Pb  Pb13  1  0.750000  0.750000  0.000000  1
  Pb  Pb14  1  0.641477  0.858523  0.500000  1
  Pb  Pb15  1  0.250000  0.250000  0.000000  1
  N  N16  1  0.750000  0.250000  0.500000  1
  N  N17  1  0.250000  0.750000  0.500000  1
