# generated using pymatgen
data_Dy2Ho(ThSn2)2
_symmetry_space_group_name_H-M   'P 1'
_cell_length_a   8.12099100
_cell_length_b   8.22432000
_cell_length_c   15.54553300
_cell_angle_alpha   90.00000000
_cell_angle_beta   90.00000000
_cell_angle_gamma   90.00000000
_symmetry_Int_Tables_number   1
_chemical_formula_structural   Dy2Ho(ThSn2)2
_chemical_formula_sum   'Dy8 Ho4 Th8 Sn16'
_cell_volume   1038.28037703
_cell_formula_units_Z   4
loop_
 _symmetry_equiv_pos_site_id
 _symmetry_equiv_pos_as_xyz
  1  'x, y, z'
loop_
 _atom_site_type_symbol
 _atom_site_label
 _atom_site_symmetry_multiplicity
 _atom_site_fract_x
 _atom_site_fract_y
 _atom_site_fract_z
 _atom_site_occupancy
  Dy  Dy0  1  0.363359  0.836440  0.876467  1
  Dy  Dy1  1  0.863359  0.663560  0.623533  1
  Dy  Dy2  1  0.636641  0.163560  0.376467  1
  Dy  Dy3  1  0.136641  0.336440  0.123533  1
  Dy  Dy4  1  0.636641  0.163560  0.123533  1
  Dy  Dy5  1  0.136641  0.336440  0.376467  1
  Dy  Dy6  1  0.363359  0.836440  0.623533  1
  Dy  Dy7  1  0.863359  0.663560  0.876467  1
  Ho  Ho8  1  0.192084  0.497678  0.750000  1
  Ho  Ho9  1  0.692084  0.002322  0.750000  1
  Ho  Ho10  1  0.807916  0.502322  0.250000  1
  Ho  Ho11  1  0.307916  0.997678  0.250000  1
  Th  Th12  1  0.519180  0.320572  0.903435  1
  Th  Th13  1  0.019180  0.179428  0.596565  1
  Th  Th14  1  0.480820  0.679428  0.403435  1
  Th  Th15  1  0.980820  0.820572  0.096565  1
  Th  Th16  1  0.480820  0.679428  0.096565  1
  Th  Th17  1  0.980820  0.820572  0.403435  1
  Th  Th18  1  0.519180  0.320572  0.596565  1
  Th  Th19  1  0.019180  0.179428  0.903435  1
  Sn  Sn20  1  0.296984  0.038600  0.042384  1
  Sn  Sn21  1  0.796984  0.461400  0.457616  1
  Sn  Sn22  1  0.703016  0.961400  0.542384  1
  Sn  Sn23  1  0.203016  0.538600  0.957616  1
  Sn  Sn24  1  0.703016  0.961400  0.957616  1
  Sn  Sn25  1  0.203016  0.538600  0.542384  1
  Sn  Sn26  1  0.296984  0.038600  0.457616  1
  Sn  Sn27  1  0.796984  0.461400  0.042384  1
  Sn  Sn28  1  0.559016  0.621467  0.750000  1
  Sn  Sn29  1  0.059016  0.878533  0.750000  1
  Sn  Sn30  1  0.440984  0.378533  0.250000  1
  Sn  Sn31  1  0.940984  0.121467  0.250000  1
  Sn  Sn32  1  0.325589  0.142480  0.750000  1
  Sn  Sn33  1  0.825589  0.357520  0.750000  1
  Sn  Sn34  1  0.674411  0.857520  0.250000  1
  Sn  Sn35  1  0.174411  0.642480  0.250000  1
