# generated using pymatgen
data_Nd3DyIn3Au10
_symmetry_space_group_name_H-M   'P 1'
_cell_length_a   8.69652213
_cell_length_b   8.69652384
_cell_length_c   10.40667600
_cell_angle_alpha   90.00000000
_cell_angle_beta   90.00000000
_cell_angle_gamma   108.18008306
_symmetry_Int_Tables_number   1
_chemical_formula_structural   Nd3DyIn3Au10
_chemical_formula_sum   'Nd6 Dy2 In6 Au20'
_cell_volume   747.76264664
_cell_formula_units_Z   2
loop_
 _symmetry_equiv_pos_site_id
 _symmetry_equiv_pos_as_xyz
  1  'x, y, z'
loop_
 _atom_site_type_symbol
 _atom_site_label
 _atom_site_symmetry_multiplicity
 _atom_site_fract_x
 _atom_site_fract_y
 _atom_site_fract_z
 _atom_site_occupancy
  Nd  Nd0  1  0.801152  0.801129  0.300091  1
  Nd  Nd1  1  0.301152  0.301129  0.199909  1
  Nd  Nd2  1  0.799798  0.200202  0.500000  1
  Nd  Nd3  1  0.299798  0.700202  0.000000  1
  Nd  Nd4  1  0.698871  0.698848  0.800091  1
  Nd  Nd5  1  0.198871  0.198848  0.699909  1
  Dy  Dy6  1  0.698949  0.301051  0.000000  1
  Dy  Dy7  1  0.198949  0.801051  0.500000  1
  In  In8  1  0.517430  0.018297  0.249407  1
  In  In9  1  0.981703  0.482570  0.750593  1
  In  In10  1  0.002314  0.997686  0.000000  1
  In  In11  1  0.017430  0.518297  0.250593  1
  In  In12  1  0.481703  0.982570  0.749407  1
  In  In13  1  0.502314  0.497686  0.500000  1
  Au  Au14  1  0.157726  0.434250  0.476362  1
  Au  Au15  1  0.905586  0.904680  0.595843  1
  Au  Au16  1  0.565750  0.842274  0.523638  1
  Au  Au17  1  0.888477  0.170833  0.207146  1
  Au  Au18  1  0.388477  0.670833  0.292854  1
  Au  Au19  1  0.668405  0.387398  0.287470  1
  Au  Au20  1  0.405586  0.404680  0.904157  1
  Au  Au21  1  0.928689  0.651938  0.022002  1
  Au  Au22  1  0.329167  0.611523  0.707146  1
  Au  Au23  1  0.348062  0.071311  0.977998  1
  Au  Au24  1  0.595320  0.594414  0.095843  1
  Au  Au25  1  0.657726  0.934250  0.023638  1
  Au  Au26  1  0.095320  0.094414  0.404157  1
  Au  Au27  1  0.612602  0.331595  0.712530  1
  Au  Au28  1  0.112602  0.831595  0.787470  1
  Au  Au29  1  0.065750  0.342274  0.976362  1
  Au  Au30  1  0.848062  0.571311  0.522002  1
  Au  Au31  1  0.168405  0.887398  0.212530  1
  Au  Au32  1  0.428689  0.151938  0.477998  1
  Au  Au33  1  0.829167  0.111523  0.792854  1
