# generated using pymatgen
data_Y4Co9Si4W
_symmetry_space_group_name_H-M   'P 1'
_cell_length_a   11.40157598
_cell_length_b   11.40157587
_cell_length_c   11.40157599
_cell_angle_alpha   26.59368461
_cell_angle_beta   26.59368771
_cell_angle_gamma   26.59368253
_symmetry_Int_Tables_number   1
_chemical_formula_structural   Y4Co9Si4W
_chemical_formula_sum   'Y4 Co9 Si4 W1'
_cell_volume   261.84465276
_cell_formula_units_Z   1
loop_
 _symmetry_equiv_pos_site_id
 _symmetry_equiv_pos_as_xyz
  1  'x, y, z'
loop_
 _atom_site_type_symbol
 _atom_site_label
 _atom_site_symmetry_multiplicity
 _atom_site_fract_x
 _atom_site_fract_y
 _atom_site_fract_z
 _atom_site_occupancy
  Y  Y0  1  0.949802  0.949802  0.949802  1
  Y  Y1  1  0.852260  0.852260  0.852260  1
  Y  Y2  1  0.147740  0.147740  0.147740  1
  Y  Y3  1  0.050198  0.050198  0.050198  1
  Co  Co4  1  0.608654  0.608654  0.104701  1
  Co  Co5  1  0.895299  0.391346  0.391346  1
  Co  Co6  1  0.500000  0.000000  0.500000  1
  Co  Co7  1  0.391346  0.895299  0.391346  1
  Co  Co8  1  0.500000  0.500000  0.000000  1
  Co  Co9  1  0.104701  0.608654  0.608654  1
  Co  Co10  1  0.000000  0.500000  0.500000  1
  Co  Co11  1  0.391346  0.391346  0.895299  1
  Co  Co12  1  0.608654  0.104701  0.608654  1
  Si  Si13  1  0.280067  0.280067  0.280067  1
  Si  Si14  1  0.387550  0.387550  0.387550  1
  Si  Si15  1  0.719933  0.719933  0.719933  1
  Si  Si16  1  0.612450  0.612450  0.612450  1
  W  W17  1  0.500000  0.500000  0.500000  1
