# generated using pymatgen
data_Ce4TmCoPb3
_symmetry_space_group_name_H-M   'P 1'
_cell_length_a   9.48384085
_cell_length_b   9.48384133
_cell_length_c   6.47184100
_cell_angle_alpha   90.00000000
_cell_angle_beta   90.00000000
_cell_angle_gamma   118.89259210
_symmetry_Int_Tables_number   1
_chemical_formula_structural   Ce4TmCoPb3
_chemical_formula_sum   'Ce8 Tm2 Co2 Pb6'
_cell_volume   509.64283366
_cell_formula_units_Z   2
loop_
 _symmetry_equiv_pos_site_id
 _symmetry_equiv_pos_as_xyz
  1  'x, y, z'
loop_
 _atom_site_type_symbol
 _atom_site_label
 _atom_site_symmetry_multiplicity
 _atom_site_fract_x
 _atom_site_fract_y
 _atom_site_fract_z
 _atom_site_occupancy
  Ce  Ce0  1  0.225057  0.999236  0.250000  1
  Ce  Ce1  1  0.774943  0.000764  0.750000  1
  Ce  Ce2  1  0.331884  0.668116  0.500000  1
  Ce  Ce3  1  0.668116  0.331884  0.500000  1
  Ce  Ce4  1  0.999236  0.225057  0.250000  1
  Ce  Ce5  1  0.000764  0.774943  0.750000  1
  Ce  Ce6  1  0.331884  0.668116  0.000000  1
  Ce  Ce7  1  0.668116  0.331884  0.000000  1
  Tm  Tm8  1  0.240965  0.240965  0.750000  1
  Tm  Tm9  1  0.759035  0.759035  0.250000  1
  Co  Co10  1  0.000000  0.000000  0.000000  1
  Co  Co11  1  0.000000  0.000000  0.500000  1
  Pb  Pb12  1  0.399941  0.399941  0.250000  1
  Pb  Pb13  1  0.600059  0.600059  0.750000  1
  Pb  Pb14  1  0.003795  0.398636  0.750000  1
  Pb  Pb15  1  0.601364  0.996205  0.250000  1
  Pb  Pb16  1  0.398636  0.003795  0.750000  1
  Pb  Pb17  1  0.996205  0.601364  0.250000  1
