# generated using pymatgen
data_ErMn4ReP3
_symmetry_space_group_name_H-M   'P 1'
_cell_length_a   3.70168400
_cell_length_b   10.58290900
_cell_length_c   12.03967200
_cell_angle_alpha   90.00000000
_cell_angle_beta   90.00000000
_cell_angle_gamma   90.00000000
_symmetry_Int_Tables_number   1
_chemical_formula_structural   ErMn4ReP3
_chemical_formula_sum   'Er4 Mn16 Re4 P12'
_cell_volume   471.64915316
_cell_formula_units_Z   4
loop_
 _symmetry_equiv_pos_site_id
 _symmetry_equiv_pos_as_xyz
  1  'x, y, z'
loop_
 _atom_site_type_symbol
 _atom_site_label
 _atom_site_symmetry_multiplicity
 _atom_site_fract_x
 _atom_site_fract_y
 _atom_site_fract_z
 _atom_site_occupancy
  Er  Er0  1  0.250000  0.587228  0.705653  1
  Er  Er1  1  0.250000  0.912772  0.205653  1
  Er  Er2  1  0.750000  0.412772  0.294347  1
  Er  Er3  1  0.750000  0.087228  0.794347  1
  Mn  Mn4  1  0.250000  0.411929  0.495087  1
  Mn  Mn5  1  0.250000  0.088071  0.995087  1
  Mn  Mn6  1  0.750000  0.588071  0.504913  1
  Mn  Mn7  1  0.750000  0.911929  0.004913  1
  Mn  Mn8  1  0.250000  0.209839  0.184439  1
  Mn  Mn9  1  0.250000  0.290161  0.684439  1
  Mn  Mn10  1  0.750000  0.790161  0.815561  1
  Mn  Mn11  1  0.750000  0.709839  0.315561  1
  Mn  Mn12  1  0.250000  0.884708  0.691634  1
  Mn  Mn13  1  0.250000  0.615292  0.191634  1
  Mn  Mn14  1  0.750000  0.115292  0.308366  1
  Mn  Mn15  1  0.750000  0.384708  0.808366  1
  Mn  Mn16  1  0.250000  0.465963  0.935150  1
  Mn  Mn17  1  0.250000  0.034037  0.435150  1
  Mn  Mn18  1  0.750000  0.534037  0.064850  1
  Mn  Mn19  1  0.750000  0.965963  0.564850  1
  Re  Re20  1  0.250000  0.710884  0.983312  1
  Re  Re21  1  0.250000  0.789116  0.483312  1
  Re  Re22  1  0.750000  0.289116  0.016688  1
  Re  Re23  1  0.750000  0.210884  0.516688  1
  P  P24  1  0.250000  0.410298  0.117416  1
  P  P25  1  0.250000  0.089702  0.617416  1
  P  P26  1  0.750000  0.589702  0.882584  1
  P  P27  1  0.750000  0.910298  0.382584  1
  P  P28  1  0.250000  0.262177  0.876345  1
  P  P29  1  0.250000  0.237823  0.376345  1
  P  P30  1  0.750000  0.737823  0.123655  1
  P  P31  1  0.750000  0.762177  0.623655  1
  P  P32  1  0.250000  0.591420  0.383790  1
  P  P33  1  0.250000  0.908580  0.883790  1
  P  P34  1  0.750000  0.408580  0.616210  1
  P  P35  1  0.750000  0.091420  0.116210  1
