# generated using pymatgen
data_KTbTm9(C2I9)2
_symmetry_space_group_name_H-M   'P 1'
_cell_length_a   11.43554147
_cell_length_b   11.39841174
_cell_length_c   11.42002247
_cell_angle_alpha   113.38362480
_cell_angle_beta   86.37916898
_cell_angle_gamma   120.31793030
_symmetry_Int_Tables_number   1
_chemical_formula_structural   KTbTm9(C2I9)2
_chemical_formula_sum   'K1 Tb1 Tm9 C4 I18'
_cell_volume   1161.63256867
_cell_formula_units_Z   1
loop_
 _symmetry_equiv_pos_site_id
 _symmetry_equiv_pos_as_xyz
  1  'x, y, z'
loop_
 _atom_site_type_symbol
 _atom_site_label
 _atom_site_symmetry_multiplicity
 _atom_site_fract_x
 _atom_site_fract_y
 _atom_site_fract_z
 _atom_site_occupancy
  K  K0  1  0.499417  0.999086  0.502107  1
  Tb  Tb1  1  0.894963  0.056202  0.999959  1
  Tm  Tm2  1  0.684976  0.728515  0.716373  1
  Tm  Tm3  1  0.276797  0.351880  0.016174  1
  Tm  Tm4  1  0.093300  0.384624  0.288293  1
  Tm  Tm5  1  0.964715  0.036085  0.321952  1
  Tm  Tm6  1  0.906676  0.614229  0.710706  1
  Tm  Tm7  1  0.100731  0.945443  0.000058  1
  Tm  Tm8  1  0.036429  0.963825  0.678370  1
  Tm  Tm9  1  0.316287  0.272005  0.284047  1
  Tm  Tm10  1  0.723999  0.647469  0.983595  1
  C  C11  1  0.152556  0.218882  0.119094  1
  C  C12  1  0.849174  0.780067  0.880612  1
  C  C13  1  0.926585  0.858200  0.803936  1
  C  C14  1  0.075130  0.140798  0.196104  1
  I  I15  1  0.453030  0.531541  0.833372  1
  I  I16  1  0.379102  0.040279  0.155735  1
  I  I17  1  0.781300  0.858615  0.504881  1
  I  I18  1  0.841500  0.314735  0.157357  1
  I  I19  1  0.548117  0.468919  0.166731  1
  I  I20  1  0.220143  0.141358  0.495306  1
  I  I21  1  0.316167  0.097904  0.828371  1
  I  I22  1  0.683114  0.900223  0.173691  1
  I  I23  1  0.970710  0.753639  0.167646  1
  I  I24  1  0.934093  0.295546  0.498132  1
  I  I25  1  0.032169  0.248219  0.830435  1
  I  I26  1  0.066968  0.704904  0.501944  1
  I  I27  1  0.263904  0.622486  0.186593  1
  I  I28  1  0.735923  0.376250  0.812450  1
  I  I29  1  0.645849  0.440315  0.504419  1
  I  I30  1  0.157849  0.691564  0.847083  1
  I  I31  1  0.615131  0.956666  0.839323  1
  I  I32  1  0.353196  0.559528  0.495150  1
