# generated using pymatgen
data_Dy9Lu(Ga2Sb)2
_symmetry_space_group_name_H-M   'P 1'
_cell_length_a   8.69155800
_cell_length_b   8.70792660
_cell_length_c   6.54472800
_cell_angle_alpha   89.99628903
_cell_angle_beta   90.00185898
_cell_angle_gamma   120.06232547
_symmetry_Int_Tables_number   1
_chemical_formula_structural   Dy9Lu(Ga2Sb)2
_chemical_formula_sum   'Dy9 Lu1 Ga4 Sb2'
_cell_volume   428.70794405
_cell_formula_units_Z   1
loop_
 _symmetry_equiv_pos_site_id
 _symmetry_equiv_pos_as_xyz
  1  'x, y, z'
loop_
 _atom_site_type_symbol
 _atom_site_label
 _atom_site_symmetry_multiplicity
 _atom_site_fract_x
 _atom_site_fract_y
 _atom_site_fract_z
 _atom_site_occupancy
  Dy  Dy0  1  0.987007  0.750883  0.750374  1
  Dy  Dy1  1  0.987007  0.236125  0.249626  1
  Dy  Dy2  1  0.764579  0.765386  0.249336  1
  Dy  Dy3  1  0.764579  0.999194  0.750664  1
  Dy  Dy4  1  0.236615  0.249755  0.750487  1
  Dy  Dy5  1  0.236615  0.986860  0.249513  1
  Dy  Dy6  1  0.331873  0.665936  0.500000  1
  Dy  Dy7  1  0.685130  0.342565  0.000000  1
  Dy  Dy8  1  0.685938  0.342969  0.500000  1
  Lu  Lu9  1  0.331575  0.665788  0.000000  1
  Ga  Ga10  1  0.003233  0.601585  0.248855  1
  Ga  Ga11  1  0.003233  0.401647  0.751145  1
  Ga  Ga12  1  0.596687  0.601815  0.751591  1
  Ga  Ga13  1  0.596687  0.994870  0.248409  1
  Sb  Sb14  1  0.394622  0.003553  0.751355  1
  Sb  Sb15  1  0.394622  0.391070  0.248645  1
