# generated using pymatgen
data_Lu10IrRuPb6
_symmetry_space_group_name_H-M   'P 1'
_cell_length_a   9.16511000
_cell_length_b   9.16510992
_cell_length_c   6.44982500
_cell_angle_alpha   90.00000000
_cell_angle_beta   90.00000000
_cell_angle_gamma   120.00000028
_symmetry_Int_Tables_number   1
_chemical_formula_structural   Lu10IrRuPb6
_chemical_formula_sum   'Lu10 Ir1 Ru1 Pb6'
_cell_volume   469.19559015
_cell_formula_units_Z   1
loop_
 _symmetry_equiv_pos_site_id
 _symmetry_equiv_pos_as_xyz
  1  'x, y, z'
loop_
 _atom_site_type_symbol
 _atom_site_label
 _atom_site_symmetry_multiplicity
 _atom_site_fract_x
 _atom_site_fract_y
 _atom_site_fract_z
 _atom_site_occupancy
  Lu  Lu0  1  0.238772  0.000000  0.252131  1
  Lu  Lu1  1  0.761228  0.000000  0.747869  1
  Lu  Lu2  1  0.000000  0.238772  0.252131  1
  Lu  Lu3  1  0.333333  0.666667  0.500000  1
  Lu  Lu4  1  0.666667  0.333333  0.500000  1
  Lu  Lu5  1  0.666667  0.333333  0.000000  1
  Lu  Lu6  1  0.000000  0.761228  0.747869  1
  Lu  Lu7  1  0.238772  0.238772  0.747869  1
  Lu  Lu8  1  0.333333  0.666667  0.000000  1
  Lu  Lu9  1  0.761228  0.761228  0.252131  1
  Ir  Ir10  1  0.000000  0.000000  0.000000  1
  Ru  Ru11  1  0.000000  0.000000  0.500000  1
  Pb  Pb12  1  0.402175  0.000000  0.749570  1
  Pb  Pb13  1  0.000000  0.402175  0.749570  1
  Pb  Pb14  1  0.402175  0.402175  0.250430  1
  Pb  Pb15  1  0.597825  0.000000  0.250430  1
  Pb  Pb16  1  0.000000  0.597825  0.250430  1
  Pb  Pb17  1  0.597825  0.597825  0.749570  1
