# generated using pymatgen
data_Tb3Ce4SmF28
_symmetry_space_group_name_H-M   'P 1'
_cell_length_a   5.94274906
_cell_length_b   9.36172448
_cell_length_c   12.69491004
_cell_angle_alpha   62.76408885
_cell_angle_beta   90.00925718
_cell_angle_gamma   90.03873482
_symmetry_Int_Tables_number   1
_chemical_formula_structural   Tb3Ce4SmF28
_chemical_formula_sum   'Tb3 Ce4 Sm1 F28'
_cell_volume   627.96854359
_cell_formula_units_Z   1
loop_
 _symmetry_equiv_pos_site_id
 _symmetry_equiv_pos_as_xyz
  1  'x, y, z'
loop_
 _atom_site_type_symbol
 _atom_site_label
 _atom_site_symmetry_multiplicity
 _atom_site_fract_x
 _atom_site_fract_y
 _atom_site_fract_z
 _atom_site_occupancy
  Tb  Tb0  1  0.744436  0.819801  0.266332  1
  Tb  Tb1  1  0.244516  0.181298  0.233730  1
  Tb  Tb2  1  0.256155  0.183120  0.733488  1
  Ce  Ce3  1  0.744973  0.276083  0.454116  1
  Ce  Ce4  1  0.245514  0.725652  0.047087  1
  Ce  Ce5  1  0.254388  0.725292  0.542993  1
  Ce  Ce6  1  0.754744  0.272600  0.955792  1
  Sm  Sm7  1  0.755889  0.819185  0.766455  1
  F  F8  1  0.473440  0.712168  0.917954  1
  F  F9  1  0.976227  0.286496  0.583358  1
  F  F10  1  0.522966  0.285886  0.083849  1
  F  F11  1  0.022858  0.712991  0.414932  1
  F  F12  1  0.444965  0.277714  0.554889  1
  F  F13  1  0.945407  0.720972  0.948218  1
  F  F14  1  0.556578  0.722816  0.444028  1
  F  F15  1  0.054784  0.276362  0.055994  1
  F  F16  1  0.768702  0.530672  0.855519  1
  F  F17  1  0.267425  0.466506  0.644780  1
  F  F18  1  0.233630  0.466305  0.146053  1
  F  F19  1  0.732621  0.534448  0.353929  1
  F  F20  1  0.758531  0.014604  0.063398  1
  F  F21  1  0.258211  0.983817  0.436226  1
  F  F22  1  0.241092  0.983248  0.937437  1
  F  F23  1  0.740608  0.018017  0.560637  1
  F  F24  1  0.977894  0.734541  0.652212  1
  F  F25  1  0.477833  0.264564  0.845612  1
  F  F26  1  0.020317  0.263698  0.344313  1
  F  F27  1  0.521770  0.736412  0.156317  1
  F  F28  1  0.026867  0.749542  0.177431  1
  F  F29  1  0.525823  0.251172  0.323794  1
  F  F30  1  0.973076  0.249851  0.824444  1
  F  F31  1  0.468896  0.747664  0.674992  1
  F  F32  1  0.438823  0.976198  0.238038  1
  F  F33  1  0.939126  0.024446  0.262023  1
  F  F34  1  0.562035  0.029207  0.762605  1
  F  F35  1  0.068884  0.976653  0.737025  1
