# generated using pymatgen
data_Er9Lu(Tl2Sb)2
_symmetry_space_group_name_H-M   'P 1'
_cell_length_a   8.90486509
_cell_length_b   8.86214478
_cell_length_c   6.53574300
_cell_angle_alpha   90.01659624
_cell_angle_beta   89.99174491
_cell_angle_gamma   119.84141904
_symmetry_Int_Tables_number   1
_chemical_formula_structural   Er9Lu(Tl2Sb)2
_chemical_formula_sum   'Er9 Lu1 Tl4 Sb2'
_cell_volume   447.38718257
_cell_formula_units_Z   1
loop_
 _symmetry_equiv_pos_site_id
 _symmetry_equiv_pos_as_xyz
  1  'x, y, z'
loop_
 _atom_site_type_symbol
 _atom_site_label
 _atom_site_symmetry_multiplicity
 _atom_site_fract_x
 _atom_site_fract_y
 _atom_site_fract_z
 _atom_site_occupancy
  Er  Er0  1  0.003639  0.766429  0.749910  1
  Er  Er1  1  0.003639  0.237210  0.250090  1
  Er  Er2  1  0.765518  0.760416  0.250054  1
  Er  Er3  1  0.765518  0.005102  0.749946  1
  Er  Er4  1  0.233997  0.236076  0.749925  1
  Er  Er5  1  0.233997  0.997920  0.250075  1
  Er  Er6  1  0.665275  0.332637  0.000000  1
  Er  Er7  1  0.665231  0.332616  0.500000  1
  Er  Er8  1  0.329295  0.664647  0.000000  1
  Lu  Lu9  1  0.329313  0.664657  0.500000  1
  Tl  Tl10  1  0.398405  0.000350  0.749437  1
  Tl  Tl11  1  0.398405  0.398056  0.250563  1
  Tl  Tl12  1  0.998616  0.597698  0.250660  1
  Tl  Tl13  1  0.998616  0.400918  0.749340  1
  Sb  Sb14  1  0.605269  0.607717  0.749495  1
  Sb  Sb15  1  0.605269  0.997552  0.250505  1
