# generated using pymatgen
data_Ho5(Hg2Rh)2
_symmetry_space_group_name_H-M   'P 1'
_cell_length_a   3.66051200
_cell_length_b   7.86714500
_cell_length_c   17.80700800
_cell_angle_alpha   90.00000000
_cell_angle_beta   90.00000000
_cell_angle_gamma   90.00000000
_symmetry_Int_Tables_number   1
_chemical_formula_structural   Ho5(Hg2Rh)2
_chemical_formula_sum   'Ho10 Hg8 Rh4'
_cell_volume   512.80227531
_cell_formula_units_Z   2
loop_
 _symmetry_equiv_pos_site_id
 _symmetry_equiv_pos_as_xyz
  1  'x, y, z'
loop_
 _atom_site_type_symbol
 _atom_site_label
 _atom_site_symmetry_multiplicity
 _atom_site_fract_x
 _atom_site_fract_y
 _atom_site_fract_z
 _atom_site_occupancy
  Ho  Ho0  1  0.000000  0.112750  0.412589  1
  Ho  Ho1  1  0.000000  0.887250  0.587411  1
  Ho  Ho2  1  0.000000  0.387250  0.912589  1
  Ho  Ho3  1  0.000000  0.612750  0.087411  1
  Ho  Ho4  1  0.000000  0.242059  0.218141  1
  Ho  Ho5  1  0.000000  0.757941  0.781859  1
  Ho  Ho6  1  0.000000  0.257941  0.718141  1
  Ho  Ho7  1  0.000000  0.742059  0.281859  1
  Ho  Ho8  1  0.000000  0.000000  0.000000  1
  Ho  Ho9  1  0.000000  0.500000  0.500000  1
  Hg  Hg10  1  0.500000  0.420876  0.353755  1
  Hg  Hg11  1  0.500000  0.579124  0.646245  1
  Hg  Hg12  1  0.500000  0.079124  0.853755  1
  Hg  Hg13  1  0.500000  0.920876  0.146245  1
  Hg  Hg14  1  0.500000  0.290632  0.064037  1
  Hg  Hg15  1  0.500000  0.709368  0.935963  1
  Hg  Hg16  1  0.500000  0.209368  0.564037  1
  Hg  Hg17  1  0.500000  0.790632  0.435963  1
  Rh  Rh18  1  0.500000  0.027447  0.303536  1
  Rh  Rh19  1  0.500000  0.972553  0.696464  1
  Rh  Rh20  1  0.500000  0.472553  0.803536  1
  Rh  Rh21  1  0.500000  0.527447  0.196464  1
