# generated using pymatgen
data_YEr2In3Ir2Rh
_symmetry_space_group_name_H-M   'P 1'
_cell_length_a   7.56384892
_cell_length_b   7.52575647
_cell_length_c   3.88422500
_cell_angle_alpha   90.00000000
_cell_angle_beta   90.00000000
_cell_angle_gamma   119.83352937
_symmetry_Int_Tables_number   1
_chemical_formula_structural   YEr2In3Ir2Rh
_chemical_formula_sum   'Y1 Er2 In3 Ir2 Rh1'
_cell_volume   191.80242389
_cell_formula_units_Z   1
loop_
 _symmetry_equiv_pos_site_id
 _symmetry_equiv_pos_as_xyz
  1  'x, y, z'
loop_
 _atom_site_type_symbol
 _atom_site_label
 _atom_site_symmetry_multiplicity
 _atom_site_fract_x
 _atom_site_fract_y
 _atom_site_fract_z
 _atom_site_occupancy
  Y  Y0  1  0.000000  0.590419  0.500000  1
  Er  Er1  1  0.409432  0.409730  0.500000  1
  Er  Er2  1  0.590568  0.000298  0.500000  1
  In  In3  1  0.257726  0.000290  0.000000  1
  In  In4  1  0.742274  0.742564  0.000000  1
  In  In5  1  0.000000  0.257701  0.000000  1
  Ir  Ir6  1  0.662658  0.330078  0.000000  1
  Ir  Ir7  1  0.337342  0.667421  0.000000  1
  Rh  Rh8  1  0.000000  0.001500  0.500000  1
