# generated using pymatgen
data_Yb2CePa5(Pt2Pb)4
_symmetry_space_group_name_H-M   'P 1'
_cell_length_a   7.93369138
_cell_length_b   7.93369116
_cell_length_c   7.31223500
_cell_angle_alpha   90.00000000
_cell_angle_beta   90.00000000
_cell_angle_gamma   91.90441138
_symmetry_Int_Tables_number   1
_chemical_formula_structural   Yb2CePa5(Pt2Pb)4
_chemical_formula_sum   'Yb2 Ce1 Pa5 Pt8 Pb4'
_cell_volume   460.00313204
_cell_formula_units_Z   1
loop_
 _symmetry_equiv_pos_site_id
 _symmetry_equiv_pos_as_xyz
  1  'x, y, z'
loop_
 _atom_site_type_symbol
 _atom_site_label
 _atom_site_symmetry_multiplicity
 _atom_site_fract_x
 _atom_site_fract_y
 _atom_site_fract_z
 _atom_site_occupancy
  Yb  Yb0  1  0.838093  0.161907  0.000000  1
  Yb  Yb1  1  0.159985  0.840015  0.000000  1
  Ce  Ce2  1  0.178061  0.821939  0.500000  1
  Pa  Pa3  1  0.681187  0.676659  0.000000  1
  Pa  Pa4  1  0.337829  0.338084  0.500000  1
  Pa  Pa5  1  0.824241  0.175759  0.500000  1
  Pa  Pa6  1  0.661916  0.662171  0.500000  1
  Pa  Pa7  1  0.323341  0.318813  0.000000  1
  Pt  Pt8  1  0.861721  0.872099  0.729729  1
  Pt  Pt9  1  0.127901  0.138279  0.729729  1
  Pt  Pt10  1  0.629174  0.370826  0.757268  1
  Pt  Pt11  1  0.629174  0.370826  0.242732  1
  Pt  Pt12  1  0.379795  0.620205  0.230168  1
  Pt  Pt13  1  0.127901  0.138279  0.270271  1
  Pt  Pt14  1  0.861721  0.872099  0.270271  1
  Pt  Pt15  1  0.379795  0.620205  0.769832  1
  Pb  Pb16  1  0.496881  0.997797  0.756901  1
  Pb  Pb17  1  0.496881  0.997797  0.243099  1
  Pb  Pb18  1  0.002203  0.503119  0.756901  1
  Pb  Pb19  1  0.002203  0.503119  0.243099  1
