# generated using pymatgen
data_K4Li2HoAlSb4
_symmetry_space_group_name_H-M   'P 1'
_cell_length_a   9.52316966
_cell_length_b   9.52319365
_cell_length_c   9.52317002
_cell_angle_alpha   137.09257179
_cell_angle_beta   61.95989269
_cell_angle_gamma   137.53005079
_symmetry_Int_Tables_number   1
_chemical_formula_structural   K4Li2HoAlSb4
_chemical_formula_sum   'K4 Li2 Ho1 Al1 Sb4'
_cell_volume   392.36211015
_cell_formula_units_Z   1
loop_
 _symmetry_equiv_pos_site_id
 _symmetry_equiv_pos_as_xyz
  1  'x, y, z'
loop_
 _atom_site_type_symbol
 _atom_site_label
 _atom_site_symmetry_multiplicity
 _atom_site_fract_x
 _atom_site_fract_y
 _atom_site_fract_z
 _atom_site_occupancy
  K  K0  1  0.823532  0.265174  0.096667  1
  K  K1  1  0.676459  0.773136  0.441634  1
  K  K2  1  0.331492  0.234826  0.558359  1
  K  K3  1  0.168498  0.726864  0.903324  1
  Li  Li4  1  0.749997  0.250000  0.499997  1
  Li  Li5  1  0.249997  0.750000  0.499997  1
  Ho  Ho6  1  0.250049  0.250000  0.000049  1
  Al  Al7  1  0.749996  0.750000  0.999996  1
  Sb  Sb8  1  0.418057  0.755367  0.140619  1
  Sb  Sb9  1  0.081939  0.222562  0.337293  1
  Sb  Sb10  1  0.885252  0.744633  0.662690  1
  Sb  Sb11  1  0.614729  0.277438  0.859375  1
