# generated using pymatgen
data_YLuZn2CoNi5B2
_symmetry_space_group_name_H-M   'P 1'
_cell_length_a   5.08226600
_cell_length_b   5.08226473
_cell_length_c   6.80785800
_cell_angle_alpha   90.00000000
_cell_angle_beta   90.00000000
_cell_angle_gamma   120.00000826
_symmetry_Int_Tables_number   1
_chemical_formula_structural   YLuZn2CoNi5B2
_chemical_formula_sum   'Y1 Lu1 Zn2 Co1 Ni5 B2'
_cell_volume   152.28452019
_cell_formula_units_Z   1
loop_
 _symmetry_equiv_pos_site_id
 _symmetry_equiv_pos_as_xyz
  1  'x, y, z'
loop_
 _atom_site_type_symbol
 _atom_site_label
 _atom_site_symmetry_multiplicity
 _atom_site_fract_x
 _atom_site_fract_y
 _atom_site_fract_z
 _atom_site_occupancy
  Y  Y0  1  0.000000  0.000000  0.504121  1
  Lu  Lu1  1  0.000000  0.000000  0.998597  1
  Zn  Zn2  1  0.335078  0.670157  0.500221  1
  Zn  Zn3  1  0.664922  0.329843  0.500221  1
  Co  Co4  1  0.500000  0.000000  0.801496  1
  Ni  Ni5  1  0.500000  0.000000  0.201037  1
  Ni  Ni6  1  0.000000  0.500000  0.201343  1
  Ni  Ni7  1  0.000000  0.500000  0.797600  1
  Ni  Ni8  1  0.500000  0.500000  0.201343  1
  Ni  Ni9  1  0.500000  0.500000  0.797600  1
  B  B10  1  0.335905  0.671811  0.998209  1
  B  B11  1  0.664095  0.328189  0.998209  1
