# generated using pymatgen
data_Ho6Tm10CdHg3Ir4
_symmetry_space_group_name_H-M   'P 1'
_cell_length_a   9.51180420
_cell_length_b   9.51075446
_cell_length_c   9.51090226
_cell_angle_alpha   59.90093851
_cell_angle_beta   59.90198679
_cell_angle_gamma   59.90114730
_symmetry_Int_Tables_number   1
_chemical_formula_structural   Ho6Tm10CdHg3Ir4
_chemical_formula_sum   'Ho6 Tm10 Cd1 Hg3 Ir4'
_cell_volume   607.03204067
_cell_formula_units_Z   1
loop_
 _symmetry_equiv_pos_site_id
 _symmetry_equiv_pos_as_xyz
  1  'x, y, z'
loop_
 _atom_site_type_symbol
 _atom_site_label
 _atom_site_symmetry_multiplicity
 _atom_site_fract_x
 _atom_site_fract_y
 _atom_site_fract_z
 _atom_site_occupancy
  Ho  Ho0  1  0.188515  0.811041  0.810990  1
  Ho  Ho1  1  0.810730  0.188617  0.188670  1
  Ho  Ho2  1  0.810727  0.189740  0.810947  1
  Ho  Ho3  1  0.187460  0.810840  0.189718  1
  Ho  Ho4  1  0.810691  0.810954  0.189757  1
  Ho  Ho5  1  0.187480  0.189691  0.810830  1
  Tm  Tm6  1  0.600673  0.599953  0.599932  1
  Tm  Tm7  1  0.601500  0.601022  0.199173  1
  Tm  Tm8  1  0.601536  0.199143  0.601016  1
  Tm  Tm9  1  0.197255  0.601769  0.601703  1
  Tm  Tm10  1  0.059751  0.439332  0.439366  1
  Tm  Tm11  1  0.436976  0.061022  0.061022  1
  Tm  Tm12  1  0.438606  0.060180  0.439230  1
  Tm  Tm13  1  0.060460  0.437774  0.060539  1
  Tm  Tm14  1  0.438589  0.439199  0.060189  1
  Tm  Tm15  1  0.060469  0.060585  0.437749  1
  Cd  Cd16  1  0.507532  0.830404  0.830460  1
  Hg  Hg17  1  0.832256  0.834005  0.833941  1
  Hg  Hg18  1  0.833045  0.834742  0.496624  1
  Hg  Hg19  1  0.833054  0.496558  0.834804  1
  Ir  Ir20  1  0.392255  0.392682  0.392694  1
  Ir  Ir21  1  0.393124  0.393528  0.823882  1
  Ir  Ir22  1  0.393121  0.823941  0.393506  1
  Ir  Ir23  1  0.824196  0.393282  0.393261  1
