# generated using pymatgen
data_Dy5YCo2(P3Ru4)4
_symmetry_space_group_name_H-M   'P 1'
_cell_length_a   3.91499400
_cell_length_b   11.11042100
_cell_length_c   12.60062700
_cell_angle_alpha   90.00000000
_cell_angle_beta   90.00000000
_cell_angle_gamma   90.00000000
_symmetry_Int_Tables_number   1
_chemical_formula_structural   Dy5YCo2(P3Ru4)4
_chemical_formula_sum   'Dy5 Y1 Co2 P12 Ru16'
_cell_volume   548.09239033
_cell_formula_units_Z   1
loop_
 _symmetry_equiv_pos_site_id
 _symmetry_equiv_pos_as_xyz
  1  'x, y, z'
loop_
 _atom_site_type_symbol
 _atom_site_label
 _atom_site_symmetry_multiplicity
 _atom_site_fract_x
 _atom_site_fract_y
 _atom_site_fract_z
 _atom_site_occupancy
  Dy  Dy0  1  0.000000  0.500000  0.525970  1
  Dy  Dy1  1  0.500000  0.818976  0.204489  1
  Dy  Dy2  1  0.500000  0.181024  0.204489  1
  Dy  Dy3  1  0.000000  0.680990  0.795485  1
  Dy  Dy4  1  0.000000  0.319010  0.795485  1
  Y  Y5  1  0.500000  0.000000  0.474378  1
  Co  Co6  1  0.000000  0.500000  0.986521  1
  Co  Co7  1  0.500000  0.000000  0.013482  1
  P  P8  1  0.500000  0.500000  0.882084  1
  P  P9  1  0.000000  0.000000  0.117818  1
  P  P10  1  0.500000  0.500000  0.337416  1
  P  P11  1  0.000000  0.000000  0.662744  1
  P  P12  1  0.500000  0.302414  0.617444  1
  P  P13  1  0.500000  0.697586  0.617444  1
  P  P14  1  0.000000  0.197708  0.382484  1
  P  P15  1  0.000000  0.802292  0.382484  1
  P  P16  1  0.500000  0.849450  0.898529  1
  P  P17  1  0.500000  0.150550  0.898529  1
  P  P18  1  0.000000  0.650550  0.101482  1
  P  P19  1  0.000000  0.349450  0.101482  1
  Ru  Ru20  1  0.500000  0.500000  0.153226  1
  Ru  Ru21  1  0.000000  0.000000  0.846844  1
  Ru  Ru22  1  0.500000  0.500000  0.694749  1
  Ru  Ru23  1  0.000000  0.000000  0.304877  1
  Ru  Ru24  1  0.500000  0.334657  0.989512  1
  Ru  Ru25  1  0.500000  0.665343  0.989512  1
  Ru  Ru26  1  0.000000  0.165380  0.010436  1
  Ru  Ru27  1  0.000000  0.834620  0.010436  1
  Ru  Ru28  1  0.500000  0.301601  0.430315  1
  Ru  Ru29  1  0.500000  0.698399  0.430315  1
  Ru  Ru30  1  0.000000  0.198784  0.569750  1
  Ru  Ru31  1  0.000000  0.801216  0.569750  1
  Ru  Ru32  1  0.500000  0.878564  0.716056  1
  Ru  Ru33  1  0.500000  0.121436  0.716056  1
  Ru  Ru34  1  0.000000  0.621393  0.283964  1
  Ru  Ru35  1  0.000000  0.378607  0.283964  1
