# generated using pymatgen
data_Dy16Ga6IrOs
_symmetry_space_group_name_H-M   'P 1'
_cell_length_a   10.03602700
_cell_length_b   10.03602733
_cell_length_c   7.06778400
_cell_angle_alpha   90.00000000
_cell_angle_beta   90.00000000
_cell_angle_gamma   119.99999563
_symmetry_Int_Tables_number   1
_chemical_formula_structural   Dy16Ga6IrOs
_chemical_formula_sum   'Dy16 Ga6 Ir1 Os1'
_cell_volume   616.50638021
_cell_formula_units_Z   1
loop_
 _symmetry_equiv_pos_site_id
 _symmetry_equiv_pos_as_xyz
  1  'x, y, z'
loop_
 _atom_site_type_symbol
 _atom_site_label
 _atom_site_symmetry_multiplicity
 _atom_site_fract_x
 _atom_site_fract_y
 _atom_site_fract_z
 _atom_site_occupancy
  Dy  Dy0  1  0.171077  0.828923  0.510318  1
  Dy  Dy1  1  0.657847  0.828923  0.510318  1
  Dy  Dy2  1  0.171077  0.342153  0.510318  1
  Dy  Dy3  1  0.829214  0.170786  0.011110  1
  Dy  Dy4  1  0.341570  0.170786  0.011110  1
  Dy  Dy5  1  0.829214  0.658430  0.011110  1
  Dy  Dy6  1  0.333333  0.666667  0.839772  1
  Dy  Dy7  1  0.666667  0.333333  0.338378  1
  Dy  Dy8  1  0.464310  0.535690  0.206382  1
  Dy  Dy9  1  0.071380  0.535690  0.206382  1
  Dy  Dy10  1  0.464310  0.928620  0.206382  1
  Dy  Dy11  1  0.534493  0.465507  0.705166  1
  Dy  Dy12  1  0.931016  0.465507  0.705166  1
  Dy  Dy13  1  0.534493  0.068984  0.705166  1
  Dy  Dy14  1  0.000000  0.000000  0.234616  1
  Dy  Dy15  1  0.000000  0.000000  0.734851  1
  Ga  Ga16  1  0.163697  0.836303  0.956147  1
  Ga  Ga17  1  0.672608  0.836303  0.956147  1
  Ga  Ga18  1  0.163697  0.327392  0.956147  1
  Ga  Ga19  1  0.835844  0.164156  0.455876  1
  Ga  Ga20  1  0.328310  0.164156  0.455876  1
  Ga  Ga21  1  0.835844  0.671690  0.455876  1
  Ir  Ir22  1  0.666667  0.333333  0.945161  1
  Os  Os23  1  0.333333  0.666667  0.447060  1
