# generated using pymatgen
data_Dy2Ho15Er3Sn16
_symmetry_space_group_name_H-M   'P 1'
_cell_length_a   8.02193501
_cell_length_b   8.15408008
_cell_length_c   15.40757301
_cell_angle_alpha   89.99089163
_cell_angle_beta   90.00088916
_cell_angle_gamma   90.00570983
_symmetry_Int_Tables_number   1
_chemical_formula_structural   Dy2Ho15Er3Sn16
_chemical_formula_sum   'Dy2 Ho15 Er3 Sn16'
_cell_volume   1007.83245063
_cell_formula_units_Z   1
loop_
 _symmetry_equiv_pos_site_id
 _symmetry_equiv_pos_as_xyz
  1  'x, y, z'
loop_
 _atom_site_type_symbol
 _atom_site_label
 _atom_site_symmetry_multiplicity
 _atom_site_fract_x
 _atom_site_fract_y
 _atom_site_fract_z
 _atom_site_occupancy
  Dy  Dy0  1  0.521035  0.320722  0.596965  1
  Dy  Dy1  1  0.020994  0.179246  0.903031  1
  Ho  Ho2  1  0.367927  0.837075  0.877607  1
  Ho  Ho3  1  0.867841  0.662989  0.622390  1
  Ho  Ho4  1  0.632257  0.162528  0.377079  1
  Ho  Ho5  1  0.132262  0.337487  0.122925  1
  Ho  Ho6  1  0.632314  0.162735  0.122919  1
  Ho  Ho7  1  0.132312  0.337282  0.377074  1
  Ho  Ho8  1  0.367899  0.837285  0.622393  1
  Ho  Ho9  1  0.867814  0.662788  0.877604  1
  Ho  Ho10  1  0.521883  0.321157  0.902888  1
  Ho  Ho11  1  0.021836  0.178824  0.597113  1
  Ho  Ho12  1  0.478420  0.678763  0.402319  1
  Ho  Ho13  1  0.978429  0.821231  0.097673  1
  Ho  Ho14  1  0.478380  0.678605  0.097504  1
  Ho  Ho15  1  0.978382  0.821392  0.402501  1
  Ho  Ho16  1  0.198941  0.502996  0.750046  1
  Er  Er17  1  0.699011  0.996955  0.749930  1
  Er  Er18  1  0.800822  0.497083  0.250041  1
  Er  Er19  1  0.300819  0.002918  0.250033  1
  Sn  Sn20  1  0.293231  0.037163  0.041839  1
  Sn  Sn21  1  0.793244  0.462829  0.458150  1
  Sn  Sn22  1  0.708273  0.963409  0.541465  1
  Sn  Sn23  1  0.208283  0.536601  0.958643  1
  Sn  Sn24  1  0.706467  0.962889  0.958575  1
  Sn  Sn25  1  0.206454  0.537116  0.541308  1
  Sn  Sn26  1  0.292315  0.037452  0.458517  1
  Sn  Sn27  1  0.792314  0.462570  0.041484  1
  Sn  Sn28  1  0.565549  0.618055  0.750108  1
  Sn  Sn29  1  0.065202  0.882151  0.749891  1
  Sn  Sn30  1  0.435004  0.381758  0.249901  1
  Sn  Sn31  1  0.934974  0.118223  0.250090  1
  Sn  Sn32  1  0.331195  0.148715  0.750413  1
  Sn  Sn33  1  0.831059  0.350958  0.749582  1
  Sn  Sn34  1  0.668440  0.850800  0.249877  1
  Sn  Sn35  1  0.168413  0.649249  0.250120  1
