# generated using pymatgen
data_Nd4Y4Re3B24Ru
_symmetry_space_group_name_H-M   'P 1'
_cell_length_a   3.73123100
_cell_length_b   9.26282665
_cell_length_c   11.71408032
_cell_angle_alpha   89.91149857
_cell_angle_beta   90.00000000
_cell_angle_gamma   90.00000000
_symmetry_Int_Tables_number   1
_chemical_formula_structural   Nd4Y4Re3B24Ru
_chemical_formula_sum   'Nd4 Y4 Re3 B24 Ru1'
_cell_volume   404.85858483
_cell_formula_units_Z   1
loop_
 _symmetry_equiv_pos_site_id
 _symmetry_equiv_pos_as_xyz
  1  'x, y, z'
loop_
 _atom_site_type_symbol
 _atom_site_label
 _atom_site_symmetry_multiplicity
 _atom_site_fract_x
 _atom_site_fract_y
 _atom_site_fract_z
 _atom_site_occupancy
  Nd  Nd0  1  0.000000  0.822056  0.085549  1
  Nd  Nd1  1  0.000000  0.177258  0.912827  1
  Nd  Nd2  1  0.000000  0.324245  0.415534  1
  Nd  Nd3  1  0.000000  0.677321  0.586212  1
  Y  Y4  1  0.000000  0.441639  0.130978  1
  Y  Y5  1  0.000000  0.556830  0.870091  1
  Y  Y6  1  0.000000  0.942495  0.368891  1
  Y  Y7  1  0.000000  0.057277  0.629788  1
  Re  Re8  1  0.000000  0.861785  0.820347  1
  Re  Re9  1  0.000000  0.638945  0.318989  1
  Re  Re10  1  0.000000  0.360994  0.680547  1
  B  B11  1  0.500000  0.055186  0.069446  1
  B  B12  1  0.500000  0.945585  0.930860  1
  B  B13  1  0.500000  0.554674  0.431100  1
  B  B14  1  0.500000  0.445723  0.569402  1
  B  B15  1  0.500000  0.248373  0.083977  1
  B  B16  1  0.500000  0.750676  0.916516  1
  B  B17  1  0.500000  0.749503  0.416130  1
  B  B18  1  0.500000  0.251405  0.583605  1
  B  B19  1  0.500000  0.289432  0.233769  1
  B  B20  1  0.500000  0.709448  0.766546  1
  B  B21  1  0.500000  0.790303  0.265795  1
  B  B22  1  0.500000  0.209227  0.733522  1
  B  B23  1  0.500000  0.130161  0.313009  1
  B  B24  1  0.500000  0.870369  0.686995  1
  B  B25  1  0.500000  0.629818  0.186071  1
  B  B26  1  0.500000  0.369858  0.813511  1
  B  B27  1  0.500000  0.484054  0.287398  1
  B  B28  1  0.500000  0.516089  0.713310  1
  B  B29  1  0.500000  0.985061  0.212361  1
  B  B30  1  0.500000  0.016663  0.787125  1
  B  B31  1  0.500000  0.098261  0.472090  1
  B  B32  1  0.500000  0.902152  0.526571  1
  B  B33  1  0.500000  0.597156  0.027691  1
  B  B34  1  0.500000  0.401026  0.972984  1
  Ru  Ru35  1  0.000000  0.138951  0.180463  1
