# generated using pymatgen
data_Hf2ZrRe2Si3Tc
_symmetry_space_group_name_H-M   'P 1'
_cell_length_a   6.97560397
_cell_length_b   6.97560481
_cell_length_c   3.41414100
_cell_angle_alpha   90.00000000
_cell_angle_beta   90.00000000
_cell_angle_gamma   119.91734775
_symmetry_Int_Tables_number   1
_chemical_formula_structural   Hf2ZrRe2Si3Tc
_chemical_formula_sum   'Hf2 Zr1 Re2 Si3 Tc1'
_cell_volume   143.99150577
_cell_formula_units_Z   1
loop_
 _symmetry_equiv_pos_site_id
 _symmetry_equiv_pos_as_xyz
  1  'x, y, z'
loop_
 _atom_site_type_symbol
 _atom_site_label
 _atom_site_symmetry_multiplicity
 _atom_site_fract_x
 _atom_site_fract_y
 _atom_site_fract_z
 _atom_site_occupancy
  Hf  Hf0  1  0.596363  0.000182  0.500000  1
  Hf  Hf1  1  0.000182  0.596363  0.500000  1
  Zr  Zr2  1  0.404084  0.404084  0.500000  1
  Re  Re3  1  0.255723  0.998861  0.000000  1
  Re  Re4  1  0.998861  0.255723  0.000000  1
  Si  Si5  1  0.667701  0.333178  0.000000  1
  Si  Si6  1  0.333178  0.667701  0.000000  1
  Si  Si7  1  0.997771  0.997771  0.500000  1
  Tc  Tc8  1  0.746137  0.746137  0.000000  1
