# generated using pymatgen
data_Tb4HfZn3Rh4
_symmetry_space_group_name_H-M   'P 1'
_cell_length_a   4.06397000
_cell_length_b   7.11240431
_cell_length_c   8.34847203
_cell_angle_alpha   90.95567845
_cell_angle_beta   90.00000000
_cell_angle_gamma   90.00000000
_symmetry_Int_Tables_number   1
_chemical_formula_structural   Tb4HfZn3Rh4
_chemical_formula_sum   'Tb4 Hf1 Zn3 Rh4'
_cell_volume   241.27565888
_cell_formula_units_Z   1
loop_
 _symmetry_equiv_pos_site_id
 _symmetry_equiv_pos_as_xyz
  1  'x, y, z'
loop_
 _atom_site_type_symbol
 _atom_site_label
 _atom_site_symmetry_multiplicity
 _atom_site_fract_x
 _atom_site_fract_y
 _atom_site_fract_z
 _atom_site_occupancy
  Tb  Tb0  1  0.250000  0.548079  0.187884  1
  Tb  Tb1  1  0.750000  0.479263  0.807632  1
  Tb  Tb2  1  0.250000  0.033466  0.322084  1
  Tb  Tb3  1  0.750000  0.949837  0.663921  1
  Hf  Hf4  1  0.250000  0.128433  0.939689  1
  Zn  Zn5  1  0.750000  0.859456  0.071365  1
  Zn  Zn6  1  0.250000  0.631429  0.562346  1
  Zn  Zn7  1  0.750000  0.362803  0.440004  1
  Rh  Rh8  1  0.750000  0.736298  0.379518  1
  Rh  Rh9  1  0.250000  0.253206  0.635566  1
  Rh  Rh10  1  0.750000  0.248930  0.115157  1
  Rh  Rh11  1  0.250000  0.768802  0.874836  1
