# generated using pymatgen
data_La3AlVSe7
_symmetry_space_group_name_H-M   'P 1'
_cell_length_a   10.56420537
_cell_length_b   10.56235613
_cell_length_c   6.47768201
_cell_angle_alpha   90.00181421
_cell_angle_beta   89.99440423
_cell_angle_gamma   120.02839204
_symmetry_Int_Tables_number   1
_chemical_formula_structural   La3AlVSe7
_chemical_formula_sum   'La6 Al2 V2 Se14'
_cell_volume   625.78273158
_cell_formula_units_Z   2
loop_
 _symmetry_equiv_pos_site_id
 _symmetry_equiv_pos_as_xyz
  1  'x, y, z'
loop_
 _atom_site_type_symbol
 _atom_site_label
 _atom_site_symmetry_multiplicity
 _atom_site_fract_x
 _atom_site_fract_y
 _atom_site_fract_z
 _atom_site_occupancy
  La  La0  1  0.145518  0.373801  0.236933  1
  La  La1  1  0.854553  0.626274  0.737010  1
  La  La2  1  0.626131  0.772006  0.237223  1
  La  La3  1  0.228137  0.854391  0.236819  1
  La  La4  1  0.771822  0.145644  0.736787  1
  La  La5  1  0.373973  0.228171  0.737122  1
  Al  Al6  1  0.333246  0.666636  0.656860  1
  Al  Al7  1  0.666763  0.333333  0.156898  1
  V  V8  1  0.999985  0.000057  0.045600  1
  V  V9  1  0.999869  0.999797  0.545139  1
  Se  Se10  1  0.333258  0.666614  0.023638  1
  Se  Se11  1  0.666779  0.333380  0.523664  1
  Se  Se12  1  0.424625  0.518650  0.511496  1
  Se  Se13  1  0.575382  0.481300  0.011544  1
  Se  Se14  1  0.481280  0.906004  0.511545  1
  Se  Se15  1  0.093922  0.575285  0.511397  1
  Se  Se16  1  0.906083  0.424671  0.011428  1
  Se  Se17  1  0.518737  0.093988  0.011574  1
  Se  Se18  1  0.091521  0.230876  0.797543  1
  Se  Se19  1  0.908451  0.769057  0.297541  1
  Se  Se20  1  0.769099  0.860576  0.797685  1
  Se  Se21  1  0.139510  0.908589  0.797426  1
  Se  Se22  1  0.860486  0.091467  0.297424  1
  Se  Se23  1  0.230870  0.139430  0.297700  1
