# generated using pymatgen
data_Tb2Ho3(ReO6)2
_symmetry_space_group_name_H-M   'P 1'
_cell_length_a   6.83570961
_cell_length_b   6.83570934
_cell_length_c   7.54890520
_cell_angle_alpha   73.87909926
_cell_angle_beta   73.87910805
_cell_angle_gamma   49.05933769
_symmetry_Int_Tables_number   1
_chemical_formula_structural   Tb2Ho3(ReO6)2
_chemical_formula_sum   'Tb2 Ho3 Re2 O12'
_cell_volume   253.73966393
_cell_formula_units_Z   1
loop_
 _symmetry_equiv_pos_site_id
 _symmetry_equiv_pos_as_xyz
  1  'x, y, z'
loop_
 _atom_site_type_symbol
 _atom_site_label
 _atom_site_symmetry_multiplicity
 _atom_site_fract_x
 _atom_site_fract_y
 _atom_site_fract_z
 _atom_site_occupancy
  Tb  Tb0  1  0.803508  0.803508  0.357874  1
  Tb  Tb1  1  0.196492  0.196492  0.642126  1
  Ho  Ho2  1  0.185618  0.185618  0.175152  1
  Ho  Ho3  1  0.814382  0.814382  0.824848  1
  Ho  Ho4  1  0.500000  0.500000  0.500000  1
  Re  Re5  1  0.286053  0.713947  0.000000  1
  Re  Re6  1  0.713947  0.286053  0.000000  1
  O  O7  1  0.413476  0.917363  0.916353  1
  O  O8  1  0.082637  0.586524  0.083647  1
  O  O9  1  0.586524  0.082637  0.083647  1
  O  O10  1  0.917363  0.413476  0.916353  1
  O  O11  1  0.599158  0.094648  0.575582  1
  O  O12  1  0.905352  0.400842  0.424418  1
  O  O13  1  0.400842  0.905352  0.424418  1
  O  O14  1  0.000248  0.000248  0.823447  1
  O  O15  1  0.999752  0.999752  0.176553  1
  O  O16  1  0.499321  0.499321  0.793048  1
  O  O17  1  0.500679  0.500679  0.206952  1
  O  O18  1  0.094648  0.599158  0.575582  1
