# generated using pymatgen
data_Pr9Nd3(GeI3)4
_symmetry_space_group_name_H-M   'P 1'
_cell_length_a   10.91386478
_cell_length_b   10.91262492
_cell_length_c   10.91506398
_cell_angle_alpha   109.43785338
_cell_angle_beta   109.44246125
_cell_angle_gamma   109.52660793
_symmetry_Int_Tables_number   1
_chemical_formula_structural   Pr9Nd3(GeI3)4
_chemical_formula_sum   'Pr9 Nd3 Ge4 I12'
_cell_volume   1000.80175938
_cell_formula_units_Z   1
loop_
 _symmetry_equiv_pos_site_id
 _symmetry_equiv_pos_as_xyz
  1  'x, y, z'
loop_
 _atom_site_type_symbol
 _atom_site_label
 _atom_site_symmetry_multiplicity
 _atom_site_fract_x
 _atom_site_fract_y
 _atom_site_fract_z
 _atom_site_occupancy
  Pr  Pr0  1  0.467551  0.483707  0.233577  1
  Pr  Pr1  1  0.750144  0.233903  0.266346  1
  Pr  Pr2  1  0.749815  0.016203  0.483732  1
  Pr  Pr3  1  0.233918  0.467529  0.483732  1
  Pr  Pr4  1  0.266026  0.749870  0.233577  1
  Pr  Pr5  1  0.032134  0.265980  0.015922  1
  Pr  Pr6  1  0.016203  0.032443  0.266346  1
  Pr  Pr7  1  0.483788  0.749942  0.015922  1
  Pr  Pr8  1  0.483852  0.233852  0.467703  1
  Nd  Nd9  1  0.016875  0.483046  0.749948  1
  Nd  Nd10  1  0.266817  0.016817  0.033634  1
  Nd  Nd11  1  0.233074  0.266903  0.749948  1
  Ge  Ge12  1  0.249938  0.249030  0.249027  1
  Ge  Ge13  1  0.499090  0.999998  0.249027  1
  Ge  Ge14  1  0.000947  0.250947  0.501894  1
  Ge  Ge15  1  0.249040  0.499040  0.998079  1
  I  I16  1  0.248706  0.756877  0.743519  1
  I  I17  1  0.513370  0.506059  0.757329  1
  I  I18  1  0.986617  0.743073  0.991784  1
  I  I19  1  0.743959  0.251270  0.757329  1
  I  I20  1  0.994812  0.986642  0.743519  1
  I  I21  1  0.250108  0.993677  0.508180  1
  I  I22  1  0.758073  0.514504  0.508180  1
  I  I23  1  0.505166  0.248711  0.991784  1
  I  I24  1  0.757314  0.742663  0.249977  1
  I  I25  1  0.742683  0.992683  0.985367  1
  I  I26  1  0.992663  0.507314  0.249977  1
  I  I27  1  0.507319  0.757319  0.514638  1
