# generated using pymatgen
data_NpFeB4
_symmetry_space_group_name_H-M   'P 1'
_cell_length_a   3.34149600
_cell_length_b   5.91003400
_cell_length_c   11.45208800
_cell_angle_alpha   90.00000000
_cell_angle_beta   90.00000000
_cell_angle_gamma   90.00000000
_symmetry_Int_Tables_number   1
_chemical_formula_structural   NpFeB4
_chemical_formula_sum   'Np4 Fe4 B16'
_cell_volume   226.15989898
_cell_formula_units_Z   4
loop_
 _symmetry_equiv_pos_site_id
 _symmetry_equiv_pos_as_xyz
  1  'x, y, z'
loop_
 _atom_site_type_symbol
 _atom_site_label
 _atom_site_symmetry_multiplicity
 _atom_site_fract_x
 _atom_site_fract_y
 _atom_site_fract_z
 _atom_site_occupancy
  Np  Np0  1  0.500000  0.374112  0.150575  1
  Np  Np1  1  0.500000  0.625888  0.849425  1
  Np  Np2  1  0.500000  0.125888  0.650575  1
  Np  Np3  1  0.500000  0.874112  0.349425  1
  Fe  Fe4  1  0.500000  0.368700  0.412201  1
  Fe  Fe5  1  0.500000  0.631300  0.587799  1
  Fe  Fe6  1  0.500000  0.131300  0.912201  1
  Fe  Fe7  1  0.500000  0.868700  0.087799  1
  B  B8  1  0.000000  0.112758  0.046013  1
  B  B9  1  0.000000  0.887242  0.953987  1
  B  B10  1  0.000000  0.387242  0.546013  1
  B  B11  1  0.000000  0.612758  0.453987  1
  B  B12  1  0.000000  0.137249  0.466846  1
  B  B13  1  0.000000  0.862751  0.533154  1
  B  B14  1  0.000000  0.362751  0.966846  1
  B  B15  1  0.000000  0.637249  0.033154  1
  B  B16  1  0.000000  0.025878  0.190533  1
  B  B17  1  0.000000  0.974122  0.809467  1
  B  B18  1  0.000000  0.474122  0.690533  1
  B  B19  1  0.000000  0.525878  0.309467  1
  B  B20  1  0.000000  0.218690  0.314942  1
  B  B21  1  0.000000  0.781310  0.685058  1
  B  B22  1  0.000000  0.281310  0.814942  1
  B  B23  1  0.000000  0.718690  0.185058  1
