# generated using pymatgen
data_Eu4DyW3O14
_symmetry_space_group_name_H-M   'P 1'
_cell_length_a   7.62885592
_cell_length_b   7.55936044
_cell_length_c   7.62885700
_cell_angle_alpha   59.69541887
_cell_angle_beta   59.99999963
_cell_angle_gamma   59.69541899
_symmetry_Int_Tables_number   1
_chemical_formula_structural   Eu4DyW3O14
_chemical_formula_sum   'Eu4 Dy1 W3 O14'
_cell_volume   309.65218239
_cell_formula_units_Z   1
loop_
 _symmetry_equiv_pos_site_id
 _symmetry_equiv_pos_as_xyz
  1  'x, y, z'
loop_
 _atom_site_type_symbol
 _atom_site_label
 _atom_site_symmetry_multiplicity
 _atom_site_fract_x
 _atom_site_fract_y
 _atom_site_fract_z
 _atom_site_occupancy
  Eu  Eu0  1  0.125000  0.625000  0.125000  1
  Eu  Eu1  1  0.125000  0.125000  0.625000  1
  Eu  Eu2  1  0.625000  0.125000  0.125000  1
  Eu  Eu3  1  0.125000  0.125000  0.125000  1
  Dy  Dy4  1  0.625000  0.125000  0.625000  1
  W  W5  1  0.625000  0.625000  0.625000  1
  W  W6  1  0.125000  0.625000  0.625000  1
  W  W7  1  0.625000  0.625000  0.125000  1
  O  O8  1  0.305847  0.678432  0.709874  1
  O  O9  1  0.539537  0.940537  0.980389  1
  O  O10  1  0.709874  0.678432  0.305847  1
  O  O11  1  0.269611  0.309463  0.710463  1
  O  O12  1  0.000285  0.999145  0.000285  1
  O  O13  1  0.305847  0.678432  0.305847  1
  O  O14  1  0.710463  0.309463  0.710463  1
  O  O15  1  0.944153  0.571568  0.944153  1
  O  O16  1  0.540126  0.571568  0.944153  1
  O  O17  1  0.980389  0.940537  0.539537  1
  O  O18  1  0.249715  0.250855  0.249715  1
  O  O19  1  0.539537  0.940537  0.539537  1
  O  O20  1  0.710463  0.309463  0.269611  1
  O  O21  1  0.944153  0.571568  0.540126  1
