# generated using pymatgen
data_Nd9Ho9(LuSi8)2
_symmetry_space_group_name_H-M   'P 1'
_cell_length_a   7.74447475
_cell_length_b   7.74922323
_cell_length_c   14.37774678
_cell_angle_alpha   89.85826939
_cell_angle_beta   90.25530149
_cell_angle_gamma   89.98596597
_symmetry_Int_Tables_number   1
_chemical_formula_structural   Nd9Ho9(LuSi8)2
_chemical_formula_sum   'Nd9 Ho9 Lu2 Si16'
_cell_volume   862.85002479
_cell_formula_units_Z   1
loop_
 _symmetry_equiv_pos_site_id
 _symmetry_equiv_pos_as_xyz
  1  'x, y, z'
loop_
 _atom_site_type_symbol
 _atom_site_label
 _atom_site_symmetry_multiplicity
 _atom_site_fract_x
 _atom_site_fract_y
 _atom_site_fract_z
 _atom_site_occupancy
  Nd  Nd0  1  0.012994  0.862970  0.126032  1
  Nd  Nd1  1  0.638372  0.992174  0.458642  1
  Nd  Nd2  1  0.363480  0.006999  0.954306  1
  Nd  Nd3  1  0.989781  0.639752  0.542222  1
  Nd  Nd4  1  0.492302  0.862064  0.206983  1
  Nd  Nd5  1  0.509100  0.138390  0.707376  1
  Nd  Nd6  1  0.860709  0.489907  0.791194  1
  Nd  Nd7  1  0.136260  0.510656  0.294833  1
  Nd  Nd8  1  0.009448  0.362033  0.043302  1
  Ho  Ho9  1  0.488562  0.361196  0.123820  1
  Ho  Ho10  1  0.990552  0.136730  0.625083  1
  Ho  Ho11  1  0.863162  0.008641  0.873891  1
  Ho  Ho12  1  0.136671  0.991932  0.375768  1
  Ho  Ho13  1  0.508970  0.637285  0.624902  1
  Ho  Ho14  1  0.364902  0.489036  0.873224  1
  Ho  Ho15  1  0.636464  0.509996  0.377108  1
  Ho  Ho16  1  0.315465  0.316095  0.500812  1
  Ho  Ho17  1  0.183661  0.814763  0.748611  1
  Lu  Lu18  1  0.813644  0.186143  0.250935  1
  Lu  Lu19  1  0.685636  0.682198  0.999831  1
  Si  Si20  1  0.288323  0.934347  0.561505  1
  Si  Si21  1  0.709469  0.067633  0.060914  1
  Si  Si22  1  0.932754  0.289308  0.438361  1
  Si  Si23  1  0.435231  0.213296  0.312760  1
  Si  Si24  1  0.567968  0.786671  0.811853  1
  Si  Si25  1  0.211188  0.433469  0.687748  1
  Si  Si26  1  0.784479  0.562494  0.189442  1
  Si  Si27  1  0.066967  0.706702  0.934901  1
  Si  Si28  1  0.798053  0.844383  0.690010  1
  Si  Si29  1  0.201311  0.162710  0.195696  1
  Si  Si30  1  0.841163  0.799248  0.313027  1
  Si  Si31  1  0.343838  0.702883  0.441503  1
  Si  Si32  1  0.656827  0.297917  0.940110  1
  Si  Si33  1  0.701575  0.345196  0.560681  1
  Si  Si34  1  0.305212  0.653825  0.054433  1
  Si  Si35  1  0.155507  0.200951  0.808183  1
