# generated using pymatgen
data_YHo3(As4O9)2
_symmetry_space_group_name_H-M   'P 1'
_cell_length_a   6.73873003
_cell_length_b   7.53858839
_cell_length_c   9.81411516
_cell_angle_alpha   94.89806926
_cell_angle_beta   104.16053977
_cell_angle_gamma   104.73024892
_symmetry_Int_Tables_number   1
_chemical_formula_structural   YHo3(As4O9)2
_chemical_formula_sum   'Y1 Ho3 As8 O18'
_cell_volume   461.69814938
_cell_formula_units_Z   1
loop_
 _symmetry_equiv_pos_site_id
 _symmetry_equiv_pos_as_xyz
  1  'x, y, z'
loop_
 _atom_site_type_symbol
 _atom_site_label
 _atom_site_symmetry_multiplicity
 _atom_site_fract_x
 _atom_site_fract_y
 _atom_site_fract_z
 _atom_site_occupancy
  Y  Y0  1  0.243578  0.939416  0.615112  1
  Ho  Ho1  1  0.755861  0.061248  0.384810  1
  Ho  Ho2  1  0.720993  0.529917  0.409430  1
  Ho  Ho3  1  0.278908  0.470029  0.590501  1
  As  As4  1  0.682173  0.774565  0.078247  1
  As  As5  1  0.317885  0.225805  0.922166  1
  As  As6  1  0.171079  0.752271  0.912679  1
  As  As7  1  0.828743  0.247497  0.087542  1
  As  As8  1  0.744493  0.915137  0.709261  1
  As  As9  1  0.255943  0.084926  0.290549  1
  As  As10  1  0.809789  0.351205  0.701270  1
  As  As11  1  0.190504  0.648684  0.298481  1
  O  O12  1  0.723274  0.749391  0.258939  1
  O  O13  1  0.276833  0.251371  0.741432  1
  O  O14  1  0.316326  0.978820  0.870576  1
  O  O15  1  0.684037  0.021406  0.130474  1
  O  O16  1  0.608128  0.325016  0.985344  1
  O  O17  1  0.391840  0.674964  0.014617  1
  O  O18  1  0.128128  0.646051  0.737610  1
  O  O19  1  0.871762  0.353559  0.262543  1
  O  O20  1  0.846297  0.874895  0.558281  1
  O  O21  1  0.152021  0.125842  0.440585  1
  O  O22  1  0.484002  0.767484  0.666534  1
  O  O23  1  0.517104  0.231715  0.333833  1
  O  O24  1  0.373097  0.533716  0.380021  1
  O  O25  1  0.626920  0.466142  0.619933  1
  O  O26  1  0.088670  0.668334  0.453421  1
  O  O27  1  0.910603  0.330287  0.545846  1
  O  O28  1  0.376877  0.899501  0.359185  1
  O  O29  1  0.624131  0.100806  0.640777  1
