# generated using pymatgen
data_Sm2DyCu3(Ni5B)2
_symmetry_space_group_name_H-M   'P 1'
_cell_length_a   5.01579300
_cell_length_b   5.01579311
_cell_length_c   10.93270800
_cell_angle_alpha   90.00000000
_cell_angle_beta   90.00000000
_cell_angle_gamma   120.00000585
_symmetry_Int_Tables_number   1
_chemical_formula_structural   Sm2DyCu3(Ni5B)2
_chemical_formula_sum   'Sm2 Dy1 Cu3 Ni10 B2'
_cell_volume   238.19770602
_cell_formula_units_Z   1
loop_
 _symmetry_equiv_pos_site_id
 _symmetry_equiv_pos_as_xyz
  1  'x, y, z'
loop_
 _atom_site_type_symbol
 _atom_site_label
 _atom_site_symmetry_multiplicity
 _atom_site_fract_x
 _atom_site_fract_y
 _atom_site_fract_z
 _atom_site_occupancy
  Sm  Sm0  1  0.000000  0.000000  0.666594  1
  Sm  Sm1  1  0.000000  0.000000  0.328679  1
  Dy  Dy2  1  0.000000  0.000000  0.000166  1
  Cu  Cu3  1  0.666667  0.333333  0.683424  1
  Cu  Cu4  1  0.333333  0.666667  0.683777  1
  Cu  Cu5  1  0.333333  0.666667  0.316380  1
  Ni  Ni6  1  0.500395  0.499605  0.499446  1
  Ni  Ni7  1  0.500395  0.000790  0.499446  1
  Ni  Ni8  1  0.999210  0.499605  0.499446  1
  Ni  Ni9  1  0.666667  0.333333  0.318380  1
  Ni  Ni10  1  0.499969  0.500031  0.871174  1
  Ni  Ni11  1  0.499969  0.999937  0.871174  1
  Ni  Ni12  1  0.000063  0.500031  0.871174  1
  Ni  Ni13  1  0.501022  0.498978  0.129917  1
  Ni  Ni14  1  0.501022  0.002045  0.129917  1
  Ni  Ni15  1  0.997955  0.498978  0.129917  1
  B  B16  1  0.666667  0.333333  0.000143  1
  B  B17  1  0.333333  0.666667  0.000842  1
