# generated using pymatgen
data_Ba4LiAg3P4
_symmetry_space_group_name_H-M   'P 1'
_cell_length_a   8.98868301
_cell_length_b   4.52640700
_cell_length_c   7.83307501
_cell_angle_alpha   90.00000000
_cell_angle_beta   90.00608525
_cell_angle_gamma   90.00000000
_symmetry_Int_Tables_number   1
_chemical_formula_structural   Ba4LiAg3P4
_chemical_formula_sum   'Ba4 Li1 Ag3 P4'
_cell_volume   318.69991671
_cell_formula_units_Z   1
loop_
 _symmetry_equiv_pos_site_id
 _symmetry_equiv_pos_as_xyz
  1  'x, y, z'
loop_
 _atom_site_type_symbol
 _atom_site_label
 _atom_site_symmetry_multiplicity
 _atom_site_fract_x
 _atom_site_fract_y
 _atom_site_fract_z
 _atom_site_occupancy
  Ba  Ba0  1  0.499337  0.250000  0.250911  1
  Ba  Ba1  1  0.000940  0.250000  0.251239  1
  Ba  Ba2  1  0.001910  0.750000  0.748956  1
  Ba  Ba3  1  0.497850  0.750000  0.749364  1
  Li  Li4  1  0.249658  0.750000  0.081596  1
  Ag  Ag5  1  0.749812  0.750000  0.416848  1
  Ag  Ag6  1  0.250196  0.250000  0.583676  1
  Ag  Ag7  1  0.750173  0.250000  0.916484  1
  P  P8  1  0.751192  0.750000  0.083913  1
  P  P9  1  0.251120  0.750000  0.411027  1
  P  P10  1  0.748837  0.250000  0.583278  1
  P  P11  1  0.248975  0.250000  0.922706  1
