# generated using pymatgen
data_Tb4Y3Th3(In2Pd)4
_symmetry_space_group_name_H-M   'P 1'
_cell_length_a   3.75157300
_cell_length_b   8.18135915
_cell_length_c   18.31068621
_cell_angle_alpha   89.89599034
_cell_angle_beta   90.00000000
_cell_angle_gamma   90.00000000
_symmetry_Int_Tables_number   1
_chemical_formula_structural   Tb4Y3Th3(In2Pd)4
_chemical_formula_sum   'Tb4 Y3 Th3 In8 Pd4'
_cell_volume   562.00834464
_cell_formula_units_Z   1
loop_
 _symmetry_equiv_pos_site_id
 _symmetry_equiv_pos_as_xyz
  1  'x, y, z'
loop_
 _atom_site_type_symbol
 _atom_site_label
 _atom_site_symmetry_multiplicity
 _atom_site_fract_x
 _atom_site_fract_y
 _atom_site_fract_z
 _atom_site_occupancy
  Tb  Tb0  1  0.500000  0.737984  0.717713  1
  Tb  Tb1  1  0.500000  0.113673  0.583409  1
  Tb  Tb2  1  0.500000  0.883039  0.419495  1
  Tb  Tb3  1  0.500000  0.383278  0.081342  1
  Y  Y4  1  0.500000  0.616296  0.917059  1
  Y  Y5  1  0.500000  0.000850  0.998442  1
  Y  Y6  1  0.500000  0.500063  0.500172  1
  Th  Th7  1  0.500000  0.240049  0.781858  1
  Th  Th8  1  0.500000  0.762501  0.217585  1
  Th  Th9  1  0.500000  0.262538  0.282702  1
  In  In10  1  0.000000  0.081982  0.145568  1
  In  In11  1  0.000000  0.913120  0.850846  1
  In  In12  1  0.000000  0.426239  0.646317  1
  In  In13  1  0.000000  0.582953  0.354026  1
  In  In14  1  0.000000  0.206141  0.436266  1
  In  In15  1  0.000000  0.790059  0.567812  1
  In  In16  1  0.000000  0.294384  0.935721  1
  In  In17  1  0.000000  0.706671  0.063621  1
  Pd  Pd18  1  0.000000  0.028750  0.697426  1
  Pd  Pd19  1  0.000000  0.972878  0.303242  1
  Pd  Pd20  1  0.000000  0.473750  0.196986  1
  Pd  Pd21  1  0.000000  0.522803  0.802390  1
