# generated using pymatgen
data_Pr5Dy3Sc12Si15Tc
_symmetry_space_group_name_H-M   'P 1'
_cell_length_a   7.19164918
_cell_length_b   7.53502827
_cell_length_c   14.11072823
_cell_angle_alpha   89.87364739
_cell_angle_beta   90.10292938
_cell_angle_gamma   90.13454625
_symmetry_Int_Tables_number   1
_chemical_formula_structural   Pr5Dy3Sc12Si15Tc
_chemical_formula_sum   'Pr5 Dy3 Sc12 Si15 Tc1'
_cell_volume   764.64500604
_cell_formula_units_Z   1
loop_
 _symmetry_equiv_pos_site_id
 _symmetry_equiv_pos_as_xyz
  1  'x, y, z'
loop_
 _atom_site_type_symbol
 _atom_site_label
 _atom_site_symmetry_multiplicity
 _atom_site_fract_x
 _atom_site_fract_y
 _atom_site_fract_z
 _atom_site_occupancy
  Pr  Pr0  1  0.010641  0.176182  0.097094  1
  Pr  Pr1  1  0.990713  0.829899  0.901887  1
  Pr  Pr2  1  0.489291  0.670776  0.904535  1
  Pr  Pr3  1  0.990343  0.828467  0.594324  1
  Pr  Pr4  1  0.510024  0.327388  0.096629  1
  Dy  Dy5  1  0.012812  0.179982  0.402705  1
  Dy  Dy6  1  0.510571  0.323228  0.403476  1
  Dy  Dy7  1  0.488144  0.675425  0.596201  1
  Sc  Sc8  1  0.155344  0.493513  0.749110  1
  Sc  Sc9  1  0.839753  0.497089  0.251734  1
  Sc  Sc10  1  0.338998  0.004123  0.251910  1
  Sc  Sc11  1  0.665082  0.001806  0.748997  1
  Sc  Sc12  1  0.316546  0.172840  0.626795  1
  Sc  Sc13  1  0.670884  0.825977  0.374526  1
  Sc  Sc14  1  0.172902  0.676609  0.374679  1
  Sc  Sc15  1  0.672041  0.827752  0.128294  1
  Sc  Sc16  1  0.838419  0.317716  0.626338  1
  Sc  Sc17  1  0.317524  0.171352  0.870991  1
  Sc  Sc18  1  0.836678  0.320110  0.871378  1
  Sc  Sc19  1  0.172164  0.677514  0.127984  1
  Si  Si20  1  0.968784  0.880164  0.252462  1
  Si  Si21  1  0.470340  0.618327  0.252373  1
  Si  Si22  1  0.529834  0.384025  0.747456  1
  Si  Si23  1  0.291522  0.874313  0.747122  1
  Si  Si24  1  0.711867  0.125206  0.254192  1
  Si  Si25  1  0.213235  0.374159  0.254320  1
  Si  Si26  1  0.778233  0.620812  0.746822  1
  Si  Si27  1  0.160705  0.465054  0.535910  1
  Si  Si28  1  0.844865  0.531900  0.459569  1
  Si  Si29  1  0.346793  0.966886  0.458538  1
  Si  Si30  1  0.850515  0.539455  0.039201  1
  Si  Si31  1  0.648947  0.035930  0.537985  1
  Si  Si32  1  0.154063  0.467155  0.963042  1
  Si  Si33  1  0.650113  0.035805  0.961073  1
  Si  Si34  1  0.349556  0.963146  0.040795  1
  Tc  Tc35  1  0.031753  0.119914  0.749553  1
