# generated using pymatgen
data_Y7Er(Si3Ni)4
_symmetry_space_group_name_H-M   'P 1'
_cell_length_a   7.93992100
_cell_length_b   7.94735525
_cell_length_c   8.07315400
_cell_angle_alpha   90.00000000
_cell_angle_beta   90.00000000
_cell_angle_gamma   119.96906496
_symmetry_Int_Tables_number   1
_chemical_formula_structural   Y7Er(Si3Ni)4
_chemical_formula_sum   'Y7 Er1 Si12 Ni4'
_cell_volume   441.31427084
_cell_formula_units_Z   1
loop_
 _symmetry_equiv_pos_site_id
 _symmetry_equiv_pos_as_xyz
  1  'x, y, z'
loop_
 _atom_site_type_symbol
 _atom_site_label
 _atom_site_symmetry_multiplicity
 _atom_site_fract_x
 _atom_site_fract_y
 _atom_site_fract_z
 _atom_site_occupancy
  Y  Y0  1  0.499670  0.999341  0.750000  1
  Y  Y1  1  0.999934  0.499945  0.250000  1
  Y  Y2  1  0.000626  0.500342  0.750000  1
  Y  Y3  1  0.500013  0.499945  0.250000  1
  Y  Y4  1  0.499714  0.500342  0.750000  1
  Y  Y5  1  0.000014  0.000028  0.250000  1
  Y  Y6  1  0.000009  0.000020  0.750000  1
  Er  Er7  1  0.500065  0.000129  0.250000  1
  Si  Si8  1  0.170716  0.341432  0.000192  1
  Si  Si9  1  0.829265  0.658528  0.999870  1
  Si  Si10  1  0.657961  0.829358  0.000939  1
  Si  Si11  1  0.829265  0.658528  0.500130  1
  Si  Si12  1  0.342068  0.170640  0.000638  1
  Si  Si13  1  0.170716  0.341432  0.499808  1
  Si  Si14  1  0.171397  0.829358  0.000939  1
  Si  Si15  1  0.342068  0.170640  0.499362  1
  Si  Si16  1  0.828573  0.170640  0.000638  1
  Si  Si17  1  0.657961  0.829358  0.499061  1
  Si  Si18  1  0.828573  0.170640  0.499362  1
  Si  Si19  1  0.171397  0.829358  0.499061  1
  Ni  Ni20  1  0.333379  0.666761  0.002322  1
  Ni  Ni21  1  0.666619  0.333237  0.001845  1
  Ni  Ni22  1  0.666619  0.333237  0.498155  1
  Ni  Ni23  1  0.333379  0.666761  0.497678  1
