# generated using pymatgen
data_AlZn21Rh4
_symmetry_space_group_name_H-M   'P 1'
_cell_length_a   7.93223628
_cell_length_b   7.91108008
_cell_length_c   7.91107954
_cell_angle_alpha   109.41698588
_cell_angle_beta   109.52540342
_cell_angle_gamma   109.52540476
_symmetry_Int_Tables_number   1
_chemical_formula_structural   AlZn21Rh4
_chemical_formula_sum   'Al1 Zn21 Rh4'
_cell_volume   381.90418581
_cell_formula_units_Z   1
loop_
 _symmetry_equiv_pos_site_id
 _symmetry_equiv_pos_as_xyz
  1  'x, y, z'
loop_
 _atom_site_type_symbol
 _atom_site_label
 _atom_site_symmetry_multiplicity
 _atom_site_fract_x
 _atom_site_fract_y
 _atom_site_fract_z
 _atom_site_occupancy
  Al  Al0  1  0.206099  0.000000  0.000000  1
  Zn  Zn1  1  0.996718  0.214840  0.000000  1
  Zn  Zn2  1  0.735300  0.352110  0.000000  1
  Zn  Zn3  1  0.356964  0.360610  0.000000  1
  Zn  Zn4  1  0.644951  0.644635  0.000000  1
  Zn  Zn5  1  0.352209  0.731577  0.000000  1
  Zn  Zn6  1  0.996718  0.000000  0.214840  1
  Zn  Zn7  1  0.620631  0.268422  0.268422  1
  Zn  Zn8  1  0.265945  0.615988  0.266746  1
  Zn  Zn9  1  0.735300  0.000000  0.352110  1
  Zn  Zn10  1  0.999199  0.733253  0.349244  1
  Zn  Zn11  1  0.356964  0.000000  0.360610  1
  Zn  Zn12  1  0.000316  0.355365  0.355365  1
  Zn  Zn13  1  0.649955  0.650756  0.384010  1
  Zn  Zn14  1  0.265945  0.266746  0.615988  1
  Zn  Zn15  1  0.644951  0.000000  0.644635  1
  Zn  Zn16  1  0.996353  0.639390  0.639390  1
  Zn  Zn17  1  0.649955  0.384010  0.650756  1
  Zn  Zn18  1  0.383189  0.647890  0.647890  1
  Zn  Zn19  1  0.352209  0.000000  0.731577  1
  Zn  Zn20  1  0.999199  0.349244  0.733253  1
  Zn  Zn21  1  0.781875  0.785158  0.785158  1
  Rh  Rh22  1  0.649636  0.000000  0.000000  1
  Rh  Rh23  1  0.007723  0.663754  0.000000  1
  Rh  Rh24  1  0.343969  0.336246  0.336246  1
  Rh  Rh25  1  0.007723  0.000000  0.663754  1
