# generated using pymatgen
data_La2Ge5Pd3
_symmetry_space_group_name_H-M   'P 1'
_cell_length_a   8.61510277
_cell_length_b   8.61510290
_cell_length_c   8.61510274
_cell_angle_alpha   137.08829968
_cell_angle_beta   106.55046309
_cell_angle_gamma   89.01082014
_symmetry_Int_Tables_number   1
_chemical_formula_structural   La2Ge5Pd3
_chemical_formula_sum   'La4 Ge10 Pd6'
_cell_volume   398.97774708
_cell_formula_units_Z   2
loop_
 _symmetry_equiv_pos_site_id
 _symmetry_equiv_pos_as_xyz
  1  'x, y, z'
loop_
 _atom_site_type_symbol
 _atom_site_label
 _atom_site_symmetry_multiplicity
 _atom_site_fract_x
 _atom_site_fract_y
 _atom_site_fract_z
 _atom_site_occupancy
  La  La0  1  0.101269  0.869795  0.231473  1
  La  La1  1  0.638322  0.369795  0.268527  1
  La  La2  1  0.898731  0.130205  0.768527  1
  La  La3  1  0.361678  0.630205  0.731473  1
  Ge  Ge4  1  0.274235  0.024235  0.750000  1
  Ge  Ge5  1  0.274235  0.524235  0.250000  1
  Ge  Ge6  1  0.000000  0.250000  0.250000  1
  Ge  Ge7  1  0.241032  0.395042  0.845990  1
  Ge  Ge8  1  0.758968  0.604958  0.154010  1
  Ge  Ge9  1  0.725765  0.475765  0.750000  1
  Ge  Ge10  1  0.549052  0.895042  0.654010  1
  Ge  Ge11  1  0.725765  0.975765  0.250000  1
  Ge  Ge12  1  0.450948  0.104958  0.345990  1
  Ge  Ge13  1  0.000000  0.750000  0.750000  1
  Pd  Pd14  1  0.030385  0.639742  0.390643  1
  Pd  Pd15  1  0.750901  0.860258  0.890643  1
  Pd  Pd16  1  0.969615  0.360258  0.609357  1
  Pd  Pd17  1  0.249099  0.139742  0.109357  1
  Pd  Pd18  1  0.500000  0.750000  0.250000  1
  Pd  Pd19  1  0.500000  0.250000  0.750000  1
