# generated using pymatgen
data_CeP2Cl8O3
_symmetry_space_group_name_H-M   'P 1'
_cell_length_a   9.44603098
_cell_length_b   9.60069554
_cell_length_c   11.59290289
_cell_angle_alpha   70.62189057
_cell_angle_beta   70.85007206
_cell_angle_gamma   65.86138983
_symmetry_Int_Tables_number   1
_chemical_formula_structural   CeP2Cl8O3
_chemical_formula_sum   'Ce2 P4 Cl16 O6'
_cell_volume   882.17830695
_cell_formula_units_Z   2
loop_
 _symmetry_equiv_pos_site_id
 _symmetry_equiv_pos_as_xyz
  1  'x, y, z'
loop_
 _atom_site_type_symbol
 _atom_site_label
 _atom_site_symmetry_multiplicity
 _atom_site_fract_x
 _atom_site_fract_y
 _atom_site_fract_z
 _atom_site_occupancy
  Ce  Ce0  1  0.912139  0.796634  0.235404  1
  Ce  Ce1  1  0.087861  0.203366  0.764596  1
  P  P2  1  0.784299  0.213707  0.066779  1
  P  P3  1  0.228544  0.806919  0.367165  1
  P  P4  1  0.215701  0.786293  0.933221  1
  P  P5  1  0.771456  0.193081  0.632835  1
  Cl  Cl6  1  0.549487  0.270942  0.084999  1
  Cl  Cl7  1  0.780949  0.204694  0.456506  1
  Cl  Cl8  1  0.031424  0.497584  0.294093  1
  Cl  Cl9  1  0.450513  0.729058  0.915001  1
  Cl  Cl10  1  0.242322  0.196183  0.912942  1
  Cl  Cl11  1  0.289439  0.993072  0.264407  1
  Cl  Cl12  1  0.324812  0.180620  0.577001  1
  Cl  Cl13  1  0.802298  0.396381  0.101944  1
  Cl  Cl14  1  0.408737  0.620192  0.320935  1
  Cl  Cl15  1  0.197702  0.603619  0.898056  1
  Cl  Cl16  1  0.710561  0.006928  0.735593  1
  Cl  Cl17  1  0.591263  0.379808  0.679065  1
  Cl  Cl18  1  0.675188  0.819380  0.422999  1
  Cl  Cl19  1  0.757678  0.803817  0.087058  1
  Cl  Cl20  1  0.219051  0.795306  0.543494  1
  Cl  Cl21  1  0.968576  0.502416  0.705907  1
  O  O22  1  0.924994  0.184560  0.649815  1
  O  O23  1  0.839082  0.069546  0.167927  1
  O  O24  1  0.160918  0.930454  0.832073  1
  O  O25  1  0.075006  0.815440  0.350185  1
  O  O26  1  0.132925  0.795741  0.067858  1
  O  O27  1  0.867075  0.204259  0.932142  1
