# generated using pymatgen
data_Er7Al7Co6
_symmetry_space_group_name_H-M   'P 1'
_cell_length_a   13.31741200
_cell_length_b   13.31741200
_cell_length_c   4.10642000
_cell_angle_alpha   90.00000000
_cell_angle_beta   90.00000000
_cell_angle_gamma   90.00000000
_symmetry_Int_Tables_number   1
_chemical_formula_structural   Er7Al7Co6
_chemical_formula_sum   'Er14 Al14 Co12'
_cell_volume   728.28780498
_cell_formula_units_Z   2
loop_
 _symmetry_equiv_pos_site_id
 _symmetry_equiv_pos_as_xyz
  1  'x, y, z'
loop_
 _atom_site_type_symbol
 _atom_site_label
 _atom_site_symmetry_multiplicity
 _atom_site_fract_x
 _atom_site_fract_y
 _atom_site_fract_z
 _atom_site_occupancy
  Er  Er0  1  0.000000  0.000000  0.000000  1
  Er  Er1  1  0.262496  0.045226  0.000000  1
  Er  Er2  1  0.454773  0.237505  0.000000  1
  Er  Er3  1  0.954774  0.262496  0.000000  1
  Er  Er4  1  0.762495  0.454773  0.000000  1
  Er  Er5  1  0.500000  0.500000  0.000000  1
  Er  Er6  1  0.237505  0.545226  0.000000  1
  Er  Er7  1  0.045226  0.737505  0.000000  1
  Er  Er8  1  0.545226  0.762495  0.000000  1
  Er  Er9  1  0.737505  0.954774  0.000000  1
  Er  Er10  1  0.631739  0.131739  0.499999  1
  Er  Er11  1  0.131739  0.368261  0.499999  1
  Er  Er12  1  0.868261  0.631739  0.499999  1
  Er  Er13  1  0.368261  0.868261  0.499999  1
  Al  Al14  1  0.500000  0.000000  0.000000  1
  Al  Al15  1  0.000000  0.500000  0.000000  1
  Al  Al16  1  0.864262  0.094405  0.499999  1
  Al  Al17  1  0.094405  0.135738  0.499999  1
  Al  Al18  1  0.288139  0.211861  0.499999  1
  Al  Al19  1  0.788138  0.288139  0.499999  1
  Al  Al20  1  0.594405  0.364262  0.499999  1
  Al  Al21  1  0.364262  0.405594  0.499999  1
  Al  Al22  1  0.635738  0.594405  0.499999  1
  Al  Al23  1  0.405594  0.635738  0.499999  1
  Al  Al24  1  0.211861  0.711862  0.499999  1
  Al  Al25  1  0.711862  0.788138  0.499999  1
  Al  Al26  1  0.905595  0.864262  0.499999  1
  Al  Al27  1  0.135738  0.905595  0.499999  1
  Co  Co28  1  0.785726  0.159895  0.000000  1
  Co  Co29  1  0.159895  0.214274  0.000000  1
  Co  Co30  1  0.659895  0.285726  0.000000  1
  Co  Co31  1  0.285726  0.340105  0.000000  1
  Co  Co32  1  0.714274  0.659895  0.000000  1
  Co  Co33  1  0.340105  0.714274  0.000000  1
  Co  Co34  1  0.840105  0.785726  0.000000  1
  Co  Co35  1  0.214274  0.840105  0.000000  1
  Co  Co36  1  0.424291  0.075709  0.499999  1
  Co  Co37  1  0.924291  0.424291  0.499999  1
  Co  Co38  1  0.075709  0.575709  0.499999  1
  Co  Co39  1  0.575709  0.924291  0.499999  1
