# generated using pymatgen
data_Ho6Lu6AlCo4Sn
_symmetry_space_group_name_H-M   'P 1'
_cell_length_a   8.23648577
_cell_length_b   8.23648522
_cell_length_c   8.22399400
_cell_angle_alpha   112.11388817
_cell_angle_beta   109.42914115
_cell_angle_gamma   106.97688659
_symmetry_Int_Tables_number   1
_chemical_formula_structural   Ho6Lu6AlCo4Sn
_chemical_formula_sum   'Ho6 Lu6 Al1 Co4 Sn1'
_cell_volume   428.27039151
_cell_formula_units_Z   1
loop_
 _symmetry_equiv_pos_site_id
 _symmetry_equiv_pos_as_xyz
  1  'x, y, z'
loop_
 _atom_site_type_symbol
 _atom_site_label
 _atom_site_symmetry_multiplicity
 _atom_site_fract_x
 _atom_site_fract_y
 _atom_site_fract_z
 _atom_site_occupancy
  Ho  Ho0  1  0.438257  0.233586  0.201815  1
  Ho  Ho1  1  0.561743  0.766414  0.798185  1
  Ho  Ho2  1  0.031772  0.236441  0.798185  1
  Ho  Ho3  1  0.968228  0.763559  0.201815  1
  Ho  Ho4  1  0.180737  0.281728  0.462467  1
  Ho  Ho5  1  0.819263  0.718272  0.537533  1
  Lu  Lu6  1  0.180518  0.719264  0.899782  1
  Lu  Lu7  1  0.819482  0.280736  0.100218  1
  Lu  Lu8  1  0.324381  0.639534  0.313236  1
  Lu  Lu9  1  0.675619  0.360466  0.686764  1
  Lu  Lu10  1  0.326299  0.011146  0.686764  1
  Lu  Lu11  1  0.673701  0.988854  0.313236  1
  Al  Al12  1  0.000000  0.000000  0.000000  1
  Co  Co13  1  0.338926  0.998274  0.337199  1
  Co  Co14  1  0.661074  0.001726  0.662801  1
  Co  Co15  1  0.115386  0.615386  0.500000  1
  Co  Co16  1  0.884614  0.384614  0.500000  1
  Sn  Sn17  1  0.500000  0.500000  0.000000  1
