# generated using pymatgen
data_Mg3Be2B4MoIr10
_symmetry_space_group_name_H-M   'P 1'
_cell_length_a   9.30213171
_cell_length_b   9.30213171
_cell_length_c   2.88446400
_cell_angle_alpha   90.00000000
_cell_angle_beta   90.00000000
_cell_angle_gamma   88.85951442
_symmetry_Int_Tables_number   1
_chemical_formula_structural   Mg3Be2B4MoIr10
_chemical_formula_sum   'Mg3 Be2 B4 Mo1 Ir10'
_cell_volume   249.54222792
_cell_formula_units_Z   1
loop_
 _symmetry_equiv_pos_site_id
 _symmetry_equiv_pos_as_xyz
  1  'x, y, z'
loop_
 _atom_site_type_symbol
 _atom_site_label
 _atom_site_symmetry_multiplicity
 _atom_site_fract_x
 _atom_site_fract_y
 _atom_site_fract_z
 _atom_site_occupancy
  Mg  Mg0  1  0.177621  0.326304  0.000000  1
  Mg  Mg1  1  0.826304  0.677621  0.000000  1
  Mg  Mg2  1  0.321795  0.821795  0.000000  1
  Be  Be3  1  0.999105  0.000088  0.000000  1
  Be  Be4  1  0.500088  0.499105  0.000000  1
  B  B5  1  0.363791  0.128752  0.000000  1
  B  B6  1  0.876904  0.376904  0.000000  1
  B  B7  1  0.130739  0.630738  0.000000  1
  B  B8  1  0.628751  0.863791  0.000000  1
  Mo  Mo9  1  0.676202  0.176202  0.000000  1
  Ir  Ir10  1  0.501090  0.001090  0.500001  1
  Ir  Ir11  1  0.203755  0.069320  0.500001  1
  Ir  Ir12  1  0.925223  0.206109  0.500001  1
  Ir  Ir13  1  0.441086  0.289603  0.500001  1
  Ir  Ir14  1  0.706110  0.425224  0.500001  1
  Ir  Ir15  1  0.000957  0.500957  0.500001  1
  Ir  Ir16  1  0.295127  0.566431  0.500001  1
  Ir  Ir17  1  0.569320  0.703756  0.500001  1
  Ir  Ir18  1  0.066431  0.795127  0.500001  1
  Ir  Ir19  1  0.789603  0.941085  0.500001  1
