# generated using pymatgen
data_LuPa3(InRh2)2
_symmetry_space_group_name_H-M   'P 1'
_cell_length_a   7.68412773
_cell_length_b   7.68412913
_cell_length_c   3.59356900
_cell_angle_alpha   90.00000000
_cell_angle_beta   90.00000000
_cell_angle_gamma   91.90490396
_symmetry_Int_Tables_number   1
_chemical_formula_structural   LuPa3(InRh2)2
_chemical_formula_sum   'Lu1 Pa3 In2 Rh4'
_cell_volume   212.06800423
_cell_formula_units_Z   1
loop_
 _symmetry_equiv_pos_site_id
 _symmetry_equiv_pos_as_xyz
  1  'x, y, z'
loop_
 _atom_site_type_symbol
 _atom_site_label
 _atom_site_symmetry_multiplicity
 _atom_site_fract_x
 _atom_site_fract_y
 _atom_site_fract_z
 _atom_site_occupancy
  Lu  Lu0  1  0.169647  0.330353  0.500000  1
  Pa  Pa1  1  0.667613  0.171635  0.500000  1
  Pa  Pa2  1  0.328365  0.832387  0.500000  1
  Pa  Pa3  1  0.832619  0.667381  0.500000  1
  In  In4  1  0.489558  0.497823  0.000000  1
  In  In5  1  0.002177  0.010442  0.000000  1
  Rh  Rh6  1  0.382622  0.117378  0.000000  1
  Rh  Rh7  1  0.642932  0.857068  0.000000  1
  Rh  Rh8  1  0.854429  0.369960  0.000000  1
  Rh  Rh9  1  0.130040  0.645571  0.000000  1
