# generated using pymatgen
data_Tb8Al2NiRh
_symmetry_space_group_name_H-M   'P 1'
_cell_length_a   9.53783957
_cell_length_b   9.51877119
_cell_length_c   9.53784031
_cell_angle_alpha   60.06612093
_cell_angle_beta   60.34341429
_cell_angle_gamma   60.06611862
_symmetry_Int_Tables_number   1
_chemical_formula_structural   Tb8Al2NiRh
_chemical_formula_sum   'Tb16 Al4 Ni2 Rh2'
_cell_volume   614.49168123
_cell_formula_units_Z   2
loop_
 _symmetry_equiv_pos_site_id
 _symmetry_equiv_pos_as_xyz
  1  'x, y, z'
loop_
 _atom_site_type_symbol
 _atom_site_label
 _atom_site_symmetry_multiplicity
 _atom_site_fract_x
 _atom_site_fract_y
 _atom_site_fract_z
 _atom_site_occupancy
  Tb  Tb0  1  0.806196  0.808724  0.190665  1
  Tb  Tb1  1  0.807269  0.192731  0.807269  1
  Tb  Tb2  1  0.190665  0.194416  0.806196  1
  Tb  Tb3  1  0.651011  0.052382  0.651011  1
  Tb  Tb4  1  0.063131  0.064515  0.434234  1
  Tb  Tb5  1  0.434234  0.438120  0.063131  1
  Tb  Tb6  1  0.651011  0.645596  0.651011  1
  Tb  Tb7  1  0.806196  0.194416  0.190665  1
  Tb  Tb8  1  0.190665  0.808724  0.806196  1
  Tb  Tb9  1  0.054549  0.647507  0.650437  1
  Tb  Tb10  1  0.434234  0.064515  0.063131  1
  Tb  Tb11  1  0.437547  0.062453  0.437547  1
  Tb  Tb12  1  0.063896  0.436104  0.063896  1
  Tb  Tb13  1  0.650437  0.647507  0.054549  1
  Tb  Tb14  1  0.192510  0.807490  0.192510  1
  Tb  Tb15  1  0.063131  0.438120  0.434234  1
  Al  Al16  1  0.423289  0.424284  0.423289  1
  Al  Al17  1  0.423765  0.423178  0.729880  1
  Al  Al18  1  0.423289  0.729137  0.423289  1
  Al  Al19  1  0.729880  0.423178  0.423765  1
  Ni  Ni20  1  0.858773  0.427291  0.858773  1
  Ni  Ni21  1  0.858773  0.855164  0.858773  1
  Rh  Rh22  1  0.857869  0.857224  0.427683  1
  Rh  Rh23  1  0.427683  0.857224  0.857869  1
