# generated using pymatgen
data_ErTa2(Nb2Cl9)2
_symmetry_space_group_name_H-M   'P 1'
_cell_length_a   10.12312751
_cell_length_b   10.12519183
_cell_length_c   10.12681629
_cell_angle_alpha   56.01551570
_cell_angle_beta   56.02219050
_cell_angle_gamma   55.99351543
_symmetry_Int_Tables_number   1
_chemical_formula_structural   ErTa2(Nb2Cl9)2
_chemical_formula_sum   'Er1 Ta2 Nb4 Cl18'
_cell_volume   666.13063423
_cell_formula_units_Z   1
loop_
 _symmetry_equiv_pos_site_id
 _symmetry_equiv_pos_as_xyz
  1  'x, y, z'
loop_
 _atom_site_type_symbol
 _atom_site_label
 _atom_site_symmetry_multiplicity
 _atom_site_fract_x
 _atom_site_fract_y
 _atom_site_fract_z
 _atom_site_occupancy
  Er  Er0  1  0.999564  0.000148  0.000285  1
  Ta  Ta1  1  0.407995  0.299897  0.649978  1
  Ta  Ta2  1  0.349903  0.592355  0.699833  1
  Nb  Nb3  1  0.700847  0.349516  0.591914  1
  Nb  Nb4  1  0.299777  0.650650  0.407319  1
  Nb  Nb5  1  0.651126  0.407581  0.298830  1
  Nb  Nb6  1  0.592845  0.700828  0.348800  1
  Cl  Cl7  1  0.566671  0.159355  0.444722  1
  Cl  Cl8  1  0.223363  0.371039  0.908378  1
  Cl  Cl9  1  0.911009  0.221771  0.370179  1
  Cl  Cl10  1  0.369961  0.911049  0.222173  1
  Cl  Cl11  1  0.777920  0.629833  0.089163  1
  Cl  Cl12  1  0.090707  0.776728  0.631893  1
  Cl  Cl13  1  0.705401  0.958687  0.158960  1
  Cl  Cl14  1  0.957943  0.158451  0.706255  1
  Cl  Cl15  1  0.161302  0.703981  0.955173  1
  Cl  Cl16  1  0.295599  0.045033  0.839306  1
  Cl  Cl17  1  0.041697  0.840719  0.294610  1
  Cl  Cl18  1  0.841222  0.294111  0.041591  1
  Cl  Cl19  1  0.555214  0.433269  0.840737  1
  Cl  Cl20  1  0.160984  0.439147  0.570625  1
  Cl  Cl21  1  0.441737  0.568735  0.159187  1
  Cl  Cl22  1  0.429439  0.838830  0.560896  1
  Cl  Cl23  1  0.840867  0.558260  0.431293  1
  Cl  Cl24  1  0.626906  0.090030  0.777903  1
