# generated using pymatgen
data_Th2Al2ZnGa2Au3
_symmetry_space_group_name_H-M   'P 1'
_cell_length_a   4.35314700
_cell_length_b   4.35314700
_cell_length_c   10.70844200
_cell_angle_alpha   90.00000000
_cell_angle_beta   90.00000000
_cell_angle_gamma   90.00000000
_symmetry_Int_Tables_number   1
_chemical_formula_structural   Th2Al2ZnGa2Au3
_chemical_formula_sum   'Th2 Al2 Zn1 Ga2 Au3'
_cell_volume   202.92378516
_cell_formula_units_Z   1
loop_
 _symmetry_equiv_pos_site_id
 _symmetry_equiv_pos_as_xyz
  1  'x, y, z'
loop_
 _atom_site_type_symbol
 _atom_site_label
 _atom_site_symmetry_multiplicity
 _atom_site_fract_x
 _atom_site_fract_y
 _atom_site_fract_z
 _atom_site_occupancy
  Th  Th0  1  0.000000  0.500000  0.242333  1
  Th  Th1  1  0.500000  0.000000  0.757667  1
  Al  Al2  1  0.000000  0.000000  0.500000  1
  Al  Al3  1  0.500000  0.500000  0.500000  1
  Zn  Zn4  1  0.000000  0.000000  0.000000  1
  Ga  Ga5  1  0.000000  0.500000  0.866458  1
  Ga  Ga6  1  0.500000  0.000000  0.133542  1
  Au  Au7  1  0.500000  0.500000  0.000000  1
  Au  Au8  1  0.000000  0.500000  0.630483  1
  Au  Au9  1  0.500000  0.000000  0.369517  1
