# generated using pymatgen
data_BaLi2NdSi4
_symmetry_space_group_name_H-M   'P 1'
_cell_length_a   3.92187200
_cell_length_b   8.11174376
_cell_length_c   11.05404631
_cell_angle_alpha   90.03893939
_cell_angle_beta   90.00000000
_cell_angle_gamma   90.00000000
_symmetry_Int_Tables_number   1
_chemical_formula_structural   BaLi2NdSi4
_chemical_formula_sum   'Ba2 Li4 Nd2 Si8'
_cell_volume   351.66473423
_cell_formula_units_Z   2
loop_
 _symmetry_equiv_pos_site_id
 _symmetry_equiv_pos_as_xyz
  1  'x, y, z'
loop_
 _atom_site_type_symbol
 _atom_site_label
 _atom_site_symmetry_multiplicity
 _atom_site_fract_x
 _atom_site_fract_y
 _atom_site_fract_z
 _atom_site_occupancy
  Ba  Ba0  1  0.250000  0.637999  0.633171  1
  Ba  Ba1  1  0.750000  0.362001  0.366829  1
  Li  Li2  1  0.250000  0.006726  0.384799  1
  Li  Li3  1  0.750000  0.993274  0.615201  1
  Li  Li4  1  0.250000  0.494581  0.105261  1
  Li  Li5  1  0.750000  0.505419  0.894739  1
  Nd  Nd6  1  0.250000  0.123788  0.869054  1
  Nd  Nd7  1  0.750000  0.876212  0.130946  1
  Si  Si8  1  0.750000  0.263583  0.061046  1
  Si  Si9  1  0.250000  0.736417  0.938954  1
  Si  Si10  1  0.750000  0.790240  0.412134  1
  Si  Si11  1  0.250000  0.209760  0.587866  1
  Si  Si12  1  0.750000  0.836952  0.837165  1
  Si  Si13  1  0.250000  0.163048  0.162835  1
  Si  Si14  1  0.750000  0.310913  0.690355  1
  Si  Si15  1  0.250000  0.689087  0.309645  1
