# generated using pymatgen
data_DyLu3ScIr3
_symmetry_space_group_name_H-M   'P 1'
_cell_length_a   10.63635400
_cell_length_b   10.65767100
_cell_length_c   6.19723400
_cell_angle_alpha   90.00000000
_cell_angle_beta   90.00000000
_cell_angle_gamma   90.00000000
_symmetry_Int_Tables_number   1
_chemical_formula_structural   DyLu3ScIr3
_chemical_formula_sum   'Dy4 Lu12 Sc4 Ir12'
_cell_volume   702.51077141
_cell_formula_units_Z   4
loop_
 _symmetry_equiv_pos_site_id
 _symmetry_equiv_pos_as_xyz
  1  'x, y, z'
loop_
 _atom_site_type_symbol
 _atom_site_label
 _atom_site_symmetry_multiplicity
 _atom_site_fract_x
 _atom_site_fract_y
 _atom_site_fract_z
 _atom_site_occupancy
  Dy  Dy0  1  0.912027  0.712791  0.125689  1
  Dy  Dy1  1  0.912027  0.287209  0.625689  1
  Dy  Dy2  1  0.087973  0.712791  0.625689  1
  Dy  Dy3  1  0.087973  0.287209  0.125689  1
  Lu  Lu4  1  0.290433  0.084231  0.377387  1
  Lu  Lu5  1  0.290433  0.915769  0.877387  1
  Lu  Lu6  1  0.709567  0.084231  0.877387  1
  Lu  Lu7  1  0.709567  0.915769  0.377387  1
  Lu  Lu8  1  0.585415  0.789069  0.876818  1
  Lu  Lu9  1  0.585415  0.210931  0.376818  1
  Lu  Lu10  1  0.414585  0.789069  0.376818  1
  Lu  Lu11  1  0.414585  0.210931  0.876818  1
  Lu  Lu12  1  0.212167  0.414425  0.623585  1
  Lu  Lu13  1  0.212167  0.585575  0.123585  1
  Lu  Lu14  1  0.787833  0.414425  0.123585  1
  Lu  Lu15  1  0.787833  0.585575  0.623585  1
  Sc  Sc16  1  0.000000  0.000000  0.497634  1
  Sc  Sc17  1  0.000000  0.000000  0.997634  1
  Sc  Sc18  1  0.500000  0.500000  0.997577  1
  Sc  Sc19  1  0.500000  0.500000  0.497577  1
  Ir  Ir20  1  0.847955  0.147903  0.247373  1
  Ir  Ir21  1  0.847955  0.852097  0.747373  1
  Ir  Ir22  1  0.152045  0.147903  0.747373  1
  Ir  Ir23  1  0.152045  0.852097  0.247373  1
  Ir  Ir24  1  0.647907  0.350356  0.751218  1
  Ir  Ir25  1  0.647907  0.649644  0.251218  1
  Ir  Ir26  1  0.352093  0.350356  0.251218  1
  Ir  Ir27  1  0.352093  0.649644  0.751218  1
  Ir  Ir28  1  0.500000  0.000000  0.122777  1
  Ir  Ir29  1  0.500000  0.000000  0.622777  1
  Ir  Ir30  1  0.000000  0.500000  0.877872  1
  Ir  Ir31  1  0.000000  0.500000  0.377872  1
