# generated using pymatgen
data_BaTcF6
_symmetry_space_group_name_H-M   'P 1'
_cell_length_a   5.04124270
_cell_length_b   5.04124202
_cell_length_c   5.04124288
_cell_angle_alpha   97.93197894
_cell_angle_beta   97.93197358
_cell_angle_gamma   97.93196364
_symmetry_Int_Tables_number   1
_chemical_formula_structural   BaTcF6
_chemical_formula_sum   'Ba1 Tc1 F6'
_cell_volume   124.05804172
_cell_formula_units_Z   1
loop_
 _symmetry_equiv_pos_site_id
 _symmetry_equiv_pos_as_xyz
  1  'x, y, z'
loop_
 _atom_site_type_symbol
 _atom_site_label
 _atom_site_symmetry_multiplicity
 _atom_site_fract_x
 _atom_site_fract_y
 _atom_site_fract_z
 _atom_site_occupancy
  Ba  Ba0  1  0.500000  0.500000  0.500000  1
  Tc  Tc1  1  0.000000  0.000000  0.000000  1
  F  F2  1  0.259667  0.301466  0.929988  1
  F  F3  1  0.740333  0.698534  0.070012  1
  F  F4  1  0.070012  0.740333  0.698534  1
  F  F5  1  0.698534  0.070012  0.740333  1
  F  F6  1  0.929988  0.259667  0.301466  1
  F  F7  1  0.301466  0.929988  0.259667  1
