# generated using pymatgen
data_Np2Ru6C
_symmetry_space_group_name_H-M   'P 1'
_cell_length_a   5.76122903
_cell_length_b   5.76122877
_cell_length_c   5.76122900
_cell_angle_alpha   60.00000441
_cell_angle_beta   60.00000594
_cell_angle_gamma   60.00000906
_symmetry_Int_Tables_number   1
_chemical_formula_structural   Np2Ru6C
_chemical_formula_sum   'Np2 Ru6 C1'
_cell_volume   135.21674133
_cell_formula_units_Z   1
loop_
 _symmetry_equiv_pos_site_id
 _symmetry_equiv_pos_as_xyz
  1  'x, y, z'
loop_
 _atom_site_type_symbol
 _atom_site_label
 _atom_site_symmetry_multiplicity
 _atom_site_fract_x
 _atom_site_fract_y
 _atom_site_fract_z
 _atom_site_occupancy
  Np  Np0  1  0.250000  0.250000  0.250000  1
  Np  Np1  1  0.750000  0.750000  0.750000  1
  Ru  Ru2  1  0.746780  0.253220  0.253220  1
  Ru  Ru3  1  0.253220  0.746780  0.253220  1
  Ru  Ru4  1  0.746780  0.746780  0.253220  1
  Ru  Ru5  1  0.253220  0.253220  0.746780  1
  Ru  Ru6  1  0.746780  0.253220  0.746780  1
  Ru  Ru7  1  0.253220  0.746780  0.746780  1
  C  C8  1  0.000000  0.000000  0.000000  1
