# generated using pymatgen
data_Tb9Dy(IrPb3)2
_symmetry_space_group_name_H-M   'P 1'
_cell_length_a   9.25644502
_cell_length_b   9.25644419
_cell_length_c   6.90030600
_cell_angle_alpha   90.00000000
_cell_angle_beta   90.00000000
_cell_angle_gamma   120.00792053
_symmetry_Int_Tables_number   1
_chemical_formula_structural   Tb9Dy(IrPb3)2
_chemical_formula_sum   'Tb9 Dy1 Ir2 Pb6'
_cell_volume   511.97968355
_cell_formula_units_Z   1
loop_
 _symmetry_equiv_pos_site_id
 _symmetry_equiv_pos_as_xyz
  1  'x, y, z'
loop_
 _atom_site_type_symbol
 _atom_site_label
 _atom_site_symmetry_multiplicity
 _atom_site_fract_x
 _atom_site_fract_y
 _atom_site_fract_z
 _atom_site_occupancy
  Tb  Tb0  1  0.235674  0.999996  0.250000  1
  Tb  Tb1  1  0.000002  0.764308  0.750000  1
  Tb  Tb2  1  0.999996  0.235674  0.250000  1
  Tb  Tb3  1  0.333355  0.666680  0.499993  1
  Tb  Tb4  1  0.764308  0.000002  0.750000  1
  Tb  Tb5  1  0.666680  0.333355  0.499993  1
  Tb  Tb6  1  0.235740  0.235740  0.750000  1
  Tb  Tb7  1  0.333355  0.666680  0.000007  1
  Tb  Tb8  1  0.666680  0.333355  0.000007  1
  Dy  Dy9  1  0.764409  0.764409  0.250000  1
  Ir  Ir10  1  0.999877  0.999877  0.000121  1
  Ir  Ir11  1  0.999877  0.999877  0.499879  1
  Pb  Pb12  1  0.593930  0.999955  0.250000  1
  Pb  Pb13  1  0.406100  0.999993  0.750000  1
  Pb  Pb14  1  0.999955  0.593930  0.250000  1
  Pb  Pb15  1  0.593909  0.593909  0.750000  1
  Pb  Pb16  1  0.406159  0.406159  0.250000  1
  Pb  Pb17  1  0.999993  0.406100  0.750000  1
