# generated using pymatgen
data_V2CuNi9O16
_symmetry_space_group_name_H-M   'P 1'
_cell_length_a   10.03255097
_cell_length_b   10.03255135
_cell_length_c   5.22818374
_cell_angle_alpha   81.70293341
_cell_angle_beta   81.70293522
_cell_angle_gamma   34.54260014
_symmetry_Int_Tables_number   1
_chemical_formula_structural   V2CuNi9O16
_chemical_formula_sum   'V2 Cu1 Ni9 O16'
_cell_volume   294.95418933
_cell_formula_units_Z   1
loop_
 _symmetry_equiv_pos_site_id
 _symmetry_equiv_pos_as_xyz
  1  'x, y, z'
loop_
 _atom_site_type_symbol
 _atom_site_label
 _atom_site_symmetry_multiplicity
 _atom_site_fract_x
 _atom_site_fract_y
 _atom_site_fract_z
 _atom_site_occupancy
  V  V0  1  0.214861  0.214861  0.200484  1
  V  V1  1  0.785139  0.785139  0.799516  1
  Cu  Cu2  1  0.500000  0.500000  0.000000  1
  Ni  Ni3  1  0.631219  0.631219  0.238585  1
  Ni  Ni4  1  0.368781  0.368781  0.761415  1
  Ni  Ni5  1  0.749086  0.250914  0.500000  1
  Ni  Ni6  1  0.250914  0.749086  0.500000  1
  Ni  Ni7  1  0.881716  0.374694  0.745916  1
  Ni  Ni8  1  0.374694  0.881716  0.745916  1
  Ni  Ni9  1  0.118284  0.625306  0.254084  1
  Ni  Ni10  1  0.625306  0.118284  0.254084  1
  Ni  Ni11  1  0.000000  0.000000  0.000000  1
  O  O12  1  0.420563  0.948905  0.374928  1
  O  O13  1  0.948905  0.420563  0.374928  1
  O  O14  1  0.579437  0.051095  0.625072  1
  O  O15  1  0.051095  0.579437  0.625072  1
  O  O16  1  0.333718  0.781298  0.107461  1
  O  O17  1  0.781298  0.333718  0.107461  1
  O  O18  1  0.666282  0.218702  0.892539  1
  O  O19  1  0.218702  0.666282  0.892539  1
  O  O20  1  0.429448  0.429448  0.412983  1
  O  O21  1  0.570552  0.570552  0.587017  1
  O  O22  1  0.943723  0.943723  0.336662  1
  O  O23  1  0.056277  0.056277  0.663338  1
  O  O24  1  0.182274  0.182274  0.907972  1
  O  O25  1  0.817726  0.817726  0.092028  1
  O  O26  1  0.688966  0.688966  0.870130  1
  O  O27  1  0.311034  0.311034  0.129870  1
