# generated using pymatgen
data_Er3Lu17(Bi3Sb)3
_symmetry_space_group_name_H-M   'P 1'
_cell_length_a   8.08331494
_cell_length_b   9.34538700
_cell_length_c   11.75987049
_cell_angle_alpha   90.00000000
_cell_angle_beta   90.06538762
_cell_angle_gamma   90.00000000
_symmetry_Int_Tables_number   1
_chemical_formula_structural   Er3Lu17(Bi3Sb)3
_chemical_formula_sum   'Er3 Lu17 Bi9 Sb3'
_cell_volume   888.36010463
_cell_formula_units_Z   1
loop_
 _symmetry_equiv_pos_site_id
 _symmetry_equiv_pos_as_xyz
  1  'x, y, z'
loop_
 _atom_site_type_symbol
 _atom_site_label
 _atom_site_symmetry_multiplicity
 _atom_site_fract_x
 _atom_site_fract_y
 _atom_site_fract_z
 _atom_site_occupancy
  Er  Er0  1  0.811291  0.250000  0.281415  1
  Er  Er1  1  0.685012  0.750000  0.783187  1
  Er  Er2  1  0.184973  0.750000  0.716627  1
  Lu  Lu3  1  0.353009  0.750000  0.215541  1
  Lu  Lu4  1  0.852749  0.750000  0.284331  1
  Lu  Lu5  1  0.647101  0.250000  0.784736  1
  Lu  Lu6  1  0.148045  0.250000  0.718463  1
  Lu  Lu7  1  0.688774  0.565946  0.058282  1
  Lu  Lu8  1  0.189458  0.930837  0.441563  1
  Lu  Lu9  1  0.311327  0.065780  0.942011  1
  Lu  Lu10  1  0.809201  0.436048  0.559154  1
  Lu  Lu11  1  0.311327  0.434220  0.942011  1
  Lu  Lu12  1  0.809201  0.063952  0.559154  1
  Lu  Lu13  1  0.688774  0.934054  0.058282  1
  Lu  Lu14  1  0.189458  0.569163  0.441563  1
  Lu  Lu15  1  0.477899  0.250000  0.488941  1
  Lu  Lu16  1  0.974554  0.250000  0.011023  1
  Lu  Lu17  1  0.525939  0.750000  0.510979  1
  Lu  Lu18  1  0.025581  0.750000  0.989258  1
  Lu  Lu19  1  0.316152  0.250000  0.214553  1
  Bi  Bi20  1  0.097911  0.250000  0.457501  1
  Bi  Bi21  1  0.564457  0.995692  0.324803  1
  Bi  Bi22  1  0.066290  0.504063  0.174760  1
  Bi  Bi23  1  0.434623  0.495404  0.674844  1
  Bi  Bi24  1  0.934418  0.004573  0.825479  1
  Bi  Bi25  1  0.434623  0.004596  0.674844  1
  Bi  Bi26  1  0.934418  0.495427  0.825479  1
  Bi  Bi27  1  0.564457  0.504308  0.324803  1
  Bi  Bi28  1  0.066290  0.995937  0.174760  1
  Sb  Sb29  1  0.403218  0.750000  0.958821  1
  Sb  Sb30  1  0.902879  0.750000  0.541136  1
  Sb  Sb31  1  0.596592  0.250000  0.041703  1
