# generated using pymatgen
data_HfZr5Al16Cu4Ru3
_symmetry_space_group_name_H-M   'P 1'
_cell_length_a   8.69868089
_cell_length_b   8.62887547
_cell_length_c   8.71475366
_cell_angle_alpha   60.20264990
_cell_angle_beta   59.40930079
_cell_angle_gamma   60.38803795
_symmetry_Int_Tables_number   1
_chemical_formula_structural   HfZr5Al16Cu4Ru3
_chemical_formula_sum   'Hf1 Zr5 Al16 Cu4 Ru3'
_cell_volume   462.46250705
_cell_formula_units_Z   1
loop_
 _symmetry_equiv_pos_site_id
 _symmetry_equiv_pos_as_xyz
  1  'x, y, z'
loop_
 _atom_site_type_symbol
 _atom_site_label
 _atom_site_symmetry_multiplicity
 _atom_site_fract_x
 _atom_site_fract_y
 _atom_site_fract_z
 _atom_site_occupancy
  Hf  Hf0  1  0.189194  0.810806  0.810806  1
  Zr  Zr1  1  0.809631  0.190369  0.190369  1
  Zr  Zr2  1  0.797785  0.202215  0.797230  1
  Zr  Zr3  1  0.811015  0.810200  0.188985  1
  Zr  Zr4  1  0.202770  0.797230  0.202215  1
  Zr  Zr5  1  0.189800  0.188985  0.810200  1
  Al  Al6  1  0.834444  0.835918  0.833858  1
  Al  Al7  1  0.835687  0.834075  0.496303  1
  Al  Al8  1  0.495780  0.833858  0.835918  1
  Al  Al9  1  0.833933  0.496303  0.834075  1
  Al  Al10  1  0.165925  0.164313  0.166067  1
  Al  Al11  1  0.164082  0.165556  0.504220  1
  Al  Al12  1  0.166142  0.504220  0.165556  1
  Al  Al13  1  0.503697  0.166067  0.164313  1
  Al  Al14  1  0.614523  0.627094  0.614794  1
  Al  Al15  1  0.627004  0.614692  0.143517  1
  Al  Al16  1  0.143589  0.614794  0.627094  1
  Al  Al17  1  0.614787  0.143517  0.614692  1
  Al  Al18  1  0.385308  0.372996  0.385213  1
  Al  Al19  1  0.372906  0.385477  0.856411  1
  Al  Al20  1  0.385206  0.856411  0.385477  1
  Al  Al21  1  0.856483  0.385213  0.372996  1
  Cu  Cu22  1  0.000084  0.499916  0.499916  1
  Cu  Cu23  1  0.500084  0.999916  0.999916  1
  Cu  Cu24  1  0.499946  0.500054  0.999805  1
  Cu  Cu25  1  0.000195  0.999805  0.500054  1
  Ru  Ru26  1  0.498838  0.998973  0.501162  1
  Ru  Ru27  1  0.001027  0.501162  0.998973  1
  Ru  Ru28  1  0.500136  0.499864  0.499864  1
