# generated using pymatgen
data_La10(RuPt)3
_symmetry_space_group_name_H-M   'P 1'
_cell_length_a   11.47702965
_cell_length_b   11.45930400
_cell_length_c   6.68720339
_cell_angle_alpha   90.00000000
_cell_angle_beta   90.39568008
_cell_angle_gamma   90.00000000
_symmetry_Int_Tables_number   1
_chemical_formula_structural   La10(RuPt)3
_chemical_formula_sum   'La20 Ru6 Pt6'
_cell_volume   879.47180477
_cell_formula_units_Z   2
loop_
 _symmetry_equiv_pos_site_id
 _symmetry_equiv_pos_as_xyz
  1  'x, y, z'
loop_
 _atom_site_type_symbol
 _atom_site_label
 _atom_site_symmetry_multiplicity
 _atom_site_fract_x
 _atom_site_fract_y
 _atom_site_fract_z
 _atom_site_occupancy
  La  La0  1  0.296812  0.092752  0.375293  1
  La  La1  1  0.296812  0.907248  0.875293  1
  La  La2  1  0.700795  0.087106  0.874052  1
  La  La3  1  0.700795  0.912894  0.374052  1
  La  La4  1  0.583349  0.792284  0.877252  1
  La  La5  1  0.583349  0.207716  0.377252  1
  La  La6  1  0.408591  0.795666  0.385304  1
  La  La7  1  0.408591  0.204334  0.885304  1
  La  La8  1  0.209245  0.412328  0.615656  1
  La  La9  1  0.209245  0.587672  0.115656  1
  La  La10  1  0.797819  0.411173  0.121364  1
  La  La11  1  0.797819  0.588827  0.621364  1
  La  La12  1  0.914762  0.701986  0.125288  1
  La  La13  1  0.914762  0.298014  0.625288  1
  La  La14  1  0.095786  0.701674  0.625816  1
  La  La15  1  0.095786  0.298326  0.125816  1
  La  La16  1  0.999641  0.998908  0.499937  1
  La  La17  1  0.999641  0.001092  0.999937  1
  La  La18  1  0.493173  0.497461  0.000305  1
  La  La19  1  0.493173  0.502539  0.500305  1
  Ru  Ru20  1  0.347403  0.346597  0.250049  1
  Ru  Ru21  1  0.347403  0.653403  0.750049  1
  Ru  Ru22  1  0.500743  0.999003  0.117922  1
  Ru  Ru23  1  0.500743  0.000997  0.617922  1
  Ru  Ru24  1  0.998277  0.500182  0.882118  1
  Ru  Ru25  1  0.998277  0.499818  0.382118  1
  Pt  Pt26  1  0.845584  0.153260  0.250452  1
  Pt  Pt27  1  0.845584  0.846740  0.750452  1
  Pt  Pt28  1  0.152806  0.153520  0.749580  1
  Pt  Pt29  1  0.152806  0.846480  0.249580  1
  Pt  Pt30  1  0.655215  0.346267  0.749611  1
  Pt  Pt31  1  0.655215  0.653733  0.249611  1
