# generated using pymatgen
data_Nd2HoCBr5
_symmetry_space_group_name_H-M   'P 1'
_cell_length_a   7.50684018
_cell_length_b   9.15546001
_cell_length_c   9.21312400
_cell_angle_alpha   107.47934514
_cell_angle_beta   95.67675541
_cell_angle_gamma   104.64970017
_symmetry_Int_Tables_number   1
_chemical_formula_structural   Nd2HoCBr5
_chemical_formula_sum   'Nd4 Ho2 C2 Br10'
_cell_volume   573.74350134
_cell_formula_units_Z   2
loop_
 _symmetry_equiv_pos_site_id
 _symmetry_equiv_pos_as_xyz
  1  'x, y, z'
loop_
 _atom_site_type_symbol
 _atom_site_label
 _atom_site_symmetry_multiplicity
 _atom_site_fract_x
 _atom_site_fract_y
 _atom_site_fract_z
 _atom_site_occupancy
  Nd  Nd0  1  0.884708  0.956516  0.232439  1
  Nd  Nd1  1  0.115292  0.043484  0.767561  1
  Nd  Nd2  1  0.030818  0.722778  0.916773  1
  Nd  Nd3  1  0.969182  0.277222  0.083227  1
  Ho  Ho4  1  0.624191  0.861068  0.814214  1
  Ho  Ho5  1  0.375809  0.138932  0.185786  1
  C  C6  1  0.907621  0.968755  0.956642  1
  C  C7  1  0.092379  0.031245  0.043358  1
  Br  Br8  1  0.746581  0.915563  0.547439  1
  Br  Br9  1  0.253419  0.084437  0.452561  1
  Br  Br10  1  0.457570  0.822643  0.085173  1
  Br  Br11  1  0.542430  0.177357  0.914827  1
  Br  Br12  1  0.787953  0.259243  0.350935  1
  Br  Br13  1  0.212047  0.740757  0.649065  1
  Br  Br14  1  0.910114  0.629333  0.178050  1
  Br  Br15  1  0.089886  0.370667  0.821950  1
  Br  Br16  1  0.652970  0.553361  0.728035  1
  Br  Br17  1  0.347030  0.446639  0.271965  1
