# generated using pymatgen
data_Nd2MgSi5AsPd20
_symmetry_space_group_name_H-M   'P 1'
_cell_length_a   8.73502601
_cell_length_b   8.76068437
_cell_length_c   8.76072027
_cell_angle_alpha   59.80593986
_cell_angle_beta   60.09682104
_cell_angle_gamma   60.09694520
_symmetry_Int_Tables_number   1
_chemical_formula_structural   Nd2MgSi5AsPd20
_chemical_formula_sum   'Nd2 Mg1 Si5 As1 Pd20'
_cell_volume   474.04398046
_cell_formula_units_Z   1
loop_
 _symmetry_equiv_pos_site_id
 _symmetry_equiv_pos_as_xyz
  1  'x, y, z'
loop_
 _atom_site_type_symbol
 _atom_site_label
 _atom_site_symmetry_multiplicity
 _atom_site_fract_x
 _atom_site_fract_y
 _atom_site_fract_z
 _atom_site_occupancy
  Nd  Nd0  1  0.250100  0.249905  0.249901  1
  Nd  Nd1  1  0.750093  0.749902  0.749906  1
  Mg  Mg2  1  0.001213  0.998787  0.998787  1
  Si  Si3  1  0.265740  0.734266  0.734267  1
  Si  Si4  1  0.265425  0.734574  0.265293  1
  Si  Si5  1  0.734700  0.265301  0.734581  1
  Si  Si6  1  0.265420  0.265291  0.734578  1
  Si  Si7  1  0.734705  0.734584  0.265296  1
  As  As8  1  0.735001  0.264991  0.264990  1
  Pd  Pd9  1  0.344475  0.999594  0.999597  1
  Pd  Pd10  1  0.656403  0.999528  0.999525  1
  Pd  Pd11  1  0.000439  0.343632  0.655487  1
  Pd  Pd12  1  0.000441  0.655489  0.343633  1
  Pd  Pd13  1  0.005607  0.345562  0.994434  1
  Pd  Pd14  1  0.654432  0.994397  0.345601  1
  Pd  Pd15  1  0.999954  0.656638  0.000004  1
  Pd  Pd16  1  0.343367  0.000042  0.656601  1
  Pd  Pd17  1  0.005611  0.994430  0.345564  1
  Pd  Pd18  1  0.999952  0.000009  0.656636  1
  Pd  Pd19  1  0.654433  0.345600  0.994395  1
  Pd  Pd20  1  0.343367  0.656602  0.000045  1
  Pd  Pd21  1  0.379203  0.387574  0.387575  1
  Pd  Pd22  1  0.614194  0.615145  0.615146  1
  Pd  Pd23  1  0.384858  0.385808  0.844480  1
  Pd  Pd24  1  0.384863  0.844473  0.385809  1
  Pd  Pd25  1  0.612423  0.620793  0.154357  1
  Pd  Pd26  1  0.612419  0.154365  0.620791  1
  Pd  Pd27  1  0.845637  0.387577  0.387576  1
  Pd  Pd28  1  0.155525  0.615140  0.615141  1
