# generated using pymatgen
data_Dy2Fe5P6Ru5
_symmetry_space_group_name_H-M   'P 1'
_cell_length_a   3.77674500
_cell_length_b   10.53980100
_cell_length_c   12.09543600
_cell_angle_alpha   90.00000000
_cell_angle_beta   90.00000000
_cell_angle_gamma   90.00000000
_symmetry_Int_Tables_number   1
_chemical_formula_structural   Dy2Fe5P6Ru5
_chemical_formula_sum   'Dy4 Fe10 P12 Ru10'
_cell_volume   481.47262758
_cell_formula_units_Z   2
loop_
 _symmetry_equiv_pos_site_id
 _symmetry_equiv_pos_as_xyz
  1  'x, y, z'
loop_
 _atom_site_type_symbol
 _atom_site_label
 _atom_site_symmetry_multiplicity
 _atom_site_fract_x
 _atom_site_fract_y
 _atom_site_fract_z
 _atom_site_occupancy
  Dy  Dy0  1  0.250000  0.588595  0.709528  1
  Dy  Dy1  1  0.250000  0.911405  0.209528  1
  Dy  Dy2  1  0.750000  0.422371  0.291703  1
  Dy  Dy3  1  0.750000  0.077629  0.791703  1
  Fe  Fe4  1  0.750000  0.775677  0.824861  1
  Fe  Fe5  1  0.750000  0.724323  0.324861  1
  Fe  Fe6  1  0.250000  0.879941  0.697891  1
  Fe  Fe7  1  0.250000  0.620059  0.197891  1
  Fe  Fe8  1  0.750000  0.116741  0.302176  1
  Fe  Fe9  1  0.750000  0.383259  0.802176  1
  Fe  Fe10  1  0.250000  0.461534  0.932903  1
  Fe  Fe11  1  0.250000  0.038466  0.432903  1
  Fe  Fe12  1  0.750000  0.536256  0.063792  1
  Fe  Fe13  1  0.750000  0.963744  0.563792  1
  P  P14  1  0.250000  0.430816  0.111886  1
  P  P15  1  0.250000  0.069184  0.611886  1
  P  P16  1  0.750000  0.578296  0.887566  1
  P  P17  1  0.750000  0.921704  0.387566  1
  P  P18  1  0.250000  0.267972  0.870889  1
  P  P19  1  0.250000  0.232028  0.370889  1
  P  P20  1  0.750000  0.723738  0.139770  1
  P  P21  1  0.750000  0.776262  0.639770  1
  P  P22  1  0.250000  0.609685  0.383760  1
  P  P23  1  0.250000  0.890315  0.883760  1
  P  P24  1  0.750000  0.400467  0.609949  1
  P  P25  1  0.750000  0.099533  0.109949  1
  Ru  Ru26  1  0.250000  0.700595  0.983157  1
  Ru  Ru27  1  0.250000  0.799405  0.483157  1
  Ru  Ru28  1  0.750000  0.294522  0.010912  1
  Ru  Ru29  1  0.750000  0.205478  0.510912  1
  Ru  Ru30  1  0.250000  0.410198  0.485448  1
  Ru  Ru31  1  0.250000  0.089802  0.985448  1
  Ru  Ru32  1  0.750000  0.601901  0.514862  1
  Ru  Ru33  1  0.750000  0.898099  0.014862  1
  Ru  Ru34  1  0.250000  0.224175  0.178945  1
  Ru  Ru35  1  0.250000  0.275825  0.678945  1
