# generated using pymatgen
data_AgHg(PtO3)2
_symmetry_space_group_name_H-M   'P 1'
_cell_length_a   6.59009631
_cell_length_b   6.59009639
_cell_length_c   3.19767600
_cell_angle_alpha   90.00000000
_cell_angle_beta   90.00000000
_cell_angle_gamma   111.55991433
_symmetry_Int_Tables_number   1
_chemical_formula_structural   AgHg(PtO3)2
_chemical_formula_sum   'Ag1 Hg1 Pt2 O6'
_cell_volume   129.15663524
_cell_formula_units_Z   1
loop_
 _symmetry_equiv_pos_site_id
 _symmetry_equiv_pos_as_xyz
  1  'x, y, z'
loop_
 _atom_site_type_symbol
 _atom_site_label
 _atom_site_symmetry_multiplicity
 _atom_site_fract_x
 _atom_site_fract_y
 _atom_site_fract_z
 _atom_site_occupancy
  Ag  Ag0  1  0.000000  0.000000  0.000000  1
  Hg  Hg1  1  0.500000  0.500000  0.000000  1
  Pt  Pt2  1  0.499999  0.000000  0.500000  1
  Pt  Pt3  1  0.000000  0.499999  0.500000  1
  O  O4  1  0.347374  0.074438  0.000000  1
  O  O5  1  0.074438  0.347374  0.000000  1
  O  O6  1  0.925563  0.652627  0.000000  1
  O  O7  1  0.652627  0.925563  0.000000  1
  O  O8  1  0.671330  0.328671  0.500000  1
  O  O9  1  0.328671  0.671330  0.500000  1
