# generated using pymatgen
data_LiTbY7Mg(SiB4)4
_symmetry_space_group_name_H-M   'P 1'
_cell_length_a   7.17302001
_cell_length_b   7.17310101
_cell_length_c   7.86401900
_cell_angle_alpha   89.99779023
_cell_angle_beta   89.99756112
_cell_angle_gamma   89.99605409
_symmetry_Int_Tables_number   1
_chemical_formula_structural   LiTbY7Mg(SiB4)4
_chemical_formula_sum   'Li1 Tb1 Y7 Mg1 Si4 B16'
_cell_volume   404.62577189
_cell_formula_units_Z   1
loop_
 _symmetry_equiv_pos_site_id
 _symmetry_equiv_pos_as_xyz
  1  'x, y, z'
loop_
 _atom_site_type_symbol
 _atom_site_label
 _atom_site_symmetry_multiplicity
 _atom_site_fract_x
 _atom_site_fract_y
 _atom_site_fract_z
 _atom_site_occupancy
  Li  Li0  1  0.000114  0.999947  0.500096  1
  Tb  Tb1  1  0.684309  0.182648  0.234967  1
  Y  Y2  1  0.315755  0.817428  0.765216  1
  Y  Y3  1  0.315739  0.817468  0.234749  1
  Y  Y4  1  0.817629  0.683996  0.234670  1
  Y  Y5  1  0.817632  0.684068  0.765353  1
  Y  Y6  1  0.684269  0.182541  0.765188  1
  Y  Y7  1  0.182383  0.315978  0.765338  1
  Y  Y8  1  0.182342  0.315974  0.234656  1
  Mg  Mg9  1  0.499926  0.500109  0.500133  1
  Si  Si10  1  0.113828  0.616175  0.500101  1
  Si  Si11  1  0.886477  0.384147  0.500239  1
  Si  Si12  1  0.383773  0.113496  0.500223  1
  Si  Si13  1  0.615881  0.886162  0.500168  1
  B  B14  1  0.173955  0.039374  0.999885  1
  B  B15  1  0.826152  0.960559  0.999917  1
  B  B16  1  0.960580  0.173857  0.999912  1
  B  B17  1  0.326650  0.539583  0.999902  1
  B  B18  1  0.039498  0.826014  0.999907  1
  B  B19  1  0.673231  0.460501  0.999929  1
  B  B20  1  0.539396  0.673340  0.999895  1
  B  B21  1  0.460534  0.326749  0.999935  1
  B  B22  1  0.089022  0.589145  0.999967  1
  B  B23  1  0.910901  0.410783  0.000111  1
  B  B24  1  0.410933  0.088862  0.999986  1
  B  B25  1  0.589039  0.911102  0.999958  1
  B  B26  1  0.000148  0.999935  0.159997  1
  B  B27  1  0.000033  0.999928  0.839778  1
  B  B28  1  0.499939  0.500053  0.837498  1
  B  B29  1  0.499930  0.500079  0.162327  1
