# generated using pymatgen
data_Ca3SmTaTiV2O12
_symmetry_space_group_name_H-M   'P 1'
_cell_length_a   5.44937417
_cell_length_b   5.61215961
_cell_length_c   7.81097401
_cell_angle_alpha   89.71054899
_cell_angle_beta   90.03760071
_cell_angle_gamma   90.56120117
_symmetry_Int_Tables_number   1
_chemical_formula_structural   Ca3SmTaTiV2O12
_chemical_formula_sum   'Ca3 Sm1 Ta1 Ti1 V2 O12'
_cell_volume   238.86657369
_cell_formula_units_Z   1
loop_
 _symmetry_equiv_pos_site_id
 _symmetry_equiv_pos_as_xyz
  1  'x, y, z'
loop_
 _atom_site_type_symbol
 _atom_site_label
 _atom_site_symmetry_multiplicity
 _atom_site_fract_x
 _atom_site_fract_y
 _atom_site_fract_z
 _atom_site_occupancy
  Ca  Ca0  1  0.486360  0.446632  0.260714  1
  Ca  Ca1  1  0.514430  0.553745  0.741927  1
  Ca  Ca2  1  0.007312  0.954715  0.260047  1
  Sm  Sm3  1  0.989442  0.054424  0.741156  1
  Ta  Ta4  1  0.002404  0.501675  0.003988  1
  Ti  Ti5  1  0.496858  0.997326  0.493317  1
  V  V6  1  0.999724  0.502431  0.499716  1
  V  V7  1  0.499349  0.999093  0.000090  1
  O  O8  1  0.905806  0.527365  0.245369  1
  O  O9  1  0.408329  0.972457  0.748786  1
  O  O10  1  0.583878  0.029134  0.253306  1
  O  O11  1  0.092814  0.474467  0.754113  1
  O  O12  1  0.708959  0.293069  0.946360  1
  O  O13  1  0.189904  0.204103  0.045638  1
  O  O14  1  0.793347  0.799399  0.545299  1
  O  O15  1  0.297076  0.712291  0.454949  1
  O  O16  1  0.709078  0.285221  0.548698  1
  O  O17  1  0.207316  0.201940  0.462144  1
  O  O18  1  0.299619  0.698049  0.048424  1
  O  O19  1  0.807997  0.792466  0.945956  1
