# generated using pymatgen
data_Hf2Sc4Al8Co7Si8
_symmetry_space_group_name_H-M   'P 1'
_cell_length_a   8.30880830
_cell_length_b   8.30880719
_cell_length_c   8.30850000
_cell_angle_alpha   60.00122300
_cell_angle_beta   60.00122741
_cell_angle_gamma   59.99753793
_symmetry_Int_Tables_number   1
_chemical_formula_structural   Hf2Sc4Al8Co7Si8
_chemical_formula_sum   'Hf2 Sc4 Al8 Co7 Si8'
_cell_volume   405.58791569
_cell_formula_units_Z   1
loop_
 _symmetry_equiv_pos_site_id
 _symmetry_equiv_pos_as_xyz
  1  'x, y, z'
loop_
 _atom_site_type_symbol
 _atom_site_label
 _atom_site_symmetry_multiplicity
 _atom_site_fract_x
 _atom_site_fract_y
 _atom_site_fract_z
 _atom_site_occupancy
  Hf  Hf0  1  0.302957  0.302957  0.697043  1
  Hf  Hf1  1  0.697043  0.697043  0.302957  1
  Sc  Sc2  1  0.694981  0.305019  0.305019  1
  Sc  Sc3  1  0.305019  0.694981  0.694981  1
  Sc  Sc4  1  0.305019  0.694981  0.305019  1
  Sc  Sc5  1  0.694981  0.305019  0.694981  1
  Al  Al6  1  0.119938  0.119938  0.121174  1
  Al  Al7  1  0.880062  0.880062  0.878826  1
  Al  Al8  1  0.119938  0.119938  0.638950  1
  Al  Al9  1  0.121174  0.638950  0.119938  1
  Al  Al10  1  0.880062  0.880062  0.361050  1
  Al  Al11  1  0.878826  0.361050  0.880062  1
  Al  Al12  1  0.638950  0.121174  0.119938  1
  Al  Al13  1  0.361050  0.878826  0.880062  1
  Co  Co14  1  0.500000  0.000000  0.000000  1
  Co  Co15  1  0.000000  0.500000  0.500000  1
  Co  Co16  1  0.000000  0.500000  0.000000  1
  Co  Co17  1  0.500000  0.000000  0.500000  1
  Co  Co18  1  0.000000  0.000000  0.500000  1
  Co  Co19  1  0.500000  0.500000  0.000000  1
  Co  Co20  1  0.000000  0.000000  0.000000  1
  Si  Si21  1  0.341224  0.341224  0.341508  1
  Si  Si22  1  0.658776  0.658776  0.658492  1
  Si  Si23  1  0.341224  0.341224  0.976044  1
  Si  Si24  1  0.341508  0.976044  0.341224  1
  Si  Si25  1  0.658776  0.658776  0.023956  1
  Si  Si26  1  0.658492  0.023956  0.658776  1
  Si  Si27  1  0.976044  0.341508  0.341224  1
  Si  Si28  1  0.023956  0.658492  0.658776  1
