# generated using pymatgen
data_Lu2VPtF14
_symmetry_space_group_name_H-M   'P 1'
_cell_length_a   5.44792400
_cell_length_b   8.69782425
_cell_length_c   11.69677674
_cell_angle_alpha   63.22735231
_cell_angle_beta   90.22923880
_cell_angle_gamma   90.12795949
_symmetry_Int_Tables_number   1
_chemical_formula_structural   Lu2VPtF14
_chemical_formula_sum   'Lu4 V2 Pt2 F28'
_cell_volume   494.83338311
_cell_formula_units_Z   2
loop_
 _symmetry_equiv_pos_site_id
 _symmetry_equiv_pos_as_xyz
  1  'x, y, z'
loop_
 _atom_site_type_symbol
 _atom_site_label
 _atom_site_symmetry_multiplicity
 _atom_site_fract_x
 _atom_site_fract_y
 _atom_site_fract_z
 _atom_site_occupancy
  Lu  Lu0  1  0.257815  0.810467  0.265046  1
  Lu  Lu1  1  0.742185  0.189533  0.734954  1
  Lu  Lu2  1  0.760537  0.183771  0.231467  1
  Lu  Lu3  1  0.239463  0.816229  0.768533  1
  V  V4  1  0.754232  0.726531  0.044111  1
  V  V5  1  0.245768  0.273469  0.955889  1
  Pt  Pt6  1  0.259275  0.272277  0.454689  1
  Pt  Pt7  1  0.740725  0.727723  0.545311  1
  F  F8  1  0.939622  0.697522  0.417190  1
  F  F9  1  0.060378  0.302478  0.582810  1
  F  F10  1  0.451822  0.291166  0.080142  1
  F  F11  1  0.548178  0.708834  0.919858  1
  F  F12  1  0.475212  0.734529  0.137658  1
  F  F13  1  0.524788  0.265471  0.862342  1
  F  F14  1  0.962907  0.277370  0.356085  1
  F  F15  1  0.037093  0.722630  0.643915  1
  F  F16  1  0.956356  0.751796  0.169027  1
  F  F17  1  0.043644  0.248204  0.830973  1
  F  F18  1  0.453244  0.253562  0.319477  1
  F  F19  1  0.546756  0.746438  0.680523  1
  F  F20  1  0.769812  0.491377  0.136275  1
  F  F21  1  0.230188  0.508623  0.863725  1
  F  F22  1  0.276168  0.524513  0.352937  1
  F  F23  1  0.723832  0.475487  0.647063  1
  F  F24  1  0.956078  0.278542  0.048195  1
  F  F25  1  0.043922  0.721458  0.951805  1
  F  F26  1  0.434875  0.719925  0.457543  1
  F  F27  1  0.565125  0.280075  0.542457  1
  F  F28  1  0.746039  0.979663  0.450147  1
  F  F29  1  0.253961  0.020337  0.549853  1
  F  F30  1  0.244621  0.037988  0.047718  1
  F  F31  1  0.755379  0.962012  0.952282  1
  F  F32  1  0.577736  0.968727  0.234175  1
  F  F33  1  0.422264  0.031273  0.765825  1
  F  F34  1  0.076701  0.022970  0.268373  1
  F  F35  1  0.923299  0.977030  0.731627  1
