# generated using pymatgen
data_Hf3ZrRu10Pt2C3
_symmetry_space_group_name_H-M   'P 1'
_cell_length_a   4.08427400
_cell_length_b   4.08427400
_cell_length_c   16.19125500
_cell_angle_alpha   90.00000000
_cell_angle_beta   90.00000000
_cell_angle_gamma   90.00000000
_symmetry_Int_Tables_number   1
_chemical_formula_structural   Hf3ZrRu10Pt2C3
_chemical_formula_sum   'Hf3 Zr1 Ru10 Pt2 C3'
_cell_volume   270.09108662
_cell_formula_units_Z   1
loop_
 _symmetry_equiv_pos_site_id
 _symmetry_equiv_pos_as_xyz
  1  'x, y, z'
loop_
 _atom_site_type_symbol
 _atom_site_label
 _atom_site_symmetry_multiplicity
 _atom_site_fract_x
 _atom_site_fract_y
 _atom_site_fract_z
 _atom_site_occupancy
  Hf  Hf0  1  0.000000  0.000000  0.122962  1
  Hf  Hf1  1  0.000000  0.000000  0.374111  1
  Hf  Hf2  1  0.000000  0.000000  0.625564  1
  Zr  Zr3  1  0.000000  0.000000  0.877033  1
  Ru  Ru4  1  0.500000  0.500000  0.878900  1
  Ru  Ru5  1  0.500000  0.500000  0.121945  1
  Ru  Ru6  1  0.500000  0.500000  0.373595  1
  Ru  Ru7  1  0.500000  0.500000  0.626061  1
  Ru  Ru8  1  0.500000  0.000000  0.249636  1
  Ru  Ru9  1  0.500000  0.000000  0.499690  1
  Ru  Ru10  1  0.500000  0.000000  0.749005  1
  Ru  Ru11  1  0.000000  0.500000  0.249636  1
  Ru  Ru12  1  0.000000  0.500000  0.499690  1
  Ru  Ru13  1  0.000000  0.500000  0.749005  1
  Pt  Pt14  1  0.500000  0.000000  0.001167  1
  Pt  Pt15  1  0.000000  0.500000  0.001167  1
  C  C16  1  0.500000  0.500000  0.243292  1
  C  C17  1  0.500000  0.500000  0.500014  1
  C  C18  1  0.500000  0.500000  0.757528  1
