# generated using pymatgen
data_Cs2Dy(TeO4)3
_symmetry_space_group_name_H-M   'P 1'
_cell_length_a   7.66189953
_cell_length_b   7.43866761
_cell_length_c   7.66231616
_cell_angle_alpha   90.00463002
_cell_angle_beta   58.07217659
_cell_angle_gamma   119.03450602
_symmetry_Int_Tables_number   1
_chemical_formula_structural   Cs2Dy(TeO4)3
_chemical_formula_sum   'Cs2 Dy1 Te3 O12'
_cell_volume   304.07186926
_cell_formula_units_Z   1
loop_
 _symmetry_equiv_pos_site_id
 _symmetry_equiv_pos_as_xyz
  1  'x, y, z'
loop_
 _atom_site_type_symbol
 _atom_site_label
 _atom_site_symmetry_multiplicity
 _atom_site_fract_x
 _atom_site_fract_y
 _atom_site_fract_z
 _atom_site_occupancy
  Cs  Cs0  1  0.249710  0.122213  0.624823  1
  Cs  Cs1  1  0.750283  0.872480  0.375196  1
  Dy  Dy2  1  0.999965  0.497307  0.000035  1
  Te  Te3  1  0.500016  0.497298  0.000017  1
  Te  Te4  1  0.500032  0.997303  0.999962  1
  Te  Te5  1  0.000014  0.497316  0.500005  1
  O  O6  1  0.630240  0.812403  0.919356  1
  O  O7  1  0.854648  0.424691  0.352350  1
  O  O8  1  0.279572  0.424657  0.927305  1
  O  O9  1  0.234370  0.812455  0.315180  1
  O  O10  1  0.279755  0.849682  0.927287  1
  O  O11  1  0.234508  0.416745  0.315115  1
  O  O12  1  0.369782  0.182194  0.080592  1
  O  O13  1  0.145333  0.570090  0.647660  1
  O  O14  1  0.720318  0.570013  0.072643  1
  O  O15  1  0.765585  0.182210  0.684840  1
  O  O16  1  0.720387  0.145034  0.072766  1
  O  O17  1  0.765479  0.577912  0.684867  1
