# generated using pymatgen
data_Lu2Sc4(WO6)3
_symmetry_space_group_name_H-M   'P 1'
_cell_length_a   8.90049821
_cell_length_b   8.89724645
_cell_length_c   4.91450201
_cell_angle_alpha   90.00000341
_cell_angle_beta   89.99400796
_cell_angle_gamma   119.98792278
_symmetry_Int_Tables_number   1
_chemical_formula_structural   Lu2Sc4(WO6)3
_chemical_formula_sum   'Lu2 Sc4 W3 O18'
_cell_volume   337.07995169
_cell_formula_units_Z   1
loop_
 _symmetry_equiv_pos_site_id
 _symmetry_equiv_pos_as_xyz
  1  'x, y, z'
loop_
 _atom_site_type_symbol
 _atom_site_label
 _atom_site_symmetry_multiplicity
 _atom_site_fract_x
 _atom_site_fract_y
 _atom_site_fract_z
 _atom_site_occupancy
  Lu  Lu0  1  0.630210  0.999663  0.999853  1
  Lu  Lu1  1  0.369791  0.369453  0.000147  1
  Sc  Sc2  1  0.000000  0.633189  0.000000  1
  Sc  Sc3  1  0.296042  0.000142  0.499770  1
  Sc  Sc4  1  0.000000  0.296281  0.500001  1
  Sc  Sc5  1  0.703958  0.704100  0.500232  1
  W  W6  1  0.000000  0.997315  0.000000  1
  W  W7  1  0.669531  0.335993  0.499814  1
  W  W8  1  0.330470  0.666463  0.500185  1
  O  O9  1  0.884314  0.090723  0.223694  1
  O  O10  1  0.208392  0.114770  0.221537  1
  O  O11  1  0.907682  0.786790  0.218914  1
  O  O12  1  0.228934  0.454869  0.282535  1
  O  O13  1  0.222017  0.766628  0.272955  1
  O  O14  1  0.542274  0.773201  0.278558  1
  O  O15  1  0.540879  0.127752  0.278999  1
  O  O16  1  0.876695  0.420800  0.272979  1
  O  O17  1  0.586066  0.461796  0.283586  1
  O  O18  1  0.123305  0.544105  0.727020  1
  O  O19  1  0.459121  0.586872  0.721000  1
  O  O20  1  0.413934  0.875730  0.716413  1
  O  O21  1  0.771067  0.225935  0.717464  1
  O  O22  1  0.457725  0.230926  0.721441  1
  O  O23  1  0.777983  0.544612  0.727044  1
  O  O24  1  0.115685  0.206410  0.776306  1
  O  O25  1  0.092319  0.879109  0.781086  1
  O  O26  1  0.791608  0.906379  0.778463  1
