# generated using pymatgen
data_PrZr4NpF22
_symmetry_space_group_name_H-M   'P 1'
_cell_length_a   8.52393649
_cell_length_b   8.52394502
_cell_length_c   8.52424542
_cell_angle_alpha   124.74540874
_cell_angle_beta   106.36676838
_cell_angle_gamma   98.53050426
_symmetry_Int_Tables_number   1
_chemical_formula_structural   PrZr4NpF22
_chemical_formula_sum   'Pr1 Zr4 Np1 F22'
_cell_volume   449.24400520
_cell_formula_units_Z   1
loop_
 _symmetry_equiv_pos_site_id
 _symmetry_equiv_pos_as_xyz
  1  'x, y, z'
loop_
 _atom_site_type_symbol
 _atom_site_label
 _atom_site_symmetry_multiplicity
 _atom_site_fract_x
 _atom_site_fract_y
 _atom_site_fract_z
 _atom_site_occupancy
  Pr  Pr0  1  0.750016  0.749996  0.000013  1
  Zr  Zr1  1  0.819947  0.634021  0.453343  1
  Zr  Zr2  1  0.180612  0.366243  0.547578  1
  Zr  Zr3  1  0.319353  0.866231  0.185896  1
  Zr  Zr4  1  0.681058  0.133698  0.814341  1
  Np  Np5  1  0.251227  0.250365  0.001592  1
  F  F6  1  0.321176  0.034526  0.082091  1
  F  F7  1  0.719413  0.870341  0.589840  1
  F  F8  1  0.951917  0.238555  0.917041  1
  F  F9  1  0.946569  0.105567  0.311791  1
  F  F10  1  0.219493  0.629639  0.849089  1
  F  F11  1  0.793686  0.634690  0.688078  1
  F  F12  1  0.547546  0.465329  0.286542  1
  F  F13  1  0.446277  0.134310  0.840486  1
  F  F14  1  0.780410  0.370495  0.151038  1
  F  F15  1  0.293216  0.605379  0.158593  1
  F  F16  1  0.452043  0.534609  0.713364  1
  F  F17  1  0.706243  0.394441  0.841006  1
  F  F18  1  0.553381  0.865292  0.159000  1
  F  F19  1  0.047946  0.761393  0.082554  1
  F  F20  1  0.000066  0.500004  0.500007  1
  F  F21  1  0.821143  0.738595  0.286514  1
  F  F22  1  0.206243  0.365612  0.311885  1
  F  F23  1  0.678772  0.965369  0.917439  1
  F  F24  1  0.178537  0.261340  0.713248  1
  F  F25  1  0.280546  0.129532  0.409907  1
  F  F26  1  0.053204  0.894498  0.687774  1
  F  F27  1  0.499960  0.999929  0.499951  1
