# generated using pymatgen
data_Ca5HoSi24Os5Ru3
_symmetry_space_group_name_H-M   'P 1'
_cell_length_a   10.17770159
_cell_length_b   10.17751775
_cell_length_c   8.17784851
_cell_angle_alpha   89.93953890
_cell_angle_beta   90.08730135
_cell_angle_gamma   132.62296398
_symmetry_Int_Tables_number   1
_chemical_formula_structural   Ca5HoSi24Os5Ru3
_chemical_formula_sum   'Ca5 Ho1 Si24 Os5 Ru3'
_cell_volume   623.31146247
_cell_formula_units_Z   1
loop_
 _symmetry_equiv_pos_site_id
 _symmetry_equiv_pos_as_xyz
  1  'x, y, z'
loop_
 _atom_site_type_symbol
 _atom_site_label
 _atom_site_symmetry_multiplicity
 _atom_site_fract_x
 _atom_site_fract_y
 _atom_site_fract_z
 _atom_site_occupancy
  Ca  Ca0  1  0.499447  0.499408  0.499881  1
  Ca  Ca1  1  0.999628  0.999692  0.999671  1
  Ca  Ca2  1  0.500357  0.000433  0.749935  1
  Ca  Ca3  1  0.999575  0.500035  0.250190  1
  Ca  Ca4  1  0.499446  0.998987  0.250232  1
  Ho  Ho5  1  0.998996  0.499043  0.749894  1
  Si  Si6  1  0.794508  0.204568  0.498858  1
  Si  Si7  1  0.295421  0.705954  0.000154  1
  Si  Si8  1  0.205944  0.795424  0.499747  1
  Si  Si9  1  0.704505  0.294382  0.001046  1
  Si  Si10  1  0.333448  0.333767  0.832470  1
  Si  Si11  1  0.664705  0.666808  0.167737  1
  Si  Si12  1  0.166009  0.163861  0.330369  1
  Si  Si13  1  0.832109  0.831791  0.667101  1
  Si  Si14  1  0.122981  0.890166  0.729611  1
  Si  Si15  1  0.110001  0.877286  0.269565  1
  Si  Si16  1  0.608045  0.375012  0.230466  1
  Si  Si17  1  0.626267  0.393446  0.770925  1
  Si  Si18  1  0.876585  0.109439  0.269545  1
  Si  Si19  1  0.891883  0.124603  0.729457  1
  Si  Si20  1  0.391570  0.624534  0.770821  1
  Si  Si21  1  0.375703  0.608593  0.230415  1
  Si  Si22  1  0.347820  0.113801  0.507155  1
  Si  Si23  1  0.887468  0.654843  0.493954  1
  Si  Si24  1  0.386656  0.152870  0.009193  1
  Si  Si25  1  0.845856  0.612996  0.990028  1
  Si  Si26  1  0.653132  0.886188  0.492667  1
  Si  Si27  1  0.113144  0.346145  0.509291  1
  Si  Si28  1  0.613616  0.847488  0.992242  1
  Si  Si29  1  0.154647  0.388001  0.007844  1
  Os  Os30  1  0.672318  0.332402  0.501903  1
  Os  Os31  1  0.168327  0.828743  0.998337  1
  Os  Os32  1  0.328905  0.668153  0.501618  1
  Os  Os33  1  0.832296  0.172497  0.998061  1
  Os  Os34  1  0.126742  0.126069  0.624726  1
  Ru  Ru35  1  0.872823  0.873093  0.374985  1
  Ru  Ru36  1  0.373522  0.373270  0.124377  1
  Ru  Ru37  1  0.625591  0.626209  0.875527  1
