# generated using pymatgen
data_Ho12AlInSi4
_symmetry_space_group_name_H-M   'P 1'
_cell_length_a   8.45195143
_cell_length_b   8.45195204
_cell_length_c   8.45195247
_cell_angle_alpha   112.21199531
_cell_angle_beta   111.26554095
_cell_angle_gamma   105.02702177
_symmetry_Int_Tables_number   1
_chemical_formula_structural   Ho12AlInSi4
_chemical_formula_sum   'Ho12 Al1 In1 Si4'
_cell_volume   462.67164297
_cell_formula_units_Z   1
loop_
 _symmetry_equiv_pos_site_id
 _symmetry_equiv_pos_as_xyz
  1  'x, y, z'
loop_
 _atom_site_type_symbol
 _atom_site_label
 _atom_site_symmetry_multiplicity
 _atom_site_fract_x
 _atom_site_fract_y
 _atom_site_fract_z
 _atom_site_occupancy
  Ho  Ho0  1  0.319279  0.615753  0.296474  1
  Ho  Ho1  1  0.680721  0.384247  0.703526  1
  Ho  Ho2  1  0.319279  0.022804  0.703526  1
  Ho  Ho3  1  0.680721  0.977196  0.296474  1
  Ho  Ho4  1  0.183320  0.274250  0.457569  1
  Ho  Ho5  1  0.816680  0.725750  0.542431  1
  Ho  Ho6  1  0.183320  0.725750  0.909071  1
  Ho  Ho7  1  0.816680  0.274250  0.090929  1
  Ho  Ho8  1  0.437266  0.235998  0.201269  1
  Ho  Ho9  1  0.562734  0.764002  0.798731  1
  Ho  Ho10  1  0.034729  0.235998  0.798731  1
  Ho  Ho11  1  0.965271  0.764002  0.201269  1
  Al  Al12  1  0.000000  0.000000  0.000000  1
  In  In13  1  0.500000  0.500000  0.000000  1
  Si  Si14  1  0.116138  0.616138  0.500000  1
  Si  Si15  1  0.883862  0.383862  0.500000  1
  Si  Si16  1  0.368441  0.000000  0.368441  1
  Si  Si17  1  0.631559  0.000000  0.631559  1
