# generated using pymatgen
data_DyTh7(Si3Os)4
_symmetry_space_group_name_H-M   'P 1'
_cell_length_a   8.28460200
_cell_length_b   8.28462632
_cell_length_c   8.27257400
_cell_angle_alpha   90.00000000
_cell_angle_beta   90.00000000
_cell_angle_gamma   119.99944472
_symmetry_Int_Tables_number   1
_chemical_formula_structural   DyTh7(Si3Os)4
_chemical_formula_sum   'Dy1 Th7 Si12 Os4'
_cell_volume   491.72047907
_cell_formula_units_Z   1
loop_
 _symmetry_equiv_pos_site_id
 _symmetry_equiv_pos_as_xyz
  1  'x, y, z'
loop_
 _atom_site_type_symbol
 _atom_site_label
 _atom_site_symmetry_multiplicity
 _atom_site_fract_x
 _atom_site_fract_y
 _atom_site_fract_z
 _atom_site_occupancy
  Dy  Dy0  1  0.999997  0.000006  0.750000  1
  Th  Th1  1  0.500333  0.000666  0.250000  1
  Th  Th2  1  0.499663  0.999320  0.750000  1
  Th  Th3  1  0.999337  0.499669  0.250000  1
  Th  Th4  1  0.000676  0.500338  0.750000  1
  Th  Th5  1  0.500338  0.499660  0.250000  1
  Th  Th6  1  0.499657  0.500342  0.750000  1
  Th  Th7  1  0.999997  0.000002  0.250000  1
  Si  Si8  1  0.165337  0.330677  0.999403  1
  Si  Si9  1  0.834673  0.669346  0.998803  1
  Si  Si10  1  0.669322  0.834661  0.999402  1
  Si  Si11  1  0.834673  0.669346  0.501197  1
  Si  Si12  1  0.330657  0.165329  0.998803  1
  Si  Si13  1  0.165337  0.330677  0.500597  1
  Si  Si14  1  0.165338  0.834662  0.999402  1
  Si  Si15  1  0.330657  0.165329  0.501197  1
  Si  Si16  1  0.834671  0.165326  0.998802  1
  Si  Si17  1  0.669322  0.834661  0.500598  1
  Si  Si18  1  0.834671  0.165326  0.501198  1
  Si  Si19  1  0.165338  0.834662  0.500598  1
  Os  Os20  1  0.333335  0.666664  0.997176  1
  Os  Os21  1  0.666666  0.333334  0.996028  1
  Os  Os22  1  0.666666  0.333334  0.503972  1
  Os  Os23  1  0.333335  0.666664  0.502824  1
