# generated using pymatgen
data_PrCdRh2O7
_symmetry_space_group_name_H-M   'P 1'
_cell_length_a   7.31495033
_cell_length_b   7.20069417
_cell_length_c   7.31495016
_cell_angle_alpha   60.51536258
_cell_angle_beta   61.69967476
_cell_angle_gamma   60.51535772
_symmetry_Int_Tables_number   1
_chemical_formula_structural   PrCdRh2O7
_chemical_formula_sum   'Pr2 Cd2 Rh4 O14'
_cell_volume   277.95809902
_cell_formula_units_Z   2
loop_
 _symmetry_equiv_pos_site_id
 _symmetry_equiv_pos_as_xyz
  1  'x, y, z'
loop_
 _atom_site_type_symbol
 _atom_site_label
 _atom_site_symmetry_multiplicity
 _atom_site_fract_x
 _atom_site_fract_y
 _atom_site_fract_z
 _atom_site_occupancy
  Pr  Pr0  1  0.625000  0.125000  0.125000  1
  Pr  Pr1  1  0.125000  0.125000  0.625000  1
  Cd  Cd2  1  0.125000  0.125000  0.125000  1
  Cd  Cd3  1  0.125000  0.625000  0.125000  1
  Rh  Rh4  1  0.625000  0.625000  0.625000  1
  Rh  Rh5  1  0.625000  0.625000  0.125000  1
  Rh  Rh6  1  0.125000  0.625000  0.625000  1
  Rh  Rh7  1  0.625000  0.125000  0.625000  1
  O  O8  1  0.239387  0.260613  0.239387  1
  O  O9  1  0.302291  0.697709  0.302291  1
  O  O10  1  0.949549  0.952345  0.550094  1
  O  O11  1  0.540785  0.959215  0.540785  1
  O  O12  1  0.699906  0.701988  0.300451  1
  O  O13  1  0.949549  0.548012  0.550094  1
  O  O14  1  0.709215  0.290785  0.709215  1
  O  O15  1  0.300451  0.297655  0.699906  1
  O  O16  1  0.699906  0.297655  0.300451  1
  O  O17  1  0.300451  0.701988  0.699906  1
  O  O18  1  0.947709  0.552291  0.947709  1
  O  O19  1  0.550094  0.548012  0.949549  1
  O  O20  1  0.010613  0.989387  0.010613  1
  O  O21  1  0.550094  0.952345  0.949549  1
