# generated using pymatgen
data_Tb5Nd3Cd2IrPt
_symmetry_space_group_name_H-M   'P 1'
_cell_length_a   9.80712695
_cell_length_b   9.80706855
_cell_length_c   9.79946742
_cell_angle_alpha   60.00777144
_cell_angle_beta   60.00815353
_cell_angle_gamma   60.13765485
_symmetry_Int_Tables_number   1
_chemical_formula_structural   Tb5Nd3Cd2IrPt
_chemical_formula_sum   'Tb10 Nd6 Cd4 Ir2 Pt2'
_cell_volume   667.22240727
_cell_formula_units_Z   2
loop_
 _symmetry_equiv_pos_site_id
 _symmetry_equiv_pos_as_xyz
  1  'x, y, z'
loop_
 _atom_site_type_symbol
 _atom_site_label
 _atom_site_symmetry_multiplicity
 _atom_site_fract_x
 _atom_site_fract_y
 _atom_site_fract_z
 _atom_site_occupancy
  Tb  Tb0  1  0.348963  0.349000  0.345705  1
  Tb  Tb1  1  0.350708  0.350704  0.953283  1
  Tb  Tb2  1  0.355097  0.947569  0.349805  1
  Tb  Tb3  1  0.947588  0.355111  0.349821  1
  Tb  Tb4  1  0.807913  0.189391  0.187572  1
  Tb  Tb5  1  0.186401  0.808093  0.815028  1
  Tb  Tb6  1  0.189452  0.807931  0.187510  1
  Tb  Tb7  1  0.808090  0.186384  0.815046  1
  Tb  Tb8  1  0.188793  0.188705  0.811779  1
  Tb  Tb9  1  0.812688  0.812689  0.184004  1
  Nd  Nd10  1  0.941101  0.562320  0.559124  1
  Nd  Nd11  1  0.559764  0.941115  0.940189  1
  Nd  Nd12  1  0.562328  0.941117  0.559134  1
  Nd  Nd13  1  0.941106  0.559718  0.940213  1
  Nd  Nd14  1  0.560523  0.560523  0.940616  1
  Nd  Nd15  1  0.940780  0.940855  0.558008  1
  Cd  Cd16  1  0.579952  0.579951  0.579808  1
  Cd  Cd17  1  0.579963  0.580003  0.259293  1
  Cd  Cd18  1  0.579461  0.260223  0.579981  1
  Cd  Cd19  1  0.260195  0.579488  0.579967  1
  Ir  Ir20  1  0.141255  0.573254  0.143576  1
  Ir  Ir21  1  0.573246  0.141247  0.143555  1
  Pt  Pt22  1  0.142712  0.142685  0.144935  1
  Pt  Pt23  1  0.141924  0.141925  0.572048  1
