# generated using pymatgen
data_Tb10Si16Ag
_symmetry_space_group_name_H-M   'P 1'
_cell_length_a   11.17132778
_cell_length_b   11.16964875
_cell_length_c   11.17132701
_cell_angle_alpha   144.75358560
_cell_angle_beta   136.33986125
_cell_angle_gamma   57.31066116
_symmetry_Int_Tables_number   1
_chemical_formula_structural   Tb10Si16Ag
_chemical_formula_sum   'Tb10 Si16 Ag1'
_cell_volume   550.84906437
_cell_formula_units_Z   1
loop_
 _symmetry_equiv_pos_site_id
 _symmetry_equiv_pos_as_xyz
  1  'x, y, z'
loop_
 _atom_site_type_symbol
 _atom_site_label
 _atom_site_symmetry_multiplicity
 _atom_site_fract_x
 _atom_site_fract_y
 _atom_site_fract_z
 _atom_site_occupancy
  Tb  Tb0  1  0.053177  0.565835  0.021552  1
  Tb  Tb1  1  0.352552  0.369643  0.520713  1
  Tb  Tb2  1  0.154598  0.165471  0.521392  1
  Tb  Tb3  1  0.451030  0.963185  0.014413  1
  Tb  Tb4  1  0.644079  0.165471  0.010874  1
  Tb  Tb5  1  0.948770  0.963185  0.512153  1
  Tb  Tb6  1  0.848931  0.369643  0.017092  1
  Tb  Tb7  1  0.544283  0.565835  0.512658  1
  Tb  Tb8  1  0.251970  0.766032  0.014287  1
  Tb  Tb9  1  0.751746  0.766032  0.514062  1
  Si  Si10  1  0.116195  0.073569  0.957372  1
  Si  Si11  1  0.797146  0.173886  0.376740  1
  Si  Si12  1  0.300265  0.899594  0.599329  1
  Si  Si13  1  0.400017  0.501800  0.101782  1
  Si  Si14  1  0.882745  0.854011  0.971266  1
  Si  Si15  1  0.104177  0.709482  0.605304  1
  Si  Si16  1  0.199737  0.587528  0.387790  1
  Si  Si17  1  0.699652  0.295555  0.595903  1
  Si  Si18  1  0.002122  0.432452  0.430331  1
  Si  Si19  1  0.712775  0.664089  0.951312  1
  Si  Si20  1  0.600860  0.702342  0.101482  1
  Si  Si21  1  0.999484  0.083361  0.083877  1
  Si  Si22  1  0.501172  0.396960  0.895788  1
  Si  Si23  1  0.286672  0.240738  0.954066  1
  Si  Si24  1  0.585714  0.039919  0.454204  1
  Si  Si25  1  0.414013  0.868520  0.454508  1
  Ag  Ag26  1  0.896116  0.504784  0.608668  1
