# generated using pymatgen
data_TbY3TmIr3
_symmetry_space_group_name_H-M   'P 1'
_cell_length_a   10.91123300
_cell_length_b   10.91032200
_cell_length_c   6.36579400
_cell_angle_alpha   90.00000000
_cell_angle_beta   90.00000000
_cell_angle_gamma   90.00000000
_symmetry_Int_Tables_number   1
_chemical_formula_structural   TbY3TmIr3
_chemical_formula_sum   'Tb4 Y12 Tm4 Ir12'
_cell_volume   757.81636335
_cell_formula_units_Z   4
loop_
 _symmetry_equiv_pos_site_id
 _symmetry_equiv_pos_as_xyz
  1  'x, y, z'
loop_
 _atom_site_type_symbol
 _atom_site_label
 _atom_site_symmetry_multiplicity
 _atom_site_fract_x
 _atom_site_fract_y
 _atom_site_fract_z
 _atom_site_occupancy
  Tb  Tb0  1  0.290559  0.087714  0.377406  1
  Tb  Tb1  1  0.290559  0.912286  0.877406  1
  Tb  Tb2  1  0.709441  0.087714  0.877406  1
  Tb  Tb3  1  0.709441  0.912286  0.377406  1
  Y  Y4  1  0.587666  0.790358  0.877397  1
  Y  Y5  1  0.587666  0.209642  0.377397  1
  Y  Y6  1  0.412334  0.790358  0.377397  1
  Y  Y7  1  0.412334  0.209642  0.877397  1
  Y  Y8  1  0.209441  0.412398  0.622664  1
  Y  Y9  1  0.209441  0.587602  0.122664  1
  Y  Y10  1  0.790559  0.412398  0.122664  1
  Y  Y11  1  0.790559  0.587602  0.622664  1
  Y  Y12  1  0.912412  0.709477  0.122479  1
  Y  Y13  1  0.912412  0.290523  0.622479  1
  Y  Y14  1  0.087588  0.709477  0.622479  1
  Y  Y15  1  0.087588  0.290523  0.122479  1
  Tm  Tm16  1  0.000000  0.000000  0.500099  1
  Tm  Tm17  1  0.000000  0.000000  0.000099  1
  Tm  Tm18  1  0.500000  0.500000  0.000202  1
  Tm  Tm19  1  0.500000  0.500000  0.500202  1
  Ir  Ir20  1  0.848335  0.151482  0.249820  1
  Ir  Ir21  1  0.848335  0.848518  0.749820  1
  Ir  Ir22  1  0.151665  0.151482  0.749820  1
  Ir  Ir23  1  0.151665  0.848518  0.249820  1
  Ir  Ir24  1  0.651494  0.348333  0.750034  1
  Ir  Ir25  1  0.651494  0.651667  0.250034  1
  Ir  Ir26  1  0.348506  0.348333  0.250034  1
  Ir  Ir27  1  0.348506  0.651667  0.750034  1
  Ir  Ir28  1  0.500000  0.000000  0.122596  1
  Ir  Ir29  1  0.500000  0.000000  0.622596  1
  Ir  Ir30  1  0.000000  0.500000  0.877503  1
  Ir  Ir31  1  0.000000  0.500000  0.377503  1
