# generated using pymatgen
data_Er4Lu4B24Ir3Ru
_symmetry_space_group_name_H-M   'P 1'
_cell_length_a   3.60293100
_cell_length_b   9.09643905
_cell_length_c   11.43011006
_cell_angle_alpha   90.01204271
_cell_angle_beta   90.00000000
_cell_angle_gamma   90.00000000
_symmetry_Int_Tables_number   1
_chemical_formula_structural   Er4Lu4B24Ir3Ru
_chemical_formula_sum   'Er4 Lu4 B24 Ir3 Ru1'
_cell_volume   374.60861576
_cell_formula_units_Z   1
loop_
 _symmetry_equiv_pos_site_id
 _symmetry_equiv_pos_as_xyz
  1  'x, y, z'
loop_
 _atom_site_type_symbol
 _atom_site_label
 _atom_site_symmetry_multiplicity
 _atom_site_fract_x
 _atom_site_fract_y
 _atom_site_fract_z
 _atom_site_occupancy
  Er  Er0  1  0.000000  0.319831  0.413662  1
  Er  Er1  1  0.000000  0.681208  0.587450  1
  Er  Er2  1  0.000000  0.820064  0.084672  1
  Er  Er3  1  0.000000  0.178169  0.913367  1
  Lu  Lu4  1  0.000000  0.943973  0.373883  1
  Lu  Lu5  1  0.000000  0.054388  0.627136  1
  Lu  Lu6  1  0.000000  0.444019  0.125971  1
  Lu  Lu7  1  0.000000  0.557790  0.873962  1
  B  B8  1  0.500000  0.554127  0.434778  1
  B  B9  1  0.500000  0.445973  0.565399  1
  B  B10  1  0.500000  0.053811  0.065488  1
  B  B11  1  0.500000  0.945539  0.933698  1
  B  B12  1  0.500000  0.750969  0.420866  1
  B  B13  1  0.500000  0.249080  0.579305  1
  B  B14  1  0.500000  0.250610  0.079174  1
  B  B15  1  0.500000  0.750475  0.919788  1
  B  B16  1  0.500000  0.793520  0.264414  1
  B  B17  1  0.500000  0.206585  0.735030  1
  B  B18  1  0.500000  0.293868  0.235649  1
  B  B19  1  0.500000  0.707402  0.765213  1
  B  B20  1  0.500000  0.630914  0.183072  1
  B  B21  1  0.500000  0.369117  0.816876  1
  B  B22  1  0.500000  0.131407  0.316886  1
  B  B23  1  0.500000  0.869098  0.684287  1
  B  B24  1  0.500000  0.981076  0.213785  1
  B  B25  1  0.500000  0.017545  0.786140  1
  B  B26  1  0.500000  0.481180  0.285983  1
  B  B27  1  0.500000  0.518804  0.714328  1
  B  B28  1  0.500000  0.606136  0.029254  1
  B  B29  1  0.500000  0.393452  0.971089  1
  B  B30  1  0.500000  0.106300  0.470945  1
  B  B31  1  0.500000  0.893752  0.528698  1
  Ir  Ir32  1  0.000000  0.638584  0.320893  1
  Ir  Ir33  1  0.000000  0.361731  0.679475  1
  Ir  Ir34  1  0.000000  0.138023  0.178986  1
  Ru  Ru35  1  0.000000  0.861479  0.820398  1
