# generated using pymatgen
data_U4AlZn43
_symmetry_space_group_name_H-M   'P 1'
_cell_length_a   8.29517800
_cell_length_b   8.29517773
_cell_length_c   15.11577400
_cell_angle_alpha   90.00000000
_cell_angle_beta   90.00000000
_cell_angle_gamma   131.10691606
_symmetry_Int_Tables_number   1
_chemical_formula_structural   U4AlZn43
_chemical_formula_sum   'U4 Al1 Zn43'
_cell_volume   783.71083481
_cell_formula_units_Z   1
loop_
 _symmetry_equiv_pos_site_id
 _symmetry_equiv_pos_as_xyz
  1  'x, y, z'
loop_
 _atom_site_type_symbol
 _atom_site_label
 _atom_site_symmetry_multiplicity
 _atom_site_fract_x
 _atom_site_fract_y
 _atom_site_fract_z
 _atom_site_occupancy
  U  U0  1  0.500000  0.000000  0.249184  1
  U  U1  1  0.000000  0.500000  0.750816  1
  U  U2  1  0.500000  0.500000  0.000000  1
  U  U3  1  0.000000  0.000000  0.500000  1
  Al  Al4  1  0.000000  0.000000  0.000000  1
  Zn  Zn5  1  0.636923  0.461187  0.208499  1
  Zn  Zn6  1  0.137268  0.961424  0.709313  1
  Zn  Zn7  1  0.339243  0.754403  0.913322  1
  Zn  Zn8  1  0.839816  0.255693  0.412632  1
  Zn  Zn9  1  0.960729  0.638191  0.959247  1
  Zn  Zn10  1  0.462073  0.138251  0.458316  1
  Zn  Zn11  1  0.339399  0.256465  0.337651  1
  Zn  Zn12  1  0.838170  0.756262  0.838915  1
  Zn  Zn13  1  0.754403  0.339243  0.086678  1
  Zn  Zn14  1  0.255693  0.839816  0.587368  1
  Zn  Zn15  1  0.961424  0.137268  0.290687  1
  Zn  Zn16  1  0.461187  0.636923  0.791501  1
  Zn  Zn17  1  0.756262  0.838170  0.161085  1
  Zn  Zn18  1  0.256465  0.339399  0.662349  1
  Zn  Zn19  1  0.638191  0.960729  0.040753  1
  Zn  Zn20  1  0.138251  0.462073  0.541684  1
  Zn  Zn21  1  0.361809  0.039271  0.040753  1
  Zn  Zn22  1  0.861749  0.537927  0.541684  1
  Zn  Zn23  1  0.660601  0.743535  0.337651  1
  Zn  Zn24  1  0.161830  0.243738  0.838915  1
  Zn  Zn25  1  0.038576  0.862732  0.290687  1
  Zn  Zn26  1  0.538813  0.363077  0.791501  1
  Zn  Zn27  1  0.660757  0.245597  0.913322  1
  Zn  Zn28  1  0.160184  0.744307  0.412632  1
  Zn  Zn29  1  0.243738  0.161830  0.161085  1
  Zn  Zn30  1  0.743535  0.660601  0.662349  1
  Zn  Zn31  1  0.039271  0.361809  0.959247  1
  Zn  Zn32  1  0.537927  0.861749  0.458316  1
  Zn  Zn33  1  0.245597  0.660757  0.086678  1
  Zn  Zn34  1  0.744307  0.160184  0.587368  1
  Zn  Zn35  1  0.363077  0.538813  0.208499  1
  Zn  Zn36  1  0.862732  0.038576  0.709313  1
  Zn  Zn37  1  0.252108  0.000220  0.874936  1
  Zn  Zn38  1  0.750448  0.501139  0.375133  1
  Zn  Zn39  1  0.999780  0.747892  0.125064  1
  Zn  Zn40  1  0.498861  0.249552  0.624867  1
  Zn  Zn41  1  0.747892  0.999780  0.874936  1
  Zn  Zn42  1  0.249552  0.498861  0.375133  1
  Zn  Zn43  1  0.000220  0.252108  0.125064  1
  Zn  Zn44  1  0.501139  0.750448  0.624867  1
  Zn  Zn45  1  0.500000  0.500000  0.500000  1
  Zn  Zn46  1  0.000000  0.500000  0.249505  1
  Zn  Zn47  1  0.500000  0.000000  0.750495  1
