# generated using pymatgen
data_DyPu4W2C7
_symmetry_space_group_name_H-M   'P 1'
_cell_length_a   8.50514104
_cell_length_b   8.50513947
_cell_length_c   3.41010400
_cell_angle_alpha   90.00000000
_cell_angle_beta   90.00000000
_cell_angle_gamma   124.88672363
_symmetry_Int_Tables_number   1
_chemical_formula_structural   DyPu4W2C7
_chemical_formula_sum   'Dy1 Pu4 W2 C7'
_cell_volume   202.34619951
_cell_formula_units_Z   1
loop_
 _symmetry_equiv_pos_site_id
 _symmetry_equiv_pos_as_xyz
  1  'x, y, z'
loop_
 _atom_site_type_symbol
 _atom_site_label
 _atom_site_symmetry_multiplicity
 _atom_site_fract_x
 _atom_site_fract_y
 _atom_site_fract_z
 _atom_site_occupancy
  Dy  Dy0  1  0.500000  0.500000  0.000000  1
  Pu  Pu1  1  0.060022  0.319374  0.500000  1
  Pu  Pu2  1  0.939978  0.680626  0.500000  1
  Pu  Pu3  1  0.680626  0.939978  0.500000  1
  Pu  Pu4  1  0.319374  0.060022  0.500000  1
  W  W5  1  0.711177  0.288823  0.000000  1
  W  W6  1  0.288823  0.711177  0.000000  1
  C  C7  1  0.625244  0.374756  0.500000  1
  C  C8  1  0.374756  0.625244  0.500000  1
  C  C9  1  0.000000  0.000000  0.000000  1
  C  C10  1  0.173077  0.173077  0.000000  1
  C  C11  1  0.826923  0.826923  0.000000  1
  C  C12  1  0.000000  0.500000  0.000000  1
  C  C13  1  0.500000  0.000000  0.000000  1
