# generated using pymatgen
data_Ca2LaPrIn2
_symmetry_space_group_name_H-M   'P 1'
_cell_length_a   5.57041100
_cell_length_b   5.57041074
_cell_length_c   6.97304000
_cell_angle_alpha   90.00000000
_cell_angle_beta   90.00000000
_cell_angle_gamma   119.99998374
_symmetry_Int_Tables_number   1
_chemical_formula_structural   Ca2LaPrIn2
_chemical_formula_sum   'Ca2 La1 Pr1 In2'
_cell_volume   187.38176206
_cell_formula_units_Z   1
loop_
 _symmetry_equiv_pos_site_id
 _symmetry_equiv_pos_as_xyz
  1  'x, y, z'
loop_
 _atom_site_type_symbol
 _atom_site_label
 _atom_site_symmetry_multiplicity
 _atom_site_fract_x
 _atom_site_fract_y
 _atom_site_fract_z
 _atom_site_occupancy
  Ca  Ca0  1  0.000000  0.000000  0.499241  1
  Ca  Ca1  1  0.000000  0.000000  0.000783  1
  La  La2  1  0.333333  0.666667  0.749962  1
  Pr  Pr3  1  0.666667  0.333333  0.250024  1
  In  In4  1  0.666667  0.333333  0.749975  1
  In  In5  1  0.333333  0.666667  0.250015  1
