# generated using pymatgen
data_Pr4Ga24IrPt
_symmetry_space_group_name_H-M   'P 1'
_cell_length_a   6.17007200
_cell_length_b   6.17007200
_cell_length_c   15.61616600
_cell_angle_alpha   90.00000000
_cell_angle_beta   90.00000000
_cell_angle_gamma   90.00000000
_symmetry_Int_Tables_number   1
_chemical_formula_structural   Pr4Ga24IrPt
_chemical_formula_sum   'Pr4 Ga24 Ir1 Pt1'
_cell_volume   594.50413657
_cell_formula_units_Z   1
loop_
 _symmetry_equiv_pos_site_id
 _symmetry_equiv_pos_as_xyz
  1  'x, y, z'
loop_
 _atom_site_type_symbol
 _atom_site_label
 _atom_site_symmetry_multiplicity
 _atom_site_fract_x
 _atom_site_fract_y
 _atom_site_fract_z
 _atom_site_occupancy
  Pr  Pr0  1  0.750000  0.250000  0.244640  1
  Pr  Pr1  1  0.250000  0.750000  0.243461  1
  Pr  Pr2  1  0.250000  0.750000  0.756539  1
  Pr  Pr3  1  0.750000  0.250000  0.755360  1
  Ga  Ga4  1  0.250000  0.250000  0.187597  1
  Ga  Ga5  1  0.750000  0.750000  0.187597  1
  Ga  Ga6  1  0.750000  0.750000  0.812403  1
  Ga  Ga7  1  0.250000  0.250000  0.812403  1
  Ga  Ga8  1  0.250000  0.250000  0.346364  1
  Ga  Ga9  1  0.750000  0.750000  0.346364  1
  Ga  Ga10  1  0.750000  0.750000  0.653636  1
  Ga  Ga11  1  0.250000  0.250000  0.653636  1
  Ga  Ga12  1  0.502379  0.002379  0.912133  1
  Ga  Ga13  1  0.997703  0.002297  0.912483  1
  Ga  Ga14  1  0.502297  0.497703  0.912483  1
  Ga  Ga15  1  0.997621  0.497621  0.912133  1
  Ga  Ga16  1  0.502297  0.002297  0.087517  1
  Ga  Ga17  1  0.997621  0.002379  0.087867  1
  Ga  Ga18  1  0.502379  0.497621  0.087867  1
  Ga  Ga19  1  0.997703  0.497703  0.087517  1
  Ga  Ga20  1  0.581401  0.081401  0.432179  1
  Ga  Ga21  1  0.082106  0.917894  0.431408  1
  Ga  Ga22  1  0.417894  0.582106  0.431408  1
  Ga  Ga23  1  0.918599  0.418599  0.432179  1
  Ga  Ga24  1  0.417894  0.917894  0.568592  1
  Ga  Ga25  1  0.918599  0.081401  0.567821  1
  Ga  Ga26  1  0.581401  0.418599  0.567821  1
  Ga  Ga27  1  0.082106  0.582106  0.568592  1
  Ir  Ir28  1  0.750000  0.250000  0.000000  1
  Pt  Pt29  1  0.250000  0.750000  0.000000  1
