# generated using pymatgen
data_Sr5Ca5(SnSb3)4
_symmetry_space_group_name_H-M   'P 1'
_cell_length_a   4.58822200
_cell_length_b   12.78584247
_cell_length_c   14.69731605
_cell_angle_alpha   90.15597955
_cell_angle_beta   90.00000000
_cell_angle_gamma   90.00000000
_symmetry_Int_Tables_number   1
_chemical_formula_structural   Sr5Ca5(SnSb3)4
_chemical_formula_sum   'Sr5 Ca5 Sn4 Sb12'
_cell_volume   862.20432372
_cell_formula_units_Z   1
loop_
 _symmetry_equiv_pos_site_id
 _symmetry_equiv_pos_as_xyz
  1  'x, y, z'
loop_
 _atom_site_type_symbol
 _atom_site_label
 _atom_site_symmetry_multiplicity
 _atom_site_fract_x
 _atom_site_fract_y
 _atom_site_fract_z
 _atom_site_occupancy
  Sr  Sr0  1  0.000000  0.862830  0.444032  1
  Sr  Sr1  1  0.000000  0.137170  0.555968  1
  Sr  Sr2  1  0.000000  0.366847  0.057678  1
  Sr  Sr3  1  0.000000  0.633153  0.942322  1
  Sr  Sr4  1  0.000000  0.000000  0.000000  1
  Ca  Ca5  1  0.000000  0.627375  0.262338  1
  Ca  Ca6  1  0.000000  0.372625  0.737662  1
  Ca  Ca7  1  0.000000  0.128173  0.240914  1
  Ca  Ca8  1  0.000000  0.871827  0.759086  1
  Ca  Ca9  1  0.000000  0.500000  0.500000  1
  Sn  Sn10  1  0.500000  0.785873  0.107285  1
  Sn  Sn11  1  0.500000  0.214127  0.892715  1
  Sn  Sn12  1  0.500000  0.287725  0.392702  1
  Sn  Sn13  1  0.500000  0.712275  0.607298  1
  Sb  Sb14  1  0.500000  0.561724  0.124376  1
  Sb  Sb15  1  0.500000  0.438276  0.875624  1
  Sb  Sb16  1  0.500000  0.062210  0.378774  1
  Sb  Sb17  1  0.500000  0.937790  0.621226  1
  Sb  Sb18  1  0.500000  0.659566  0.416140  1
  Sb  Sb19  1  0.500000  0.340434  0.583860  1
  Sb  Sb20  1  0.500000  0.170336  0.087271  1
  Sb  Sb21  1  0.500000  0.829664  0.912729  1
  Sb  Sb22  1  0.000000  0.874960  0.204273  1
  Sb  Sb23  1  0.000000  0.125040  0.795727  1
  Sb  Sb24  1  0.000000  0.376939  0.298837  1
  Sb  Sb25  1  0.000000  0.623061  0.701163  1
