# generated using pymatgen
data_Zr3ScTa3NbP4
_symmetry_space_group_name_H-M   'P 1'
_cell_length_a   3.56063100
_cell_length_b   6.93594562
_cell_length_c   8.33618305
_cell_angle_alpha   90.29902357
_cell_angle_beta   90.00000000
_cell_angle_gamma   90.00000000
_symmetry_Int_Tables_number   1
_chemical_formula_structural   Zr3ScTa3NbP4
_chemical_formula_sum   'Zr3 Sc1 Ta3 Nb1 P4'
_cell_volume   205.87043219
_cell_formula_units_Z   1
loop_
 _symmetry_equiv_pos_site_id
 _symmetry_equiv_pos_as_xyz
  1  'x, y, z'
loop_
 _atom_site_type_symbol
 _atom_site_label
 _atom_site_symmetry_multiplicity
 _atom_site_fract_x
 _atom_site_fract_y
 _atom_site_fract_z
 _atom_site_occupancy
  Zr  Zr0  1  0.750000  0.966019  0.330060  1
  Zr  Zr1  1  0.250000  0.033483  0.667126  1
  Zr  Zr2  1  0.750000  0.465495  0.167866  1
  Sc  Sc3  1  0.250000  0.533384  0.833818  1
  Ta  Ta4  1  0.250000  0.138471  0.059855  1
  Ta  Ta5  1  0.750000  0.861557  0.940466  1
  Ta  Ta6  1  0.250000  0.640266  0.439998  1
  Nb  Nb7  1  0.750000  0.361677  0.559381  1
  P  P8  1  0.750000  0.736660  0.644724  1
  P  P9  1  0.250000  0.761600  0.141076  1
  P  P10  1  0.750000  0.239169  0.857884  1
  P  P11  1  0.250000  0.262220  0.357748  1
