# generated using pymatgen
data_Tm9Lu11GaBi11
_symmetry_space_group_name_H-M   'P 1'
_cell_length_a   8.08286368
_cell_length_b   9.35546804
_cell_length_c   11.82554658
_cell_angle_alpha   89.99103858
_cell_angle_beta   89.73488217
_cell_angle_gamma   90.00609232
_symmetry_Int_Tables_number   1
_chemical_formula_structural   Tm9Lu11GaBi11
_chemical_formula_sum   'Tm9 Lu11 Ga1 Bi11'
_cell_volume   894.22609594
_cell_formula_units_Z   1
loop_
 _symmetry_equiv_pos_site_id
 _symmetry_equiv_pos_as_xyz
  1  'x, y, z'
loop_
 _atom_site_type_symbol
 _atom_site_label
 _atom_site_symmetry_multiplicity
 _atom_site_fract_x
 _atom_site_fract_y
 _atom_site_fract_z
 _atom_site_occupancy
  Tm  Tm0  1  0.355254  0.249966  0.293905  1
  Tm  Tm1  1  0.648120  0.750088  0.717037  1
  Tm  Tm2  1  0.147884  0.750189  0.782052  1
  Tm  Tm3  1  0.852985  0.250074  0.216320  1
  Tm  Tm4  1  0.193616  0.249908  0.777320  1
  Tm  Tm5  1  0.810010  0.750010  0.217638  1
  Tm  Tm6  1  0.312561  0.750123  0.281478  1
  Tm  Tm7  1  0.674020  0.250032  0.710195  1
  Tm  Tm8  1  0.309035  0.550553  0.558935  1
  Lu  Lu9  1  0.037623  0.249891  0.509883  1
  Lu  Lu10  1  0.978954  0.750018  0.490135  1
  Lu  Lu11  1  0.475644  0.750006  0.010678  1
  Lu  Lu12  1  0.525282  0.250013  0.989037  1
  Lu  Lu13  1  0.193884  0.066343  0.060703  1
  Lu  Lu14  1  0.806487  0.934017  0.940466  1
  Lu  Lu15  1  0.308723  0.949300  0.559411  1
  Lu  Lu16  1  0.806428  0.565975  0.940522  1
  Lu  Lu17  1  0.684519  0.073045  0.444954  1
  Lu  Lu18  1  0.193871  0.433657  0.060702  1
  Lu  Lu19  1  0.684544  0.426898  0.444948  1
  Ga  Ga20  1  0.407730  0.249289  0.539618  1
  Bi  Bi21  1  0.595178  0.750310  0.457507  1
  Bi  Bi22  1  0.095459  0.750000  0.042667  1
  Bi  Bi23  1  0.906636  0.249974  0.954142  1
  Bi  Bi24  1  0.062591  0.002484  0.324706  1
  Bi  Bi25  1  0.935100  0.998348  0.674749  1
  Bi  Bi26  1  0.435727  0.995978  0.825950  1
  Bi  Bi27  1  0.934967  0.501779  0.674800  1
  Bi  Bi28  1  0.564278  0.004596  0.174369  1
  Bi  Bi29  1  0.062776  0.497603  0.324792  1
  Bi  Bi30  1  0.564437  0.495420  0.174354  1
  Bi  Bi31  1  0.435677  0.504114  0.826024  1
