# generated using pymatgen
data_Tb2Y6Cd2IrPt
_symmetry_space_group_name_H-M   'P 1'
_cell_length_a   9.69286902
_cell_length_b   9.69286822
_cell_length_c   9.66174300
_cell_angle_alpha   60.10617056
_cell_angle_beta   60.10617328
_cell_angle_gamma   60.30985181
_symmetry_Int_Tables_number   1
_chemical_formula_structural   Tb2Y6Cd2IrPt
_chemical_formula_sum   'Tb4 Y12 Cd4 Ir2 Pt2'
_cell_volume   644.39205246
_cell_formula_units_Z   2
loop_
 _symmetry_equiv_pos_site_id
 _symmetry_equiv_pos_as_xyz
  1  'x, y, z'
loop_
 _atom_site_type_symbol
 _atom_site_label
 _atom_site_symmetry_multiplicity
 _atom_site_fract_x
 _atom_site_fract_y
 _atom_site_fract_z
 _atom_site_occupancy
  Tb  Tb0  1  0.350597  0.350597  0.346537  1
  Tb  Tb1  1  0.350597  0.350597  0.952269  1
  Tb  Tb2  1  0.355715  0.944178  0.350053  1
  Tb  Tb3  1  0.944178  0.355715  0.350053  1
  Y  Y4  1  0.806501  0.190311  0.190261  1
  Y  Y5  1  0.190311  0.806501  0.812928  1
  Y  Y6  1  0.190311  0.806501  0.190261  1
  Y  Y7  1  0.806501  0.190311  0.812928  1
  Y  Y8  1  0.191340  0.191340  0.808660  1
  Y  Y9  1  0.811265  0.811265  0.188735  1
  Y  Y10  1  0.937698  0.564968  0.561457  1
  Y  Y11  1  0.564968  0.937698  0.935878  1
  Y  Y12  1  0.564968  0.937698  0.561457  1
  Y  Y13  1  0.937698  0.564968  0.935878  1
  Y  Y14  1  0.563634  0.563634  0.936366  1
  Y  Y15  1  0.937252  0.937252  0.562748  1
  Cd  Cd16  1  0.581130  0.581130  0.582127  1
  Cd  Cd17  1  0.581130  0.581130  0.255616  1
  Cd  Cd18  1  0.580436  0.256197  0.581684  1
  Cd  Cd19  1  0.256197  0.580436  0.581684  1
  Ir  Ir20  1  0.141446  0.572093  0.143230  1
  Ir  Ir21  1  0.572093  0.141446  0.143230  1
  Pt  Pt22  1  0.142019  0.142019  0.144887  1
  Pt  Pt23  1  0.142019  0.142019  0.571074  1
