# generated using pymatgen
data_YEr3(TmRh9)2
_symmetry_space_group_name_H-M   'P 1'
_cell_length_a   5.24940800
_cell_length_b   5.24940864
_cell_length_c   17.51223700
_cell_angle_alpha   90.00000000
_cell_angle_beta   90.00000000
_cell_angle_gamma   119.99998336
_symmetry_Int_Tables_number   1
_chemical_formula_structural   YEr3(TmRh9)2
_chemical_formula_sum   'Y1 Er3 Tm2 Rh18'
_cell_volume   417.91989019
_cell_formula_units_Z   1
loop_
 _symmetry_equiv_pos_site_id
 _symmetry_equiv_pos_as_xyz
  1  'x, y, z'
loop_
 _atom_site_type_symbol
 _atom_site_label
 _atom_site_symmetry_multiplicity
 _atom_site_fract_x
 _atom_site_fract_y
 _atom_site_fract_z
 _atom_site_occupancy
  Y  Y0  1  0.666667  0.333333  0.250054  1
  Er  Er1  1  0.333333  0.666667  0.958041  1
  Er  Er2  1  0.666667  0.333333  0.041630  1
  Er  Er3  1  0.333333  0.666667  0.749976  1
  Tm  Tm4  1  0.666667  0.333333  0.458421  1
  Tm  Tm5  1  0.333333  0.666667  0.541897  1
  Rh  Rh6  1  0.167567  0.832433  0.375264  1
  Rh  Rh7  1  0.167567  0.335134  0.375264  1
  Rh  Rh8  1  0.664866  0.832433  0.375264  1
  Rh  Rh9  1  0.832380  0.167620  0.625061  1
  Rh  Rh10  1  0.832380  0.664759  0.625061  1
  Rh  Rh11  1  0.335241  0.167620  0.625061  1
  Rh  Rh12  1  0.832406  0.167594  0.874718  1
  Rh  Rh13  1  0.832406  0.664810  0.874718  1
  Rh  Rh14  1  0.335190  0.167594  0.874718  1
  Rh  Rh15  1  0.167549  0.832451  0.124950  1
  Rh  Rh16  1  0.167549  0.335097  0.124950  1
  Rh  Rh17  1  0.664903  0.832451  0.124950  1
  Rh  Rh18  1  0.333333  0.666667  0.250005  1
  Rh  Rh19  1  0.666667  0.333333  0.750008  1
  Rh  Rh20  1  0.000000  0.000000  0.250021  1
  Rh  Rh21  1  0.000000  0.000000  0.749991  1
  Rh  Rh22  1  0.000000  0.000000  0.500137  1
  Rh  Rh23  1  0.000000  0.000000  0.999841  1
