# generated using pymatgen
data_Ta9Nb3Cr4(Co2N)4
_symmetry_space_group_name_H-M   'P 1'
_cell_length_a   7.99396126
_cell_length_b   7.99023746
_cell_length_c   7.99492672
_cell_angle_alpha   60.01534128
_cell_angle_beta   60.03979639
_cell_angle_gamma   60.02167399
_symmetry_Int_Tables_number   1
_chemical_formula_structural   Ta9Nb3Cr4(Co2N)4
_chemical_formula_sum   'Ta9 Nb3 Cr4 Co8 N4'
_cell_volume   361.30433169
_cell_formula_units_Z   1
loop_
 _symmetry_equiv_pos_site_id
 _symmetry_equiv_pos_as_xyz
  1  'x, y, z'
loop_
 _atom_site_type_symbol
 _atom_site_label
 _atom_site_symmetry_multiplicity
 _atom_site_fract_x
 _atom_site_fract_y
 _atom_site_fract_z
 _atom_site_occupancy
  Ta  Ta0  1  0.196539  0.803440  0.196576  1
  Ta  Ta1  1  0.196248  0.803797  0.803813  1
  Ta  Ta2  1  0.803846  0.196143  0.196203  1
  Ta  Ta3  1  0.447972  0.446981  0.052263  1
  Ta  Ta4  1  0.052254  0.052781  0.447952  1
  Ta  Ta5  1  0.446840  0.053153  0.446807  1
  Ta  Ta6  1  0.053790  0.446151  0.053886  1
  Ta  Ta7  1  0.054581  0.444573  0.445728  1
  Ta  Ta8  1  0.445724  0.055080  0.054660  1
  Nb  Nb9  1  0.803319  0.803312  0.196968  1
  Nb  Nb10  1  0.196934  0.196484  0.803268  1
  Nb  Nb11  1  0.803780  0.196278  0.803745  1
  Cr  Cr12  1  0.123977  0.626109  0.624988  1
  Cr  Cr13  1  0.625205  0.124889  0.624544  1
  Cr  Cr14  1  0.624972  0.624858  0.124196  1
  Cr  Cr15  1  0.624699  0.625433  0.624938  1
  Co  Co16  1  0.728103  0.423538  0.423026  1
  Co  Co17  1  0.422587  0.728931  0.423591  1
  Co  Co18  1  0.423117  0.425366  0.727868  1
  Co  Co19  1  0.423565  0.424829  0.422642  1
  Co  Co20  1  0.521632  0.825681  0.826420  1
  Co  Co21  1  0.825820  0.522608  0.826165  1
  Co  Co22  1  0.826327  0.826212  0.521814  1
  Co  Co23  1  0.826110  0.825422  0.825903  1
  N  N24  1  0.622883  0.126569  0.127010  1
  N  N25  1  0.127474  0.623576  0.124679  1
  N  N26  1  0.127030  0.123540  0.622869  1
  N  N27  1  0.124673  0.124266  0.127475  1
