# generated using pymatgen
data_Ce3Sc(Be4Ru5)2
_symmetry_space_group_name_H-M   'P 1'
_cell_length_a   3.27262200
_cell_length_b   8.77352048
_cell_length_c   10.40463263
_cell_angle_alpha   90.07519082
_cell_angle_beta   90.00000000
_cell_angle_gamma   90.00000000
_symmetry_Int_Tables_number   1
_chemical_formula_structural   Ce3Sc(Be4Ru5)2
_chemical_formula_sum   'Ce3 Sc1 Be8 Ru10'
_cell_volume   298.74188472
_cell_formula_units_Z   1
loop_
 _symmetry_equiv_pos_site_id
 _symmetry_equiv_pos_as_xyz
  1  'x, y, z'
loop_
 _atom_site_type_symbol
 _atom_site_label
 _atom_site_symmetry_multiplicity
 _atom_site_fract_x
 _atom_site_fract_y
 _atom_site_fract_z
 _atom_site_occupancy
  Ce  Ce0  1  0.500000  0.844345  0.181920  1
  Ce  Ce1  1  0.500000  0.156680  0.821106  1
  Ce  Ce2  1  0.500000  0.653679  0.676575  1
  Sc  Sc3  1  0.500000  0.345679  0.318144  1
  Be  Be4  1  0.500000  0.965763  0.589878  1
  Be  Be5  1  0.500000  0.043956  0.407181  1
  Be  Be6  1  0.500000  0.837482  0.904352  1
  Be  Be7  1  0.500000  0.165408  0.103384  1
  Be  Be8  1  0.500000  0.656445  0.402587  1
  Be  Be9  1  0.500000  0.338138  0.587870  1
  Be  Be10  1  0.500000  0.465403  0.909942  1
  Be  Be11  1  0.500000  0.530525  0.096912  1
  Ru  Ru12  1  0.000000  0.655902  0.955035  1
  Ru  Ru13  1  0.000000  0.343734  0.048181  1
  Ru  Ru14  1  0.000000  0.843939  0.453398  1
  Ru  Ru15  1  0.000000  0.157236  0.544303  1
  Ru  Ru16  1  0.000000  0.001430  0.999603  1
  Ru  Ru17  1  0.000000  0.395915  0.758315  1
  Ru  Ru18  1  0.000000  0.599553  0.243787  1
  Ru  Ru19  1  0.000000  0.498216  0.497195  1
  Ru  Ru20  1  0.000000  0.896959  0.740695  1
  Ru  Ru21  1  0.000000  0.103612  0.259636  1
