# generated using pymatgen
data_Zn3Co2Si
_symmetry_space_group_name_H-M   'P 1'
_cell_length_a   7.55609800
_cell_length_b   7.55609790
_cell_length_c   7.55609800
_cell_angle_alpha   120.00000042
_cell_angle_beta   90.00000000
_cell_angle_gamma   120.00000042
_symmetry_Int_Tables_number   1
_chemical_formula_structural   Zn3Co2Si
_chemical_formula_sum   'Zn12 Co8 Si4'
_cell_volume   305.05471153
_cell_formula_units_Z   4
loop_
 _symmetry_equiv_pos_site_id
 _symmetry_equiv_pos_as_xyz
  1  'x, y, z'
loop_
 _atom_site_type_symbol
 _atom_site_label
 _atom_site_symmetry_multiplicity
 _atom_site_fract_x
 _atom_site_fract_y
 _atom_site_fract_z
 _atom_site_occupancy
  Zn  Zn0  1  0.562595  0.500001  0.062594  1
  Zn  Zn1  1  0.562595  0.125188  0.062594  1
  Zn  Zn2  1  0.937407  0.500001  0.062595  1
  Zn  Zn3  1  0.187406  0.000000  0.187406  1
  Zn  Zn4  1  0.812594  0.000000  0.187406  1
  Zn  Zn5  1  0.187406  0.374813  0.187406  1
  Zn  Zn6  1  0.937407  0.500001  0.437406  1
  Zn  Zn7  1  0.937407  0.874811  0.437406  1
  Zn  Zn8  1  0.562595  0.500001  0.437407  1
  Zn  Zn9  1  0.187406  0.000000  0.812594  1
  Zn  Zn10  1  0.812594  0.625187  0.812594  1
  Zn  Zn11  1  0.812594  0.000000  0.812594  1
  Co  Co12  1  0.584637  0.169274  0.415363  1
  Co  Co13  1  0.246090  0.830726  0.415363  1
  Co  Co14  1  0.584637  0.830726  0.415363  1
  Co  Co15  1  0.165363  0.330725  0.496088  1
  Co  Co16  1  0.584637  0.169274  0.753910  1
  Co  Co17  1  0.165363  0.330725  0.834637  1
  Co  Co18  1  0.165363  0.669274  0.834637  1
  Co  Co19  1  0.503912  0.669274  0.834637  1
  Si  Si20  1  0.375000  0.749999  0.124999  1
  Si  Si21  1  0.375000  0.250000  0.625000  1
  Si  Si22  1  0.875001  0.250000  0.625000  1
  Si  Si23  1  0.375000  0.749999  0.625000  1
