# generated using pymatgen
data_La2LuUO7
_symmetry_space_group_name_H-M   'P 1'
_cell_length_a   7.81270063
_cell_length_b   7.81270044
_cell_length_c   7.76951300
_cell_angle_alpha   60.18268776
_cell_angle_beta   60.18268855
_cell_angle_gamma   60.81268551
_symmetry_Int_Tables_number   1
_chemical_formula_structural   La2LuUO7
_chemical_formula_sum   'La4 Lu2 U2 O14'
_cell_volume   338.28778015
_cell_formula_units_Z   2
loop_
 _symmetry_equiv_pos_site_id
 _symmetry_equiv_pos_as_xyz
  1  'x, y, z'
loop_
 _atom_site_type_symbol
 _atom_site_label
 _atom_site_symmetry_multiplicity
 _atom_site_fract_x
 _atom_site_fract_y
 _atom_site_fract_z
 _atom_site_occupancy
  La  La0  1  0.625000  0.125000  0.125000  1
  La  La1  1  0.125000  0.125000  0.125000  1
  La  La2  1  0.125000  0.625000  0.125000  1
  La  La3  1  0.125000  0.125000  0.625000  1
  Lu  Lu4  1  0.625000  0.625000  0.125000  1
  Lu  Lu5  1  0.625000  0.625000  0.625000  1
  U  U6  1  0.625000  0.125000  0.625000  1
  U  U7  1  0.125000  0.625000  0.625000  1
  O  O8  1  0.717156  0.281566  0.294323  1
  O  O9  1  0.721315  0.721315  0.278685  1
  O  O10  1  0.281566  0.717156  0.294323  1
  O  O11  1  0.002630  0.002630  0.997370  1
  O  O12  1  0.717156  0.281566  0.706955  1
  O  O13  1  0.968434  0.532844  0.543045  1
  O  O14  1  0.281566  0.717156  0.706955  1
  O  O15  1  0.532844  0.968434  0.543045  1
  O  O16  1  0.247370  0.247370  0.252630  1
  O  O17  1  0.968434  0.532844  0.955677  1
  O  O18  1  0.528685  0.528685  0.971315  1
  O  O19  1  0.962548  0.962548  0.537452  1
  O  O20  1  0.532844  0.968434  0.955677  1
  O  O21  1  0.287452  0.287452  0.712548  1
