# generated using pymatgen
data_Li7Tb8CdSn8
_symmetry_space_group_name_H-M   'P 1'
_cell_length_a   9.47567300
_cell_length_b   9.46466249
_cell_length_c   7.33245421
_cell_angle_alpha   90.08902767
_cell_angle_beta   90.00000000
_cell_angle_gamma   120.03849356
_symmetry_Int_Tables_number   1
_chemical_formula_structural   Li7Tb8CdSn8
_chemical_formula_sum   'Li7 Tb8 Cd1 Sn8'
_cell_volume   569.27996587
_cell_formula_units_Z   1
loop_
 _symmetry_equiv_pos_site_id
 _symmetry_equiv_pos_as_xyz
  1  'x, y, z'
loop_
 _atom_site_type_symbol
 _atom_site_label
 _atom_site_symmetry_multiplicity
 _atom_site_fract_x
 _atom_site_fract_y
 _atom_site_fract_z
 _atom_site_occupancy
  Li  Li0  1  0.164296  0.832202  0.289955  1
  Li  Li1  1  0.667906  0.832202  0.289955  1
  Li  Li2  1  0.833158  0.666317  0.791123  1
  Li  Li3  1  0.831838  0.165977  0.788707  1
  Li  Li4  1  0.334138  0.165977  0.788707  1
  Li  Li5  1  0.333334  0.666670  0.674910  1
  Li  Li6  1  0.668897  0.337795  0.172019  1
  Tb  Tb7  1  0.511529  0.023057  0.497299  1
  Tb  Tb8  1  0.516408  0.489985  0.494863  1
  Tb  Tb9  1  0.973578  0.489985  0.494863  1
  Tb  Tb10  1  0.488635  0.977270  0.988780  1
  Tb  Tb11  1  0.488551  0.512189  0.992601  1
  Tb  Tb12  1  0.023639  0.512189  0.992601  1
  Tb  Tb13  1  0.996865  0.993730  0.502675  1
  Tb  Tb14  1  0.000583  0.001168  0.999515  1
  Cd  Cd15  1  0.166594  0.333187  0.296857  1
  Sn  Sn16  1  0.166127  0.332252  0.735065  1
  Sn  Sn17  1  0.165832  0.832265  0.728372  1
  Sn  Sn18  1  0.666432  0.832265  0.728372  1
  Sn  Sn19  1  0.833770  0.667538  0.230073  1
  Sn  Sn20  1  0.822673  0.161737  0.224349  1
  Sn  Sn21  1  0.339064  0.161737  0.224349  1
  Sn  Sn22  1  0.339217  0.678434  0.255877  1
  Sn  Sn23  1  0.666938  0.333876  0.760103  1
