# generated using pymatgen
data_Ho5Co2O11F
_symmetry_space_group_name_H-M   'P 1'
_cell_length_a   6.66031176
_cell_length_b   6.71698841
_cell_length_c   7.13461200
_cell_angle_alpha   74.82786529
_cell_angle_beta   74.65380314
_cell_angle_gamma   50.27185182
_symmetry_Int_Tables_number   1
_chemical_formula_structural   Ho5Co2O11F
_chemical_formula_sum   'Ho5 Co2 O11 F1'
_cell_volume   234.87507888
_cell_formula_units_Z   1
loop_
 _symmetry_equiv_pos_site_id
 _symmetry_equiv_pos_as_xyz
  1  'x, y, z'
loop_
 _atom_site_type_symbol
 _atom_site_label
 _atom_site_symmetry_multiplicity
 _atom_site_fract_x
 _atom_site_fract_y
 _atom_site_fract_z
 _atom_site_occupancy
  Ho  Ho0  1  0.320606  0.293575  0.345272  1
  Ho  Ho1  1  0.672551  0.701485  0.649871  1
  Ho  Ho2  1  0.694933  0.690122  0.159372  1
  Ho  Ho3  1  0.315903  0.292251  0.849965  1
  Ho  Ho4  1  0.984600  0.033337  0.495951  1
  Co  Co5  1  0.759689  0.242621  0.998168  1
  Co  Co6  1  0.243827  0.752388  0.001490  1
  O  O7  1  0.998493  0.001309  0.178198  1
  O  O8  1  0.397870  0.903002  0.422346  1
  O  O9  1  0.504439  0.495361  0.178890  1
  O  O10  1  0.098445  0.577954  0.082275  1
  O  O11  1  0.907185  0.409164  0.428889  1
  O  O12  1  0.002572  0.995003  0.823049  1
  O  O13  1  0.592437  0.098668  0.577440  1
  O  O14  1  0.498409  0.497704  0.820154  1
  O  O15  1  0.583782  0.092538  0.080725  1
  O  O16  1  0.418736  0.899170  0.923064  1
  O  O17  1  0.906862  0.418450  0.910662  1
  F  F18  1  0.098662  0.605898  0.574221  1
