# generated using pymatgen
data_Ca4CoSb4Pt3
_symmetry_space_group_name_H-M   'P 1'
_cell_length_a   4.58307200
_cell_length_b   7.40528466
_cell_length_c   7.85926371
_cell_angle_alpha   90.49808168
_cell_angle_beta   90.00000000
_cell_angle_gamma   90.00000000
_symmetry_Int_Tables_number   1
_chemical_formula_structural   Ca4CoSb4Pt3
_chemical_formula_sum   'Ca4 Co1 Sb4 Pt3'
_cell_volume   266.72510144
_cell_formula_units_Z   1
loop_
 _symmetry_equiv_pos_site_id
 _symmetry_equiv_pos_as_xyz
  1  'x, y, z'
loop_
 _atom_site_type_symbol
 _atom_site_label
 _atom_site_symmetry_multiplicity
 _atom_site_fract_x
 _atom_site_fract_y
 _atom_site_fract_z
 _atom_site_occupancy
  Ca  Ca0  1  0.750000  0.992714  0.692709  1
  Ca  Ca1  1  0.250000  0.002868  0.303518  1
  Ca  Ca2  1  0.750000  0.481487  0.800669  1
  Ca  Ca3  1  0.250000  0.512720  0.197996  1
  Co  Co4  1  0.250000  0.817533  0.916445  1
  Sb  Sb5  1  0.750000  0.317389  0.409300  1
  Sb  Sb6  1  0.250000  0.170966  0.910614  1
  Sb  Sb7  1  0.250000  0.696007  0.608361  1
  Sb  Sb8  1  0.750000  0.807472  0.074296  1
  Pt  Pt9  1  0.250000  0.300549  0.587885  1
  Pt  Pt10  1  0.750000  0.699364  0.412330  1
  Pt  Pt11  1  0.750000  0.200932  0.085877  1
