# generated using pymatgen
data_La5TbZn4Pt13
_symmetry_space_group_name_H-M   'P 1'
_cell_length_a   8.44420674
_cell_length_b   8.44420741
_cell_length_c   8.44420804
_cell_angle_alpha   109.58644001
_cell_angle_beta   109.58644899
_cell_angle_gamma   109.24102619
_symmetry_Int_Tables_number   1
_chemical_formula_structural   La5TbZn4Pt13
_chemical_formula_sum   'La5 Tb1 Zn4 Pt13'
_cell_volume   463.49972779
_cell_formula_units_Z   1
loop_
 _symmetry_equiv_pos_site_id
 _symmetry_equiv_pos_as_xyz
  1  'x, y, z'
loop_
 _atom_site_type_symbol
 _atom_site_label
 _atom_site_symmetry_multiplicity
 _atom_site_fract_x
 _atom_site_fract_y
 _atom_site_fract_z
 _atom_site_occupancy
  La  La0  1  0.300952  0.999442  0.301510  1
  La  La1  1  0.999442  0.300952  0.301510  1
  La  La2  1  0.302833  0.302833  0.000000  1
  La  La3  1  0.697932  0.999442  0.698490  1
  La  La4  1  0.999442  0.697932  0.698490  1
  Tb  Tb5  1  0.693941  0.693941  0.000000  1
  Zn  Zn6  1  0.000062  0.000062  0.498458  1
  Zn  Zn7  1  0.000062  0.501604  0.000000  1
  Zn  Zn8  1  0.501604  0.000062  0.000000  1
  Zn  Zn9  1  0.501604  0.501604  0.501542  1
  Pt  Pt10  1  0.332075  0.332075  0.661363  1
  Pt  Pt11  1  0.672679  0.998492  0.325813  1
  Pt  Pt12  1  0.998492  0.672679  0.325813  1
  Pt  Pt13  1  0.670713  0.332075  0.000000  1
  Pt  Pt14  1  0.327993  0.656633  0.328640  1
  Pt  Pt15  1  0.999353  0.327993  0.671360  1
  Pt  Pt16  1  0.332075  0.670713  0.000000  1
  Pt  Pt17  1  0.327993  0.999353  0.671360  1
  Pt  Pt18  1  0.656633  0.327993  0.328640  1
  Pt  Pt19  1  0.670713  0.670713  0.338637  1
  Pt  Pt20  1  0.672679  0.346865  0.674187  1
  Pt  Pt21  1  0.346865  0.672679  0.674187  1
  Pt  Pt22  1  0.993867  0.993867  0.000000  1
