# generated using pymatgen
data_Ti2Nb8Si5Ge
_symmetry_space_group_name_H-M   'P 1'
_cell_length_a   7.58498364
_cell_length_b   7.58498410
_cell_length_c   7.59644463
_cell_angle_alpha   128.73132316
_cell_angle_beta   128.73132054
_cell_angle_gamma   75.33133040
_symmetry_Int_Tables_number   1
_chemical_formula_structural   Ti2Nb8Si5Ge
_chemical_formula_sum   'Ti2 Nb8 Si5 Ge1'
_cell_volume   259.00208830
_cell_formula_units_Z   1
loop_
 _symmetry_equiv_pos_site_id
 _symmetry_equiv_pos_as_xyz
  1  'x, y, z'
loop_
 _atom_site_type_symbol
 _atom_site_label
 _atom_site_symmetry_multiplicity
 _atom_site_fract_x
 _atom_site_fract_y
 _atom_site_fract_z
 _atom_site_occupancy
  Ti  Ti0  1  0.502274  0.499294  0.001568  1
  Ti  Ti1  1  0.999294  0.002274  0.001568  1
  Nb  Nb2  1  0.015693  0.181306  0.496043  1
  Nb  Nb3  1  0.518763  0.018763  0.833690  1
  Nb  Nb4  1  0.185966  0.685966  0.173143  1
  Nb  Nb5  1  0.487178  0.987178  0.173143  1
  Nb  Nb6  1  0.681306  0.515693  0.496043  1
  Nb  Nb7  1  0.980349  0.814737  0.496043  1
  Nb  Nb8  1  0.314737  0.480349  0.496043  1
  Nb  Nb9  1  0.814926  0.314926  0.833690  1
  Si  Si10  1  0.630606  0.869364  0.499970  1
  Si  Si11  1  0.369364  0.130606  0.499970  1
  Si  Si12  1  0.867680  0.367680  0.235358  1
  Si  Si13  1  0.749292  0.749292  0.998584  1
  Si  Si14  1  0.249292  0.249292  0.998584  1
  Ge  Ge15  1  0.133281  0.633281  0.766563  1
