# generated using pymatgen
data_Tb11Dy9(Ir3Pt)3
_symmetry_space_group_name_H-M   'P 1'
_cell_length_a   10.99920278
_cell_length_b   10.99779229
_cell_length_c   6.35739602
_cell_angle_alpha   89.97816822
_cell_angle_beta   89.98460921
_cell_angle_gamma   90.19589865
_symmetry_Int_Tables_number   1
_chemical_formula_structural   Tb11Dy9(Ir3Pt)3
_chemical_formula_sum   'Tb11 Dy9 Ir9 Pt3'
_cell_volume   769.03021234
_cell_formula_units_Z   1
loop_
 _symmetry_equiv_pos_site_id
 _symmetry_equiv_pos_as_xyz
  1  'x, y, z'
loop_
 _atom_site_type_symbol
 _atom_site_label
 _atom_site_symmetry_multiplicity
 _atom_site_fract_x
 _atom_site_fract_y
 _atom_site_fract_z
 _atom_site_occupancy
  Tb  Tb0  1  0.293522  0.087323  0.372718  1
  Tb  Tb1  1  0.292807  0.908264  0.877732  1
  Tb  Tb2  1  0.705478  0.090330  0.874530  1
  Tb  Tb3  1  0.704675  0.909473  0.374128  1
  Tb  Tb4  1  0.585643  0.790912  0.879081  1
  Tb  Tb5  1  0.585940  0.209059  0.379178  1
  Tb  Tb6  1  0.410498  0.791184  0.378917  1
  Tb  Tb7  1  0.413816  0.209133  0.879068  1
  Tb  Tb8  1  0.208867  0.414443  0.620876  1
  Tb  Tb9  1  0.208643  0.589479  0.121128  1
  Tb  Tb10  1  0.791120  0.414173  0.120841  1
  Dy  Dy11  1  0.791226  0.586074  0.620787  1
  Dy  Dy12  1  0.912810  0.706195  0.127049  1
  Dy  Dy13  1  0.909790  0.294863  0.625251  1
  Dy  Dy14  1  0.091476  0.706948  0.622002  1
  Dy  Dy15  1  0.090331  0.295585  0.125664  1
  Dy  Dy16  1  0.001199  0.998086  0.499569  1
  Dy  Dy17  1  0.001895  0.998801  0.000519  1
  Dy  Dy18  1  0.499777  0.499930  0.000399  1
  Dy  Dy19  1  0.500197  0.500296  0.499662  1
  Ir  Ir20  1  0.151806  0.847753  0.250230  1
  Ir  Ir21  1  0.654528  0.345837  0.749859  1
  Ir  Ir22  1  0.654978  0.654176  0.249853  1
  Ir  Ir23  1  0.345556  0.345310  0.250338  1
  Ir  Ir24  1  0.346409  0.653402  0.749956  1
  Ir  Ir25  1  0.500506  0.000076  0.123718  1
  Ir  Ir26  1  0.500274  0.000298  0.624863  1
  Ir  Ir27  1  0.999556  0.499772  0.874966  1
  Ir  Ir28  1  0.999773  0.499575  0.376400  1
  Pt  Pt29  1  0.847384  0.153003  0.250263  1
  Pt  Pt30  1  0.846111  0.846011  0.750111  1
  Pt  Pt31  1  0.153407  0.154238  0.750343  1
