# generated using pymatgen
data_Sc8Co16As11P
_symmetry_space_group_name_H-M   'P 1'
_cell_length_a   12.53830675
_cell_length_b   12.53830598
_cell_length_c   3.74978700
_cell_angle_alpha   90.00000000
_cell_angle_beta   90.00000000
_cell_angle_gamma   120.04651007
_symmetry_Int_Tables_number   1
_chemical_formula_structural   Sc8Co16As11P
_chemical_formula_sum   'Sc8 Co16 As11 P1'
_cell_volume   510.28318244
_cell_formula_units_Z   1
loop_
 _symmetry_equiv_pos_site_id
 _symmetry_equiv_pos_as_xyz
  1  'x, y, z'
loop_
 _atom_site_type_symbol
 _atom_site_label
 _atom_site_symmetry_multiplicity
 _atom_site_fract_x
 _atom_site_fract_y
 _atom_site_fract_z
 _atom_site_occupancy
  Sc  Sc0  1  0.441411  0.441411  0.000000  1
  Sc  Sc1  1  0.556624  0.999613  0.000000  1
  Sc  Sc2  1  0.999613  0.556624  0.000000  1
  Sc  Sc3  1  0.666183  0.333791  0.000000  1
  Sc  Sc4  1  0.333791  0.666183  0.000000  1
  Sc  Sc5  1  0.816955  0.816955  0.500000  1
  Sc  Sc6  1  0.182241  0.006096  0.500000  1
  Sc  Sc7  1  0.006096  0.182241  0.500000  1
  Co  Co8  1  0.194538  0.365957  0.000000  1
  Co  Co9  1  0.176444  0.803755  0.000000  1
  Co  Co10  1  0.823820  0.628711  0.000000  1
  Co  Co11  1  0.803755  0.176444  0.000000  1
  Co  Co12  1  0.365957  0.194538  0.000000  1
  Co  Co13  1  0.124088  0.477425  0.500000  1
  Co  Co14  1  0.354744  0.876490  0.500000  1
  Co  Co15  1  0.520471  0.644411  0.500000  1
  Co  Co16  1  0.644411  0.520471  0.500000  1
  Co  Co17  1  0.876490  0.354744  0.500000  1
  Co  Co18  1  0.477425  0.124088  0.500000  1
  Co  Co19  1  0.009642  0.009642  0.000000  1
  Co  Co20  1  0.720596  0.000295  0.500000  1
  Co  Co21  1  0.000295  0.720596  0.500000  1
  Co  Co22  1  0.628711  0.823820  0.000000  1
  Co  Co23  1  0.272870  0.272870  0.500000  1
  As  As24  1  0.650976  0.650976  0.000000  1
  As  As25  1  0.347310  0.000146  0.000000  1
  As  As26  1  0.000146  0.347310  0.000000  1
  As  As27  1  0.483789  0.310823  0.500000  1
  As  As28  1  0.687718  0.174058  0.500000  1
  As  As29  1  0.826023  0.514328  0.500000  1
  As  As30  1  0.514328  0.826023  0.500000  1
  As  As31  1  0.174058  0.687718  0.500000  1
  As  As32  1  0.827264  0.001051  0.000000  1
  As  As33  1  0.001051  0.827264  0.000000  1
  As  As34  1  0.310823  0.483789  0.500000  1
  P  P35  1  0.179341  0.179341  0.000000  1
