# generated using pymatgen
data_Mn3Be3W6C
_symmetry_space_group_name_H-M   'P 1'
_cell_length_a   7.64292282
_cell_length_b   7.62836877
_cell_length_c   7.62836792
_cell_angle_alpha   60.29802798
_cell_angle_beta   59.93686348
_cell_angle_gamma   59.93686363
_symmetry_Int_Tables_number   1
_chemical_formula_structural   Mn3Be3W6C
_chemical_formula_sum   'Mn6 Be6 W12 C2'
_cell_volume   314.89041102
_cell_formula_units_Z   2
loop_
 _symmetry_equiv_pos_site_id
 _symmetry_equiv_pos_as_xyz
  1  'x, y, z'
loop_
 _atom_site_type_symbol
 _atom_site_label
 _atom_site_symmetry_multiplicity
 _atom_site_fract_x
 _atom_site_fract_y
 _atom_site_fract_z
 _atom_site_occupancy
  Mn  Mn0  1  0.121978  0.628913  0.127130  1
  Mn  Mn1  1  0.121978  0.127130  0.628913  1
  Mn  Mn2  1  0.625833  0.125478  0.125478  1
  Mn  Mn3  1  0.123210  0.125478  0.125478  1
  Mn  Mn4  1  0.929747  0.917417  0.223090  1
  Mn  Mn5  1  0.929747  0.223090  0.917417  1
  Be  Be6  1  0.329906  0.333571  0.006616  1
  Be  Be7  1  0.327235  0.332155  0.332155  1
  Be  Be8  1  0.249336  0.916567  0.916567  1
  Be  Be9  1  0.917530  0.916567  0.916567  1
  Be  Be10  1  0.008453  0.332155  0.332155  1
  Be  Be11  1  0.329906  0.006616  0.333571  1
  W  W12  1  0.297646  0.702354  0.702354  1
  W  W13  1  0.697378  0.698134  0.300416  1
  W  W14  1  0.697378  0.300416  0.698134  1
  W  W15  1  0.304073  0.698134  0.300416  1
  W  W16  1  0.546604  0.952228  0.550475  1
  W  W17  1  0.546283  0.953717  0.953717  1
  W  W18  1  0.950410  0.549590  0.549590  1
  W  W19  1  0.950693  0.550475  0.952228  1
  W  W20  1  0.304073  0.300416  0.698134  1
  W  W21  1  0.546604  0.550475  0.952228  1
  W  W22  1  0.950693  0.952228  0.550475  1
  W  W23  1  0.696339  0.303661  0.303661  1
  C  C24  1  0.497617  0.502383  0.502383  1
  C  C25  1  0.749351  0.750649  0.750649  1
