# generated using pymatgen
data_Ac11PrAu12
_symmetry_space_group_name_H-M   'P 1'
_cell_length_a   4.99177600
_cell_length_b   12.60421400
_cell_length_c   11.70811600
_cell_angle_alpha   90.00195529
_cell_angle_beta   90.00007848
_cell_angle_gamma   90.00003227
_symmetry_Int_Tables_number   1
_chemical_formula_structural   Ac11PrAu12
_chemical_formula_sum   'Ac11 Pr1 Au12'
_cell_volume   736.64436897
_cell_formula_units_Z   1
loop_
 _symmetry_equiv_pos_site_id
 _symmetry_equiv_pos_as_xyz
  1  'x, y, z'
loop_
 _atom_site_type_symbol
 _atom_site_label
 _atom_site_symmetry_multiplicity
 _atom_site_fract_x
 _atom_site_fract_y
 _atom_site_fract_z
 _atom_site_occupancy
  Ac  Ac0  1  0.250001  0.663943  0.862188  1
  Ac  Ac1  1  0.249998  0.831843  0.365546  1
  Ac  Ac2  1  0.750001  0.334212  0.136434  1
  Ac  Ac3  1  0.749999  0.168933  0.635941  1
  Ac  Ac4  1  0.250000  0.335843  0.863303  1
  Ac  Ac5  1  0.249998  0.168314  0.366634  1
  Ac  Ac6  1  0.750002  0.665703  0.135341  1
  Ac  Ac7  1  0.750000  0.831169  0.634830  1
  Ac  Ac8  1  0.249999  0.999978  0.864551  1
  Ac  Ac9  1  0.250001  0.499960  0.366639  1
  Ac  Ac10  1  0.749999  0.999886  0.135402  1
  Pr  Pr11  1  0.750003  0.500071  0.633484  1
  Au  Au12  1  0.250000  0.340270  0.587236  1
  Au  Au13  1  0.250000  0.167567  0.087361  1
  Au  Au14  1  0.749999  0.663710  0.416005  1
  Au  Au15  1  0.750001  0.832692  0.912964  1
  Au  Au16  1  0.250000  0.660078  0.585962  1
  Au  Au17  1  0.250000  0.832158  0.085957  1
  Au  Au18  1  0.749999  0.336342  0.417372  1
  Au  Au19  1  0.750000  0.167240  0.914345  1
  Au  Au20  1  0.250000  0.999989  0.586535  1
  Au  Au21  1  0.250001  0.500032  0.086695  1
  Au  Au22  1  0.749999  0.000182  0.413480  1
  Au  Au23  1  0.749999  0.499888  0.905796  1
