# generated using pymatgen
data_Ho7ErTi11Si16Mo
_symmetry_space_group_name_H-M   'P 1'
_cell_length_a   7.02603892
_cell_length_b   7.02583681
_cell_length_c   12.90915421
_cell_angle_alpha   89.98072762
_cell_angle_beta   90.02258221
_cell_angle_gamma   90.00591798
_symmetry_Int_Tables_number   1
_chemical_formula_structural   Ho7ErTi11Si16Mo
_chemical_formula_sum   'Ho7 Er1 Ti11 Si16 Mo1'
_cell_volume   637.24485415
_cell_formula_units_Z   1
loop_
 _symmetry_equiv_pos_site_id
 _symmetry_equiv_pos_as_xyz
  1  'x, y, z'
loop_
 _atom_site_type_symbol
 _atom_site_label
 _atom_site_symmetry_multiplicity
 _atom_site_fract_x
 _atom_site_fract_y
 _atom_site_fract_z
 _atom_site_occupancy
  Ho  Ho0  1  0.340915  0.002751  0.466992  1
  Ho  Ho1  1  0.497490  0.840461  0.717391  1
  Ho  Ho2  1  0.500838  0.159259  0.215535  1
  Ho  Ho3  1  0.840508  0.497537  0.282564  1
  Ho  Ho4  1  0.159254  0.500878  0.784501  1
  Ho  Ho5  1  0.657688  0.998894  0.967114  1
  Ho  Ho6  1  0.002753  0.340917  0.532990  1
  Er  Er7  1  0.999081  0.657476  0.032953  1
  Ti  Ti8  1  0.173869  0.827437  0.249490  1
  Ti  Ti9  1  0.827467  0.173908  0.750471  1
  Ti  Ti10  1  0.672963  0.672951  0.499994  1
  Ti  Ti11  1  0.153001  0.008568  0.876176  1
  Ti  Ti12  1  0.492154  0.651066  0.124123  1
  Ti  Ti13  1  0.507029  0.349066  0.625987  1
  Ti  Ti14  1  0.651080  0.492236  0.875910  1
  Ti  Ti15  1  0.349013  0.507054  0.373975  1
  Ti  Ti16  1  0.848588  0.992617  0.375389  1
  Ti  Ti17  1  0.008618  0.152964  0.123861  1
  Ti  Ti18  1  0.992660  0.848557  0.624593  1
  Si  Si19  1  0.202817  0.131134  0.683849  1
  Si  Si20  1  0.369248  0.701964  0.933812  1
  Si  Si21  1  0.631173  0.296899  0.433691  1
  Si  Si22  1  0.702113  0.369524  0.066243  1
  Si  Si23  1  0.296900  0.631161  0.566306  1
  Si  Si24  1  0.797163  0.868814  0.183698  1
  Si  Si25  1  0.131123  0.202783  0.316133  1
  Si  Si26  1  0.868931  0.796986  0.816264  1
  Si  Si27  1  0.290679  0.953260  0.064639  1
  Si  Si28  1  0.546447  0.791673  0.314719  1
  Si  Si29  1  0.452655  0.208475  0.815217  1
  Si  Si30  1  0.791676  0.546455  0.685274  1
  Si  Si31  1  0.208366  0.452798  0.184711  1
  Si  Si32  1  0.708683  0.047156  0.564757  1
  Si  Si33  1  0.953405  0.290979  0.935437  1
  Si  Si34  1  0.047161  0.708686  0.435221  1
  Mo  Mo35  1  0.326494  0.326656  0.000020  1
