# generated using pymatgen
data_Hf3Cu3Si4Ir
_symmetry_space_group_name_H-M   'P 1'
_cell_length_a   7.51734119
_cell_length_b   7.52002327
_cell_length_c   7.52002305
_cell_angle_alpha   149.72174943
_cell_angle_beta   128.76974269
_cell_angle_gamma   60.67712494
_symmetry_Int_Tables_number   1
_chemical_formula_structural   Hf3Cu3Si4Ir
_chemical_formula_sum   'Hf3 Cu3 Si4 Ir1'
_cell_volume   165.70039721
_cell_formula_units_Z   1
loop_
 _symmetry_equiv_pos_site_id
 _symmetry_equiv_pos_as_xyz
  1  'x, y, z'
loop_
 _atom_site_type_symbol
 _atom_site_label
 _atom_site_symmetry_multiplicity
 _atom_site_fract_x
 _atom_site_fract_y
 _atom_site_fract_z
 _atom_site_occupancy
  Hf  Hf0  1  0.885298  0.876891  0.008407  1
  Hf  Hf1  1  0.119719  0.125694  0.994025  1
  Hf  Hf2  1  0.505739  0.995992  0.509747  1
  Cu  Cu3  1  0.858443  0.666568  0.191876  1
  Cu  Cu4  1  0.130201  0.334149  0.796052  1
  Cu  Cu5  1  0.482210  0.675919  0.806291  1
  Si  Si6  1  0.810766  0.496959  0.313807  1
  Si  Si7  1  0.197967  0.505903  0.692064  1
  Si  Si8  1  0.269973  0.784170  0.485804  1
  Si  Si9  1  0.723163  0.215426  0.507737  1
  Ir  Ir10  1  0.516520  0.322329  0.194191  1
