# generated using pymatgen
data_Sm2AsPt6
_symmetry_space_group_name_H-M   'P 1'
_cell_length_a   6.82800917
_cell_length_b   6.82800915
_cell_length_c   6.82801027
_cell_angle_alpha   49.42511455
_cell_angle_beta   49.42511764
_cell_angle_gamma   49.42511218
_symmetry_Int_Tables_number   1
_chemical_formula_structural   Sm2AsPt6
_chemical_formula_sum   'Sm2 As1 Pt6'
_cell_volume   168.79114555
_cell_formula_units_Z   1
loop_
 _symmetry_equiv_pos_site_id
 _symmetry_equiv_pos_as_xyz
  1  'x, y, z'
loop_
 _atom_site_type_symbol
 _atom_site_label
 _atom_site_symmetry_multiplicity
 _atom_site_fract_x
 _atom_site_fract_y
 _atom_site_fract_z
 _atom_site_occupancy
  Sm  Sm0  1  0.218203  0.218203  0.218203  1
  Sm  Sm1  1  0.781797  0.781797  0.781797  1
  As  As2  1  0.500000  0.500000  0.500000  1
  Pt  Pt3  1  0.733333  0.227977  0.227978  1
  Pt  Pt4  1  0.227977  0.733333  0.227978  1
  Pt  Pt5  1  0.772023  0.772023  0.266666  1
  Pt  Pt6  1  0.227977  0.227977  0.733334  1
  Pt  Pt7  1  0.772023  0.266667  0.772022  1
  Pt  Pt8  1  0.266667  0.772023  0.772022  1
