# generated using pymatgen
data_TcPRu
_symmetry_space_group_name_H-M   'P 1'
_cell_length_a   3.91846300
_cell_length_b   5.97398300
_cell_length_c   6.88990200
_cell_angle_alpha   90.00000000
_cell_angle_beta   90.00000000
_cell_angle_gamma   90.00000000
_symmetry_Int_Tables_number   1
_chemical_formula_structural   TcPRu
_chemical_formula_sum   'Tc4 P4 Ru4'
_cell_volume   161.28455392
_cell_formula_units_Z   4
loop_
 _symmetry_equiv_pos_site_id
 _symmetry_equiv_pos_as_xyz
  1  'x, y, z'
loop_
 _atom_site_type_symbol
 _atom_site_label
 _atom_site_symmetry_multiplicity
 _atom_site_fract_x
 _atom_site_fract_y
 _atom_site_fract_z
 _atom_site_occupancy
  Tc  Tc0  1  0.250000  0.025042  0.160092  1
  Tc  Tc1  1  0.250000  0.525042  0.339908  1
  Tc  Tc2  1  0.750000  0.974958  0.839908  1
  Tc  Tc3  1  0.750000  0.474958  0.660092  1
  P  P4  1  0.250000  0.753371  0.611595  1
  P  P5  1  0.250000  0.253371  0.888405  1
  P  P6  1  0.750000  0.246629  0.388405  1
  P  P7  1  0.750000  0.746629  0.111595  1
  Ru  Ru8  1  0.250000  0.140460  0.573102  1
  Ru  Ru9  1  0.250000  0.640460  0.926898  1
  Ru  Ru10  1  0.750000  0.859540  0.426898  1
  Ru  Ru11  1  0.750000  0.359540  0.073102  1
