# generated using pymatgen
data_Y2Tm6Sc12Si15P
_symmetry_space_group_name_H-M   'P 1'
_cell_length_a   7.05387918
_cell_length_b   7.33922562
_cell_length_c   13.91252465
_cell_angle_alpha   90.05168571
_cell_angle_beta   90.02087365
_cell_angle_gamma   90.19005147
_symmetry_Int_Tables_number   1
_chemical_formula_structural   Y2Tm6Sc12Si15P
_chemical_formula_sum   'Y2 Tm6 Sc12 Si15 P1'
_cell_volume   720.24724752
_cell_formula_units_Z   1
loop_
 _symmetry_equiv_pos_site_id
 _symmetry_equiv_pos_as_xyz
  1  'x, y, z'
loop_
 _atom_site_type_symbol
 _atom_site_label
 _atom_site_symmetry_multiplicity
 _atom_site_fract_x
 _atom_site_fract_y
 _atom_site_fract_z
 _atom_site_occupancy
  Y  Y0  1  0.010195  0.175527  0.095904  1
  Y  Y1  1  0.990703  0.826242  0.901131  1
  Tm  Tm2  1  0.490010  0.676040  0.903857  1
  Tm  Tm3  1  0.990640  0.825319  0.599287  1
  Tm  Tm4  1  0.511068  0.323891  0.095959  1
  Tm  Tm5  1  0.010379  0.176126  0.403766  1
  Tm  Tm6  1  0.511454  0.323485  0.404468  1
  Tm  Tm7  1  0.489566  0.676437  0.595688  1
  Sc  Sc8  1  0.160187  0.502257  0.749585  1
  Sc  Sc9  1  0.838354  0.496966  0.250327  1
  Sc  Sc10  1  0.338930  0.003196  0.250299  1
  Sc  Sc11  1  0.662848  0.998526  0.749689  1
  Sc  Sc12  1  0.327817  0.173831  0.627058  1
  Sc  Sc13  1  0.667660  0.823080  0.375640  1
  Sc  Sc14  1  0.167918  0.677412  0.375476  1
  Sc  Sc15  1  0.667381  0.822521  0.124837  1
  Sc  Sc16  1  0.832786  0.322434  0.626202  1
  Sc  Sc17  1  0.328259  0.174386  0.872545  1
  Sc  Sc18  1  0.832302  0.323233  0.873363  1
  Sc  Sc19  1  0.168454  0.676677  0.125023  1
  Si  Si20  1  0.964825  0.885007  0.250477  1
  Si  Si21  1  0.466216  0.612973  0.250112  1
  Si  Si22  1  0.531392  0.385065  0.749829  1
  Si  Si23  1  0.296135  0.862368  0.749425  1
  Si  Si24  1  0.713611  0.128098  0.250623  1
  Si  Si25  1  0.215895  0.372088  0.250701  1
  Si  Si26  1  0.785593  0.629747  0.749264  1
  Si  Si27  1  0.159436  0.464260  0.539946  1
  Si  Si28  1  0.840591  0.535025  0.461385  1
  Si  Si29  1  0.338641  0.965926  0.460871  1
  Si  Si30  1  0.839518  0.535269  0.038695  1
  Si  Si31  1  0.661297  0.035898  0.540194  1
  Si  Si32  1  0.160552  0.464139  0.959910  1
  Si  Si33  1  0.658809  0.036929  0.959891  1
  Si  Si34  1  0.341056  0.964910  0.038978  1
  P  P35  1  0.029521  0.124710  0.749592  1
