# generated using pymatgen
data_CeHo11Co4SnRu
_symmetry_space_group_name_H-M   'P 1'
_cell_length_a   8.26947665
_cell_length_b   8.26947583
_cell_length_c   8.28044723
_cell_angle_alpha   107.54352406
_cell_angle_beta   110.33601044
_cell_angle_gamma   110.49856379
_symmetry_Int_Tables_number   1
_chemical_formula_structural   CeHo11Co4SnRu
_chemical_formula_sum   'Ce1 Ho11 Co4 Sn1 Ru1'
_cell_volume   435.81942976
_cell_formula_units_Z   1
loop_
 _symmetry_equiv_pos_site_id
 _symmetry_equiv_pos_as_xyz
  1  'x, y, z'
loop_
 _atom_site_type_symbol
 _atom_site_label
 _atom_site_symmetry_multiplicity
 _atom_site_fract_x
 _atom_site_fract_y
 _atom_site_fract_z
 _atom_site_occupancy
  Ce  Ce0  1  0.800221  0.199450  0.999672  1
  Ho  Ho1  1  0.476873  0.293921  0.181342  1
  Ho  Ho2  1  0.107801  0.294362  0.808819  1
  Ho  Ho3  1  0.887422  0.704469  0.181342  1
  Ho  Ho4  1  0.514456  0.701017  0.808819  1
  Ho  Ho5  1  0.305380  0.622368  0.312807  1
  Ho  Ho6  1  0.299815  0.988646  0.682288  1
  Ho  Ho7  1  0.693643  0.382473  0.682288  1
  Ho  Ho8  1  0.690440  0.007426  0.312807  1
  Ho  Ho9  1  0.197855  0.204245  0.402100  1
  Ho  Ho10  1  0.802611  0.777209  0.579821  1
  Ho  Ho11  1  0.189719  0.801143  0.990860  1
  Co  Co12  1  0.505295  0.614172  0.119467  1
  Co  Co13  1  0.496679  0.387092  0.883771  1
  Co  Co14  1  0.397631  0.002958  0.400589  1
  Co  Co15  1  0.653909  0.013220  0.667129  1
  Sn  Sn16  1  0.000470  0.497242  0.497711  1
  Ru  Ru17  1  0.979781  0.008587  0.988367  1
