# generated using pymatgen
data_Ho7Lu(Si4W3)4
_symmetry_space_group_name_H-M   'P 1'
_cell_length_a   6.75367810
_cell_length_b   6.92467585
_cell_length_c   12.87765321
_cell_angle_alpha   89.96707575
_cell_angle_beta   89.99555766
_cell_angle_gamma   89.97359428
_symmetry_Int_Tables_number   1
_chemical_formula_structural   Ho7Lu(Si4W3)4
_chemical_formula_sum   'Ho7 Lu1 Si16 W12'
_cell_volume   602.24944990
_cell_formula_units_Z   1
loop_
 _symmetry_equiv_pos_site_id
 _symmetry_equiv_pos_as_xyz
  1  'x, y, z'
loop_
 _atom_site_type_symbol
 _atom_site_label
 _atom_site_symmetry_multiplicity
 _atom_site_fract_x
 _atom_site_fract_y
 _atom_site_fract_z
 _atom_site_occupancy
  Ho  Ho0  1  0.496194  0.332216  0.093419  1
  Ho  Ho1  1  0.996155  0.167714  0.406675  1
  Ho  Ho2  1  0.503898  0.667650  0.593353  1
  Ho  Ho3  1  0.003605  0.832299  0.907086  1
  Ho  Ho4  1  0.503651  0.667953  0.906933  1
  Ho  Ho5  1  0.003842  0.832272  0.593403  1
  Ho  Ho6  1  0.496119  0.332275  0.406173  1
  Lu  Lu7  1  0.995203  0.168163  0.093789  1
  Si  Si8  1  0.661573  0.041922  0.546765  1
  Si  Si9  1  0.161418  0.457513  0.953683  1
  Si  Si10  1  0.336774  0.959202  0.047104  1
  Si  Si11  1  0.838519  0.541965  0.453001  1
  Si  Si12  1  0.338677  0.958083  0.452864  1
  Si  Si13  1  0.839018  0.540479  0.047083  1
  Si  Si14  1  0.661877  0.041961  0.953660  1
  Si  Si15  1  0.161575  0.458174  0.546789  1
  Si  Si16  1  0.535402  0.370783  0.750273  1
  Si  Si17  1  0.035275  0.128928  0.750057  1
  Si  Si18  1  0.464912  0.629411  0.249737  1
  Si  Si19  1  0.965205  0.871924  0.249434  1
  Si  Si20  1  0.802104  0.633555  0.750314  1
  Si  Si21  1  0.301891  0.866057  0.750141  1
  Si  Si22  1  0.197039  0.365266  0.249282  1
  Si  Si23  1  0.698953  0.134081  0.249459  1
  W  W24  1  0.831307  0.336225  0.625520  1
  W  W25  1  0.330864  0.163480  0.874882  1
  W  W26  1  0.168815  0.663762  0.125376  1
  W  W27  1  0.669130  0.836500  0.374189  1
  W  W28  1  0.168636  0.663783  0.374206  1
  W  W29  1  0.669531  0.836981  0.125077  1
  W  W30  1  0.831686  0.335606  0.875116  1
  W  W31  1  0.331434  0.163568  0.625465  1
  W  W32  1  0.665319  0.999844  0.750213  1
  W  W33  1  0.165543  0.499999  0.750212  1
  W  W34  1  0.334206  0.000937  0.249595  1
  W  W35  1  0.834651  0.499471  0.249667  1
