# generated using pymatgen
data_ScU6TaSb10
_symmetry_space_group_name_H-M   'P 1'
_cell_length_a   9.21451700
_cell_length_b   9.21451569
_cell_length_c   6.14538500
_cell_angle_alpha   90.00000000
_cell_angle_beta   90.00000000
_cell_angle_gamma   120.00000831
_symmetry_Int_Tables_number   1
_chemical_formula_structural   ScU6TaSb10
_chemical_formula_sum   'Sc1 U6 Ta1 Sb10'
_cell_volume   451.88172785
_cell_formula_units_Z   1
loop_
 _symmetry_equiv_pos_site_id
 _symmetry_equiv_pos_as_xyz
  1  'x, y, z'
loop_
 _atom_site_type_symbol
 _atom_site_label
 _atom_site_symmetry_multiplicity
 _atom_site_fract_x
 _atom_site_fract_y
 _atom_site_fract_z
 _atom_site_occupancy
  Sc  Sc0  1  0.000000  0.000000  0.500000  1
  U  U1  1  0.613275  0.000000  0.751206  1
  U  U2  1  0.386725  0.000000  0.248794  1
  U  U3  1  0.000000  0.613275  0.751206  1
  U  U4  1  0.000000  0.386725  0.248794  1
  U  U5  1  0.386725  0.386725  0.751206  1
  U  U6  1  0.613275  0.613275  0.248794  1
  Ta  Ta7  1  0.000000  0.000000  0.000000  1
  Sb  Sb8  1  0.267214  0.000000  0.753743  1
  Sb  Sb9  1  0.732786  0.000000  0.246257  1
  Sb  Sb10  1  0.000000  0.267214  0.753743  1
  Sb  Sb11  1  0.000000  0.732786  0.246257  1
  Sb  Sb12  1  0.732786  0.732786  0.753743  1
  Sb  Sb13  1  0.267214  0.267214  0.246257  1
  Sb  Sb14  1  0.333333  0.666667  0.500000  1
  Sb  Sb15  1  0.666667  0.333333  0.500000  1
  Sb  Sb16  1  0.666667  0.333333  0.000000  1
  Sb  Sb17  1  0.333333  0.666667  0.000000  1
