# generated using pymatgen
data_Hf8Co3Cu5Au4
_symmetry_space_group_name_H-M   'P 1'
_cell_length_a   7.03713428
_cell_length_b   7.03713449
_cell_length_c   6.68483992
_cell_angle_alpha   90.06013142
_cell_angle_beta   90.06012642
_cell_angle_gamma   90.51739077
_symmetry_Int_Tables_number   1
_chemical_formula_structural   Hf8Co3Cu5Au4
_chemical_formula_sum   'Hf8 Co3 Cu5 Au4'
_cell_volume   331.02783271
_cell_formula_units_Z   1
loop_
 _symmetry_equiv_pos_site_id
 _symmetry_equiv_pos_as_xyz
  1  'x, y, z'
loop_
 _atom_site_type_symbol
 _atom_site_label
 _atom_site_symmetry_multiplicity
 _atom_site_fract_x
 _atom_site_fract_y
 _atom_site_fract_z
 _atom_site_occupancy
  Hf  Hf0  1  0.161989  0.161989  0.010010  1
  Hf  Hf1  1  0.827001  0.827001  0.996321  1
  Hf  Hf2  1  0.655379  0.348736  0.493680  1
  Hf  Hf3  1  0.348736  0.655379  0.493680  1
  Hf  Hf4  1  0.682923  0.332711  0.004379  1
  Hf  Hf5  1  0.332711  0.682923  0.004379  1
  Hf  Hf6  1  0.803585  0.803585  0.503205  1
  Hf  Hf7  1  0.194034  0.194034  0.490816  1
  Co  Co8  1  0.371856  0.371856  0.227015  1
  Co  Co9  1  0.622149  0.622149  0.768463  1
  Co  Co10  1  0.628665  0.628665  0.229500  1
  Cu  Cu11  1  0.876256  0.124642  0.718511  1
  Cu  Cu12  1  0.874471  0.120474  0.282011  1
  Cu  Cu13  1  0.372522  0.372522  0.784559  1
  Cu  Cu14  1  0.120474  0.874471  0.282011  1
  Cu  Cu15  1  0.124642  0.876256  0.718511  1
  Au  Au16  1  0.500591  0.001716  0.247362  1
  Au  Au17  1  0.497748  0.002554  0.749113  1
  Au  Au18  1  0.001716  0.500591  0.247362  1
  Au  Au19  1  0.002554  0.497748  0.749113  1
