# generated using pymatgen
data_Dy3Y2P12Ir9Ru10
_symmetry_space_group_name_H-M   'P 1'
_cell_length_a   12.62477113
_cell_length_b   12.58716634
_cell_length_c   3.96903500
_cell_angle_alpha   90.00000000
_cell_angle_beta   90.00000000
_cell_angle_gamma   119.82189315
_symmetry_Int_Tables_number   1
_chemical_formula_structural   Dy3Y2P12Ir9Ru10
_chemical_formula_sum   'Dy3 Y2 P12 Ir9 Ru10'
_cell_volume   547.19697662
_cell_formula_units_Z   1
loop_
 _symmetry_equiv_pos_site_id
 _symmetry_equiv_pos_as_xyz
  1  'x, y, z'
loop_
 _atom_site_type_symbol
 _atom_site_label
 _atom_site_symmetry_multiplicity
 _atom_site_fract_x
 _atom_site_fract_y
 _atom_site_fract_z
 _atom_site_occupancy
  Dy  Dy0  1  0.667532  0.332489  0.000000  1
  Dy  Dy1  1  0.333329  0.666619  0.000000  1
  Dy  Dy2  1  0.000192  0.813681  0.500000  1
  Y  Y3  1  0.812585  0.000948  0.500000  1
  Y  Y4  1  0.185436  0.187465  0.500000  1
  P  P5  1  0.631447  0.997536  0.000000  1
  P  P6  1  0.365027  0.371092  0.000000  1
  P  P7  1  0.006205  0.635056  0.000000  1
  P  P8  1  0.689641  0.519389  0.500000  1
  P  P9  1  0.829652  0.306607  0.500000  1
  P  P10  1  0.313006  0.830135  0.500000  1
  P  P11  1  0.517139  0.686864  0.500000  1
  P  P12  1  0.181134  0.001502  0.000000  1
  P  P13  1  0.818743  0.818876  0.000000  1
  P  P14  1  0.996441  0.181443  0.000000  1
  P  P15  1  0.480031  0.168036  0.500000  1
  P  P16  1  0.170154  0.483300  0.500000  1
  Ir  Ir17  1  0.623883  0.803997  0.000000  1
  Ir  Ir18  1  0.180754  0.376533  0.000000  1
  Ir  Ir19  1  0.374757  0.184671  0.000000  1
  Ir  Ir20  1  0.195811  0.820914  0.000000  1
  Ir  Ir21  1  0.809895  0.625101  0.000000  1
  Ir  Ir22  1  0.868694  0.505200  0.500000  1
  Ir  Ir23  1  0.493909  0.361471  0.500000  1
  Ir  Ir24  1  0.636509  0.128081  0.500000  1
  Ir  Ir25  1  0.999444  0.000156  0.000000  1
  Ru  Ru26  1  0.127302  0.639899  0.500000  1
  Ru  Ru27  1  0.361563  0.488193  0.500000  1
  Ru  Ru28  1  0.510505  0.870939  0.500000  1
  Ru  Ru29  1  0.714796  0.713197  0.500000  1
  Ru  Ru30  1  0.000841  0.286354  0.500000  1
  Ru  Ru31  1  0.450702  0.001426  0.000000  1
  Ru  Ru32  1  0.551423  0.547257  0.000000  1
  Ru  Ru33  1  0.998859  0.450048  0.000000  1
  Ru  Ru34  1  0.816353  0.193744  0.000000  1
  Ru  Ru35  1  0.286307  0.001780  0.500000  1
