# generated using pymatgen
data_Dy3Sc3TcBi2
_symmetry_space_group_name_H-M   'P 1'
_cell_length_a   4.25980100
_cell_length_b   7.96815988
_cell_length_c   7.96816000
_cell_angle_alpha   119.99998388
_cell_angle_beta   90.00000000
_cell_angle_gamma   90.00000000
_symmetry_Int_Tables_number   1
_chemical_formula_structural   Dy3Sc3TcBi2
_chemical_formula_sum   'Dy3 Sc3 Tc1 Bi2'
_cell_volume   234.22653791
_cell_formula_units_Z   1
loop_
 _symmetry_equiv_pos_site_id
 _symmetry_equiv_pos_as_xyz
  1  'x, y, z'
loop_
 _atom_site_type_symbol
 _atom_site_label
 _atom_site_symmetry_multiplicity
 _atom_site_fract_x
 _atom_site_fract_y
 _atom_site_fract_z
 _atom_site_occupancy
  Dy  Dy0  1  0.000000  0.390628  0.390628  1
  Dy  Dy1  1  0.000000  0.000000  0.609372  1
  Dy  Dy2  1  0.000000  0.609372  0.000000  1
  Sc  Sc3  1  0.500000  0.776979  0.776979  1
  Sc  Sc4  1  0.500000  0.000000  0.223021  1
  Sc  Sc5  1  0.500000  0.223021  0.000000  1
  Tc  Tc6  1  0.000000  0.000000  0.000000  1
  Bi  Bi7  1  0.500000  0.666667  0.333333  1
  Bi  Bi8  1  0.500000  0.333333  0.666667  1
