# generated using pymatgen
data_Tb5Dy2LuPt4
_symmetry_space_group_name_H-M   'P 1'
_cell_length_a   4.77030600
_cell_length_b   7.16124703
_cell_length_c   8.80223527
_cell_angle_alpha   90.01954253
_cell_angle_beta   90.00000000
_cell_angle_gamma   90.00000000
_symmetry_Int_Tables_number   1
_chemical_formula_structural   Tb5Dy2LuPt4
_chemical_formula_sum   'Tb5 Dy2 Lu1 Pt4'
_cell_volume   300.69613143
_cell_formula_units_Z   1
loop_
 _symmetry_equiv_pos_site_id
 _symmetry_equiv_pos_as_xyz
  1  'x, y, z'
loop_
 _atom_site_type_symbol
 _atom_site_label
 _atom_site_symmetry_multiplicity
 _atom_site_fract_x
 _atom_site_fract_y
 _atom_site_fract_z
 _atom_site_occupancy
  Tb  Tb0  1  0.250000  0.855370  0.918577  1
  Tb  Tb1  1  0.750000  0.506699  0.830622  1
  Tb  Tb2  1  0.250000  0.490631  0.170022  1
  Tb  Tb3  1  0.750000  0.009932  0.667610  1
  Tb  Tb4  1  0.250000  0.993080  0.331575  1
  Dy  Dy5  1  0.750000  0.643032  0.420300  1
  Dy  Dy6  1  0.750000  0.144279  0.081129  1
  Lu  Lu7  1  0.250000  0.357034  0.580131  1
  Pt  Pt8  1  0.750000  0.244521  0.410414  1
  Pt  Pt9  1  0.250000  0.754628  0.590002  1
  Pt  Pt10  1  0.750000  0.741966  0.092760  1
  Pt  Pt11  1  0.250000  0.258830  0.906860  1
