# generated using pymatgen
data_Dy3HoPa4(ReB6)4
_symmetry_space_group_name_H-M   'P 1'
_cell_length_a   3.71482100
_cell_length_b   9.19316108
_cell_length_c   11.52645611
_cell_angle_alpha   90.01553001
_cell_angle_beta   90.00000000
_cell_angle_gamma   90.00000000
_symmetry_Int_Tables_number   1
_chemical_formula_structural   Dy3HoPa4(ReB6)4
_chemical_formula_sum   'Dy3 Ho1 Pa4 Re4 B24'
_cell_volume   393.63938694
_cell_formula_units_Z   1
loop_
 _symmetry_equiv_pos_site_id
 _symmetry_equiv_pos_as_xyz
  1  'x, y, z'
loop_
 _atom_site_type_symbol
 _atom_site_label
 _atom_site_symmetry_multiplicity
 _atom_site_fract_x
 _atom_site_fract_y
 _atom_site_fract_z
 _atom_site_occupancy
  Dy  Dy0  1  0.000000  0.945710  0.375163  1
  Dy  Dy1  1  0.000000  0.054281  0.624922  1
  Dy  Dy2  1  0.000000  0.445709  0.124847  1
  Ho  Ho3  1  0.000000  0.554397  0.874938  1
  Pa  Pa4  1  0.000000  0.324063  0.412978  1
  Pa  Pa5  1  0.000000  0.676003  0.587196  1
  Pa  Pa6  1  0.000000  0.823868  0.087040  1
  Pa  Pa7  1  0.000000  0.176162  0.912808  1
  Re  Re8  1  0.000000  0.639118  0.321912  1
  Re  Re9  1  0.000000  0.361093  0.678197  1
  Re  Re10  1  0.000000  0.139079  0.177953  1
  Re  Re11  1  0.000000  0.860588  0.821932  1
  B  B12  1  0.500000  0.552557  0.433221  1
  B  B13  1  0.500000  0.447568  0.566966  1
  B  B14  1  0.500000  0.052584  0.066728  1
  B  B15  1  0.500000  0.947196  0.933182  1
  B  B16  1  0.500000  0.747312  0.420588  1
  B  B17  1  0.500000  0.252787  0.579500  1
  B  B18  1  0.500000  0.247574  0.079327  1
  B  B19  1  0.500000  0.752117  0.920525  1
  B  B20  1  0.500000  0.793866  0.266587  1
  B  B21  1  0.500000  0.206236  0.733450  1
  B  B22  1  0.500000  0.293957  0.233256  1
  B  B23  1  0.500000  0.705775  0.766823  1
  B  B24  1  0.500000  0.634603  0.185672  1
  B  B25  1  0.500000  0.365659  0.814385  1
  B  B26  1  0.500000  0.134789  0.314148  1
  B  B27  1  0.500000  0.865084  0.685899  1
  B  B28  1  0.500000  0.983389  0.213631  1
  B  B29  1  0.500000  0.016535  0.786355  1
  B  B30  1  0.500000  0.483389  0.286321  1
  B  B31  1  0.500000  0.516788  0.713912  1
  B  B32  1  0.500000  0.615370  0.031694  1
  B  B33  1  0.500000  0.384809  0.967870  1
  B  B34  1  0.500000  0.116778  0.467752  1
  B  B35  1  0.500000  0.883209  0.532325  1
