# generated using pymatgen
data_Sr4Tl3F17
_symmetry_space_group_name_H-M   'P 1'
_cell_length_a   9.09609215
_cell_length_b   9.11229744
_cell_length_c   9.17299500
_cell_angle_alpha   73.01971052
_cell_angle_beta   72.87304309
_cell_angle_gamma   73.07708681
_symmetry_Int_Tables_number   1
_chemical_formula_structural   Sr4Tl3F17
_chemical_formula_sum   'Sr8 Tl6 F34'
_cell_volume   677.20394716
_cell_formula_units_Z   2
loop_
 _symmetry_equiv_pos_site_id
 _symmetry_equiv_pos_as_xyz
  1  'x, y, z'
loop_
 _atom_site_type_symbol
 _atom_site_label
 _atom_site_symmetry_multiplicity
 _atom_site_fract_x
 _atom_site_fract_y
 _atom_site_fract_z
 _atom_site_occupancy
  Sr  Sr0  1  0.896076  0.042678  0.310309  1
  Sr  Sr1  1  0.269597  0.259568  0.261695  1
  Sr  Sr2  1  0.053020  0.305801  0.894294  1
  Sr  Sr3  1  0.698209  0.095633  0.959192  1
  Sr  Sr4  1  0.311250  0.891889  0.053851  1
  Sr  Sr5  1  0.947064  0.684152  0.112625  1
  Sr  Sr6  1  0.742066  0.733643  0.732549  1
  Sr  Sr7  1  0.112421  0.939204  0.686227  1
  Tl  Tl8  1  0.466141  0.155827  0.613522  1
  Tl  Tl9  1  0.612714  0.467671  0.161063  1
  Tl  Tl10  1  0.846941  0.386044  0.534898  1
  Tl  Tl11  1  0.185684  0.612406  0.461958  1
  Tl  Tl12  1  0.385068  0.536937  0.838292  1
  Tl  Tl13  1  0.526872  0.816444  0.391207  1
  F  F14  1  0.985113  0.998858  0.018210  1
  F  F15  1  0.456550  0.022666  0.164567  1
  F  F16  1  0.138620  0.137374  0.136575  1
  F  F17  1  0.352038  0.045916  0.487371  1
  F  F18  1  0.022855  0.167112  0.452776  1
  F  F19  1  0.250954  0.076056  0.793463  1
  F  F20  1  0.788275  0.254424  0.088223  1
  F  F21  1  0.490979  0.344785  0.036266  1
  F  F22  1  0.167291  0.452121  0.022544  1
  F  F23  1  0.542424  0.256676  0.343343  1
  F  F24  1  0.699254  0.205439  0.592878  1
  F  F25  1  0.255398  0.344799  0.544598  1
  F  F26  1  0.051859  0.482538  0.351111  1
  F  F27  1  0.383823  0.307257  0.796074  1
  F  F28  1  0.919011  0.204201  0.748280  1
  F  F29  1  0.344723  0.546926  0.231747  1
  F  F30  1  0.805502  0.417085  0.293798  1
  F  F31  1  0.185663  0.619495  0.705788  1
  F  F32  1  0.459450  0.570223  0.465883  1
  F  F33  1  0.652224  0.458773  0.741163  1
  F  F34  1  0.084022  0.780867  0.257827  1
  F  F35  1  0.603664  0.713347  0.169073  1
  F  F36  1  0.963583  0.508130  0.651081  1
  F  F37  1  0.751936  0.653608  0.460921  1
  F  F38  1  0.272857  0.845571  0.385118  1
  F  F39  1  0.442597  0.760467  0.660360  1
  F  F40  1  0.835033  0.542223  0.972779  1
  F  F41  1  0.514392  0.651193  0.947282  1
  F  F42  1  0.206010  0.746964  0.925426  1
  F  F43  1  0.738246  0.907910  0.224822  1
  F  F44  1  0.976081  0.831303  0.546033  1
  F  F45  1  0.651908  0.955913  0.517278  1
  F  F46  1  0.867051  0.857304  0.864110  1
  F  F47  1  0.548489  0.981583  0.832558  1
