# generated using pymatgen
data_MgFeCo4P3
_symmetry_space_group_name_H-M   'P 1'
_cell_length_a   3.56854800
_cell_length_b   10.13665400
_cell_length_c   11.65884000
_cell_angle_alpha   90.00000000
_cell_angle_beta   90.00000000
_cell_angle_gamma   90.00000000
_symmetry_Int_Tables_number   1
_chemical_formula_structural   MgFeCo4P3
_chemical_formula_sum   'Mg4 Fe4 Co16 P12'
_cell_volume   421.73680910
_cell_formula_units_Z   4
loop_
 _symmetry_equiv_pos_site_id
 _symmetry_equiv_pos_as_xyz
  1  'x, y, z'
loop_
 _atom_site_type_symbol
 _atom_site_label
 _atom_site_symmetry_multiplicity
 _atom_site_fract_x
 _atom_site_fract_y
 _atom_site_fract_z
 _atom_site_occupancy
  Mg  Mg0  1  0.250000  0.579563  0.704124  1
  Mg  Mg1  1  0.250000  0.920437  0.204124  1
  Mg  Mg2  1  0.750000  0.420437  0.295876  1
  Mg  Mg3  1  0.750000  0.079563  0.795876  1
  Fe  Fe4  1  0.250000  0.712599  0.988680  1
  Fe  Fe5  1  0.250000  0.787401  0.488680  1
  Fe  Fe6  1  0.750000  0.287401  0.011320  1
  Fe  Fe7  1  0.750000  0.212599  0.511320  1
  Co  Co8  1  0.250000  0.407329  0.482794  1
  Co  Co9  1  0.250000  0.092671  0.982794  1
  Co  Co10  1  0.750000  0.592671  0.517206  1
  Co  Co11  1  0.750000  0.907329  0.017206  1
  Co  Co12  1  0.250000  0.220488  0.176303  1
  Co  Co13  1  0.250000  0.279513  0.676303  1
  Co  Co14  1  0.750000  0.779513  0.823697  1
  Co  Co15  1  0.750000  0.720487  0.323697  1
  Co  Co16  1  0.250000  0.883523  0.700689  1
  Co  Co17  1  0.250000  0.616477  0.200689  1
  Co  Co18  1  0.750000  0.116477  0.299311  1
  Co  Co19  1  0.750000  0.383523  0.799311  1
  Co  Co20  1  0.250000  0.465898  0.931373  1
  Co  Co21  1  0.250000  0.034102  0.431373  1
  Co  Co22  1  0.750000  0.534102  0.068627  1
  Co  Co23  1  0.750000  0.965898  0.568627  1
  P  P24  1  0.250000  0.418004  0.114546  1
  P  P25  1  0.250000  0.081996  0.614546  1
  P  P26  1  0.750000  0.581996  0.885454  1
  P  P27  1  0.750000  0.918004  0.385454  1
  P  P28  1  0.250000  0.264225  0.866787  1
  P  P29  1  0.250000  0.235775  0.366787  1
  P  P30  1  0.750000  0.735775  0.133213  1
  P  P31  1  0.750000  0.764225  0.633213  1
  P  P32  1  0.250000  0.599025  0.390684  1
  P  P33  1  0.250000  0.900975  0.890684  1
  P  P34  1  0.750000  0.400975  0.609316  1
  P  P35  1  0.750000  0.099025  0.109316  1
