# generated using pymatgen
data_Sm8GaPI12
_symmetry_space_group_name_H-M   'P 1'
_cell_length_a   4.27712200
_cell_length_b   14.21067189
_cell_length_c   14.99672500
_cell_angle_alpha   90.12139205
_cell_angle_beta   90.00000000
_cell_angle_gamma   90.00000000
_symmetry_Int_Tables_number   1
_chemical_formula_structural   Sm8GaPI12
_chemical_formula_sum   'Sm8 Ga1 P1 I12'
_cell_volume   911.51055807
_cell_formula_units_Z   1
loop_
 _symmetry_equiv_pos_site_id
 _symmetry_equiv_pos_as_xyz
  1  'x, y, z'
loop_
 _atom_site_type_symbol
 _atom_site_label
 _atom_site_symmetry_multiplicity
 _atom_site_fract_x
 _atom_site_fract_y
 _atom_site_fract_z
 _atom_site_occupancy
  Sm  Sm0  1  0.500000  0.112317  0.350047  1
  Sm  Sm1  1  0.500000  0.887683  0.649953  1
  Sm  Sm2  1  0.500000  0.617765  0.156637  1
  Sm  Sm3  1  0.500000  0.382235  0.843363  1
  Sm  Sm4  1  0.000000  0.106610  0.571503  1
  Sm  Sm5  1  0.000000  0.893390  0.428497  1
  Sm  Sm6  1  0.000000  0.615701  0.922078  1
  Sm  Sm7  1  0.000000  0.384299  0.077922  1
  Ga  Ga8  1  0.500000  0.500000  0.000000  1
  P  P9  1  0.500000  0.000000  0.500000  1
  I  I10  1  0.500000  0.243838  0.166003  1
  I  I11  1  0.500000  0.756162  0.833997  1
  I  I12  1  0.500000  0.749104  0.338859  1
  I  I13  1  0.500000  0.250896  0.661141  1
  I  I14  1  0.000000  0.258229  0.416171  1
  I  I15  1  0.000000  0.741771  0.583829  1
  I  I16  1  0.000000  0.762717  0.084160  1
  I  I17  1  0.000000  0.237283  0.915840  1
  I  I18  1  0.000000  0.998399  0.241254  1
  I  I19  1  0.000000  0.001601  0.758746  1
  I  I20  1  0.000000  0.498598  0.263281  1
  I  I21  1  0.000000  0.501402  0.736719  1
