# generated using pymatgen
data_TaTi(VGe)2
_symmetry_space_group_name_H-M   'P 1'
_cell_length_a   3.40839900
_cell_length_b   6.67083944
_cell_length_c   8.06496708
_cell_angle_alpha   90.45036156
_cell_angle_beta   90.00000000
_cell_angle_gamma   90.00000000
_symmetry_Int_Tables_number   1
_chemical_formula_structural   TaTi(VGe)2
_chemical_formula_sum   'Ta2 Ti2 V4 Ge4'
_cell_volume   183.36654406
_cell_formula_units_Z   2
loop_
 _symmetry_equiv_pos_site_id
 _symmetry_equiv_pos_as_xyz
  1  'x, y, z'
loop_
 _atom_site_type_symbol
 _atom_site_label
 _atom_site_symmetry_multiplicity
 _atom_site_fract_x
 _atom_site_fract_y
 _atom_site_fract_z
 _atom_site_occupancy
  Ta  Ta0  1  0.250000  0.552988  0.164475  1
  Ta  Ta1  1  0.750000  0.447012  0.835525  1
  Ti  Ti2  1  0.750000  0.947486  0.666710  1
  Ti  Ti3  1  0.250000  0.052514  0.333290  1
  V  V4  1  0.250000  0.622467  0.559551  1
  V  V5  1  0.750000  0.377533  0.440449  1
  V  V6  1  0.750000  0.870358  0.060420  1
  V  V7  1  0.250000  0.129642  0.939580  1
  Ge  Ge8  1  0.250000  0.754168  0.856075  1
  Ge  Ge9  1  0.750000  0.245832  0.143925  1
  Ge  Ge10  1  0.750000  0.757455  0.362995  1
  Ge  Ge11  1  0.250000  0.242545  0.637005  1
