# generated using pymatgen
data_Ho4Tm8Ni5Pb
_symmetry_space_group_name_H-M   'P 1'
_cell_length_a   8.23945487
_cell_length_b   8.23233976
_cell_length_c   8.23945400
_cell_angle_alpha   109.48612377
_cell_angle_beta   111.74921925
_cell_angle_gamma   107.24273789
_symmetry_Int_Tables_number   1
_chemical_formula_structural   Ho4Tm8Ni5Pb
_chemical_formula_sum   'Ho4 Tm8 Ni5 Pb1'
_cell_volume   429.38668169
_cell_formula_units_Z   1
loop_
 _symmetry_equiv_pos_site_id
 _symmetry_equiv_pos_as_xyz
  1  'x, y, z'
loop_
 _atom_site_type_symbol
 _atom_site_label
 _atom_site_symmetry_multiplicity
 _atom_site_fract_x
 _atom_site_fract_y
 _atom_site_fract_z
 _atom_site_occupancy
  Ho  Ho0  1  0.293647  0.180630  0.474352  1
  Ho  Ho1  1  0.706353  0.819370  0.525648  1
  Ho  Ho2  1  0.293722  0.819370  0.113017  1
  Ho  Ho3  1  0.706278  0.180630  0.886983  1
  Tm  Tm4  1  0.628229  0.321506  0.306597  1
  Tm  Tm5  1  0.371771  0.678494  0.693403  1
  Tm  Tm6  1  0.014909  0.321506  0.693277  1
  Tm  Tm7  1  0.985091  0.678494  0.306723  1
  Tm  Tm8  1  0.210173  0.402207  0.192036  1
  Tm  Tm9  1  0.789827  0.597793  0.807964  1
  Tm  Tm10  1  0.210041  0.018143  0.808102  1
  Tm  Tm11  1  0.789959  0.981857  0.191898  1
  Ni  Ni12  1  0.999988  0.365986  0.365998  1
  Ni  Ni13  1  0.000012  0.634014  0.634002  1
  Ni  Ni14  1  0.373769  0.872798  0.499029  1
  Ni  Ni15  1  0.626231  0.127202  0.500971  1
  Ni  Ni16  1  0.000000  0.000000  0.000000  1
  Pb  Pb17  1  0.500000  0.500000  0.000000  1
