# generated using pymatgen
data_Ac8Sb3O8
_symmetry_space_group_name_H-M   'P 1'
_cell_length_a   7.61218585
_cell_length_b   7.61218563
_cell_length_c   16.42136504
_cell_angle_alpha   73.59287655
_cell_angle_beta   73.59287606
_cell_angle_gamma   31.70477401
_symmetry_Int_Tables_number   1
_chemical_formula_structural   Ac8Sb3O8
_chemical_formula_sum   'Ac8 Sb3 O8'
_cell_volume   478.03242413
_cell_formula_units_Z   1
loop_
 _symmetry_equiv_pos_site_id
 _symmetry_equiv_pos_as_xyz
  1  'x, y, z'
loop_
 _atom_site_type_symbol
 _atom_site_label
 _atom_site_symmetry_multiplicity
 _atom_site_fract_x
 _atom_site_fract_y
 _atom_site_fract_z
 _atom_site_occupancy
  Ac  Ac0  1  0.711100  0.722467  0.910424  1
  Ac  Ac1  1  0.277533  0.288900  0.089576  1
  Ac  Ac2  1  0.642037  0.641202  0.571421  1
  Ac  Ac3  1  0.358798  0.357963  0.428579  1
  Ac  Ac4  1  0.875070  0.875920  0.654366  1
  Ac  Ac5  1  0.124080  0.124930  0.345634  1
  Ac  Ac6  1  0.452247  0.460258  0.834050  1
  Ac  Ac7  1  0.539742  0.547753  0.165950  1
  Sb  Sb8  1  0.172612  0.172942  0.732465  1
  Sb  Sb9  1  0.827058  0.827388  0.267535  1
  Sb  Sb10  1  0.990287  0.009713  0.000000  1
  O  O11  1  0.467505  0.468170  0.635686  1
  O  O12  1  0.531830  0.532495  0.364314  1
  O  O13  1  0.878755  0.886569  0.801672  1
  O  O14  1  0.113431  0.121245  0.198328  1
  O  O15  1  0.167948  0.167179  0.486666  1
  O  O16  1  0.832821  0.832052  0.513334  1
  O  O17  1  0.290208  0.301061  0.934389  1
  O  O18  1  0.698939  0.709792  0.065611  1
