# generated using pymatgen
data_La2DyY(Mo2O7)2
_symmetry_space_group_name_H-M   'P 1'
_cell_length_a   7.39556407
_cell_length_b   7.47626871
_cell_length_c   7.47626810
_cell_angle_alpha   60.91392296
_cell_angle_beta   60.37457765
_cell_angle_gamma   60.37456447
_symmetry_Int_Tables_number   1
_chemical_formula_structural   La2DyY(Mo2O7)2
_chemical_formula_sum   'La2 Dy1 Y1 Mo4 O14'
_cell_volume   295.94161391
_cell_formula_units_Z   1
loop_
 _symmetry_equiv_pos_site_id
 _symmetry_equiv_pos_as_xyz
  1  'x, y, z'
loop_
 _atom_site_type_symbol
 _atom_site_label
 _atom_site_symmetry_multiplicity
 _atom_site_fract_x
 _atom_site_fract_y
 _atom_site_fract_z
 _atom_site_occupancy
  La  La0  1  0.125000  0.625000  0.125000  1
  La  La1  1  0.125000  0.125000  0.625000  1
  Dy  Dy2  1  0.125000  0.125000  0.125000  1
  Y  Y3  1  0.625000  0.125000  0.125000  1
  Mo  Mo4  1  0.625000  0.625000  0.625000  1
  Mo  Mo5  1  0.125000  0.625000  0.625000  1
  Mo  Mo6  1  0.625000  0.125000  0.625000  1
  Mo  Mo7  1  0.625000  0.625000  0.125000  1
  O  O8  1  0.255469  0.244293  0.244293  1
  O  O9  1  0.994531  0.005707  0.005707  1
  O  O10  1  0.548825  0.959651  0.531628  1
  O  O11  1  0.289681  0.719087  0.290141  1
  O  O12  1  0.548825  0.531628  0.959651  1
  O  O13  1  0.957420  0.542489  0.542489  1
  O  O14  1  0.534873  0.964623  0.964623  1
  O  O15  1  0.960319  0.959859  0.530913  1
  O  O16  1  0.960319  0.530913  0.959859  1
  O  O17  1  0.715127  0.285377  0.285377  1
  O  O18  1  0.292580  0.707511  0.707511  1
  O  O19  1  0.701175  0.718372  0.290349  1
  O  O20  1  0.289681  0.290141  0.719087  1
  O  O21  1  0.701175  0.290349  0.718372  1
