# generated using pymatgen
data_Er3Zr7Sn6
_symmetry_space_group_name_H-M   'P 1'
_cell_length_a   8.61807551
_cell_length_b   8.70791156
_cell_length_c   5.94457800
_cell_angle_alpha   90.00000000
_cell_angle_beta   90.00000000
_cell_angle_gamma   119.96712188
_symmetry_Int_Tables_number   1
_chemical_formula_structural   Er3Zr7Sn6
_chemical_formula_sum   'Er3 Zr7 Sn6'
_cell_volume   386.47352946
_cell_formula_units_Z   1
loop_
 _symmetry_equiv_pos_site_id
 _symmetry_equiv_pos_as_xyz
  1  'x, y, z'
loop_
 _atom_site_type_symbol
 _atom_site_label
 _atom_site_symmetry_multiplicity
 _atom_site_fract_x
 _atom_site_fract_y
 _atom_site_fract_z
 _atom_site_occupancy
  Er  Er0  1  0.762526  0.999053  0.750000  1
  Er  Er1  1  0.241803  0.241687  0.750000  1
  Er  Er2  1  0.234684  0.999252  0.250000  1
  Zr  Zr3  1  0.998897  0.749490  0.750000  1
  Zr  Zr4  1  0.999246  0.252654  0.250000  1
  Zr  Zr5  1  0.753573  0.752875  0.250000  1
  Zr  Zr6  1  0.334885  0.667661  0.499365  1
  Zr  Zr7  1  0.667805  0.333835  0.000617  1
  Zr  Zr8  1  0.667805  0.333835  0.499383  1
  Zr  Zr9  1  0.334885  0.667661  0.000635  1
  Sn  Sn10  1  0.393036  0.996357  0.750000  1
  Sn  Sn11  1  0.394430  0.397046  0.250000  1
  Sn  Sn12  1  0.998561  0.605207  0.250000  1
  Sn  Sn13  1  0.000788  0.399452  0.750000  1
  Sn  Sn14  1  0.607474  0.604259  0.750000  1
  Sn  Sn15  1  0.609603  0.999675  0.250000  1
