# generated using pymatgen
data_DyHo4(SiHg)2
_symmetry_space_group_name_H-M   'P 1'
_cell_length_a   8.75159069
_cell_length_b   8.74912125
_cell_length_c   7.54141622
_cell_angle_alpha   89.97404091
_cell_angle_beta   90.00824477
_cell_angle_gamma   129.14152910
_symmetry_Int_Tables_number   1
_chemical_formula_structural   DyHo4(SiHg)2
_chemical_formula_sum   'Dy2 Ho8 Si4 Hg4'
_cell_volume   447.85350363
_cell_formula_units_Z   2
loop_
 _symmetry_equiv_pos_site_id
 _symmetry_equiv_pos_as_xyz
  1  'x, y, z'
loop_
 _atom_site_type_symbol
 _atom_site_label
 _atom_site_symmetry_multiplicity
 _atom_site_fract_x
 _atom_site_fract_y
 _atom_site_fract_z
 _atom_site_occupancy
  Dy  Dy0  1  0.053791  0.308727  0.324260  1
  Dy  Dy1  1  0.946209  0.691273  0.675740  1
  Ho  Ho2  1  0.446266  0.191617  0.824448  1
  Ho  Ho3  1  0.808382  0.553741  0.175539  1
  Ho  Ho4  1  0.553734  0.808383  0.175552  1
  Ho  Ho5  1  0.191618  0.446259  0.824461  1
  Ho  Ho6  1  0.691521  0.946161  0.675685  1
  Ho  Ho7  1  0.308479  0.053839  0.324315  1
  Ho  Ho8  1  0.000000  0.000000  0.000000  1
  Ho  Ho9  1  0.500000  0.500000  0.500000  1
  Si  Si10  1  0.380378  0.380217  0.122090  1
  Si  Si11  1  0.619622  0.619783  0.877910  1
  Si  Si12  1  0.119959  0.119966  0.622396  1
  Si  Si13  1  0.880041  0.880034  0.377604  1
  Hg  Hg14  1  0.782537  0.217283  0.999799  1
  Hg  Hg15  1  0.217463  0.782717  0.000201  1
  Hg  Hg16  1  0.716906  0.282362  0.499995  1
  Hg  Hg17  1  0.283094  0.717638  0.500005  1
