# generated using pymatgen
data_Ta16FeNi3Te16
_symmetry_space_group_name_H-M   'P 1'
_cell_length_a   4.78991300
_cell_length_b   10.79548405
_cell_length_c   18.80930000
_cell_angle_alpha   89.99444317
_cell_angle_beta   90.00000000
_cell_angle_gamma   90.00000000
_symmetry_Int_Tables_number   1
_chemical_formula_structural   Ta16FeNi3Te16
_chemical_formula_sum   'Ta16 Fe1 Ni3 Te16'
_cell_volume   972.61816577
_cell_formula_units_Z   1
loop_
 _symmetry_equiv_pos_site_id
 _symmetry_equiv_pos_as_xyz
  1  'x, y, z'
loop_
 _atom_site_type_symbol
 _atom_site_label
 _atom_site_symmetry_multiplicity
 _atom_site_fract_x
 _atom_site_fract_y
 _atom_site_fract_z
 _atom_site_occupancy
  Ta  Ta0  1  0.501222  0.564787  0.382969  1
  Ta  Ta1  1  0.501222  0.435213  0.617031  1
  Ta  Ta2  1  0.500155  0.065278  0.117926  1
  Ta  Ta3  1  0.500155  0.934722  0.882074  1
  Ta  Ta4  1  0.501870  0.705218  0.536582  1
  Ta  Ta5  1  0.501870  0.294782  0.463418  1
  Ta  Ta6  1  0.500076  0.206648  0.963152  1
  Ta  Ta7  1  0.500076  0.793352  0.036848  1
  Ta  Ta8  1  0.998137  0.690621  0.442715  1
  Ta  Ta9  1  0.998137  0.309379  0.557285  1
  Ta  Ta10  1  0.999780  0.192013  0.057620  1
  Ta  Ta11  1  0.999780  0.807987  0.942380  1
  Ta  Ta12  1  0.998897  0.400539  0.391377  1
  Ta  Ta13  1  0.998897  0.599461  0.608623  1
  Ta  Ta14  1  0.999880  0.899826  0.109481  1
  Ta  Ta15  1  0.999880  0.100174  0.890519  1
  Fe  Fe16  1  0.250301  0.500000  0.500000  1
  Ni  Ni17  1  0.750019  0.000000  0.000000  1
  Ni  Ni18  1  0.750086  0.500000  0.500000  1
  Ni  Ni19  1  0.249916  0.000000  0.000000  1
  Te  Te20  1  0.000241  0.853341  0.563827  1
  Te  Te21  1  0.000241  0.146659  0.436173  1
  Te  Te22  1  0.999942  0.353384  0.936146  1
  Te  Te23  1  0.999942  0.646616  0.063854  1
  Te  Te24  1  0.499844  0.329604  0.312636  1
  Te  Te25  1  0.499844  0.670396  0.687364  1
  Te  Te26  1  0.499806  0.829811  0.187384  1
  Te  Te27  1  0.499806  0.170189  0.812616  1
  Te  Te28  1  0.499970  0.829159  0.401502  1
  Te  Te29  1  0.499970  0.170841  0.598498  1
  Te  Te30  1  0.500003  0.329079  0.098468  1
  Te  Te31  1  0.500003  0.670921  0.901532  1
  Te  Te32  1  0.999913  0.609838  0.297573  1
  Te  Te33  1  0.999913  0.390162  0.702427  1
  Te  Te34  1  0.000100  0.109701  0.202442  1
  Te  Te35  1  0.000100  0.890299  0.797558  1
