# generated using pymatgen
data_Hf6Al16Ir4Pd2Rh
_symmetry_space_group_name_H-M   'P 1'
_cell_length_a   8.70578840
_cell_length_b   8.70578849
_cell_length_c   8.73901800
_cell_angle_alpha   59.87365595
_cell_angle_beta   59.87365561
_cell_angle_gamma   60.25267551
_symmetry_Int_Tables_number   1
_chemical_formula_structural   Hf6Al16Ir4Pd2Rh
_chemical_formula_sum   'Hf6 Al16 Ir4 Pd2 Rh1'
_cell_volume   468.32906304
_cell_formula_units_Z   1
loop_
 _symmetry_equiv_pos_site_id
 _symmetry_equiv_pos_as_xyz
  1  'x, y, z'
loop_
 _atom_site_type_symbol
 _atom_site_label
 _atom_site_symmetry_multiplicity
 _atom_site_fract_x
 _atom_site_fract_y
 _atom_site_fract_z
 _atom_site_occupancy
  Hf  Hf0  1  0.689204  0.310795  0.310795  1
  Hf  Hf1  1  0.310795  0.689204  0.689204  1
  Hf  Hf2  1  0.310795  0.689204  0.310795  1
  Hf  Hf3  1  0.326504  0.326504  0.673495  1
  Hf  Hf4  1  0.689204  0.310795  0.689204  1
  Hf  Hf5  1  0.673495  0.673495  0.326504  1
  Al  Al6  1  0.336937  0.336937  0.336949  1
  Al  Al7  1  0.336937  0.336937  0.989176  1
  Al  Al8  1  0.989176  0.336949  0.336937  1
  Al  Al9  1  0.336949  0.989176  0.336937  1
  Al  Al10  1  0.663063  0.663063  0.663051  1
  Al  Al11  1  0.663063  0.663063  0.010824  1
  Al  Al12  1  0.663051  0.010824  0.663063  1
  Al  Al13  1  0.010824  0.663051  0.663063  1
  Al  Al14  1  0.122428  0.122428  0.112193  1
  Al  Al15  1  0.122428  0.122428  0.642951  1
  Al  Al16  1  0.642951  0.112193  0.122428  1
  Al  Al17  1  0.112193  0.642951  0.122428  1
  Al  Al18  1  0.877571  0.877571  0.887806  1
  Al  Al19  1  0.877571  0.877571  0.357052  1
  Al  Al20  1  0.887806  0.357052  0.877571  1
  Al  Al21  1  0.357052  0.887806  0.877571  1
  Ir  Ir22  1  0.500000  0.000000  0.000000  1
  Ir  Ir23  1  0.000000  0.500000  0.500000  1
  Ir  Ir24  1  0.000000  0.500000  0.000000  1
  Ir  Ir25  1  0.500000  0.000000  0.500000  1
  Pd  Pd26  1  0.000000  0.000000  0.500000  1
  Pd  Pd27  1  0.500000  0.500000  0.000000  1
  Rh  Rh28  1  0.000000  0.000000  0.000000  1
