# generated using pymatgen
data_Tm12Si12OsRh3
_symmetry_space_group_name_H-M   'P 1'
_cell_length_a   4.20029100
_cell_length_b   10.55470162
_cell_length_c   12.17536913
_cell_angle_alpha   90.06048285
_cell_angle_beta   90.00000000
_cell_angle_gamma   90.00000000
_symmetry_Int_Tables_number   1
_chemical_formula_structural   Tm12Si12OsRh3
_chemical_formula_sum   'Tm12 Si12 Os1 Rh3'
_cell_volume   539.76812576
_cell_formula_units_Z   1
loop_
 _symmetry_equiv_pos_site_id
 _symmetry_equiv_pos_as_xyz
  1  'x, y, z'
loop_
 _atom_site_type_symbol
 _atom_site_label
 _atom_site_symmetry_multiplicity
 _atom_site_fract_x
 _atom_site_fract_y
 _atom_site_fract_z
 _atom_site_occupancy
  Tm  Tm0  1  0.250000  0.878567  0.019994  1
  Tm  Tm1  1  0.250000  0.619450  0.521357  1
  Tm  Tm2  1  0.750000  0.119981  0.979164  1
  Tm  Tm3  1  0.750000  0.379306  0.480293  1
  Tm  Tm4  1  0.250000  0.920410  0.603898  1
  Tm  Tm5  1  0.250000  0.580155  0.104395  1
  Tm  Tm6  1  0.750000  0.079627  0.396211  1
  Tm  Tm7  1  0.750000  0.420640  0.895993  1
  Tm  Tm8  1  0.250000  0.661565  0.799247  1
  Tm  Tm9  1  0.250000  0.839095  0.300169  1
  Tm  Tm10  1  0.750000  0.339739  0.199120  1
  Tm  Tm11  1  0.750000  0.159775  0.699962  1
  Si  Si12  1  0.250000  0.013860  0.822050  1
  Si  Si13  1  0.250000  0.486308  0.321427  1
  Si  Si14  1  0.750000  0.985937  0.178492  1
  Si  Si15  1  0.750000  0.510847  0.680074  1
  Si  Si16  1  0.250000  0.249520  0.839906  1
  Si  Si17  1  0.250000  0.251686  0.342049  1
  Si  Si18  1  0.750000  0.751321  0.158289  1
  Si  Si19  1  0.750000  0.749357  0.657774  1
  Si  Si20  1  0.250000  0.201913  0.545319  1
  Si  Si21  1  0.250000  0.301220  0.042129  1
  Si  Si22  1  0.750000  0.801761  0.456881  1
  Si  Si23  1  0.750000  0.697160  0.956576  1
  Os  Os24  1  0.250000  0.391897  0.678774  1
  Rh  Rh25  1  0.250000  0.108448  0.180517  1
  Rh  Rh26  1  0.750000  0.609335  0.320280  1
  Rh  Rh27  1  0.750000  0.891120  0.819662  1
