# generated using pymatgen
data_Tm2Ga10Tc3
_symmetry_space_group_name_H-M   'P 1'
_cell_length_a   9.04708400
_cell_length_b   9.04708400
_cell_length_c   6.29680200
_cell_angle_alpha   90.00000000
_cell_angle_beta   90.00000000
_cell_angle_gamma   90.00000000
_symmetry_Int_Tables_number   1
_chemical_formula_structural   Tm2Ga10Tc3
_chemical_formula_sum   'Tm4 Ga20 Tc6'
_cell_volume   515.39153666
_cell_formula_units_Z   2
loop_
 _symmetry_equiv_pos_site_id
 _symmetry_equiv_pos_as_xyz
  1  'x, y, z'
loop_
 _atom_site_type_symbol
 _atom_site_label
 _atom_site_symmetry_multiplicity
 _atom_site_fract_x
 _atom_site_fract_y
 _atom_site_fract_z
 _atom_site_occupancy
  Tm  Tm0  1  0.183278  0.316722  0.000000  1
  Tm  Tm1  1  0.683278  0.183278  0.000000  1
  Tm  Tm2  1  0.816722  0.683278  0.000000  1
  Tm  Tm3  1  0.316722  0.816722  0.000000  1
  Ga  Ga4  1  0.500000  0.000000  0.286166  1
  Ga  Ga5  1  0.500000  0.000000  0.713834  1
  Ga  Ga6  1  0.294371  0.560166  0.708611  1
  Ga  Ga7  1  0.000000  0.500000  0.286166  1
  Ga  Ga8  1  0.000000  0.500000  0.713834  1
  Ga  Ga9  1  0.060166  0.794371  0.708611  1
  Ga  Ga10  1  0.205629  0.060166  0.291389  1
  Ga  Ga11  1  0.060166  0.794371  0.291389  1
  Ga  Ga12  1  0.705629  0.439834  0.708611  1
  Ga  Ga13  1  0.205629  0.060166  0.708611  1
  Ga  Ga14  1  0.939834  0.205629  0.708611  1
  Ga  Ga15  1  0.705629  0.439834  0.291389  1
  Ga  Ga16  1  0.560166  0.705629  0.291389  1
  Ga  Ga17  1  0.939834  0.205629  0.291389  1
  Ga  Ga18  1  0.560166  0.705629  0.708611  1
  Ga  Ga19  1  0.794371  0.939834  0.291389  1
  Ga  Ga20  1  0.439834  0.294371  0.708611  1
  Ga  Ga21  1  0.794371  0.939834  0.708611  1
  Ga  Ga22  1  0.439834  0.294371  0.291389  1
  Ga  Ga23  1  0.294371  0.560166  0.291389  1
  Tc  Tc24  1  0.179027  0.320973  0.500000  1
  Tc  Tc25  1  0.320973  0.820973  0.500000  1
  Tc  Tc26  1  0.820973  0.679027  0.500000  1
  Tc  Tc27  1  0.000000  0.000000  0.000000  1
  Tc  Tc28  1  0.679027  0.179027  0.500000  1
  Tc  Tc29  1  0.500000  0.500000  0.000000  1
