# generated using pymatgen
data_Mg3Ni(BIr2)2
_symmetry_space_group_name_H-M   'P 1'
_cell_length_a   2.95928500
_cell_length_b   9.42153900
_cell_length_c   9.42153900
_cell_angle_alpha   90.00000000
_cell_angle_beta   90.00000000
_cell_angle_gamma   90.00000000
_symmetry_Int_Tables_number   1
_chemical_formula_structural   Mg3Ni(BIr2)2
_chemical_formula_sum   'Mg6 Ni2 B4 Ir8'
_cell_volume   262.68210824
_cell_formula_units_Z   2
loop_
 _symmetry_equiv_pos_site_id
 _symmetry_equiv_pos_as_xyz
  1  'x, y, z'
loop_
 _atom_site_type_symbol
 _atom_site_label
 _atom_site_symmetry_multiplicity
 _atom_site_fract_x
 _atom_site_fract_y
 _atom_site_fract_z
 _atom_site_occupancy
  Mg  Mg0  1  0.000000  0.181672  0.681672  1
  Mg  Mg1  1  0.000000  0.818328  0.318328  1
  Mg  Mg2  1  0.000000  0.318328  0.181672  1
  Mg  Mg3  1  0.000000  0.681672  0.818328  1
  Mg  Mg4  1  0.000000  0.000000  0.000000  1
  Mg  Mg5  1  0.000000  0.500000  0.500000  1
  Ni  Ni6  1  0.500000  0.000000  0.500000  1
  Ni  Ni7  1  0.500000  0.500000  0.000000  1
  B  B8  1  0.000000  0.620701  0.120701  1
  B  B9  1  0.000000  0.379299  0.879299  1
  B  B10  1  0.000000  0.879299  0.620701  1
  B  B11  1  0.000000  0.120701  0.379299  1
  Ir  Ir12  1  0.500000  0.059387  0.227699  1
  Ir  Ir13  1  0.500000  0.940613  0.772301  1
  Ir  Ir14  1  0.500000  0.772301  0.059387  1
  Ir  Ir15  1  0.500000  0.440613  0.727699  1
  Ir  Ir16  1  0.500000  0.227699  0.940613  1
  Ir  Ir17  1  0.500000  0.559387  0.272301  1
  Ir  Ir18  1  0.500000  0.727699  0.559387  1
  Ir  Ir19  1  0.500000  0.272301  0.440613  1
