# generated using pymatgen
data_Tb6EuPtI12
_symmetry_space_group_name_H-M   'P 1'
_cell_length_a   9.85406075
_cell_length_b   9.85406076
_cell_length_c   9.85406229
_cell_angle_alpha   106.81751280
_cell_angle_beta   106.81750981
_cell_angle_gamma   106.81751442
_symmetry_Int_Tables_number   1
_chemical_formula_structural   Tb6EuPtI12
_chemical_formula_sum   'Tb6 Eu1 Pt1 I12'
_cell_volume   800.81113437
_cell_formula_units_Z   1
loop_
 _symmetry_equiv_pos_site_id
 _symmetry_equiv_pos_as_xyz
  1  'x, y, z'
loop_
 _atom_site_type_symbol
 _atom_site_label
 _atom_site_symmetry_multiplicity
 _atom_site_fract_x
 _atom_site_fract_y
 _atom_site_fract_z
 _atom_site_occupancy
  Tb  Tb0  1  0.097254  0.025347  0.301054  1
  Tb  Tb1  1  0.301054  0.097254  0.025347  1
  Tb  Tb2  1  0.025347  0.301054  0.097254  1
  Tb  Tb3  1  0.902746  0.974653  0.698946  1
  Tb  Tb4  1  0.698946  0.902746  0.974653  1
  Tb  Tb5  1  0.974653  0.698946  0.902746  1
  Eu  Eu6  1  0.500000  0.500000  0.500000  1
  Pt  Pt7  1  0.000000  0.000000  0.000000  1
  I  I8  1  0.073668  0.678561  0.223473  1
  I  I9  1  0.223473  0.073668  0.678561  1
  I  I10  1  0.678561  0.223473  0.073668  1
  I  I11  1  0.926332  0.321439  0.776527  1
  I  I12  1  0.776527  0.926332  0.321439  1
  I  I13  1  0.321439  0.776527  0.926332  1
  I  I14  1  0.456094  0.142692  0.377134  1
  I  I15  1  0.377134  0.456094  0.142692  1
  I  I16  1  0.142692  0.377134  0.456094  1
  I  I17  1  0.543906  0.857308  0.622866  1
  I  I18  1  0.622866  0.543906  0.857308  1
  I  I19  1  0.857308  0.622866  0.543906  1
