# generated using pymatgen
data_Yb3Sm4Sc(B6Ru)4
_symmetry_space_group_name_H-M   'P 1'
_cell_length_a   3.68116700
_cell_length_b   9.10479312
_cell_length_c   11.52932016
_cell_angle_alpha   89.98104953
_cell_angle_beta   90.00000000
_cell_angle_gamma   90.00000000
_symmetry_Int_Tables_number   1
_chemical_formula_structural   Yb3Sm4Sc(B6Ru)4
_chemical_formula_sum   'Yb3 Sm4 Sc1 B24 Ru4'
_cell_volume   386.41971691
_cell_formula_units_Z   1
loop_
 _symmetry_equiv_pos_site_id
 _symmetry_equiv_pos_as_xyz
  1  'x, y, z'
loop_
 _atom_site_type_symbol
 _atom_site_label
 _atom_site_symmetry_multiplicity
 _atom_site_fract_x
 _atom_site_fract_y
 _atom_site_fract_z
 _atom_site_occupancy
  Yb  Yb0  1  0.000000  0.057497  0.629452  1
  Yb  Yb1  1  0.000000  0.441133  0.132756  1
  Yb  Yb2  1  0.000000  0.558537  0.867817  1
  Sm  Sm3  1  0.000000  0.321296  0.415435  1
  Sm  Sm4  1  0.000000  0.678957  0.586587  1
  Sm  Sm5  1  0.000000  0.820918  0.084844  1
  Sm  Sm6  1  0.000000  0.178223  0.913052  1
  Sc  Sc7  1  0.000000  0.941685  0.368224  1
  B  B8  1  0.500000  0.556930  0.431472  1
  B  B9  1  0.500000  0.445666  0.568542  1
  B  B10  1  0.500000  0.054116  0.069516  1
  B  B11  1  0.500000  0.944867  0.931102  1
  B  B12  1  0.500000  0.753980  0.417258  1
  B  B13  1  0.500000  0.250038  0.583096  1
  B  B14  1  0.500000  0.249098  0.084557  1
  B  B15  1  0.500000  0.749719  0.916378  1
  B  B16  1  0.500000  0.792522  0.265963  1
  B  B17  1  0.500000  0.210138  0.733849  1
  B  B18  1  0.500000  0.288797  0.235683  1
  B  B19  1  0.500000  0.710389  0.765455  1
  B  B20  1  0.500000  0.629113  0.185936  1
  B  B21  1  0.500000  0.371591  0.813962  1
  B  B22  1  0.500000  0.125993  0.316376  1
  B  B23  1  0.500000  0.871900  0.685532  1
  B  B24  1  0.500000  0.980888  0.214526  1
  B  B25  1  0.500000  0.017098  0.786852  1
  B  B26  1  0.500000  0.484440  0.288002  1
  B  B27  1  0.500000  0.516845  0.712546  1
  B  B28  1  0.500000  0.595366  0.026622  1
  B  B29  1  0.500000  0.404319  0.973995  1
  B  B30  1  0.500000  0.093371  0.470509  1
  B  B31  1  0.500000  0.903384  0.523087  1
  Ru  Ru32  1  0.000000  0.642513  0.319739  1
  Ru  Ru33  1  0.000000  0.361352  0.679501  1
  Ru  Ru34  1  0.000000  0.135171  0.182385  1
  Ru  Ru35  1  0.000000  0.862149  0.819393  1
