# generated using pymatgen
data_Tb9Y7(In3Ni)2
_symmetry_space_group_name_H-M   'P 1'
_cell_length_a   10.52474981
_cell_length_b   10.52494669
_cell_length_c   7.01073945
_cell_angle_alpha   90.03526534
_cell_angle_beta   89.96440705
_cell_angle_gamma   120.02686897
_symmetry_Int_Tables_number   1
_chemical_formula_structural   Tb9Y7(In3Ni)2
_chemical_formula_sum   'Tb9 Y7 In6 Ni2'
_cell_volume   672.37008806
_cell_formula_units_Z   1
loop_
 _symmetry_equiv_pos_site_id
 _symmetry_equiv_pos_as_xyz
  1  'x, y, z'
loop_
 _atom_site_type_symbol
 _atom_site_label
 _atom_site_symmetry_multiplicity
 _atom_site_fract_x
 _atom_site_fract_y
 _atom_site_fract_z
 _atom_site_occupancy
  Tb  Tb0  1  0.353802  0.176800  0.272413  1
  Tb  Tb1  1  0.823208  0.646199  0.272404  1
  Tb  Tb2  1  0.176660  0.823321  0.772044  1
  Tb  Tb3  1  0.646541  0.823452  0.772618  1
  Tb  Tb4  1  0.176544  0.353452  0.772616  1
  Tb  Tb5  1  0.333238  0.666761  0.094936  1
  Tb  Tb6  1  0.666775  0.333221  0.594273  1
  Tb  Tb7  1  0.000287  0.999722  0.496867  1
  Tb  Tb8  1  0.999912  0.000075  0.997557  1
  Y  Y9  1  0.467502  0.532510  0.480025  1
  Y  Y10  1  0.064930  0.532110  0.480518  1
  Y  Y11  1  0.467887  0.935061  0.480520  1
  Y  Y12  1  0.532392  0.467610  0.979961  1
  Y  Y13  1  0.935009  0.468011  0.980339  1
  Y  Y14  1  0.531993  0.065001  0.980340  1
  Y  Y15  1  0.823572  0.176435  0.271688  1
  In  In16  1  0.163368  0.836638  0.237821  1
  In  In17  1  0.673852  0.837086  0.238071  1
  In  In18  1  0.162931  0.326180  0.238076  1
  In  In19  1  0.836477  0.163522  0.737610  1
  In  In20  1  0.326555  0.163235  0.737839  1
  In  In21  1  0.836740  0.673415  0.737785  1
  Ni  Ni22  1  0.333334  0.666646  0.709201  1
  Ni  Ni23  1  0.666492  0.333537  0.209026  1
