# generated using pymatgen
data_TbMg2ZrNi8
_symmetry_space_group_name_H-M   'P 1'
_cell_length_a   4.90804600
_cell_length_b   4.90804557
_cell_length_c   8.53240928
_cell_angle_alpha   73.28495908
_cell_angle_beta   90.00000000
_cell_angle_gamma   120.00000289
_symmetry_Int_Tables_number   1
_chemical_formula_structural   TbMg2ZrNi8
_chemical_formula_sum   'Tb1 Mg2 Zr1 Ni8'
_cell_volume   167.89691786
_cell_formula_units_Z   1
loop_
 _symmetry_equiv_pos_site_id
 _symmetry_equiv_pos_as_xyz
  1  'x, y, z'
loop_
 _atom_site_type_symbol
 _atom_site_label
 _atom_site_symmetry_multiplicity
 _atom_site_fract_x
 _atom_site_fract_y
 _atom_site_fract_z
 _atom_site_occupancy
  Tb  Tb0  1  0.999849  0.999699  0.000452  1
  Mg  Mg1  1  0.873963  0.747929  0.378108  1
  Mg  Mg2  1  0.376714  0.753428  0.869857  1
  Zr  Zr3  1  0.500186  0.000370  0.499444  1
  Ni  Ni4  1  0.435305  0.371170  0.193525  1
  Ni  Ni5  1  0.936609  0.380337  0.683056  1
  Ni  Ni6  1  0.435305  0.870609  0.193525  1
  Ni  Ni7  1  0.936609  0.873216  0.683056  1
  Ni  Ni8  1  0.187740  0.375480  0.436780  1
  Ni  Ni9  1  0.688129  0.376257  0.935614  1
  Ni  Ni10  1  0.935864  0.371170  0.193525  1
  Ni  Ni11  1  0.443727  0.380337  0.683056  1
