# generated using pymatgen
data_TaP6(WO8)3
_symmetry_space_group_name_H-M   'P 1'
_cell_length_a   8.77305055
_cell_length_b   8.78577030
_cell_length_c   9.09607708
_cell_angle_alpha   90.49486738
_cell_angle_beta   118.89446927
_cell_angle_gamma   119.69998504
_symmetry_Int_Tables_number   1
_chemical_formula_structural   TaP6(WO8)3
_chemical_formula_sum   'Ta1 P6 W3 O24'
_cell_volume   504.03275321
_cell_formula_units_Z   1
loop_
 _symmetry_equiv_pos_site_id
 _symmetry_equiv_pos_as_xyz
  1  'x, y, z'
loop_
 _atom_site_type_symbol
 _atom_site_label
 _atom_site_symmetry_multiplicity
 _atom_site_fract_x
 _atom_site_fract_y
 _atom_site_fract_z
 _atom_site_occupancy
  Ta  Ta0  1  0.212972  0.857889  0.071360  1
  P  P1  1  0.997703  0.964168  0.248839  1
  P  P2  1  0.284655  0.536027  0.251734  1
  P  P3  1  0.285153  0.753086  0.748090  1
  P  P4  1  0.716015  0.248485  0.252684  1
  P  P5  1  0.716086  0.463072  0.748832  1
  P  P6  1  0.003212  0.036686  0.752962  1
  W  W7  1  0.788048  0.641655  0.433510  1
  W  W8  1  0.213905  0.359930  0.569899  1
  W  W9  1  0.790168  0.142862  0.933296  1
  O  O10  1  0.289015  0.709597  0.210631  1
  O  O11  1  0.862556  0.990269  0.073998  1
  O  O12  1  0.853772  0.861090  0.591531  1
  O  O13  1  0.846015  0.798816  0.271589  1
  O  O14  1  0.140657  0.928021  0.221379  1
  O  O15  1  0.479672  0.555054  0.277837  1
  O  O16  1  0.100649  0.737366  0.580085  1
  O  O17  1  0.916392  0.636373  0.913398  1
  O  O18  1  0.278770  0.789533  0.911206  1
  O  O19  1  0.491761  0.919410  0.778007  1
  O  O20  1  0.725723  0.473001  0.586372  1
  O  O21  1  0.719798  0.423350  0.271219  1
  O  O22  1  0.278566  0.576029  0.730139  1
  O  O23  1  0.271496  0.523587  0.412036  1
  O  O24  1  0.508039  0.079008  0.219449  1
  O  O25  1  0.715724  0.211694  0.085522  1
  O  O26  1  0.088182  0.367041  0.081862  1
  O  O27  1  0.900256  0.261940  0.418180  1
  O  O28  1  0.521935  0.445378  0.723842  1
  O  O29  1  0.858594  0.071622  0.778951  1
  O  O30  1  0.157357  0.204268  0.733864  1
  O  O31  1  0.146286  0.143440  0.405569  1
  O  O32  1  0.131797  0.001206  0.922250  1
  O  O33  1  0.709074  0.289047  0.789875  1
