# generated using pymatgen
data_Nb12Fe8Re3WN4
_symmetry_space_group_name_H-M   'P 1'
_cell_length_a   8.14811315
_cell_length_b   8.14811177
_cell_length_c   8.14811338
_cell_angle_alpha   60.28118132
_cell_angle_beta   60.28118407
_cell_angle_gamma   60.28117739
_symmetry_Int_Tables_number   1
_chemical_formula_structural   Nb12Fe8Re3WN4
_chemical_formula_sum   'Nb12 Fe8 Re3 W1 N4'
_cell_volume   384.95595963
_cell_formula_units_Z   1
loop_
 _symmetry_equiv_pos_site_id
 _symmetry_equiv_pos_as_xyz
  1  'x, y, z'
loop_
 _atom_site_type_symbol
 _atom_site_label
 _atom_site_symmetry_multiplicity
 _atom_site_fract_x
 _atom_site_fract_y
 _atom_site_fract_z
 _atom_site_occupancy
  Nb  Nb0  1  0.807509  0.807509  0.191421  1
  Nb  Nb1  1  0.194044  0.194044  0.806254  1
  Nb  Nb2  1  0.807509  0.191421  0.807509  1
  Nb  Nb3  1  0.194044  0.806254  0.194044  1
  Nb  Nb4  1  0.191421  0.807509  0.807509  1
  Nb  Nb5  1  0.806254  0.194044  0.194044  1
  Nb  Nb6  1  0.442491  0.442491  0.058579  1
  Nb  Nb7  1  0.055956  0.055956  0.443746  1
  Nb  Nb8  1  0.442491  0.058579  0.442491  1
  Nb  Nb9  1  0.055956  0.443746  0.055956  1
  Nb  Nb10  1  0.058579  0.442491  0.442491  1
  Nb  Nb11  1  0.443746  0.055956  0.055956  1
  Fe  Fe12  1  0.731924  0.422141  0.422141  1
  Fe  Fe13  1  0.422141  0.731924  0.422141  1
  Fe  Fe14  1  0.422141  0.422141  0.731924  1
  Fe  Fe15  1  0.423583  0.423583  0.423583  1
  Fe  Fe16  1  0.518076  0.827859  0.827859  1
  Fe  Fe17  1  0.827859  0.518076  0.827859  1
  Fe  Fe18  1  0.827859  0.827859  0.518076  1
  Fe  Fe19  1  0.826417  0.826417  0.826417  1
  Re  Re20  1  0.125000  0.625000  0.625000  1
  Re  Re21  1  0.625000  0.125000  0.625000  1
  Re  Re22  1  0.625000  0.625000  0.125000  1
  W  W23  1  0.625000  0.625000  0.625000  1
  N  N24  1  0.625000  0.125000  0.125000  1
  N  N25  1  0.125000  0.625000  0.125000  1
  N  N26  1  0.125000  0.125000  0.625000  1
  N  N27  1  0.125000  0.125000  0.125000  1
