# generated using pymatgen
data_Th3AlIn2Pd2Ru
_symmetry_space_group_name_H-M   'P 1'
_cell_length_a   7.66511430
_cell_length_b   7.61719840
_cell_length_c   4.03750900
_cell_angle_alpha   90.00000000
_cell_angle_beta   90.00000000
_cell_angle_gamma   119.54951170
_symmetry_Int_Tables_number   1
_chemical_formula_structural   Th3AlIn2Pd2Ru
_chemical_formula_sum   'Th3 Al1 In2 Pd2 Ru1'
_cell_volume   205.07448884
_cell_formula_units_Z   1
loop_
 _symmetry_equiv_pos_site_id
 _symmetry_equiv_pos_as_xyz
  1  'x, y, z'
loop_
 _atom_site_type_symbol
 _atom_site_label
 _atom_site_symmetry_multiplicity
 _atom_site_fract_x
 _atom_site_fract_y
 _atom_site_fract_z
 _atom_site_occupancy
  Th  Th0  1  0.417905  0.410747  0.500000  1
  Th  Th1  1  0.595825  0.017191  0.500000  1
  Th  Th2  1  0.988419  0.568014  0.500000  1
  Al  Al3  1  0.996113  0.245142  0.000000  1
  In  In4  1  0.754652  0.753796  0.000000  1
  In  In5  1  0.245210  0.996503  0.000000  1
  Pd  Pd6  1  0.322295  0.650785  0.000000  1
  Pd  Pd7  1  0.001956  0.029435  0.500000  1
  Ru  Ru8  1  0.677625  0.328386  0.000000  1
