# generated using pymatgen
data_Cs4In3GaH16
_symmetry_space_group_name_H-M   'P 1'
_cell_length_a   6.21601800
_cell_length_b   8.20670712
_cell_length_c   10.33299993
_cell_angle_alpha   90.09990874
_cell_angle_beta   90.00000000
_cell_angle_gamma   90.00000000
_symmetry_Int_Tables_number   1
_chemical_formula_structural   Cs4In3GaH16
_chemical_formula_sum   'Cs4 In3 Ga1 H16'
_cell_volume   527.11692869
_cell_formula_units_Z   1
loop_
 _symmetry_equiv_pos_site_id
 _symmetry_equiv_pos_as_xyz
  1  'x, y, z'
loop_
 _atom_site_type_symbol
 _atom_site_label
 _atom_site_symmetry_multiplicity
 _atom_site_fract_x
 _atom_site_fract_y
 _atom_site_fract_z
 _atom_site_occupancy
  Cs  Cs0  1  0.250000  0.334047  0.680810  1
  Cs  Cs1  1  0.250000  0.164238  0.189503  1
  Cs  Cs2  1  0.750000  0.662171  0.317274  1
  Cs  Cs3  1  0.750000  0.836689  0.814244  1
  In  In4  1  0.250000  0.695141  0.059699  1
  In  In5  1  0.250000  0.805309  0.559341  1
  In  In6  1  0.750000  0.305093  0.940242  1
  Ga  Ga7  1  0.750000  0.197401  0.439689  1
  H  H8  1  0.250000  0.612801  0.900615  1
  H  H9  1  0.250000  0.886078  0.400170  1
  H  H10  1  0.750000  0.387444  0.099240  1
  H  H11  1  0.750000  0.121370  0.582300  1
  H  H12  1  0.250000  0.543795  0.182834  1
  H  H13  1  0.250000  0.956175  0.682772  1
  H  H14  1  0.750000  0.456336  0.817415  1
  H  H15  1  0.750000  0.058526  0.330314  1
  H  H16  1  0.982102  0.178683  0.918830  1
  H  H17  1  0.539817  0.310182  0.420907  1
  H  H18  1  0.482314  0.821167  0.081195  1
  H  H19  1  0.018225  0.678661  0.580836  1
  H  H20  1  0.017686  0.821167  0.081195  1
  H  H21  1  0.481775  0.678661  0.580836  1
  H  H22  1  0.517898  0.178683  0.918830  1
  H  H23  1  0.960183  0.310182  0.420907  1
