# generated using pymatgen
data_Li(MgOs)2
_symmetry_space_group_name_H-M   'P 1'
_cell_length_a   6.86107454
_cell_length_b   6.90262314
_cell_length_c   6.84854249
_cell_angle_alpha   90.06273140
_cell_angle_beta   89.88499229
_cell_angle_gamma   89.98064362
_symmetry_Int_Tables_number   1
_chemical_formula_structural   Li(MgOs)2
_chemical_formula_sum   'Li4 Mg8 Os8'
_cell_volume   324.34207775
_cell_formula_units_Z   4
loop_
 _symmetry_equiv_pos_site_id
 _symmetry_equiv_pos_as_xyz
  1  'x, y, z'
loop_
 _atom_site_type_symbol
 _atom_site_label
 _atom_site_symmetry_multiplicity
 _atom_site_fract_x
 _atom_site_fract_y
 _atom_site_fract_z
 _atom_site_occupancy
  Li  Li0  1  0.633942  0.295479  0.548301  1
  Li  Li1  1  0.710400  0.055632  0.864601  1
  Li  Li2  1  0.543996  0.611539  0.300160  1
  Li  Li3  1  0.948215  0.370634  0.792345  1
  Mg  Mg4  1  0.295170  0.537323  0.623749  1
  Mg  Mg5  1  0.461576  0.136711  0.212013  1
  Mg  Mg6  1  0.039429  0.873823  0.713119  1
  Mg  Mg7  1  0.784561  0.956141  0.377856  1
  Mg  Mg8  1  0.115938  0.208480  0.463870  1
  Mg  Mg9  1  0.396607  0.797308  0.965516  1
  Mg  Mg10  1  0.858714  0.707952  0.040884  1
  Mg  Mg11  1  0.206856  0.461891  0.116045  1
  Os  Os12  1  0.678618  0.672314  0.673357  1
  Os  Os13  1  0.924931  0.572600  0.422712  1
  Os  Os14  1  0.572959  0.424423  0.923535  1
  Os  Os15  1  0.425784  0.921846  0.572849  1
  Os  Os16  1  0.173522  0.825156  0.322898  1
  Os  Os17  1  0.824616  0.322301  0.172236  1
  Os  Os18  1  0.327882  0.173508  0.820810  1
  Os  Os19  1  0.076286  0.074939  0.073145  1
