# generated using pymatgen
data_Tm4Mn2Os5W
_symmetry_space_group_name_H-M   'P 1'
_cell_length_a   5.36788238
_cell_length_b   5.25622800
_cell_length_c   8.81688800
_cell_angle_alpha   90.00000000
_cell_angle_beta   90.00000000
_cell_angle_gamma   120.99008889
_symmetry_Int_Tables_number   1
_chemical_formula_structural   Tm4Mn2Os5W
_chemical_formula_sum   'Tm4 Mn2 Os5 W1'
_cell_volume   213.25697133
_cell_formula_units_Z   1
loop_
 _symmetry_equiv_pos_site_id
 _symmetry_equiv_pos_as_xyz
  1  'x, y, z'
loop_
 _atom_site_type_symbol
 _atom_site_label
 _atom_site_symmetry_multiplicity
 _atom_site_fract_x
 _atom_site_fract_y
 _atom_site_fract_z
 _atom_site_occupancy
  Tm  Tm0  1  0.669444  0.341248  0.559485  1
  Tm  Tm1  1  0.333861  0.666936  0.434478  1
  Tm  Tm2  1  0.333861  0.666936  0.065522  1
  Tm  Tm3  1  0.669444  0.341248  0.940515  1
  Mn  Mn4  1  0.171211  0.825482  0.750000  1
  Mn  Mn5  1  0.831376  0.660833  0.250000  1
  Os  Os6  1  0.006803  0.011555  0.498984  1
  Os  Os7  1  0.006803  0.011555  0.001016  1
  Os  Os8  1  0.646560  0.817543  0.750000  1
  Os  Os9  1  0.822334  0.164810  0.250000  1
  Os  Os10  1  0.343002  0.166503  0.250000  1
  W  W11  1  0.165301  0.325353  0.750000  1
