# generated using pymatgen
data_Ca5La10Pr(MgIr)4
_symmetry_space_group_name_H-M   'P 1'
_cell_length_a   10.19861311
_cell_length_b   10.19861459
_cell_length_c   10.18348600
_cell_angle_alpha   60.04906472
_cell_angle_beta   60.04905994
_cell_angle_gamma   60.14160963
_symmetry_Int_Tables_number   1
_chemical_formula_structural   Ca5La10Pr(MgIr)4
_chemical_formula_sum   'Ca5 La10 Pr1 Mg4 Ir4'
_cell_volume   750.32386226
_cell_formula_units_Z   1
loop_
 _symmetry_equiv_pos_site_id
 _symmetry_equiv_pos_as_xyz
  1  'x, y, z'
loop_
 _atom_site_type_symbol
 _atom_site_label
 _atom_site_symmetry_multiplicity
 _atom_site_fract_x
 _atom_site_fract_y
 _atom_site_fract_z
 _atom_site_occupancy
  Ca  Ca0  1  0.939024  0.562205  0.559667  1
  Ca  Ca1  1  0.562205  0.939024  0.939104  1
  Ca  Ca2  1  0.562205  0.939024  0.559667  1
  Ca  Ca3  1  0.939024  0.562205  0.939104  1
  Ca  Ca4  1  0.560542  0.560542  0.939458  1
  La  La5  1  0.345340  0.345340  0.344020  1
  La  La6  1  0.345340  0.345340  0.965303  1
  La  La7  1  0.344163  0.966671  0.344584  1
  La  La8  1  0.966671  0.344163  0.344584  1
  La  La9  1  0.810758  0.188661  0.190113  1
  La  La10  1  0.188661  0.810758  0.810468  1
  La  La11  1  0.188661  0.810758  0.190113  1
  La  La12  1  0.810758  0.188661  0.810468  1
  La  La13  1  0.189130  0.189130  0.810870  1
  La  La14  1  0.807829  0.807829  0.192171  1
  Pr  Pr15  1  0.939279  0.939279  0.560721  1
  Mg  Mg16  1  0.577756  0.577756  0.577927  1
  Mg  Mg17  1  0.577756  0.577756  0.266561  1
  Mg  Mg18  1  0.579931  0.265276  0.577396  1
  Mg  Mg19  1  0.265276  0.579931  0.577396  1
  Ir  Ir20  1  0.139865  0.139865  0.140563  1
  Ir  Ir21  1  0.139865  0.139865  0.579706  1
  Ir  Ir22  1  0.140684  0.579276  0.140019  1
  Ir  Ir23  1  0.579276  0.140684  0.140019  1
