# generated using pymatgen
data_Nd8Cd2OsPd
_symmetry_space_group_name_H-M   'P 1'
_cell_length_a   9.98103134
_cell_length_b   9.98103204
_cell_length_c   10.04290300
_cell_angle_alpha   59.79473415
_cell_angle_beta   59.79473183
_cell_angle_gamma   59.84181921
_symmetry_Int_Tables_number   1
_chemical_formula_structural   Nd8Cd2OsPd
_chemical_formula_sum   'Nd16 Cd4 Os2 Pd2'
_cell_volume   704.40441902
_cell_formula_units_Z   2
loop_
 _symmetry_equiv_pos_site_id
 _symmetry_equiv_pos_as_xyz
  1  'x, y, z'
loop_
 _atom_site_type_symbol
 _atom_site_label
 _atom_site_symmetry_multiplicity
 _atom_site_fract_x
 _atom_site_fract_y
 _atom_site_fract_z
 _atom_site_occupancy
  Nd  Nd0  1  0.348053  0.348053  0.355650  1
  Nd  Nd1  1  0.348053  0.348053  0.948244  1
  Nd  Nd2  1  0.344596  0.953968  0.350718  1
  Nd  Nd3  1  0.953968  0.344596  0.350718  1
  Nd  Nd4  1  0.815284  0.189500  0.191301  1
  Nd  Nd5  1  0.189500  0.815284  0.803916  1
  Nd  Nd6  1  0.189500  0.815284  0.191301  1
  Nd  Nd7  1  0.815284  0.189500  0.803916  1
  Nd  Nd8  1  0.189196  0.189196  0.810804  1
  Nd  Nd9  1  0.806796  0.806796  0.193204  1
  Nd  Nd10  1  0.937952  0.557198  0.565504  1
  Nd  Nd11  1  0.557198  0.937952  0.939345  1
  Nd  Nd12  1  0.557198  0.937952  0.565504  1
  Nd  Nd13  1  0.937952  0.557198  0.939345  1
  Nd  Nd14  1  0.563287  0.563287  0.936713  1
  Nd  Nd15  1  0.939916  0.939916  0.560084  1
  Cd  Cd16  1  0.579873  0.579873  0.580603  1
  Cd  Cd17  1  0.579873  0.579873  0.259652  1
  Cd  Cd18  1  0.580218  0.258457  0.580663  1
  Cd  Cd19  1  0.258457  0.580218  0.580663  1
  Os  Os20  1  0.144234  0.144234  0.136888  1
  Os  Os21  1  0.144234  0.144234  0.574643  1
  Pd  Pd22  1  0.146188  0.573190  0.140310  1
  Pd  Pd23  1  0.573190  0.146188  0.140310  1
