# generated using pymatgen
data_Dy6Co2P12Ru13Rh3
_symmetry_space_group_name_H-M   'P 1'
_cell_length_a   3.92247900
_cell_length_b   11.07319644
_cell_length_c   12.63981040
_cell_angle_alpha   89.68468642
_cell_angle_beta   90.00000000
_cell_angle_gamma   90.00000000
_symmetry_Int_Tables_number   1
_chemical_formula_structural   Dy6Co2P12Ru13Rh3
_chemical_formula_sum   'Dy6 Co2 P12 Ru13 Rh3'
_cell_volume   548.99402095
_cell_formula_units_Z   1
loop_
 _symmetry_equiv_pos_site_id
 _symmetry_equiv_pos_as_xyz
  1  'x, y, z'
loop_
 _atom_site_type_symbol
 _atom_site_label
 _atom_site_symmetry_multiplicity
 _atom_site_fract_x
 _atom_site_fract_y
 _atom_site_fract_z
 _atom_site_occupancy
  Dy  Dy0  1  0.000000  0.499058  0.523255  1
  Dy  Dy1  1  0.500000  0.000751  0.477130  1
  Dy  Dy2  1  0.500000  0.817870  0.203719  1
  Dy  Dy3  1  0.500000  0.180042  0.203200  1
  Dy  Dy4  1  0.000000  0.682474  0.796800  1
  Dy  Dy5  1  0.000000  0.318814  0.795984  1
  Co  Co6  1  0.000000  0.500215  0.987377  1
  Co  Co7  1  0.500000  0.999478  0.012585  1
  P  P8  1  0.500000  0.500765  0.883910  1
  P  P9  1  0.000000  0.998862  0.115902  1
  P  P10  1  0.500000  0.505510  0.341855  1
  P  P11  1  0.000000  0.000552  0.661255  1
  P  P12  1  0.500000  0.305063  0.614914  1
  P  P13  1  0.500000  0.697609  0.616965  1
  P  P14  1  0.000000  0.193620  0.384928  1
  P  P15  1  0.000000  0.803493  0.383645  1
  P  P16  1  0.500000  0.849204  0.897927  1
  P  P17  1  0.500000  0.150618  0.897067  1
  P  P18  1  0.000000  0.649389  0.103162  1
  P  P19  1  0.000000  0.348015  0.099426  1
  Ru  Ru20  1  0.500000  0.498482  0.155952  1
  Ru  Ru21  1  0.000000  0.000030  0.846183  1
  Ru  Ru22  1  0.500000  0.334133  0.989620  1
  Ru  Ru23  1  0.500000  0.665362  0.990214  1
  Ru  Ru24  1  0.000000  0.165063  0.010035  1
  Ru  Ru25  1  0.000000  0.833175  0.011222  1
  Ru  Ru26  1  0.500000  0.301308  0.426397  1
  Ru  Ru27  1  0.500000  0.701716  0.429997  1
  Ru  Ru28  1  0.000000  0.200555  0.570101  1
  Ru  Ru29  1  0.000000  0.801623  0.571138  1
  Ru  Ru30  1  0.500000  0.878074  0.716037  1
  Ru  Ru31  1  0.500000  0.123673  0.715346  1
  Ru  Ru32  1  0.000000  0.621187  0.285639  1
  Rh  Rh33  1  0.500000  0.500603  0.697008  1
  Rh  Rh34  1  0.000000  0.999735  0.302754  1
  Rh  Rh35  1  0.000000  0.373877  0.281352  1
