# generated using pymatgen
data_LiCr21RhC6
_symmetry_space_group_name_H-M   'P 1'
_cell_length_a   7.47210187
_cell_length_b   7.47210220
_cell_length_c   7.47210200
_cell_angle_alpha   60.00000089
_cell_angle_beta   59.99999942
_cell_angle_gamma   60.00000109
_symmetry_Int_Tables_number   1
_chemical_formula_structural   LiCr21RhC6
_chemical_formula_sum   'Li1 Cr21 Rh1 C6'
_cell_volume   294.99413803
_cell_formula_units_Z   1
loop_
 _symmetry_equiv_pos_site_id
 _symmetry_equiv_pos_as_xyz
  1  'x, y, z'
loop_
 _atom_site_type_symbol
 _atom_site_label
 _atom_site_symmetry_multiplicity
 _atom_site_fract_x
 _atom_site_fract_y
 _atom_site_fract_z
 _atom_site_occupancy
  Li  Li0  1  0.000000  0.000000  0.000000  1
  Cr  Cr1  1  0.250000  0.250000  0.250000  1
  Cr  Cr2  1  0.611890  0.611890  0.164330  1
  Cr  Cr3  1  0.611890  0.164330  0.611890  1
  Cr  Cr4  1  0.164330  0.611890  0.611890  1
  Cr  Cr5  1  0.611890  0.611890  0.611890  1
  Cr  Cr6  1  0.379610  0.379610  0.861169  1
  Cr  Cr7  1  0.379610  0.861169  0.379610  1
  Cr  Cr8  1  0.861169  0.379610  0.379610  1
  Cr  Cr9  1  0.379610  0.379610  0.379610  1
  Cr  Cr10  1  0.999608  0.999608  0.344455  1
  Cr  Cr11  1  0.656330  0.999608  0.344455  1
  Cr  Cr12  1  0.999608  0.656330  0.344455  1
  Cr  Cr13  1  0.656330  0.344455  0.999608  1
  Cr  Cr14  1  0.999608  0.344455  0.999608  1
  Cr  Cr15  1  0.999608  0.344455  0.656330  1
  Cr  Cr16  1  0.344455  0.656330  0.999608  1
  Cr  Cr17  1  0.344455  0.999608  0.656330  1
  Cr  Cr18  1  0.344455  0.999608  0.999608  1
  Cr  Cr19  1  0.999608  0.999608  0.656330  1
  Cr  Cr20  1  0.999608  0.656330  0.999608  1
  Cr  Cr21  1  0.656330  0.999608  0.999608  1
  Rh  Rh22  1  0.750000  0.750000  0.750000  1
  C  C23  1  0.726422  0.726422  0.273578  1
  C  C24  1  0.273578  0.726422  0.273578  1
  C  C25  1  0.726422  0.273578  0.273578  1
  C  C26  1  0.273578  0.273578  0.726422  1
  C  C27  1  0.726422  0.273578  0.726422  1
  C  C28  1  0.273578  0.726422  0.726422  1
