# generated using pymatgen
data_Ho10Si6N
_symmetry_space_group_name_H-M   'P 1'
_cell_length_a   8.39063700
_cell_length_b   8.39063779
_cell_length_c   6.32416500
_cell_angle_alpha   90.00000000
_cell_angle_beta   90.00000000
_cell_angle_gamma   119.99999293
_symmetry_Int_Tables_number   1
_chemical_formula_structural   Ho10Si6N
_chemical_formula_sum   'Ho10 Si6 N1'
_cell_volume   385.58822375
_cell_formula_units_Z   1
loop_
 _symmetry_equiv_pos_site_id
 _symmetry_equiv_pos_as_xyz
  1  'x, y, z'
loop_
 _atom_site_type_symbol
 _atom_site_label
 _atom_site_symmetry_multiplicity
 _atom_site_fract_x
 _atom_site_fract_y
 _atom_site_fract_z
 _atom_site_occupancy
  Ho  Ho0  1  0.000000  0.766914  0.268251  1
  Ho  Ho1  1  0.233086  0.233086  0.268251  1
  Ho  Ho2  1  0.766914  0.000000  0.268251  1
  Ho  Ho3  1  0.000000  0.233086  0.731749  1
  Ho  Ho4  1  0.766914  0.766914  0.731749  1
  Ho  Ho5  1  0.233086  0.000000  0.731749  1
  Ho  Ho6  1  0.333333  0.666667  0.000000  1
  Ho  Ho7  1  0.666667  0.333333  0.000000  1
  Ho  Ho8  1  0.666667  0.333333  0.500000  1
  Ho  Ho9  1  0.333333  0.666667  0.500000  1
  Si  Si10  1  0.000000  0.399215  0.252167  1
  Si  Si11  1  0.600785  0.600785  0.252167  1
  Si  Si12  1  0.399215  0.000000  0.252167  1
  Si  Si13  1  0.000000  0.600785  0.747833  1
  Si  Si14  1  0.399215  0.399215  0.747833  1
  Si  Si15  1  0.600785  0.000000  0.747833  1
  N  N16  1  0.000000  0.000000  0.500000  1
