# generated using pymatgen
data_SrHo7(Si4W3)4
_symmetry_space_group_name_H-M   'P 1'
_cell_length_a   6.78410366
_cell_length_b   6.95324686
_cell_length_c   12.94971610
_cell_angle_alpha   89.82753326
_cell_angle_beta   89.98203725
_cell_angle_gamma   89.76767411
_symmetry_Int_Tables_number   1
_chemical_formula_structural   SrHo7(Si4W3)4
_chemical_formula_sum   'Sr1 Ho7 Si16 W12'
_cell_volume   610.85033120
_cell_formula_units_Z   1
loop_
 _symmetry_equiv_pos_site_id
 _symmetry_equiv_pos_as_xyz
  1  'x, y, z'
loop_
 _atom_site_type_symbol
 _atom_site_label
 _atom_site_symmetry_multiplicity
 _atom_site_fract_x
 _atom_site_fract_y
 _atom_site_fract_z
 _atom_site_occupancy
  Sr  Sr0  1  0.998245  0.834823  0.589465  1
  Ho  Ho1  1  0.496805  0.667866  0.594068  1
  Ho  Ho2  1  0.996663  0.831192  0.906305  1
  Ho  Ho3  1  0.504475  0.331441  0.093298  1
  Ho  Ho4  1  0.004492  0.167200  0.406158  1
  Ho  Ho5  1  0.504763  0.332778  0.405774  1
  Ho  Ho6  1  0.004754  0.168088  0.093513  1
  Ho  Ho7  1  0.496114  0.668050  0.907316  1
  Si  Si8  1  0.658543  0.957716  0.451371  1
  Si  Si9  1  0.162397  0.543697  0.046058  1
  Si  Si10  1  0.336664  0.041782  0.954411  1
  Si  Si11  1  0.837199  0.454113  0.546352  1
  Si  Si12  1  0.343731  0.044951  0.546270  1
  Si  Si13  1  0.837759  0.457222  0.954640  1
  Si  Si14  1  0.663206  0.957743  0.046321  1
  Si  Si15  1  0.162020  0.540021  0.451040  1
  Si  Si16  1  0.464461  0.372415  0.751272  1
  Si  Si17  1  0.963668  0.131544  0.751876  1
  Si  Si18  1  0.534129  0.628955  0.249246  1
  Si  Si19  1  0.034894  0.869391  0.250444  1
  Si  Si20  1  0.695510  0.868604  0.750628  1
  Si  Si21  1  0.197126  0.632635  0.750924  1
  Si  Si22  1  0.303453  0.132927  0.249608  1
  Si  Si23  1  0.803909  0.364630  0.249421  1
  W  W24  1  0.664158  0.168468  0.626776  1
  W  W25  1  0.170738  0.339183  0.876456  1
  W  W26  1  0.331688  0.836025  0.125864  1
  W  W27  1  0.827625  0.658677  0.372083  1
  W  W28  1  0.333156  0.836486  0.373216  1
  W  W29  1  0.829783  0.661386  0.125174  1
  W  W30  1  0.666679  0.164911  0.875289  1
  W  W31  1  0.170045  0.336402  0.626930  1
  W  W32  1  0.834666  0.494500  0.752011  1
  W  W33  1  0.334472  0.003448  0.752586  1
  W  W34  1  0.165068  0.501313  0.249171  1
  W  W35  1  0.666939  0.999418  0.248663  1
