# generated using pymatgen
data_Pr6Mn(GeS7)2
_symmetry_space_group_name_H-M   'P 1'
_cell_length_a   10.30866401
_cell_length_b   10.30819742
_cell_length_c   5.80794300
_cell_angle_alpha   90.00098025
_cell_angle_beta   89.99886092
_cell_angle_gamma   119.99654101
_symmetry_Int_Tables_number   1
_chemical_formula_structural   Pr6Mn(GeS7)2
_chemical_formula_sum   'Pr6 Mn1 Ge2 S14'
_cell_volume   534.50678915
_cell_formula_units_Z   1
loop_
 _symmetry_equiv_pos_site_id
 _symmetry_equiv_pos_as_xyz
  1  'x, y, z'
loop_
 _atom_site_type_symbol
 _atom_site_label
 _atom_site_symmetry_multiplicity
 _atom_site_fract_x
 _atom_site_fract_y
 _atom_site_fract_z
 _atom_site_occupancy
  Pr  Pr0  1  0.877001  0.233020  0.249458  1
  Pr  Pr1  1  0.766983  0.644001  0.249465  1
  Pr  Pr2  1  0.356005  0.122956  0.249479  1
  Pr  Pr3  1  0.122859  0.767260  0.751252  1
  Pr  Pr4  1  0.232728  0.355543  0.751232  1
  Pr  Pr5  1  0.644440  0.877197  0.751265  1
  Mn  Mn6  1  0.999998  0.000029  0.488174  1
  Ge  Ge7  1  0.666678  0.333317  0.831680  1
  Ge  Ge8  1  0.333340  0.666682  0.334523  1
  S  S9  1  0.666659  0.333332  0.454668  1
  S  S10  1  0.333319  0.666679  0.957043  1
  S  S11  1  0.914509  0.159763  0.724678  1
  S  S12  1  0.840241  0.754741  0.724606  1
  S  S13  1  0.245264  0.085506  0.724647  1
  S  S14  1  0.083325  0.838272  0.248689  1
  S  S15  1  0.161698  0.245007  0.248699  1
  S  S16  1  0.754957  0.916695  0.248689  1
  S  S17  1  0.588681  0.106603  0.986744  1
  S  S18  1  0.893386  0.482066  0.986756  1
  S  S19  1  0.517930  0.411337  0.986722  1
  S  S20  1  0.411839  0.893379  0.489101  1
  S  S21  1  0.106612  0.518463  0.489037  1
  S  S22  1  0.481546  0.588153  0.489052  1
