# generated using pymatgen
data_LiHg2F6
_symmetry_space_group_name_H-M   'P 1'
_cell_length_a   9.48642600
_cell_length_b   9.48642745
_cell_length_c   5.08430400
_cell_angle_alpha   90.00000000
_cell_angle_beta   90.00000000
_cell_angle_gamma   120.00000193
_symmetry_Int_Tables_number   1
_chemical_formula_structural   LiHg2F6
_chemical_formula_sum   'Li3 Hg6 F18'
_cell_volume   396.24833102
_cell_formula_units_Z   3
loop_
 _symmetry_equiv_pos_site_id
 _symmetry_equiv_pos_as_xyz
  1  'x, y, z'
loop_
 _atom_site_type_symbol
 _atom_site_label
 _atom_site_symmetry_multiplicity
 _atom_site_fract_x
 _atom_site_fract_y
 _atom_site_fract_z
 _atom_site_occupancy
  Li  Li0  1  0.666667  0.333333  0.471719  1
  Li  Li1  1  0.000000  0.000000  0.000000  1
  Li  Li2  1  0.333333  0.666667  0.528281  1
  Hg  Hg3  1  0.288185  0.000000  0.500000  1
  Hg  Hg4  1  0.624107  0.000000  0.000000  1
  Hg  Hg5  1  0.000000  0.624107  0.000000  1
  Hg  Hg6  1  0.000000  0.288185  0.500000  1
  Hg  Hg7  1  0.375893  0.375893  0.000000  1
  Hg  Hg8  1  0.711815  0.711815  0.500000  1
  F  F9  1  0.201298  0.113517  0.766317  1
  F  F10  1  0.462282  0.263469  0.263059  1
  F  F11  1  0.613468  0.485619  0.713939  1
  F  F12  1  0.514381  0.127849  0.713939  1
  F  F13  1  0.912219  0.798702  0.766317  1
  F  F14  1  0.801186  0.537718  0.263059  1
  F  F15  1  0.736531  0.198814  0.263059  1
  F  F16  1  0.087781  0.886483  0.233683  1
  F  F17  1  0.872151  0.386532  0.713939  1
  F  F18  1  0.198814  0.736531  0.736941  1
  F  F19  1  0.886483  0.087781  0.766317  1
  F  F20  1  0.127849  0.514381  0.286061  1
  F  F21  1  0.386532  0.872151  0.286061  1
  F  F22  1  0.113517  0.201298  0.233683  1
  F  F23  1  0.263469  0.462282  0.736941  1
  F  F24  1  0.537718  0.801186  0.736941  1
  F  F25  1  0.485619  0.613468  0.286061  1
  F  F26  1  0.798702  0.912219  0.233683  1
