# generated using pymatgen
data_LiIr3O8
_symmetry_space_group_name_H-M   'P 1'
_cell_length_a   10.39878185
_cell_length_b   4.55412000
_cell_length_c   5.52524633
_cell_angle_alpha   90.00000000
_cell_angle_beta   97.97609062
_cell_angle_gamma   90.00000000
_symmetry_Int_Tables_number   1
_chemical_formula_structural   LiIr3O8
_chemical_formula_sum   'Li2 Ir6 O16'
_cell_volume   259.12945969
_cell_formula_units_Z   2
loop_
 _symmetry_equiv_pos_site_id
 _symmetry_equiv_pos_as_xyz
  1  'x, y, z'
loop_
 _atom_site_type_symbol
 _atom_site_label
 _atom_site_symmetry_multiplicity
 _atom_site_fract_x
 _atom_site_fract_y
 _atom_site_fract_z
 _atom_site_occupancy
  Li  Li0  1  0.500000  0.500000  0.000001  1
  Li  Li1  1  0.000000  0.000000  0.000000  1
  Ir  Ir2  1  0.751574  0.986393  0.240766  1
  Ir  Ir3  1  0.251573  0.513609  0.240766  1
  Ir  Ir4  1  0.500000  0.000000  0.499999  1
  Ir  Ir5  1  0.000000  0.500000  0.499999  1
  Ir  Ir6  1  0.748426  0.486393  0.759234  1
  Ir  Ir7  1  0.248426  0.013607  0.759234  1
  O  O8  1  0.675528  0.694440  0.016826  1
  O  O9  1  0.175528  0.805562  0.016826  1
  O  O10  1  0.582851  0.182367  0.234685  1
  O  O11  1  0.082851  0.317633  0.234685  1
  O  O12  1  0.922647  0.791302  0.277323  1
  O  O13  1  0.422647  0.708698  0.277324  1
  O  O14  1  0.827753  0.291619  0.484047  1
  O  O15  1  0.327752  0.208381  0.484048  1
  O  O16  1  0.672247  0.791619  0.515953  1
  O  O17  1  0.172247  0.708380  0.515953  1
  O  O18  1  0.577353  0.291302  0.722675  1
  O  O19  1  0.077353  0.208698  0.722675  1
  O  O20  1  0.917149  0.682367  0.765315  1
  O  O21  1  0.417149  0.817632  0.765315  1
  O  O22  1  0.824472  0.194440  0.983174  1
  O  O23  1  0.324472  0.305560  0.983174  1
