# generated using pymatgen
data_K2ZnGaF7
_symmetry_space_group_name_H-M   'P 1'
_cell_length_a   7.70908014
_cell_length_b   7.70907977
_cell_length_c   7.70907940
_cell_angle_alpha   120.85317195
_cell_angle_beta   116.92784934
_cell_angle_gamma   91.96517711
_symmetry_Int_Tables_number   1
_chemical_formula_structural   K2ZnGaF7
_chemical_formula_sum   'K4 Zn2 Ga2 F14'
_cell_volume   328.72098408
_cell_formula_units_Z   2
loop_
 _symmetry_equiv_pos_site_id
 _symmetry_equiv_pos_as_xyz
  1  'x, y, z'
loop_
 _atom_site_type_symbol
 _atom_site_label
 _atom_site_symmetry_multiplicity
 _atom_site_fract_x
 _atom_site_fract_y
 _atom_site_fract_z
 _atom_site_occupancy
  K  K0  1  0.000000  0.000000  0.000000  1
  K  K1  1  0.000000  0.500000  0.000000  1
  K  K2  1  0.000000  0.000000  0.500000  1
  K  K3  1  0.500000  0.500000  0.000000  1
  Zn  Zn4  1  0.500000  0.500000  0.500000  1
  Zn  Zn5  1  0.500000  0.000000  0.000000  1
  Ga  Ga6  1  0.500000  0.000000  0.500000  1
  Ga  Ga7  1  0.000000  0.500000  0.500000  1
  F  F8  1  0.813265  0.200756  0.241988  1
  F  F9  1  0.208974  0.915543  0.293432  1
  F  F10  1  0.458769  0.700756  0.387492  1
  F  F11  1  0.122111  0.415543  0.706568  1
  F  F12  1  0.541231  0.299243  0.612508  1
  F  F13  1  0.877889  0.584457  0.293432  1
  F  F14  1  0.813265  0.571277  0.612508  1
  F  F15  1  0.398570  0.250000  0.148570  1
  F  F16  1  0.601430  0.750000  0.851430  1
  F  F17  1  0.186735  0.799243  0.758012  1
  F  F18  1  0.541231  0.928723  0.241988  1
  F  F19  1  0.186735  0.428723  0.387492  1
  F  F20  1  0.458769  0.071277  0.758012  1
  F  F21  1  0.791026  0.084457  0.706568  1
