# generated using pymatgen
data_Pr8Dy12Si15Ag
_symmetry_space_group_name_H-M   'P 1'
_cell_length_a   7.54695334
_cell_length_b   7.81506405
_cell_length_c   14.91348731
_cell_angle_alpha   89.87095262
_cell_angle_beta   89.34090774
_cell_angle_gamma   90.19939103
_symmetry_Int_Tables_number   1
_chemical_formula_structural   Pr8Dy12Si15Ag
_chemical_formula_sum   'Pr8 Dy12 Si15 Ag1'
_cell_volume   879.53051081
_cell_formula_units_Z   1
loop_
 _symmetry_equiv_pos_site_id
 _symmetry_equiv_pos_as_xyz
  1  'x, y, z'
loop_
 _atom_site_type_symbol
 _atom_site_label
 _atom_site_symmetry_multiplicity
 _atom_site_fract_x
 _atom_site_fract_y
 _atom_site_fract_z
 _atom_site_occupancy
  Pr  Pr0  1  0.012896  0.173319  0.398184  1
  Pr  Pr1  1  0.517731  0.319222  0.398769  1
  Pr  Pr2  1  0.480767  0.679488  0.902056  1
  Pr  Pr3  1  0.489887  0.682639  0.601630  1
  Pr  Pr4  1  0.984127  0.829345  0.598954  1
  Pr  Pr5  1  0.980908  0.821870  0.902316  1
  Pr  Pr6  1  0.517876  0.320959  0.097877  1
  Pr  Pr7  1  0.019212  0.180061  0.099852  1
  Dy  Dy8  1  0.337123  0.173565  0.624801  1
  Dy  Dy9  1  0.666941  0.822529  0.375853  1
  Dy  Dy10  1  0.665029  0.989634  0.750979  1
  Dy  Dy11  1  0.168706  0.675431  0.374635  1
  Dy  Dy12  1  0.826409  0.320239  0.878235  1
  Dy  Dy13  1  0.824986  0.325289  0.621976  1
  Dy  Dy14  1  0.838588  0.490919  0.251815  1
  Dy  Dy15  1  0.339000  0.006460  0.249068  1
  Dy  Dy16  1  0.325094  0.177365  0.877404  1
  Dy  Dy17  1  0.172965  0.678480  0.122845  1
  Dy  Dy18  1  0.674491  0.822562  0.123025  1
  Dy  Dy19  1  0.162878  0.508351  0.751801  1
  Si  Si20  1  0.278383  0.880301  0.750812  1
  Si  Si21  1  0.464416  0.612054  0.248148  1
  Si  Si22  1  0.036438  0.118022  0.750635  1
  Si  Si23  1  0.536992  0.388319  0.751960  1
  Si  Si24  1  0.964840  0.886009  0.249436  1
  Si  Si25  1  0.719796  0.121146  0.248279  1
  Si  Si26  1  0.851152  0.533577  0.038402  1
  Si  Si27  1  0.351561  0.967583  0.039312  1
  Si  Si28  1  0.147323  0.466876  0.962378  1
  Si  Si29  1  0.654055  0.033798  0.537759  1
  Si  Si30  1  0.343569  0.964883  0.461561  1
  Si  Si31  1  0.838385  0.535960  0.458507  1
  Si  Si32  1  0.780791  0.619936  0.752430  1
  Si  Si33  1  0.222553  0.377301  0.248992  1
  Si  Si34  1  0.647401  0.031959  0.961147  1
  Ag  Ag35  1  0.156728  0.464553  0.538165  1
