# generated using pymatgen
data_Nd16Cd2CoHg2Ru3
_symmetry_space_group_name_H-M   'P 1'
_cell_length_a   9.90670550
_cell_length_b   9.90670542
_cell_length_c   9.85580800
_cell_angle_alpha   59.61541749
_cell_angle_beta   59.61541106
_cell_angle_gamma   59.83861144
_symmetry_Int_Tables_number   1
_chemical_formula_structural   Nd16Cd2CoHg2Ru3
_chemical_formula_sum   'Nd16 Cd2 Co1 Hg2 Ru3'
_cell_volume   679.14153997
_cell_formula_units_Z   1
loop_
 _symmetry_equiv_pos_site_id
 _symmetry_equiv_pos_as_xyz
  1  'x, y, z'
loop_
 _atom_site_type_symbol
 _atom_site_label
 _atom_site_symmetry_multiplicity
 _atom_site_fract_x
 _atom_site_fract_y
 _atom_site_fract_z
 _atom_site_occupancy
  Nd  Nd0  1  0.439520  0.439520  0.056734  1
  Nd  Nd1  1  0.594365  0.594365  0.600027  1
  Nd  Nd2  1  0.187104  0.815132  0.809968  1
  Nd  Nd3  1  0.058811  0.058811  0.440024  1
  Nd  Nd4  1  0.440604  0.062993  0.057100  1
  Nd  Nd5  1  0.815132  0.187104  0.809968  1
  Nd  Nd6  1  0.441437  0.058658  0.440546  1
  Nd  Nd7  1  0.594398  0.209041  0.600465  1
  Nd  Nd8  1  0.810513  0.810513  0.190505  1
  Nd  Nd9  1  0.209041  0.594398  0.600465  1
  Nd  Nd10  1  0.810082  0.190649  0.190817  1
  Nd  Nd11  1  0.058658  0.441437  0.440546  1
  Nd  Nd12  1  0.190649  0.810082  0.190817  1
  Nd  Nd13  1  0.595884  0.595884  0.209994  1
  Nd  Nd14  1  0.188383  0.188383  0.809859  1
  Nd  Nd15  1  0.062993  0.440604  0.057100  1
  Cd  Cd16  1  0.512640  0.828832  0.828195  1
  Cd  Cd17  1  0.828832  0.512640  0.828195  1
  Co  Co18  1  0.389126  0.389126  0.832420  1
  Hg  Hg19  1  0.831980  0.831980  0.500445  1
  Hg  Hg20  1  0.832259  0.832259  0.833980  1
  Ru  Ru21  1  0.386834  0.386834  0.390121  1
  Ru  Ru22  1  0.832873  0.387877  0.390855  1
  Ru  Ru23  1  0.387877  0.832873  0.390855  1
