# generated using pymatgen
data_Tb2Zr4Mn3(Co5P4)3
_symmetry_space_group_name_H-M   'P 1'
_cell_length_a   3.66769300
_cell_length_b   10.43490700
_cell_length_c   12.03617100
_cell_angle_alpha   90.00000000
_cell_angle_beta   90.00000000
_cell_angle_gamma   90.00000000
_symmetry_Int_Tables_number   1
_chemical_formula_structural   Tb2Zr4Mn3(Co5P4)3
_chemical_formula_sum   'Tb2 Zr4 Mn3 Co15 P12'
_cell_volume   460.64876211
_cell_formula_units_Z   1
loop_
 _symmetry_equiv_pos_site_id
 _symmetry_equiv_pos_as_xyz
  1  'x, y, z'
loop_
 _atom_site_type_symbol
 _atom_site_label
 _atom_site_symmetry_multiplicity
 _atom_site_fract_x
 _atom_site_fract_y
 _atom_site_fract_z
 _atom_site_occupancy
  Tb  Tb0  1  0.000000  0.500000  0.524967  1
  Tb  Tb1  1  0.500000  0.000000  0.474511  1
  Zr  Zr2  1  0.500000  0.820748  0.204813  1
  Zr  Zr3  1  0.500000  0.179252  0.204813  1
  Zr  Zr4  1  0.000000  0.676071  0.797014  1
  Zr  Zr5  1  0.000000  0.323929  0.797014  1
  Mn  Mn6  1  0.500000  0.500000  0.155892  1
  Mn  Mn7  1  0.000000  0.000000  0.841326  1
  Mn  Mn8  1  0.000000  0.500000  0.989792  1
  Co  Co9  1  0.500000  0.500000  0.705789  1
  Co  Co10  1  0.000000  0.000000  0.293052  1
  Co  Co11  1  0.500000  0.000000  0.011977  1
  Co  Co12  1  0.500000  0.329599  0.994568  1
  Co  Co13  1  0.500000  0.670401  0.994568  1
  Co  Co14  1  0.000000  0.165631  0.005900  1
  Co  Co15  1  0.000000  0.834369  0.005900  1
  Co  Co16  1  0.500000  0.296819  0.429631  1
  Co  Co17  1  0.500000  0.703181  0.429631  1
  Co  Co18  1  0.000000  0.203184  0.570207  1
  Co  Co19  1  0.000000  0.796816  0.570207  1
  Co  Co20  1  0.500000  0.876259  0.710507  1
  Co  Co21  1  0.500000  0.123741  0.710507  1
  Co  Co22  1  0.000000  0.623585  0.289149  1
  Co  Co23  1  0.000000  0.376415  0.289149  1
  P  P24  1  0.500000  0.500000  0.883410  1
  P  P25  1  0.000000  0.000000  0.117822  1
  P  P26  1  0.500000  0.500000  0.345989  1
  P  P27  1  0.000000  0.000000  0.653581  1
  P  P28  1  0.500000  0.313221  0.619413  1
  P  P29  1  0.500000  0.686779  0.619413  1
  P  P30  1  0.000000  0.186660  0.380832  1
  P  P31  1  0.000000  0.813340  0.380832  1
  P  P32  1  0.500000  0.844012  0.890205  1
  P  P33  1  0.500000  0.155988  0.890205  1
  P  P34  1  0.000000  0.657196  0.108707  1
  P  P35  1  0.000000  0.342804  0.108707  1
