# generated using pymatgen
data_Nd(PPt4)2
_symmetry_space_group_name_H-M   'P 1'
_cell_length_a   6.37148559
_cell_length_b   6.37148556
_cell_length_c   9.42696472
_cell_angle_alpha   54.69859569
_cell_angle_beta   54.69859316
_cell_angle_gamma   37.44005188
_symmetry_Int_Tables_number   1
_chemical_formula_structural   Nd(PPt4)2
_chemical_formula_sum   'Nd1 P2 Pt8'
_cell_volume   184.32616494
_cell_formula_units_Z   1
loop_
 _symmetry_equiv_pos_site_id
 _symmetry_equiv_pos_as_xyz
  1  'x, y, z'
loop_
 _atom_site_type_symbol
 _atom_site_label
 _atom_site_symmetry_multiplicity
 _atom_site_fract_x
 _atom_site_fract_y
 _atom_site_fract_z
 _atom_site_occupancy
  Nd  Nd0  1  0.500000  0.500000  0.500000  1
  P  P1  1  0.058510  0.058510  0.710977  1
  P  P2  1  0.941490  0.941490  0.289023  1
  Pt  Pt3  1  0.227695  0.227695  0.412597  1
  Pt  Pt4  1  0.822238  0.822238  0.845545  1
  Pt  Pt5  1  0.177762  0.177762  0.154455  1
  Pt  Pt6  1  0.165940  0.165940  0.848640  1
  Pt  Pt7  1  0.474355  0.474355  0.870265  1
  Pt  Pt8  1  0.525645  0.525645  0.129735  1
  Pt  Pt9  1  0.772305  0.772305  0.587403  1
  Pt  Pt10  1  0.834060  0.834060  0.151360  1
