# generated using pymatgen
data_CeLu2(Co3P2)3
_symmetry_space_group_name_H-M   'P 1'
_cell_length_a   3.68378100
_cell_length_b   10.50563200
_cell_length_c   12.11224600
_cell_angle_alpha   90.00000000
_cell_angle_beta   90.00000000
_cell_angle_gamma   90.00000000
_symmetry_Int_Tables_number   1
_chemical_formula_structural   CeLu2(Co3P2)3
_chemical_formula_sum   'Ce2 Lu4 Co18 P12'
_cell_volume   468.74934109
_cell_formula_units_Z   2
loop_
 _symmetry_equiv_pos_site_id
 _symmetry_equiv_pos_as_xyz
  1  'x, y, z'
loop_
 _atom_site_type_symbol
 _atom_site_label
 _atom_site_symmetry_multiplicity
 _atom_site_fract_x
 _atom_site_fract_y
 _atom_site_fract_z
 _atom_site_occupancy
  Ce  Ce0  1  0.000000  0.500000  0.527312  1
  Ce  Ce1  1  0.500000  0.000000  0.472688  1
  Lu  Lu2  1  0.500000  0.816470  0.204168  1
  Lu  Lu3  1  0.500000  0.183530  0.204168  1
  Lu  Lu4  1  0.000000  0.683530  0.795832  1
  Lu  Lu5  1  0.000000  0.316470  0.795832  1
  Co  Co6  1  0.500000  0.500000  0.157369  1
  Co  Co7  1  0.000000  0.000000  0.842631  1
  Co  Co8  1  0.500000  0.500000  0.702413  1
  Co  Co9  1  0.000000  0.000000  0.297587  1
  Co  Co10  1  0.000000  0.500000  0.985448  1
  Co  Co11  1  0.500000  0.000000  0.014552  1
  Co  Co12  1  0.500000  0.333360  0.994403  1
  Co  Co13  1  0.500000  0.666640  0.994403  1
  Co  Co14  1  0.000000  0.166640  0.005597  1
  Co  Co15  1  0.000000  0.833360  0.005597  1
  Co  Co16  1  0.500000  0.298862  0.429835  1
  Co  Co17  1  0.500000  0.701138  0.429835  1
  Co  Co18  1  0.000000  0.201138  0.570165  1
  Co  Co19  1  0.000000  0.798862  0.570165  1
  Co  Co20  1  0.500000  0.879146  0.712372  1
  Co  Co21  1  0.500000  0.120854  0.712372  1
  Co  Co22  1  0.000000  0.620854  0.287628  1
  Co  Co23  1  0.000000  0.379146  0.287628  1
  P  P24  1  0.500000  0.500000  0.881052  1
  P  P25  1  0.000000  0.000000  0.118948  1
  P  P26  1  0.500000  0.500000  0.342221  1
  P  P27  1  0.000000  0.000000  0.657779  1
  P  P28  1  0.500000  0.307124  0.618581  1
  P  P29  1  0.500000  0.692876  0.618581  1
  P  P30  1  0.000000  0.192876  0.381419  1
  P  P31  1  0.000000  0.807124  0.381419  1
  P  P32  1  0.500000  0.846194  0.893528  1
  P  P33  1  0.500000  0.153806  0.893528  1
  P  P34  1  0.000000  0.653806  0.106472  1
  P  P35  1  0.000000  0.346194  0.106472  1
