# generated using pymatgen
data_La8Sm2Os2I15
_symmetry_space_group_name_H-M   'P 1'
_cell_length_a   10.24524411
_cell_length_b   11.13831033
_cell_length_c   11.89459634
_cell_angle_alpha   91.58345592
_cell_angle_beta   114.20863782
_cell_angle_gamma   110.62209289
_symmetry_Int_Tables_number   1
_chemical_formula_structural   La8Sm2Os2I15
_chemical_formula_sum   'La8 Sm2 Os2 I15'
_cell_volume   1134.87506166
_cell_formula_units_Z   1
loop_
 _symmetry_equiv_pos_site_id
 _symmetry_equiv_pos_as_xyz
  1  'x, y, z'
loop_
 _atom_site_type_symbol
 _atom_site_label
 _atom_site_symmetry_multiplicity
 _atom_site_fract_x
 _atom_site_fract_y
 _atom_site_fract_z
 _atom_site_occupancy
  La  La0  1  0.298558  0.902656  0.274004  1
  La  La1  1  0.701442  0.097344  0.725996  1
  La  La2  1  0.085235  0.548366  0.322663  1
  La  La3  1  0.914765  0.451634  0.677337  1
  La  La4  1  0.829510  0.749617  0.178944  1
  La  La5  1  0.170490  0.250383  0.821056  1
  La  La6  1  0.976079  0.788589  0.910455  1
  La  La7  1  0.023921  0.211411  0.089545  1
  Sm  Sm8  1  0.227707  0.577814  0.050272  1
  Sm  Sm9  1  0.772293  0.422186  0.949728  1
  Os  Os10  1  0.031448  0.670915  0.118189  1
  Os  Os11  1  0.968552  0.329085  0.881811  1
  I  I12  1  0.340226  0.448510  0.296443  1
  I  I13  1  0.659774  0.551490  0.703557  1
  I  I14  1  0.216058  0.735183  0.822953  1
  I  I15  1  0.783942  0.264817  0.177047  1
  I  I16  1  0.142227  0.386531  0.580302  1
  I  I17  1  0.857773  0.613469  0.419698  1
  I  I18  1  0.388438  0.800462  0.534299  1
  I  I19  1  0.611562  0.199538  0.465701  1
  I  I20  1  0.264028  0.087992  0.055199  1
  I  I21  1  0.735972  0.912008  0.944801  1
  I  I22  1  0.558183  0.837836  0.222509  1
  I  I23  1  0.441817  0.162164  0.777491  1
  I  I24  1  0.092089  0.040053  0.336116  1
  I  I25  1  0.907911  0.959947  0.663884  1
  I  I26  1  0.500000  0.500000  0.000000  1
