# generated using pymatgen
data_La4ScGaPb2
_symmetry_space_group_name_H-M   'P 1'
_cell_length_a   9.26547134
_cell_length_b   9.26547346
_cell_length_c   9.26547300
_cell_angle_alpha   96.42796232
_cell_angle_beta   96.42796380
_cell_angle_gamma   140.90415126
_symmetry_Int_Tables_number   1
_chemical_formula_structural   La4ScGaPb2
_chemical_formula_sum   'La8 Sc2 Ga2 Pb4'
_cell_volume   472.70253785
_cell_formula_units_Z   2
loop_
 _symmetry_equiv_pos_site_id
 _symmetry_equiv_pos_as_xyz
  1  'x, y, z'
loop_
 _atom_site_type_symbol
 _atom_site_label
 _atom_site_symmetry_multiplicity
 _atom_site_fract_x
 _atom_site_fract_y
 _atom_site_fract_z
 _atom_site_occupancy
  La  La0  1  0.910634  0.218694  0.129310  1
  La  La1  1  0.218710  0.089378  0.308073  1
  La  La2  1  0.781290  0.910622  0.691927  1
  La  La3  1  0.089366  0.781306  0.870690  1
  La  La4  1  0.718695  0.410622  0.129331  1
  La  La5  1  0.281305  0.589378  0.870669  1
  La  La6  1  0.589383  0.718694  0.308060  1
  La  La7  1  0.410617  0.281306  0.691940  1
  Sc  Sc8  1  0.750000  0.250000  0.500000  1
  Sc  Sc9  1  0.250000  0.750000  0.500000  1
  Ga  Ga10  1  0.749997  0.750000  0.999997  1
  Ga  Ga11  1  0.250003  0.250000  0.000003  1
  Pb  Pb12  1  0.851247  0.648751  0.499999  1
  Pb  Pb13  1  0.648752  0.148751  0.797505  1
  Pb  Pb14  1  0.351248  0.851249  0.202495  1
  Pb  Pb15  1  0.148753  0.351249  0.500001  1
