# generated using pymatgen
data_PrHfZr2(Al3Ir)6
_symmetry_space_group_name_H-M   'P 1'
_cell_length_a   7.51194400
_cell_length_b   7.50065880
_cell_length_c   9.35855800
_cell_angle_alpha   90.00000000
_cell_angle_beta   90.00000000
_cell_angle_gamma   119.73749869
_symmetry_Int_Tables_number   1
_chemical_formula_structural   PrHfZr2(Al3Ir)6
_chemical_formula_sum   'Pr1 Hf1 Zr2 Al18 Ir6'
_cell_volume   457.86138908
_cell_formula_units_Z   1
loop_
 _symmetry_equiv_pos_site_id
 _symmetry_equiv_pos_as_xyz
  1  'x, y, z'
loop_
 _atom_site_type_symbol
 _atom_site_label
 _atom_site_symmetry_multiplicity
 _atom_site_fract_x
 _atom_site_fract_y
 _atom_site_fract_z
 _atom_site_occupancy
  Pr  Pr0  1  0.329829  0.006027  0.750000  1
  Hf  Hf1  1  0.672889  0.994928  0.250000  1
  Zr  Zr2  1  0.993479  0.670998  0.250000  1
  Zr  Zr3  1  0.005052  0.329435  0.750000  1
  Al  Al4  1  0.122619  0.124698  0.250000  1
  Al  Al5  1  0.869073  0.875028  0.750000  1
  Al  Al6  1  0.997494  0.334618  0.077756  1
  Al  Al7  1  0.998145  0.661461  0.928955  1
  Al  Al8  1  0.998145  0.661461  0.571045  1
  Al  Al9  1  0.335374  0.997988  0.417055  1
  Al  Al10  1  0.997494  0.334618  0.422244  1
  Al  Al11  1  0.669327  0.001666  0.571264  1
  Al  Al12  1  0.669327  0.001666  0.928736  1
  Al  Al13  1  0.335374  0.997988  0.082945  1
  Al  Al14  1  0.331362  0.334921  0.550935  1
  Al  Al15  1  0.668058  0.668288  0.439082  1
  Al  Al16  1  0.668058  0.668288  0.060918  1
  Al  Al17  1  0.331362  0.334921  0.949065  1
  Al  Al18  1  0.338610  0.553254  0.250000  1
  Al  Al19  1  0.669344  0.455605  0.750000  1
  Al  Al20  1  0.554012  0.340033  0.250000  1
  Al  Al21  1  0.446934  0.653210  0.750000  1
  Ir  Ir22  1  0.672855  0.328156  0.002800  1
  Ir  Ir23  1  0.329204  0.673161  0.002887  1
  Ir  Ir24  1  0.329204  0.673161  0.497113  1
  Ir  Ir25  1  0.672855  0.328156  0.497200  1
  Ir  Ir26  1  0.997261  0.998132  0.003353  1
  Ir  Ir27  1  0.997261  0.998132  0.496647  1
