# generated using pymatgen
data_Nd2DyHo13(CdPt)4
_symmetry_space_group_name_H-M   'P 1'
_cell_length_a   9.69187412
_cell_length_b   9.65679963
_cell_length_c   9.66877663
_cell_angle_alpha   60.19846823
_cell_angle_beta   60.28541681
_cell_angle_gamma   59.96070283
_symmetry_Int_Tables_number   1
_chemical_formula_structural   Nd2DyHo13(CdPt)4
_chemical_formula_sum   'Nd2 Dy1 Ho13 Cd4 Pt4'
_cell_volume   642.01546450
_cell_formula_units_Z   1
loop_
 _symmetry_equiv_pos_site_id
 _symmetry_equiv_pos_as_xyz
  1  'x, y, z'
loop_
 _atom_site_type_symbol
 _atom_site_label
 _atom_site_symmetry_multiplicity
 _atom_site_fract_x
 _atom_site_fract_y
 _atom_site_fract_z
 _atom_site_occupancy
  Nd  Nd0  1  0.566931  0.568687  0.932508  1
  Nd  Nd1  1  0.932508  0.931894  0.566921  1
  Dy  Dy2  1  0.938543  0.561459  0.938538  1
  Ho  Ho3  1  0.351714  0.350547  0.351196  1
  Ho  Ho4  1  0.353398  0.351864  0.943417  1
  Ho  Ho5  1  0.351192  0.946541  0.351717  1
  Ho  Ho6  1  0.943417  0.351323  0.353396  1
  Ho  Ho7  1  0.810611  0.189620  0.189569  1
  Ho  Ho8  1  0.189576  0.810192  0.810609  1
  Ho  Ho9  1  0.190088  0.809915  0.190079  1
  Ho  Ho10  1  0.810865  0.189134  0.810869  1
  Ho  Ho11  1  0.189147  0.190058  0.810722  1
  Ho  Ho12  1  0.810719  0.810067  0.189149  1
  Ho  Ho13  1  0.938426  0.561747  0.561466  1
  Ho  Ho14  1  0.561469  0.938360  0.938427  1
  Ho  Ho15  1  0.562140  0.937859  0.562135  1
  Cd  Cd16  1  0.582288  0.582519  0.578382  1
  Cd  Cd17  1  0.582086  0.582323  0.256775  1
  Cd  Cd18  1  0.578377  0.256812  0.582290  1
  Cd  Cd19  1  0.256772  0.578814  0.582088  1
  Pt  Pt20  1  0.143885  0.144227  0.141062  1
  Pt  Pt21  1  0.143717  0.143951  0.571072  1
  Pt  Pt22  1  0.141077  0.570835  0.143879  1
  Pt  Pt23  1  0.571055  0.141254  0.143735  1
