# generated using pymatgen
data_Ti3Cr2Si3
_symmetry_space_group_name_H-M   'P 1'
_cell_length_a   7.24691400
_cell_length_b   7.24691433
_cell_length_c   4.83479100
_cell_angle_alpha   90.00000000
_cell_angle_beta   90.00000000
_cell_angle_gamma   119.99999851
_symmetry_Int_Tables_number   1
_chemical_formula_structural   Ti3Cr2Si3
_chemical_formula_sum   'Ti6 Cr4 Si6'
_cell_volume   219.89460678
_cell_formula_units_Z   2
loop_
 _symmetry_equiv_pos_site_id
 _symmetry_equiv_pos_as_xyz
  1  'x, y, z'
loop_
 _atom_site_type_symbol
 _atom_site_label
 _atom_site_symmetry_multiplicity
 _atom_site_fract_x
 _atom_site_fract_y
 _atom_site_fract_z
 _atom_site_occupancy
  Ti  Ti0  1  0.759012  0.759012  0.750000  1
  Ti  Ti1  1  0.240988  0.000000  0.750000  1
  Ti  Ti2  1  0.000000  0.240988  0.750000  1
  Ti  Ti3  1  0.240988  0.240988  0.250000  1
  Ti  Ti4  1  0.759012  0.000000  0.250000  1
  Ti  Ti5  1  0.000000  0.759012  0.250000  1
  Cr  Cr6  1  0.666667  0.333333  0.000000  1
  Cr  Cr7  1  0.333333  0.666667  0.000000  1
  Cr  Cr8  1  0.333333  0.666667  0.500000  1
  Cr  Cr9  1  0.666667  0.333333  0.500000  1
  Si  Si10  1  0.403339  0.403339  0.750000  1
  Si  Si11  1  0.596661  0.000000  0.750000  1
  Si  Si12  1  0.000000  0.596661  0.750000  1
  Si  Si13  1  0.596661  0.596661  0.250000  1
  Si  Si14  1  0.403339  0.000000  0.250000  1
  Si  Si15  1  0.000000  0.403339  0.250000  1
