# generated using pymatgen
data_Yb12Ho8Si15Pt
_symmetry_space_group_name_H-M   'P 1'
_cell_length_a   7.43561519
_cell_length_b   7.76431529
_cell_length_c   15.06860801
_cell_angle_alpha   90.19107027
_cell_angle_beta   89.34728574
_cell_angle_gamma   90.42040141
_symmetry_Int_Tables_number   1
_chemical_formula_structural   Yb12Ho8Si15Pt
_chemical_formula_sum   'Yb12 Ho8 Si15 Pt1'
_cell_volume   869.86335553
_cell_formula_units_Z   1
loop_
 _symmetry_equiv_pos_site_id
 _symmetry_equiv_pos_as_xyz
  1  'x, y, z'
loop_
 _atom_site_type_symbol
 _atom_site_label
 _atom_site_symmetry_multiplicity
 _atom_site_fract_x
 _atom_site_fract_y
 _atom_site_fract_z
 _atom_site_occupancy
  Yb  Yb0  1  0.649919  0.981847  0.249152  1
  Yb  Yb1  1  0.152490  0.519392  0.249022  1
  Yb  Yb2  1  0.845939  0.480669  0.754868  1
  Yb  Yb3  1  0.349231  0.019009  0.750640  1
  Yb  Yb4  1  0.978595  0.813368  0.093860  1
  Yb  Yb5  1  0.473277  0.683141  0.403367  1
  Yb  Yb6  1  0.520279  0.328333  0.904011  1
  Yb  Yb7  1  0.025448  0.185001  0.597300  1
  Yb  Yb8  1  0.023806  0.184427  0.904122  1
  Yb  Yb9  1  0.527234  0.317068  0.596946  1
  Yb  Yb10  1  0.475885  0.681286  0.095177  1
  Yb  Yb11  1  0.973754  0.817720  0.403259  1
  Ho  Ho12  1  0.676450  0.815260  0.879377  1
  Ho  Ho13  1  0.180328  0.677181  0.620954  1
  Ho  Ho14  1  0.824470  0.327451  0.120555  1
  Ho  Ho15  1  0.316779  0.176943  0.379022  1
  Ho  Ho16  1  0.320453  0.177987  0.122188  1
  Ho  Ho17  1  0.816941  0.322174  0.378791  1
  Ho  Ho18  1  0.182266  0.674544  0.880022  1
  Ho  Ho19  1  0.680461  0.823051  0.621134  1
  Si  Si20  1  0.755777  0.606776  0.249096  1
  Si  Si21  1  0.254676  0.894938  0.250263  1
  Si  Si22  1  0.744288  0.104038  0.749574  1
  Si  Si23  1  0.242705  0.393725  0.748747  1
  Si  Si24  1  0.026341  0.116812  0.249738  1
  Si  Si25  1  0.528701  0.382833  0.251926  1
  Si  Si26  1  0.468910  0.618994  0.746275  1
  Si  Si27  1  0.971242  0.881673  0.753183  1
  Si  Si28  1  0.356898  0.966598  0.538327  1
  Si  Si29  1  0.645142  0.036016  0.035642  1
  Si  Si30  1  0.141099  0.467358  0.461224  1
  Si  Si31  1  0.156872  0.462396  0.038181  1
  Si  Si32  1  0.640972  0.033232  0.461638  1
  Si  Si33  1  0.357512  0.967200  0.962486  1
  Si  Si34  1  0.856916  0.533365  0.538223  1
  Pt  Pt35  1  0.857942  0.528195  0.961710  1
