# generated using pymatgen
data_Ce4AlB4Ir5Rh4
_symmetry_space_group_name_H-M   'P 1'
_cell_length_a   10.79530715
_cell_length_b   10.79467562
_cell_length_c   10.79530715
_cell_angle_alpha   29.78259771
_cell_angle_beta   29.81184403
_cell_angle_gamma   29.78260276
_symmetry_Int_Tables_number   1
_chemical_formula_structural   Ce4AlB4Ir5Rh4
_chemical_formula_sum   'Ce4 Al1 B4 Ir5 Rh4'
_cell_volume   275.00309906
_cell_formula_units_Z   1
loop_
 _symmetry_equiv_pos_site_id
 _symmetry_equiv_pos_as_xyz
  1  'x, y, z'
loop_
 _atom_site_type_symbol
 _atom_site_label
 _atom_site_symmetry_multiplicity
 _atom_site_fract_x
 _atom_site_fract_y
 _atom_site_fract_z
 _atom_site_occupancy
  Ce  Ce0  1  0.148108  0.150456  0.148108  1
  Ce  Ce1  1  0.947933  0.947951  0.947933  1
  Ce  Ce2  1  0.850709  0.851139  0.850709  1
  Ce  Ce3  1  0.051813  0.052078  0.051813  1
  Al  Al4  1  0.501230  0.497816  0.501230  1
  B  B5  1  0.616357  0.614510  0.616357  1
  B  B6  1  0.718131  0.717874  0.718131  1
  B  B7  1  0.384571  0.383922  0.384571  1
  B  B8  1  0.281488  0.283105  0.281488  1
  Ir  Ir9  1  0.901977  0.402604  0.401989  1
  Ir  Ir10  1  0.597931  0.098024  0.597931  1
  Ir  Ir11  1  0.597810  0.598100  0.098090  1
  Ir  Ir12  1  0.098090  0.598100  0.597810  1
  Ir  Ir13  1  0.401989  0.402604  0.901977  1
  Rh  Rh14  1  0.402025  0.902186  0.402025  1
  Rh  Rh15  1  0.500010  0.499870  0.000035  1
  Rh  Rh16  1  0.499792  0.999790  0.499792  1
  Rh  Rh17  1  0.000035  0.499870  0.500010  1
