# generated using pymatgen
data_Ho7Er3(In2Pd)4
_symmetry_space_group_name_H-M   'P 1'
_cell_length_a   3.60835900
_cell_length_b   8.12670779
_cell_length_c   18.20628399
_cell_angle_alpha   90.05195551
_cell_angle_beta   90.00000000
_cell_angle_gamma   90.00000000
_symmetry_Int_Tables_number   1
_chemical_formula_structural   Ho7Er3(In2Pd)4
_chemical_formula_sum   'Ho7 Er3 In8 Pd4'
_cell_volume   533.88229366
_cell_formula_units_Z   1
loop_
 _symmetry_equiv_pos_site_id
 _symmetry_equiv_pos_as_xyz
  1  'x, y, z'
loop_
 _atom_site_type_symbol
 _atom_site_label
 _atom_site_symmetry_multiplicity
 _atom_site_fract_x
 _atom_site_fract_y
 _atom_site_fract_z
 _atom_site_occupancy
  Ho  Ho0  1  0.000000  0.499981  0.500139  1
  Ho  Ho1  1  0.000000  0.999667  0.999857  1
  Ho  Ho2  1  0.000000  0.738957  0.281125  1
  Ho  Ho3  1  0.000000  0.261127  0.718856  1
  Ho  Ho4  1  0.000000  0.761137  0.781017  1
  Ho  Ho5  1  0.000000  0.239259  0.219183  1
  Ho  Ho6  1  0.000000  0.617239  0.083413  1
  Er  Er7  1  0.000000  0.382529  0.916457  1
  Er  Er8  1  0.000000  0.882741  0.583549  1
  Er  Er9  1  0.000000  0.116991  0.416425  1
  In  In10  1  0.500000  0.708013  0.932753  1
  In  In11  1  0.500000  0.291282  0.067102  1
  In  In12  1  0.500000  0.792226  0.433053  1
  In  In13  1  0.500000  0.207805  0.566838  1
  In  In14  1  0.500000  0.581869  0.650097  1
  In  In15  1  0.500000  0.418142  0.350126  1
  In  In16  1  0.500000  0.919444  0.150197  1
  In  In17  1  0.500000  0.081779  0.849730  1
  Pd  Pd18  1  0.500000  0.522967  0.195746  1
  Pd  Pd19  1  0.500000  0.476448  0.804437  1
  Pd  Pd20  1  0.500000  0.976654  0.695257  1
  Pd  Pd21  1  0.500000  0.023744  0.304642  1
