# generated using pymatgen
data_ErTh3(Al8Pd3)3
_symmetry_space_group_name_H-M   'P 1'
_cell_length_a   7.63707585
_cell_length_b   7.64256065
_cell_length_c   13.23457093
_cell_angle_alpha   84.46460538
_cell_angle_beta   78.90134966
_cell_angle_gamma   59.92524151
_symmetry_Int_Tables_number   1
_chemical_formula_structural   ErTh3(Al8Pd3)3
_chemical_formula_sum   'Er1 Th3 Al24 Pd9'
_cell_volume   655.96308598
_cell_formula_units_Z   1
loop_
 _symmetry_equiv_pos_site_id
 _symmetry_equiv_pos_as_xyz
  1  'x, y, z'
loop_
 _atom_site_type_symbol
 _atom_site_label
 _atom_site_symmetry_multiplicity
 _atom_site_fract_x
 _atom_site_fract_y
 _atom_site_fract_z
 _atom_site_occupancy
  Er  Er0  1  0.265765  0.501587  0.194031  1
  Th  Th1  1  0.394540  0.168015  0.807619  1
  Th  Th2  1  0.604724  0.832464  0.192992  1
  Th  Th3  1  0.733736  0.498144  0.807543  1
  Al  Al4  1  0.687133  0.833741  0.947240  1
  Al  Al5  1  0.312336  0.170287  0.057271  1
  Al  Al6  1  0.145722  0.833403  0.559685  1
  Al  Al7  1  0.855229  0.165856  0.437066  1
  Al  Al8  1  0.481034  0.167154  0.557469  1
  Al  Al9  1  0.519341  0.833303  0.440712  1
  Al  Al10  1  0.213022  0.168441  0.332886  1
  Al  Al11  1  0.788753  0.834443  0.663261  1
  Al  Al12  1  0.435688  0.510516  0.664234  1
  Al  Al13  1  0.561973  0.489826  0.332502  1
  Al  Al14  1  0.112572  0.155690  0.662074  1
  Al  Al15  1  0.892230  0.840254  0.333894  1
  Al  Al16  1  0.347470  0.502850  0.949515  1
  Al  Al17  1  0.646077  0.497956  0.057168  1
  Al  Al18  1  0.013605  0.164964  0.959122  1
  Al  Al19  1  0.986598  0.831918  0.047647  1
  Al  Al20  1  0.186957  0.500164  0.439429  1
  Al  Al21  1  0.814496  0.499658  0.557458  1
  Al  Al22  1  0.733694  0.166336  0.184587  1
  Al  Al23  1  0.262421  0.835538  0.816069  1
  Al  Al24  1  0.062236  0.634443  0.814335  1
  Al  Al25  1  0.940203  0.366893  0.186067  1
  Al  Al26  1  0.860312  0.037066  0.815587  1
  Al  Al27  1  0.141399  0.958332  0.184542  1
  Pd  Pd28  1  0.120687  0.492346  0.637505  1
  Pd  Pd29  1  0.880109  0.507513  0.361701  1
  Pd  Pd30  1  0.656906  0.172074  0.999904  1
  Pd  Pd31  1  0.342561  0.828873  0.000126  1
  Pd  Pd32  1  0.537556  0.167416  0.361733  1
  Pd  Pd33  1  0.462631  0.832951  0.637668  1
  Pd  Pd34  1  0.778961  0.174734  0.637337  1
  Pd  Pd35  1  0.221515  0.824616  0.361770  1
  Pd  Pd36  1  0.999809  0.500233  0.000252  1
