# generated using pymatgen
data_HoTh3(NiB4)4
_symmetry_space_group_name_H-M   'P 1'
_cell_length_a   6.92449531
_cell_length_b   6.92449439
_cell_length_c   6.92449497
_cell_angle_alpha   112.79964447
_cell_angle_beta   112.79963650
_cell_angle_gamma   103.00172553
_symmetry_Int_Tables_number   1
_chemical_formula_structural   HoTh3(NiB4)4
_chemical_formula_sum   'Ho1 Th3 Ni4 B16'
_cell_volume   253.18313987
_cell_formula_units_Z   1
loop_
 _symmetry_equiv_pos_site_id
 _symmetry_equiv_pos_as_xyz
  1  'x, y, z'
loop_
 _atom_site_type_symbol
 _atom_site_label
 _atom_site_symmetry_multiplicity
 _atom_site_fract_x
 _atom_site_fract_y
 _atom_site_fract_z
 _atom_site_occupancy
  Ho  Ho0  1  0.250000  0.750000  0.500000  1
  Th  Th1  1  0.796456  0.796456  0.000000  1
  Th  Th2  1  0.203544  0.203544  0.000000  1
  Th  Th3  1  0.750000  0.250000  0.500000  1
  Ni  Ni4  1  0.272682  0.501823  0.770859  1
  Ni  Ni5  1  0.730964  0.501823  0.229141  1
  Ni  Ni6  1  0.498177  0.727318  0.229141  1
  Ni  Ni7  1  0.498177  0.269036  0.770859  1
  B  B8  1  0.274536  0.111980  0.385477  1
  B  B9  1  0.726504  0.889059  0.614523  1
  B  B10  1  0.274536  0.889059  0.162556  1
  B  B11  1  0.726504  0.111980  0.837444  1
  B  B12  1  0.110941  0.725464  0.837444  1
  B  B13  1  0.888020  0.273496  0.162556  1
  B  B14  1  0.110941  0.273496  0.385477  1
  B  B15  1  0.888020  0.725464  0.614523  1
  B  B16  1  0.114588  0.112013  0.532031  1
  B  B17  1  0.579982  0.582556  0.467969  1
  B  B18  1  0.114588  0.582556  0.002574  1
  B  B19  1  0.579982  0.112013  0.997426  1
  B  B20  1  0.887987  0.885412  0.467969  1
  B  B21  1  0.417444  0.420018  0.532031  1
  B  B22  1  0.887987  0.420018  0.002574  1
  B  B23  1  0.417444  0.885412  0.997426  1
