# generated using pymatgen
data_Eu3ReBO9
_symmetry_space_group_name_H-M   'P 1'
_cell_length_a   8.72259600
_cell_length_b   8.72259428
_cell_length_c   5.56381600
_cell_angle_alpha   90.00000000
_cell_angle_beta   90.00000000
_cell_angle_gamma   120.00002929
_symmetry_Int_Tables_number   1
_chemical_formula_structural   Eu3ReBO9
_chemical_formula_sum   'Eu6 Re2 B2 O18'
_cell_volume   366.60188410
_cell_formula_units_Z   2
loop_
 _symmetry_equiv_pos_site_id
 _symmetry_equiv_pos_as_xyz
  1  'x, y, z'
loop_
 _atom_site_type_symbol
 _atom_site_label
 _atom_site_symmetry_multiplicity
 _atom_site_fract_x
 _atom_site_fract_y
 _atom_site_fract_z
 _atom_site_occupancy
  Eu  Eu0  1  0.352219  0.077790  0.202492  1
  Eu  Eu1  1  0.922211  0.274430  0.202492  1
  Eu  Eu2  1  0.725571  0.647781  0.202492  1
  Eu  Eu3  1  0.274430  0.352220  0.702491  1
  Eu  Eu4  1  0.077789  0.725571  0.702491  1
  Eu  Eu5  1  0.647781  0.922211  0.702491  1
  Re  Re6  1  0.333334  0.666667  0.250686  1
  Re  Re7  1  0.666666  0.333334  0.750687  1
  B  B8  1  0.000000  0.000000  0.365035  1
  B  B9  1  0.000000  0.000000  0.865034  1
  O  O10  1  0.530508  0.743126  0.052281  1
  O  O11  1  0.256874  0.787381  0.052281  1
  O  O12  1  0.212620  0.469493  0.052283  1
  O  O13  1  0.128811  0.176751  0.356968  1
  O  O14  1  0.047940  0.871189  0.356968  1
  O  O15  1  0.823248  0.952059  0.356968  1
  O  O16  1  0.137859  0.523954  0.467784  1
  O  O17  1  0.476046  0.613906  0.467784  1
  O  O18  1  0.386094  0.862140  0.467784  1
  O  O19  1  0.743126  0.212619  0.552282  1
  O  O20  1  0.469492  0.256873  0.552282  1
  O  O21  1  0.787380  0.530508  0.552282  1
  O  O22  1  0.176751  0.047940  0.856969  1
  O  O23  1  0.952059  0.128811  0.856969  1
  O  O24  1  0.871189  0.823248  0.856969  1
  O  O25  1  0.613905  0.137859  0.967782  1
  O  O26  1  0.862140  0.476045  0.967782  1
  O  O27  1  0.523954  0.386093  0.967784  1
