# generated using pymatgen
data_LiY12Fe4Bi
_symmetry_space_group_name_H-M   'P 1'
_cell_length_a   8.45922759
_cell_length_b   8.45922695
_cell_length_c   8.45922635
_cell_angle_alpha   111.12628567
_cell_angle_beta   110.52590018
_cell_angle_gamma   106.79476141
_symmetry_Int_Tables_number   1
_chemical_formula_structural   LiY12Fe4Bi
_chemical_formula_sum   'Li1 Y12 Fe4 Bi1'
_cell_volume   465.21158424
_cell_formula_units_Z   1
loop_
 _symmetry_equiv_pos_site_id
 _symmetry_equiv_pos_as_xyz
  1  'x, y, z'
loop_
 _atom_site_type_symbol
 _atom_site_label
 _atom_site_symmetry_multiplicity
 _atom_site_fract_x
 _atom_site_fract_y
 _atom_site_fract_z
 _atom_site_occupancy
  Li  Li0  1  0.000000  0.000000  0.000000  1
  Y  Y1  1  0.288349  0.187211  0.475560  1
  Y  Y2  1  0.711651  0.812789  0.524440  1
  Y  Y3  1  0.288349  0.812789  0.101140  1
  Y  Y4  1  0.711651  0.187211  0.898860  1
  Y  Y5  1  0.610685  0.308082  0.302604  1
  Y  Y6  1  0.389315  0.691918  0.697396  1
  Y  Y7  1  0.005478  0.308082  0.697396  1
  Y  Y8  1  0.994522  0.691918  0.302604  1
  Y  Y9  1  0.219324  0.426651  0.207326  1
  Y  Y10  1  0.780676  0.573349  0.792674  1
  Y  Y11  1  0.219324  0.011999  0.792674  1
  Y  Y12  1  0.780676  0.988001  0.207326  1
  Fe  Fe13  1  0.000000  0.385857  0.385857  1
  Fe  Fe14  1  0.000000  0.614143  0.614143  1
  Fe  Fe15  1  0.394101  0.894101  0.500000  1
  Fe  Fe16  1  0.605899  0.105899  0.500000  1
  Bi  Bi17  1  0.500000  0.500000  0.000000  1
