# generated using pymatgen
data_Ca2HoTm5(B6Ru)4
_symmetry_space_group_name_H-M   'P 1'
_cell_length_a   3.62728500
_cell_length_b   9.10209254
_cell_length_c   11.50250203
_cell_angle_alpha   89.81882871
_cell_angle_beta   90.00000000
_cell_angle_gamma   90.00000000
_symmetry_Int_Tables_number   1
_chemical_formula_structural   Ca2HoTm5(B6Ru)4
_chemical_formula_sum   'Ca2 Ho1 Tm5 B24 Ru4'
_cell_volume   379.76337094
_cell_formula_units_Z   1
loop_
 _symmetry_equiv_pos_site_id
 _symmetry_equiv_pos_as_xyz
  1  'x, y, z'
loop_
 _atom_site_type_symbol
 _atom_site_label
 _atom_site_symmetry_multiplicity
 _atom_site_fract_x
 _atom_site_fract_y
 _atom_site_fract_z
 _atom_site_occupancy
  Ca  Ca0  1  0.000000  0.323843  0.414968  1
  Ca  Ca1  1  0.000000  0.676146  0.585059  1
  Ho  Ho2  1  0.000000  0.822306  0.085969  1
  Tm  Tm3  1  0.000000  0.177803  0.914023  1
  Tm  Tm4  1  0.000000  0.942105  0.369480  1
  Tm  Tm5  1  0.000000  0.057963  0.630595  1
  Tm  Tm6  1  0.000000  0.442580  0.130261  1
  Tm  Tm7  1  0.000000  0.557192  0.869667  1
  B  B8  1  0.500000  0.554655  0.431721  1
  B  B9  1  0.500000  0.445305  0.568306  1
  B  B10  1  0.500000  0.053946  0.066131  1
  B  B11  1  0.500000  0.946525  0.933598  1
  B  B12  1  0.500000  0.748967  0.416923  1
  B  B13  1  0.500000  0.251043  0.583119  1
  B  B14  1  0.500000  0.248719  0.080381  1
  B  B15  1  0.500000  0.751261  0.919202  1
  B  B16  1  0.500000  0.791850  0.263877  1
  B  B17  1  0.500000  0.207979  0.736453  1
  B  B18  1  0.500000  0.290111  0.233474  1
  B  B19  1  0.500000  0.709898  0.766470  1
  B  B20  1  0.500000  0.631298  0.184216  1
  B  B21  1  0.500000  0.368389  0.816001  1
  B  B22  1  0.500000  0.130024  0.313428  1
  B  B23  1  0.500000  0.870037  0.686578  1
  B  B24  1  0.500000  0.982876  0.211227  1
  B  B25  1  0.500000  0.017567  0.788926  1
  B  B26  1  0.500000  0.483978  0.287068  1
  B  B27  1  0.500000  0.515947  0.712947  1
  B  B28  1  0.500000  0.602797  0.028143  1
  B  B29  1  0.500000  0.396686  0.971717  1
  B  B30  1  0.500000  0.098296  0.472918  1
  B  B31  1  0.500000  0.901728  0.527108  1
  Ru  Ru32  1  0.000000  0.640970  0.317319  1
  Ru  Ru33  1  0.000000  0.358850  0.682895  1
  Ru  Ru34  1  0.000000  0.136944  0.177396  1
  Ru  Ru35  1  0.000000  0.863416  0.822434  1
