# generated using pymatgen
data_Sc3Al3ZnNi2
_symmetry_space_group_name_H-M   'P 1'
_cell_length_a   6.91320400
_cell_length_b   6.91320548
_cell_length_c   3.59889200
_cell_angle_alpha   90.00000000
_cell_angle_beta   90.00000000
_cell_angle_gamma   119.99999290
_symmetry_Int_Tables_number   1
_chemical_formula_structural   Sc3Al3ZnNi2
_chemical_formula_sum   'Sc3 Al3 Zn1 Ni2'
_cell_volume   148.95610761
_cell_formula_units_Z   1
loop_
 _symmetry_equiv_pos_site_id
 _symmetry_equiv_pos_as_xyz
  1  'x, y, z'
loop_
 _atom_site_type_symbol
 _atom_site_label
 _atom_site_symmetry_multiplicity
 _atom_site_fract_x
 _atom_site_fract_y
 _atom_site_fract_z
 _atom_site_occupancy
  Sc  Sc0  1  0.401523  0.417078  0.500000  1
  Sc  Sc1  1  0.582922  0.984446  0.500000  1
  Sc  Sc2  1  0.015554  0.598477  0.500000  1
  Al  Al3  1  0.754406  0.757213  0.000000  1
  Al  Al4  1  0.242787  0.997193  0.000000  1
  Al  Al5  1  0.002807  0.245594  0.000000  1
  Zn  Zn6  1  0.666667  0.333333  0.000000  1
  Ni  Ni7  1  0.333333  0.666667  0.000000  1
  Ni  Ni8  1  0.000000  0.000000  0.500000  1
