# generated using pymatgen
data_Tm(NiB)2
_symmetry_space_group_name_H-M   'P 1'
_cell_length_a   4.92024542
_cell_length_b   4.92024594
_cell_length_c   6.84614546
_cell_angle_alpha   59.50081282
_cell_angle_beta   59.50080835
_cell_angle_gamma   64.01685974
_symmetry_Int_Tables_number   1
_chemical_formula_structural   Tm(NiB)2
_chemical_formula_sum   'Tm2 Ni4 B4'
_cell_volume   119.35307681
_cell_formula_units_Z   2
loop_
 _symmetry_equiv_pos_site_id
 _symmetry_equiv_pos_as_xyz
  1  'x, y, z'
loop_
 _atom_site_type_symbol
 _atom_site_label
 _atom_site_symmetry_multiplicity
 _atom_site_fract_x
 _atom_site_fract_y
 _atom_site_fract_z
 _atom_site_occupancy
  Tm  Tm0  1  0.117462  0.882538  0.750000  1
  Tm  Tm1  1  0.882538  0.117462  0.250000  1
  Ni  Ni2  1  0.465310  0.278901  0.700377  1
  Ni  Ni3  1  0.721099  0.534690  0.799623  1
  Ni  Ni4  1  0.534690  0.721099  0.299623  1
  Ni  Ni5  1  0.278901  0.465310  0.200377  1
  B  B6  1  0.155527  0.505150  0.522683  1
  B  B7  1  0.494850  0.844473  0.977317  1
  B  B8  1  0.844473  0.494850  0.477317  1
  B  B9  1  0.505150  0.155527  0.022683  1
