# generated using pymatgen
data_Tb10Nd6Cd4RuPt3
_symmetry_space_group_name_H-M   'P 1'
_cell_length_a   9.82483043
_cell_length_b   9.82483074
_cell_length_c   9.82483004
_cell_angle_alpha   59.88818478
_cell_angle_beta   59.88819066
_cell_angle_gamma   59.88819190
_symmetry_Int_Tables_number   1
_chemical_formula_structural   Tb10Nd6Cd4RuPt3
_chemical_formula_sum   'Tb10 Nd6 Cd4 Ru1 Pt3'
_cell_volume   668.89364034
_cell_formula_units_Z   1
loop_
 _symmetry_equiv_pos_site_id
 _symmetry_equiv_pos_as_xyz
  1  'x, y, z'
loop_
 _atom_site_type_symbol
 _atom_site_label
 _atom_site_symmetry_multiplicity
 _atom_site_fract_x
 _atom_site_fract_y
 _atom_site_fract_z
 _atom_site_occupancy
  Tb  Tb0  1  0.350943  0.350943  0.350943  1
  Tb  Tb1  1  0.347538  0.347538  0.953483  1
  Tb  Tb2  1  0.347538  0.953483  0.347538  1
  Tb  Tb3  1  0.953483  0.347538  0.347538  1
  Tb  Tb4  1  0.817101  0.187265  0.187265  1
  Tb  Tb5  1  0.187573  0.810913  0.810913  1
  Tb  Tb6  1  0.187265  0.817101  0.187265  1
  Tb  Tb7  1  0.810913  0.187573  0.810913  1
  Tb  Tb8  1  0.187265  0.187265  0.817101  1
  Tb  Tb9  1  0.810913  0.810913  0.187573  1
  Nd  Nd10  1  0.937705  0.562474  0.562474  1
  Nd  Nd11  1  0.558479  0.938520  0.938520  1
  Nd  Nd12  1  0.562474  0.937705  0.562474  1
  Nd  Nd13  1  0.938520  0.558479  0.938520  1
  Nd  Nd14  1  0.562474  0.562474  0.937705  1
  Nd  Nd15  1  0.938520  0.938520  0.558479  1
  Cd  Cd16  1  0.579384  0.579384  0.579384  1
  Cd  Cd17  1  0.579670  0.579670  0.259877  1
  Cd  Cd18  1  0.579670  0.259877  0.579670  1
  Cd  Cd19  1  0.259877  0.579670  0.579670  1
  Ru  Ru20  1  0.142414  0.142414  0.142414  1
  Pt  Pt21  1  0.143556  0.143556  0.573171  1
  Pt  Pt22  1  0.143556  0.573171  0.143556  1
  Pt  Pt23  1  0.573171  0.143556  0.143556  1
