# generated using pymatgen
data_Sm10Si16Ag
_symmetry_space_group_name_H-M   'P 1'
_cell_length_a   11.33552491
_cell_length_b   11.33543689
_cell_length_c   11.33552046
_cell_angle_alpha   144.76752607
_cell_angle_beta   136.33988056
_cell_angle_gamma   57.29837807
_symmetry_Int_Tables_number   1
_chemical_formula_structural   Sm10Si16Ag
_chemical_formula_sum   'Sm10 Si16 Ag1'
_cell_volume   575.39198380
_cell_formula_units_Z   1
loop_
 _symmetry_equiv_pos_site_id
 _symmetry_equiv_pos_as_xyz
  1  'x, y, z'
loop_
 _atom_site_type_symbol
 _atom_site_label
 _atom_site_symmetry_multiplicity
 _atom_site_fract_x
 _atom_site_fract_y
 _atom_site_fract_z
 _atom_site_occupancy
  Sm  Sm0  1  0.052922  0.566008  0.021572  1
  Sm  Sm1  1  0.352417  0.368845  0.520006  1
  Sm  Sm2  1  0.154807  0.165304  0.520769  1
  Sm  Sm3  1  0.451073  0.963554  0.014798  1
  Sm  Sm4  1  0.644534  0.165305  0.010497  1
  Sm  Sm5  1  0.948755  0.963554  0.512481  1
  Sm  Sm6  1  0.848839  0.368844  0.016427  1
  Sm  Sm7  1  0.544435  0.566008  0.513086  1
  Sm  Sm8  1  0.252370  0.767260  0.016012  1
  Sm  Sm9  1  0.751251  0.767260  0.514890  1
  Si  Si10  1  0.112332  0.062619  0.950290  1
  Si  Si11  1  0.797218  0.182316  0.385093  1
  Si  Si12  1  0.300075  0.900259  0.600176  1
  Si  Si13  1  0.400134  0.501874  0.101737  1
  Si  Si14  1  0.885726  0.852643  0.966911  1
  Si  Si15  1  0.103347  0.706920  0.603577  1
  Si  Si16  1  0.199734  0.597968  0.398226  1
  Si  Si17  1  0.700088  0.295937  0.595849  1
  Si  Si18  1  0.002190  0.432526  0.430334  1
  Si  Si19  1  0.709865  0.656683  0.946819  1
  Si  Si20  1  0.600886  0.701872  0.100985  1
  Si  Si21  1  0.999370  0.086082  0.086705  1
  Si  Si22  1  0.501235  0.407096  0.905864  1
  Si  Si23  1  0.290022  0.240214  0.950193  1
  Si  Si24  1  0.589165  0.037838  0.448672  1
  Si  Si25  1  0.410367  0.859806  0.449432  1
  Ag  Ag26  1  0.896843  0.504325  0.607516  1
