# generated using pymatgen
data_Nd6Ir15PdRh2
_symmetry_space_group_name_H-M   'P 1'
_cell_length_a   5.38170800
_cell_length_b   5.38164600
_cell_length_c   17.65246600
_cell_angle_alpha   90.00000000
_cell_angle_beta   90.00000000
_cell_angle_gamma   119.99975840
_symmetry_Int_Tables_number   1
_chemical_formula_structural   Nd6Ir15PdRh2
_chemical_formula_sum   'Nd6 Ir15 Pd1 Rh2'
_cell_volume   442.76402827
_cell_formula_units_Z   1
loop_
 _symmetry_equiv_pos_site_id
 _symmetry_equiv_pos_as_xyz
  1  'x, y, z'
loop_
 _atom_site_type_symbol
 _atom_site_label
 _atom_site_symmetry_multiplicity
 _atom_site_fract_x
 _atom_site_fract_y
 _atom_site_fract_z
 _atom_site_occupancy
  Nd  Nd0  1  0.333335  0.666666  0.541295  1
  Nd  Nd1  1  0.666658  0.333327  0.040623  1
  Nd  Nd2  1  0.666658  0.333327  0.459377  1
  Nd  Nd3  1  0.333335  0.666666  0.958705  1
  Nd  Nd4  1  0.333333  0.666670  0.750000  1
  Nd  Nd5  1  0.666672  0.333338  0.250000  1
  Ir  Ir6  1  0.166807  0.333601  0.126402  1
  Ir  Ir7  1  0.833092  0.666183  0.627140  1
  Ir  Ir8  1  0.666398  0.833198  0.126399  1
  Ir  Ir9  1  0.166806  0.833203  0.126402  1
  Ir  Ir10  1  0.833092  0.166913  0.627139  1
  Ir  Ir11  1  0.333834  0.166918  0.627135  1
  Ir  Ir12  1  0.833092  0.666183  0.872860  1
  Ir  Ir13  1  0.833092  0.166913  0.872861  1
  Ir  Ir14  1  0.333834  0.166918  0.872865  1
  Ir  Ir15  1  0.666398  0.833198  0.373601  1
  Ir  Ir16  1  0.166806  0.833203  0.373598  1
  Ir  Ir17  1  0.166807  0.333601  0.373598  1
  Ir  Ir18  1  0.999995  0.999992  0.250000  1
  Ir  Ir19  1  0.999985  0.999990  0.000414  1
  Ir  Ir20  1  0.999985  0.999990  0.499586  1
  Pd  Pd21  1  0.333336  0.666667  0.250000  1
  Rh  Rh22  1  0.999985  0.000003  0.750000  1
  Rh  Rh23  1  0.666669  0.333332  0.750000  1
