# generated using pymatgen
data_Er9Th3(Cd3C)4
_symmetry_space_group_name_H-M   'P 1'
_cell_length_a   9.60247060
_cell_length_b   9.61391859
_cell_length_c   9.60242330
_cell_angle_alpha   120.03933537
_cell_angle_beta   89.80850131
_cell_angle_gamma   120.03991415
_symmetry_Int_Tables_number   1
_chemical_formula_structural   Er9Th3(Cd3C)4
_chemical_formula_sum   'Er9 Th3 Cd12 C4'
_cell_volume   627.12108865
_cell_formula_units_Z   1
loop_
 _symmetry_equiv_pos_site_id
 _symmetry_equiv_pos_as_xyz
  1  'x, y, z'
loop_
 _atom_site_type_symbol
 _atom_site_label
 _atom_site_symmetry_multiplicity
 _atom_site_fract_x
 _atom_site_fract_y
 _atom_site_fract_z
 _atom_site_occupancy
  Er  Er0  1  0.936091  0.375286  0.184925  1
  Er  Er1  1  0.936098  0.745740  0.184946  1
  Er  Er2  1  0.688121  0.249850  0.439941  1
  Er  Er3  1  0.688116  0.878201  0.439930  1
  Er  Er4  1  0.315060  0.124701  0.563910  1
  Er  Er5  1  0.315064  0.754268  0.563906  1
  Er  Er6  1  0.688843  0.250003  0.811161  1
  Er  Er7  1  0.060071  0.621799  0.811883  1
  Er  Er8  1  0.060057  0.250142  0.811870  1
  Th  Th9  1  0.309752  0.750001  0.190242  1
  Th  Th10  1  0.062436  0.250004  0.437562  1
  Th  Th11  1  0.938927  0.750001  0.561083  1
  Cd  Cd12  1  0.998743  0.998703  0.998664  1
  Cd  Cd13  1  0.500689  0.000882  0.999318  1
  Cd  Cd14  1  0.500676  0.499120  0.999309  1
  Cd  Cd15  1  0.706940  0.914495  0.122062  1
  Cd  Cd16  1  0.292220  0.085699  0.207804  1
  Cd  Cd17  1  0.292213  0.414322  0.207794  1
  Cd  Cd18  1  0.623825  0.414848  0.205864  1
  Cd  Cd19  1  0.501341  0.501308  0.501270  1
  Cd  Cd20  1  0.377908  0.585480  0.793057  1
  Cd  Cd21  1  0.707256  0.581032  0.792752  1
  Cd  Cd22  1  0.707249  0.918974  0.792753  1
  Cd  Cd23  1  0.294147  0.085178  0.876204  1
  C  C24  1  0.001701  0.501829  0.001963  1
  C  C25  1  0.999222  0.001031  0.500777  1
  C  C26  1  0.498025  0.998151  0.498281  1
  C  C27  1  0.999218  0.498965  0.500774  1
