# generated using pymatgen
data_SmSi(PRh2)3
_symmetry_space_group_name_H-M   'P 1'
_cell_length_a   7.04748700
_cell_length_b   7.04748781
_cell_length_c   3.79122600
_cell_angle_alpha   90.00000000
_cell_angle_beta   90.00000000
_cell_angle_gamma   119.99999150
_symmetry_Int_Tables_number   1
_chemical_formula_structural   SmSi(PRh2)3
_chemical_formula_sum   'Sm1 Si1 P3 Rh6'
_cell_volume   163.07183560
_cell_formula_units_Z   1
loop_
 _symmetry_equiv_pos_site_id
 _symmetry_equiv_pos_as_xyz
  1  'x, y, z'
loop_
 _atom_site_type_symbol
 _atom_site_label
 _atom_site_symmetry_multiplicity
 _atom_site_fract_x
 _atom_site_fract_y
 _atom_site_fract_z
 _atom_site_occupancy
  Sm  Sm0  1  0.000000  0.000000  0.500000  1
  Si  Si1  1  0.666667  0.333333  0.500000  1
  P  P2  1  0.202380  0.378140  0.000000  1
  P  P3  1  0.175761  0.797620  0.000000  1
  P  P4  1  0.621860  0.824239  0.000000  1
  Rh  Rh5  1  0.497761  0.930674  0.500000  1
  Rh  Rh6  1  0.432913  0.502239  0.500000  1
  Rh  Rh7  1  0.069326  0.567087  0.500000  1
  Rh  Rh8  1  0.781649  0.604475  0.000000  1
  Rh  Rh9  1  0.822827  0.218351  0.000000  1
  Rh  Rh10  1  0.395525  0.177173  0.000000  1
