# generated using pymatgen
data_Ho9Mg(Cu2Sb)2
_symmetry_space_group_name_H-M   'P 1'
_cell_length_a   8.51763972
_cell_length_b   8.51770439
_cell_length_c   8.51795231
_cell_angle_alpha   126.02968252
_cell_angle_beta   126.03080486
_cell_angle_gamma   79.83774440
_symmetry_Int_Tables_number   1
_chemical_formula_structural   Ho9Mg(Cu2Sb)2
_chemical_formula_sum   'Ho9 Mg1 Cu4 Sb2'
_cell_volume   390.34598123
_cell_formula_units_Z   1
loop_
 _symmetry_equiv_pos_site_id
 _symmetry_equiv_pos_as_xyz
  1  'x, y, z'
loop_
 _atom_site_type_symbol
 _atom_site_label
 _atom_site_symmetry_multiplicity
 _atom_site_fract_x
 _atom_site_fract_y
 _atom_site_fract_z
 _atom_site_occupancy
  Ho  Ho0  1  0.526439  0.708762  0.514793  1
  Ho  Ho1  1  0.011649  0.526456  0.817680  1
  Ho  Ho2  1  0.708777  0.193970  0.182320  1
  Ho  Ho3  1  0.988351  0.473544  0.182320  1
  Ho  Ho4  1  0.193968  0.011647  0.485207  1
  Ho  Ho5  1  0.473561  0.291238  0.485207  1
  Ho  Ho6  1  0.806032  0.988353  0.514793  1
  Ho  Ho7  1  0.291223  0.806030  0.817680  1
  Ho  Ho8  1  0.500000  0.500000  0.000000  1
  Mg  Mg9  1  0.000000  0.000000  0.000000  1
  Cu  Cu10  1  0.375393  0.869810  0.245208  1
  Cu  Cu11  1  0.869785  0.624610  0.494397  1
  Cu  Cu12  1  0.624607  0.130190  0.754792  1
  Cu  Cu13  1  0.130215  0.375390  0.505603  1
  Sb  Sb14  1  0.744559  0.744559  0.999993  1
  Sb  Sb15  1  0.255441  0.255441  0.000007  1
