# generated using pymatgen
data_Ti3BeSi2Ir3
_symmetry_space_group_name_H-M   'P 1'
_cell_length_a   7.30697066
_cell_length_b   7.30697149
_cell_length_c   7.30697069
_cell_angle_alpha   128.05500386
_cell_angle_beta   121.85971784
_cell_angle_gamma   81.70563007
_symmetry_Int_Tables_number   1
_chemical_formula_structural   Ti3BeSi2Ir3
_chemical_formula_sum   'Ti6 Be2 Si4 Ir6'
_cell_volume   251.16699910
_cell_formula_units_Z   2
loop_
 _symmetry_equiv_pos_site_id
 _symmetry_equiv_pos_as_xyz
  1  'x, y, z'
loop_
 _atom_site_type_symbol
 _atom_site_label
 _atom_site_symmetry_multiplicity
 _atom_site_fract_x
 _atom_site_fract_y
 _atom_site_fract_z
 _atom_site_occupancy
  Ti  Ti0  1  0.464979  0.432354  0.467375  1
  Ti  Ti1  1  0.535021  0.002396  0.967375  1
  Ti  Ti2  1  0.053317  0.008547  0.455230  1
  Ti  Ti3  1  0.946683  0.401914  0.955230  1
  Ti  Ti4  1  0.252886  0.596367  0.843482  1
  Ti  Ti5  1  0.747114  0.590596  0.343482  1
  Be  Be6  1  0.275330  0.021209  0.245879  1
  Be  Be7  1  0.724670  0.970549  0.745879  1
  Si  Si8  1  0.163771  0.671109  0.500609  1
  Si  Si9  1  0.836229  0.336838  0.507339  1
  Si  Si10  1  0.670500  0.671109  0.007339  1
  Si  Si11  1  0.329500  0.336838  0.000609  1
  Ir  Ir12  1  0.000000  0.249057  0.249057  1
  Ir  Ir13  1  0.500000  0.249057  0.749057  1
  Ir  Ir14  1  0.346555  0.756661  0.349924  1
  Ir  Ir15  1  0.653445  0.003370  0.410106  1
  Ir  Ir16  1  0.906737  0.756661  0.910106  1
  Ir  Ir17  1  0.093263  0.003370  0.849924  1
