# generated using pymatgen
data_TmTh7(Si4Mo3)4
_symmetry_space_group_name_H-M   'P 1'
_cell_length_a   6.99210736
_cell_length_b   7.06407072
_cell_length_c   13.14723744
_cell_angle_alpha   89.94045777
_cell_angle_beta   89.93830013
_cell_angle_gamma   89.81525894
_symmetry_Int_Tables_number   1
_chemical_formula_structural   TmTh7(Si4Mo3)4
_chemical_formula_sum   'Tm1 Th7 Si16 Mo12'
_cell_volume   649.37399190
_cell_formula_units_Z   1
loop_
 _symmetry_equiv_pos_site_id
 _symmetry_equiv_pos_as_xyz
  1  'x, y, z'
loop_
 _atom_site_type_symbol
 _atom_site_label
 _atom_site_symmetry_multiplicity
 _atom_site_fract_x
 _atom_site_fract_y
 _atom_site_fract_z
 _atom_site_occupancy
  Tm  Tm0  1  0.993149  0.167997  0.095947  1
  Th  Th1  1  0.491680  0.337965  0.095684  1
  Th  Th2  1  0.991856  0.161689  0.405039  1
  Th  Th3  1  0.508613  0.663603  0.595532  1
  Th  Th4  1  0.005875  0.834473  0.906038  1
  Th  Th5  1  0.507561  0.663687  0.906993  1
  Th  Th6  1  0.009187  0.837566  0.594830  1
  Th  Th7  1  0.490370  0.334776  0.402419  1
  Si  Si8  1  0.655576  0.049458  0.548462  1
  Si  Si9  1  0.152534  0.446962  0.954183  1
  Si  Si10  1  0.336219  0.955722  0.049658  1
  Si  Si11  1  0.842632  0.548130  0.451423  1
  Si  Si12  1  0.348388  0.947764  0.449271  1
  Si  Si13  1  0.847663  0.541570  0.049438  1
  Si  Si14  1  0.657747  0.049055  0.954725  1
  Si  Si15  1  0.155653  0.451187  0.548046  1
  Si  Si16  1  0.538961  0.350997  0.750943  1
  Si  Si17  1  0.038934  0.147695  0.751203  1
  Si  Si18  1  0.461486  0.652253  0.252085  1
  Si  Si19  1  0.963593  0.859427  0.244901  1
  Si  Si20  1  0.815240  0.614820  0.750739  1
  Si  Si21  1  0.313773  0.884156  0.751135  1
  Si  Si22  1  0.179650  0.379240  0.247265  1
  Si  Si23  1  0.693534  0.117631  0.245515  1
  Mo  Mo24  1  0.831514  0.335657  0.625640  1
  Mo  Mo25  1  0.332069  0.163776  0.876260  1
  Mo  Mo26  1  0.167268  0.662503  0.125099  1
  Mo  Mo27  1  0.678557  0.840439  0.372599  1
  Mo  Mo28  1  0.161903  0.661900  0.372405  1
  Mo  Mo29  1  0.664471  0.835595  0.123640  1
  Mo  Mo30  1  0.831719  0.336334  0.875896  1
  Mo  Mo31  1  0.331980  0.162227  0.625586  1
  Mo  Mo32  1  0.670461  0.996820  0.752005  1
  Mo  Mo33  1  0.172108  0.501451  0.750485  1
  Mo  Mo34  1  0.329873  0.005567  0.249108  1
  Mo  Mo35  1  0.828203  0.499908  0.249804  1
