# generated using pymatgen
data_Li4Sm2DyPb4
_symmetry_space_group_name_H-M   'P 1'
_cell_length_a   4.74327266
_cell_length_b   7.12982118
_cell_length_c   8.84712319
_cell_angle_alpha   113.76246897
_cell_angle_beta   105.54938797
_cell_angle_gamma   89.99999342
_symmetry_Int_Tables_number   1
_chemical_formula_structural   Li4Sm2DyPb4
_chemical_formula_sum   'Li4 Sm2 Dy1 Pb4'
_cell_volume   261.82374366
_cell_formula_units_Z   1
loop_
 _symmetry_equiv_pos_site_id
 _symmetry_equiv_pos_as_xyz
  1  'x, y, z'
loop_
 _atom_site_type_symbol
 _atom_site_label
 _atom_site_symmetry_multiplicity
 _atom_site_fract_x
 _atom_site_fract_y
 _atom_site_fract_z
 _atom_site_occupancy
  Li  Li0  1  0.673246  0.981855  0.346493  1
  Li  Li1  1  0.326754  0.018145  0.653507  1
  Li  Li2  1  0.326754  0.635362  0.653507  1
  Li  Li3  1  0.673246  0.364638  0.346493  1
  Sm  Sm4  1  0.129033  0.629033  0.258066  1
  Sm  Sm5  1  0.870967  0.370967  0.741934  1
  Dy  Dy6  1  0.000000  0.000000  0.000000  1
  Pb  Pb7  1  0.500000  0.709756  0.000000  1
  Pb  Pb8  1  0.500000  0.290244  0.000000  1
  Pb  Pb9  1  0.787948  0.787948  0.575898  1
  Pb  Pb10  1  0.212052  0.212052  0.424102  1
