# generated using pymatgen
data_Th5BiPPb2
_symmetry_space_group_name_H-M   'P 1'
_cell_length_a   9.56881609
_cell_length_b   9.57672103
_cell_length_c   6.72859700
_cell_angle_alpha   90.00000000
_cell_angle_beta   90.00000000
_cell_angle_gamma   120.02733055
_symmetry_Int_Tables_number   1
_chemical_formula_structural   Th5BiPPb2
_chemical_formula_sum   'Th10 Bi2 P2 Pb4'
_cell_volume   533.83927594
_cell_formula_units_Z   2
loop_
 _symmetry_equiv_pos_site_id
 _symmetry_equiv_pos_as_xyz
  1  'x, y, z'
loop_
 _atom_site_type_symbol
 _atom_site_label
 _atom_site_symmetry_multiplicity
 _atom_site_fract_x
 _atom_site_fract_y
 _atom_site_fract_z
 _atom_site_occupancy
  Th  Th0  1  0.755447  0.754539  0.250000  1
  Th  Th1  1  0.244553  0.999091  0.250000  1
  Th  Th2  1  0.000000  0.246169  0.250000  1
  Th  Th3  1  0.244631  0.244512  0.750000  1
  Th  Th4  1  0.755369  0.999880  0.750000  1
  Th  Th5  1  0.000000  0.754596  0.750000  1
  Th  Th6  1  0.667143  0.333761  0.501321  1
  Th  Th7  1  0.332857  0.666619  0.501321  1
  Th  Th8  1  0.332857  0.666619  0.998679  1
  Th  Th9  1  0.667143  0.333761  0.998679  1
  Bi  Bi10  1  0.395505  0.395411  0.250000  1
  Bi  Bi11  1  0.604495  0.999907  0.250000  1
  P  P12  1  0.000000  0.000265  0.499696  1
  P  P13  1  0.000000  0.000265  0.000304  1
  Pb  Pb14  1  0.000000  0.604892  0.250000  1
  Pb  Pb15  1  0.605741  0.605244  0.750000  1
  Pb  Pb16  1  0.394259  0.999503  0.750000  1
  Pb  Pb17  1  0.000000  0.394965  0.750000  1
