# generated using pymatgen
data_Th6ReSnSb
_symmetry_space_group_name_H-M   'P 1'
_cell_length_a   8.66201600
_cell_length_b   8.66201695
_cell_length_c   4.07392400
_cell_angle_alpha   90.00000000
_cell_angle_beta   90.00000000
_cell_angle_gamma   119.99999638
_symmetry_Int_Tables_number   1
_chemical_formula_structural   Th6ReSnSb
_chemical_formula_sum   'Th6 Re1 Sn1 Sb1'
_cell_volume   264.71684691
_cell_formula_units_Z   1
loop_
 _symmetry_equiv_pos_site_id
 _symmetry_equiv_pos_as_xyz
  1  'x, y, z'
loop_
 _atom_site_type_symbol
 _atom_site_label
 _atom_site_symmetry_multiplicity
 _atom_site_fract_x
 _atom_site_fract_y
 _atom_site_fract_z
 _atom_site_occupancy
  Th  Th0  1  0.591253  0.999221  0.000000  1
  Th  Th1  1  0.407970  0.408747  0.000000  1
  Th  Th2  1  0.000779  0.592031  0.000000  1
  Th  Th3  1  0.244809  0.000753  0.500001  1
  Th  Th4  1  0.999247  0.244056  0.500001  1
  Th  Th5  1  0.755945  0.755191  0.500001  1
  Re  Re6  1  0.000000  0.000000  0.000000  1
  Sn  Sn7  1  0.666667  0.333334  0.500001  1
  Sb  Sb8  1  0.333333  0.666666  0.500001  1
