# generated using pymatgen
data_ThNi2GeIr2
_symmetry_space_group_name_H-M   'P 1'
_cell_length_a   5.55827700
_cell_length_b   5.07671715
_cell_length_c   4.08941000
_cell_angle_alpha   90.00000000
_cell_angle_beta   90.00000000
_cell_angle_gamma   123.19078024
_symmetry_Int_Tables_number   1
_chemical_formula_structural   ThNi2GeIr2
_chemical_formula_sum   'Th1 Ni2 Ge1 Ir2'
_cell_volume   96.56787645
_cell_formula_units_Z   1
loop_
 _symmetry_equiv_pos_site_id
 _symmetry_equiv_pos_as_xyz
  1  'x, y, z'
loop_
 _atom_site_type_symbol
 _atom_site_label
 _atom_site_symmetry_multiplicity
 _atom_site_fract_x
 _atom_site_fract_y
 _atom_site_fract_z
 _atom_site_occupancy
  Th  Th0  1  0.000000  0.000000  0.000000  1
  Ni  Ni1  1  0.658831  0.317661  0.000000  1
  Ni  Ni2  1  0.341169  0.682339  0.000000  1
  Ge  Ge3  1  0.500000  0.000000  0.500000  1
  Ir  Ir4  1  0.500000  0.500000  0.500000  1
  Ir  Ir5  1  0.000000  0.500000  0.500000  1
