# generated using pymatgen
data_Tm6Lu2Sc12Si15Ru
_symmetry_space_group_name_H-M   'P 1'
_cell_length_a   7.01923020
_cell_length_b   7.39232239
_cell_length_c   13.84566035
_cell_angle_alpha   89.97461630
_cell_angle_beta   89.99493400
_cell_angle_gamma   90.17540356
_symmetry_Int_Tables_number   1
_chemical_formula_structural   Tm6Lu2Sc12Si15Ru
_chemical_formula_sum   'Tm6 Lu2 Sc12 Si15 Ru1'
_cell_volume   718.42589689
_cell_formula_units_Z   1
loop_
 _symmetry_equiv_pos_site_id
 _symmetry_equiv_pos_as_xyz
  1  'x, y, z'
loop_
 _atom_site_type_symbol
 _atom_site_label
 _atom_site_symmetry_multiplicity
 _atom_site_fract_x
 _atom_site_fract_y
 _atom_site_fract_z
 _atom_site_occupancy
  Tm  Tm0  1  0.489385  0.677899  0.904907  1
  Tm  Tm1  1  0.991339  0.826765  0.594595  1
  Tm  Tm2  1  0.511128  0.321753  0.095716  1
  Tm  Tm3  1  0.010991  0.179360  0.404438  1
  Tm  Tm4  1  0.510902  0.321800  0.404110  1
  Tm  Tm5  1  0.489496  0.677803  0.595285  1
  Lu  Lu6  1  0.011046  0.179546  0.095698  1
  Lu  Lu7  1  0.991492  0.826871  0.905240  1
  Sc  Sc8  1  0.158728  0.505084  0.750116  1
  Sc  Sc9  1  0.837699  0.494139  0.249839  1
  Sc  Sc10  1  0.339093  0.006508  0.249876  1
  Sc  Sc11  1  0.669946  0.996898  0.750123  1
  Sc  Sc12  1  0.316297  0.171833  0.628007  1
  Sc  Sc13  1  0.671917  0.825526  0.374035  1
  Sc  Sc14  1  0.171085  0.678098  0.374025  1
  Sc  Sc15  1  0.671972  0.825668  0.125775  1
  Sc  Sc16  1  0.838072  0.320091  0.627690  1
  Sc  Sc17  1  0.315682  0.171573  0.872182  1
  Sc  Sc18  1  0.838290  0.319822  0.872485  1
  Sc  Sc19  1  0.170930  0.678228  0.125761  1
  Si  Si20  1  0.968865  0.887871  0.249831  1
  Si  Si21  1  0.469449  0.612115  0.249930  1
  Si  Si22  1  0.529552  0.389873  0.750106  1
  Si  Si23  1  0.286596  0.864127  0.750216  1
  Si  Si24  1  0.713941  0.131989  0.249750  1
  Si  Si25  1  0.213687  0.368528  0.249695  1
  Si  Si26  1  0.780004  0.629298  0.750218  1
  Si  Si27  1  0.161501  0.468576  0.537359  1
  Si  Si28  1  0.842097  0.535178  0.461670  1
  Si  Si29  1  0.342565  0.966518  0.460325  1
  Si  Si30  1  0.842350  0.535062  0.038362  1
  Si  Si31  1  0.657234  0.034621  0.538687  1
  Si  Si32  1  0.161263  0.468732  0.962631  1
  Si  Si33  1  0.657817  0.034272  0.961258  1
  Si  Si34  1  0.341881  0.966838  0.039714  1
  Ru  Ru35  1  0.025706  0.101138  0.750346  1
