# generated using pymatgen
data_NdGaSiRh2
_symmetry_space_group_name_H-M   'P 1'
_cell_length_a   5.93916873
_cell_length_b   5.93916868
_cell_length_c   5.93916945
_cell_angle_alpha   138.64596533
_cell_angle_beta   138.64596981
_cell_angle_gamma   59.91509790
_symmetry_Int_Tables_number   1
_chemical_formula_structural   NdGaSiRh2
_chemical_formula_sum   'Nd1 Ga1 Si1 Rh2'
_cell_volume   90.52064799
_cell_formula_units_Z   1
loop_
 _symmetry_equiv_pos_site_id
 _symmetry_equiv_pos_as_xyz
  1  'x, y, z'
loop_
 _atom_site_type_symbol
 _atom_site_label
 _atom_site_symmetry_multiplicity
 _atom_site_fract_x
 _atom_site_fract_y
 _atom_site_fract_z
 _atom_site_occupancy
  Nd  Nd0  1  0.998509  0.998509  0.000000  1
  Ga  Ga1  1  0.621351  0.621351  0.000000  1
  Si  Si2  1  0.366540  0.366540  0.000000  1
  Rh  Rh3  1  0.756800  0.256800  0.500000  1
  Rh  Rh4  1  0.256800  0.756800  0.500000  1
