# generated using pymatgen
data_Tb2ZnNiIr
_symmetry_space_group_name_H-M   'P 1'
_cell_length_a   5.43052011
_cell_length_b   5.43052087
_cell_length_c   5.43052129
_cell_angle_alpha   134.19436796
_cell_angle_beta   118.07617566
_cell_angle_gamma   80.34358344
_symmetry_Int_Tables_number   1
_chemical_formula_structural   Tb2ZnNiIr
_chemical_formula_sum   'Tb2 Zn1 Ni1 Ir1'
_cell_volume   98.00300759
_cell_formula_units_Z   1
loop_
 _symmetry_equiv_pos_site_id
 _symmetry_equiv_pos_as_xyz
  1  'x, y, z'
loop_
 _atom_site_type_symbol
 _atom_site_label
 _atom_site_symmetry_multiplicity
 _atom_site_fract_x
 _atom_site_fract_y
 _atom_site_fract_z
 _atom_site_occupancy
  Tb  Tb0  1  0.698041  0.202992  0.495049  1
  Tb  Tb1  1  0.292057  0.797008  0.495049  1
  Zn  Zn2  1  0.990680  0.000000  0.990680  1
  Ni  Ni3  1  0.738778  0.500000  0.238778  1
  Ir  Ir4  1  0.280444  0.500000  0.780444  1
