# generated using pymatgen
data_Rb3Cu(AgP)2
_symmetry_space_group_name_H-M   'P 1'
_cell_length_a   7.83522182
_cell_length_b   7.83522156
_cell_length_c   7.77186384
_cell_angle_alpha   46.30262692
_cell_angle_beta   46.30263765
_cell_angle_gamma   47.47672879
_symmetry_Int_Tables_number   1
_chemical_formula_structural   Rb3Cu(AgP)2
_chemical_formula_sum   'Rb3 Cu1 Ag2 P2'
_cell_volume   230.69892383
_cell_formula_units_Z   1
loop_
 _symmetry_equiv_pos_site_id
 _symmetry_equiv_pos_as_xyz
  1  'x, y, z'
loop_
 _atom_site_type_symbol
 _atom_site_label
 _atom_site_symmetry_multiplicity
 _atom_site_fract_x
 _atom_site_fract_y
 _atom_site_fract_z
 _atom_site_occupancy
  Rb  Rb0  1  0.911790  0.911790  0.899250  1
  Rb  Rb1  1  0.500000  0.500000  0.500000  1
  Rb  Rb2  1  0.088210  0.088210  0.100750  1
  Cu  Cu3  1  0.500000  0.500000  0.000000  1
  Ag  Ag4  1  0.000000  0.500000  0.500000  1
  Ag  Ag5  1  0.500000  0.000000  0.500000  1
  P  P6  1  0.272567  0.272567  0.225494  1
  P  P7  1  0.727433  0.727433  0.774506  1
