# generated using pymatgen
data_ErTmMo2F14
_symmetry_space_group_name_H-M   'P 1'
_cell_length_a   5.61567800
_cell_length_b   8.97050760
_cell_length_c   12.12794100
_cell_angle_alpha   62.63504222
_cell_angle_beta   90.00000000
_cell_angle_gamma   90.00000000
_symmetry_Int_Tables_number   1
_chemical_formula_structural   ErTmMo2F14
_chemical_formula_sum   'Er2 Tm2 Mo4 F28'
_cell_volume   542.58344316
_cell_formula_units_Z   2
loop_
 _symmetry_equiv_pos_site_id
 _symmetry_equiv_pos_as_xyz
  1  'x, y, z'
loop_
 _atom_site_type_symbol
 _atom_site_label
 _atom_site_symmetry_multiplicity
 _atom_site_fract_x
 _atom_site_fract_y
 _atom_site_fract_z
 _atom_site_occupancy
  Er  Er0  1  0.241109  0.186163  0.234503  1
  Er  Er1  1  0.741109  0.813837  0.265497  1
  Tm  Tm2  1  0.758434  0.814900  0.765617  1
  Tm  Tm3  1  0.258434  0.185100  0.734383  1
  Mo  Mo4  1  0.757101  0.273137  0.955955  1
  Mo  Mo5  1  0.257101  0.726863  0.544045  1
  Mo  Mo6  1  0.242968  0.727761  0.042156  1
  Mo  Mo7  1  0.742968  0.272239  0.457844  1
  F  F8  1  0.454552  0.706773  0.918816  1
  F  F9  1  0.954552  0.293227  0.581184  1
  F  F10  1  0.541610  0.294026  0.080540  1
  F  F11  1  0.041610  0.705974  0.419460  1
  F  F12  1  0.441829  0.273945  0.552422  1
  F  F13  1  0.941829  0.726055  0.947578  1
  F  F14  1  0.554517  0.724571  0.450970  1
  F  F15  1  0.054517  0.275429  0.049030  1
  F  F16  1  0.771160  0.521487  0.858113  1
  F  F17  1  0.271160  0.478513  0.641887  1
  F  F18  1  0.228340  0.479893  0.140635  1
  F  F19  1  0.728340  0.520107  0.359365  1
  F  F20  1  0.759527  0.026276  0.053494  1
  F  F21  1  0.259527  0.973724  0.446506  1
  F  F22  1  0.243616  0.974418  0.944634  1
  F  F23  1  0.743616  0.025582  0.555366  1
  F  F24  1  0.974555  0.733473  0.644018  1
  F  F25  1  0.474555  0.266527  0.855982  1
  F  F26  1  0.028968  0.268130  0.355836  1
  F  F27  1  0.528968  0.731870  0.144164  1
  F  F28  1  0.037516  0.749629  0.169159  1
  F  F29  1  0.537516  0.250371  0.330841  1
  F  F30  1  0.967185  0.250612  0.828214  1
  F  F31  1  0.467185  0.749388  0.671786  1
  F  F32  1  0.428532  0.974867  0.234006  1
  F  F33  1  0.928532  0.025133  0.265994  1
  F  F34  1  0.568483  0.022743  0.766710  1
  F  F35  1  0.068483  0.977257  0.733290  1
