# generated using pymatgen
data_Tb9Ho(GaCo5)2
_symmetry_space_group_name_H-M   'P 1'
_cell_length_a   5.50391245
_cell_length_b   5.50391307
_cell_length_c   20.60947100
_cell_angle_alpha   90.00000000
_cell_angle_beta   90.00000000
_cell_angle_gamma   136.93283661
_symmetry_Int_Tables_number   1
_chemical_formula_structural   Tb9Ho(GaCo5)2
_chemical_formula_sum   'Tb9 Ho1 Ga2 Co10'
_cell_volume   426.32278932
_cell_formula_units_Z   1
loop_
 _symmetry_equiv_pos_site_id
 _symmetry_equiv_pos_as_xyz
  1  'x, y, z'
loop_
 _atom_site_type_symbol
 _atom_site_label
 _atom_site_symmetry_multiplicity
 _atom_site_fract_x
 _atom_site_fract_y
 _atom_site_fract_z
 _atom_site_occupancy
  Tb  Tb0  1  0.291362  0.708638  0.065983  1
  Tb  Tb1  1  0.996975  0.003025  0.843098  1
  Tb  Tb2  1  0.711154  0.288846  0.750000  1
  Tb  Tb3  1  0.708579  0.291421  0.565691  1
  Tb  Tb4  1  0.002579  0.997421  0.342777  1
  Tb  Tb5  1  0.996975  0.003025  0.656902  1
  Tb  Tb6  1  0.708579  0.291421  0.934309  1
  Tb  Tb7  1  0.002579  0.997421  0.157223  1
  Tb  Tb8  1  0.291362  0.708638  0.434017  1
  Ho  Ho9  1  0.287850  0.712150  0.250000  1
  Ga  Ga10  1  0.000039  0.999961  0.499890  1
  Ga  Ga11  1  0.000039  0.999961  0.000110  1
  Co  Co12  1  0.294533  0.705467  0.654152  1
  Co  Co13  1  0.581986  0.418014  0.441499  1
  Co  Co14  1  0.412788  0.587212  0.750000  1
  Co  Co15  1  0.418219  0.581781  0.941559  1
  Co  Co16  1  0.588250  0.411750  0.250000  1
  Co  Co17  1  0.418219  0.581781  0.558441  1
  Co  Co18  1  0.705707  0.294293  0.345559  1
  Co  Co19  1  0.705707  0.294293  0.154441  1
  Co  Co20  1  0.581986  0.418014  0.058501  1
  Co  Co21  1  0.294533  0.705467  0.845848  1
