# generated using pymatgen
data_Er3Zn3Cu2Ru
_symmetry_space_group_name_H-M   'P 1'
_cell_length_a   7.00556400
_cell_length_b   7.00556453
_cell_length_c   3.92311400
_cell_angle_alpha   90.00000000
_cell_angle_beta   90.00000000
_cell_angle_gamma   119.99999751
_symmetry_Int_Tables_number   1
_chemical_formula_structural   Er3Zn3Cu2Ru
_chemical_formula_sum   'Er3 Zn3 Cu2 Ru1'
_cell_volume   166.74307774
_cell_formula_units_Z   1
loop_
 _symmetry_equiv_pos_site_id
 _symmetry_equiv_pos_as_xyz
  1  'x, y, z'
loop_
 _atom_site_type_symbol
 _atom_site_label
 _atom_site_symmetry_multiplicity
 _atom_site_fract_x
 _atom_site_fract_y
 _atom_site_fract_z
 _atom_site_occupancy
  Er  Er0  1  0.012573  0.417221  0.500000  1
  Er  Er1  1  0.582779  0.595352  0.500000  1
  Er  Er2  1  0.404648  0.987427  0.500000  1
  Zn  Zn3  1  0.999013  0.756026  0.000000  1
  Zn  Zn4  1  0.243974  0.242987  0.000000  1
  Zn  Zn5  1  0.757013  0.000987  0.000000  1
  Cu  Cu6  1  0.666667  0.333333  0.000000  1
  Cu  Cu7  1  0.000000  0.000000  0.500000  1
  Ru  Ru8  1  0.333333  0.666667  0.000000  1
