# generated using pymatgen
data_Eu10LuRe3N14
_symmetry_space_group_name_H-M   'P 1'
_cell_length_a   6.35344504
_cell_length_b   9.21330676
_cell_length_c   9.23125600
_cell_angle_alpha   114.54172900
_cell_angle_beta   97.84029382
_cell_angle_gamma   89.54964676
_symmetry_Int_Tables_number   1
_chemical_formula_structural   Eu10LuRe3N14
_chemical_formula_sum   'Eu10 Lu1 Re3 N14'
_cell_volume   486.23666311
_cell_formula_units_Z   1
loop_
 _symmetry_equiv_pos_site_id
 _symmetry_equiv_pos_as_xyz
  1  'x, y, z'
loop_
 _atom_site_type_symbol
 _atom_site_label
 _atom_site_symmetry_multiplicity
 _atom_site_fract_x
 _atom_site_fract_y
 _atom_site_fract_z
 _atom_site_occupancy
  Eu  Eu0  1  0.856822  0.590166  0.326195  1
  Eu  Eu1  1  0.248981  0.985412  0.555953  1
  Eu  Eu2  1  0.699526  0.415315  0.858346  1
  Eu  Eu3  1  0.293859  0.582443  0.143786  1
  Eu  Eu4  1  0.394628  0.790487  0.915103  1
  Eu  Eu5  1  0.603539  0.208730  0.088704  1
  Eu  Eu6  1  0.152044  0.392785  0.657214  1
  Eu  Eu7  1  0.875708  0.839428  0.757280  1
  Eu  Eu8  1  0.120694  0.130066  0.242815  1
  Eu  Eu9  1  0.732803  0.024478  0.448199  1
  Lu  Lu10  1  0.596876  0.360124  0.479999  1
  Re  Re11  1  0.417154  0.659560  0.525683  1
  Re  Re12  1  0.120414  0.218358  0.917890  1
  Re  Re13  1  0.871341  0.776794  0.080692  1
  N  N14  1  0.539525  0.580111  0.688533  1
  N  N15  1  0.483837  0.474048  0.323197  1
  N  N16  1  0.145527  0.714738  0.571535  1
  N  N17  1  0.899815  0.275021  0.423325  1
  N  N18  1  0.397727  0.165436  0.469707  1
  N  N19  1  0.586076  0.826416  0.534699  1
  N  N20  1  0.950177  0.148490  0.718016  1
  N  N21  1  0.036354  0.849398  0.282609  1
  N  N22  1  0.228751  0.049859  0.960714  1
  N  N23  1  0.762697  0.944359  0.034733  1
  N  N24  1  0.360962  0.328870  0.911467  1
  N  N25  1  0.966175  0.354993  0.075554  1
  N  N26  1  0.026298  0.648914  0.919061  1
  N  N27  1  0.631690  0.665204  0.088991  1
