# generated using pymatgen
data_Er4Al17Pd7
_symmetry_space_group_name_H-M   'P 1'
_cell_length_a   7.59262027
_cell_length_b   7.59262117
_cell_length_c   9.45895800
_cell_angle_alpha   90.00000000
_cell_angle_beta   90.00000000
_cell_angle_gamma   118.74037384
_symmetry_Int_Tables_number   1
_chemical_formula_structural   Er4Al17Pd7
_chemical_formula_sum   'Er4 Al17 Pd7'
_cell_volume   478.11348254
_cell_formula_units_Z   1
loop_
 _symmetry_equiv_pos_site_id
 _symmetry_equiv_pos_as_xyz
  1  'x, y, z'
loop_
 _atom_site_type_symbol
 _atom_site_label
 _atom_site_symmetry_multiplicity
 _atom_site_fract_x
 _atom_site_fract_y
 _atom_site_fract_z
 _atom_site_occupancy
  Er  Er0  1  0.991651  0.674495  0.250000  1
  Er  Er1  1  0.006480  0.324753  0.750000  1
  Er  Er2  1  0.674495  0.991651  0.250000  1
  Er  Er3  1  0.324753  0.006480  0.750000  1
  Al  Al4  1  0.861029  0.861029  0.750000  1
  Al  Al5  1  0.003831  0.328967  0.084365  1
  Al  Al6  1  0.999868  0.661378  0.921599  1
  Al  Al7  1  0.999868  0.661378  0.578401  1
  Al  Al8  1  0.328967  0.003831  0.415635  1
  Al  Al9  1  0.003831  0.328967  0.415635  1
  Al  Al10  1  0.661378  0.999868  0.578401  1
  Al  Al11  1  0.661378  0.999868  0.921599  1
  Al  Al12  1  0.328967  0.003831  0.084365  1
  Al  Al13  1  0.330816  0.330816  0.541688  1
  Al  Al14  1  0.667528  0.667528  0.445320  1
  Al  Al15  1  0.667528  0.667528  0.054680  1
  Al  Al16  1  0.330816  0.330816  0.958312  1
  Al  Al17  1  0.340763  0.549440  0.250000  1
  Al  Al18  1  0.656169  0.446922  0.750000  1
  Al  Al19  1  0.549440  0.340763  0.250000  1
  Al  Al20  1  0.446922  0.656169  0.750000  1
  Pd  Pd21  1  0.163495  0.163495  0.250000  1
  Pd  Pd22  1  0.677094  0.328611  0.000095  1
  Pd  Pd23  1  0.328611  0.677094  0.000095  1
  Pd  Pd24  1  0.328611  0.677094  0.499905  1
  Pd  Pd25  1  0.677094  0.328611  0.499905  1
  Pd  Pd26  1  0.994309  0.994309  0.987109  1
  Pd  Pd27  1  0.994309  0.994309  0.512891  1
