# generated using pymatgen
data_DyY7CdHgPt2
_symmetry_space_group_name_H-M   'P 1'
_cell_length_a   9.71425234
_cell_length_b   9.71425174
_cell_length_c   9.71485100
_cell_angle_alpha   59.99796273
_cell_angle_beta   59.99796477
_cell_angle_gamma   60.03502357
_symmetry_Int_Tables_number   1
_chemical_formula_structural   DyY7CdHgPt2
_chemical_formula_sum   'Dy2 Y14 Cd2 Hg2 Pt4'
_cell_volume   648.39749412
_cell_formula_units_Z   2
loop_
 _symmetry_equiv_pos_site_id
 _symmetry_equiv_pos_as_xyz
  1  'x, y, z'
loop_
 _atom_site_type_symbol
 _atom_site_label
 _atom_site_symmetry_multiplicity
 _atom_site_fract_x
 _atom_site_fract_y
 _atom_site_fract_z
 _atom_site_occupancy
  Dy  Dy0  1  0.352799  0.352799  0.350219  1
  Dy  Dy1  1  0.352799  0.352799  0.944182  1
  Y  Y2  1  0.356915  0.934837  0.354124  1
  Y  Y3  1  0.934837  0.356915  0.354124  1
  Y  Y4  1  0.810496  0.189718  0.190466  1
  Y  Y5  1  0.189718  0.810496  0.809322  1
  Y  Y6  1  0.189718  0.810496  0.190466  1
  Y  Y7  1  0.810496  0.189718  0.809322  1
  Y  Y8  1  0.190392  0.190392  0.809608  1
  Y  Y9  1  0.809927  0.809927  0.190073  1
  Y  Y10  1  0.935370  0.563527  0.564447  1
  Y  Y11  1  0.563527  0.935370  0.936656  1
  Y  Y12  1  0.563527  0.935370  0.564447  1
  Y  Y13  1  0.935370  0.563527  0.936656  1
  Y  Y14  1  0.564087  0.564087  0.935913  1
  Y  Y15  1  0.936342  0.936342  0.563658  1
  Cd  Cd16  1  0.580055  0.254692  0.582626  1
  Cd  Cd17  1  0.254692  0.580055  0.582626  1
  Hg  Hg18  1  0.584658  0.584658  0.588110  1
  Hg  Hg19  1  0.584658  0.584658  0.242574  1
  Pt  Pt20  1  0.143906  0.143906  0.145452  1
  Pt  Pt21  1  0.143906  0.143906  0.566736  1
  Pt  Pt22  1  0.142926  0.568882  0.144096  1
  Pt  Pt23  1  0.568882  0.142926  0.144096  1
