# generated using pymatgen
data_TbHo3Al12(GaIr)6
_symmetry_space_group_name_H-M   'P 1'
_cell_length_a   7.52406100
_cell_length_b   7.52480479
_cell_length_c   9.56459600
_cell_angle_alpha   90.00000000
_cell_angle_beta   90.00000000
_cell_angle_gamma   119.66323471
_symmetry_Int_Tables_number   1
_chemical_formula_structural   TbHo3Al12(GaIr)6
_chemical_formula_sum   'Tb1 Ho3 Al12 Ga6 Ir6'
_cell_volume   470.55305071
_cell_formula_units_Z   1
loop_
 _symmetry_equiv_pos_site_id
 _symmetry_equiv_pos_as_xyz
  1  'x, y, z'
loop_
 _atom_site_type_symbol
 _atom_site_label
 _atom_site_symmetry_multiplicity
 _atom_site_fract_x
 _atom_site_fract_y
 _atom_site_fract_z
 _atom_site_occupancy
  Tb  Tb0  1  0.996044  0.669201  0.250000  1
  Ho  Ho1  1  0.003956  0.330769  0.750000  1
  Ho  Ho2  1  0.669209  0.996082  0.250000  1
  Ho  Ho3  1  0.330785  0.003973  0.750000  1
  Al  Al4  1  0.001418  0.334136  0.072881  1
  Al  Al5  1  0.998573  0.665637  0.926806  1
  Al  Al6  1  0.998573  0.665637  0.573194  1
  Al  Al7  1  0.334594  0.001638  0.427112  1
  Al  Al8  1  0.001418  0.334136  0.427119  1
  Al  Al9  1  0.665637  0.998577  0.573009  1
  Al  Al10  1  0.665637  0.998577  0.926991  1
  Al  Al11  1  0.334594  0.001638  0.072888  1
  Al  Al12  1  0.333914  0.333916  0.555454  1
  Al  Al13  1  0.665885  0.666092  0.444688  1
  Al  Al14  1  0.665885  0.666092  0.055312  1
  Al  Al15  1  0.333914  0.333916  0.944546  1
  Ga  Ga16  1  0.127373  0.127516  0.250000  1
  Ga  Ga17  1  0.872750  0.872761  0.750000  1
  Ga  Ga18  1  0.338236  0.546445  0.250000  1
  Ga  Ga19  1  0.661886  0.453448  0.750000  1
  Ga  Ga20  1  0.546227  0.337878  0.250000  1
  Ga  Ga21  1  0.453481  0.661919  0.750000  1
  Ir  Ir22  1  0.671766  0.328027  0.999901  1
  Ir  Ir23  1  0.328212  0.671845  0.999901  1
  Ir  Ir24  1  0.328212  0.671845  0.500099  1
  Ir  Ir25  1  0.671766  0.328027  0.500099  1
  Ir  Ir26  1  0.000028  0.000136  0.999894  1
  Ir  Ir27  1  0.000028  0.000136  0.500106  1
