# generated using pymatgen
data_CaLa4(InAu5)2
_symmetry_space_group_name_H-M   'P 1'
_cell_length_a   8.88537000
_cell_length_b   8.88537257
_cell_length_c   10.51811200
_cell_angle_alpha   90.00000000
_cell_angle_beta   90.00000000
_cell_angle_gamma   107.54188364
_symmetry_Int_Tables_number   1
_chemical_formula_structural   CaLa4(InAu5)2
_chemical_formula_sum   'Ca2 La8 In4 Au20'
_cell_volume   791.78674314
_cell_formula_units_Z   2
loop_
 _symmetry_equiv_pos_site_id
 _symmetry_equiv_pos_as_xyz
  1  'x, y, z'
loop_
 _atom_site_type_symbol
 _atom_site_label
 _atom_site_symmetry_multiplicity
 _atom_site_fract_x
 _atom_site_fract_y
 _atom_site_fract_z
 _atom_site_occupancy
  Ca  Ca0  1  0.000000  0.000000  0.000000  1
  Ca  Ca1  1  0.500000  0.500000  0.500000  1
  La  La2  1  0.701324  0.298676  0.000000  1
  La  La3  1  0.201324  0.798676  0.500000  1
  La  La4  1  0.800172  0.800172  0.298191  1
  La  La5  1  0.300172  0.300172  0.201809  1
  La  La6  1  0.798676  0.201324  0.500000  1
  La  La7  1  0.298676  0.701324  0.000000  1
  La  La8  1  0.699828  0.699828  0.798191  1
  La  La9  1  0.199828  0.199828  0.701809  1
  In  In10  1  0.514940  0.014940  0.250000  1
  In  In11  1  0.985060  0.485060  0.750000  1
  In  In12  1  0.014940  0.514940  0.250000  1
  In  In13  1  0.485060  0.985060  0.750000  1
  Au  Au14  1  0.154096  0.429769  0.476275  1
  Au  Au15  1  0.903241  0.903241  0.595806  1
  Au  Au16  1  0.570231  0.845904  0.523725  1
  Au  Au17  1  0.891879  0.169537  0.207035  1
  Au  Au18  1  0.391879  0.669537  0.292965  1
  Au  Au19  1  0.669537  0.391879  0.292965  1
  Au  Au20  1  0.403241  0.403241  0.904194  1
  Au  Au21  1  0.929769  0.654096  0.023725  1
  Au  Au22  1  0.330463  0.608121  0.707035  1
  Au  Au23  1  0.345904  0.070231  0.976275  1
  Au  Au24  1  0.596759  0.596759  0.095806  1
  Au  Au25  1  0.654096  0.929769  0.023725  1
  Au  Au26  1  0.096759  0.096759  0.404194  1
  Au  Au27  1  0.608121  0.330463  0.707035  1
  Au  Au28  1  0.108121  0.830463  0.792965  1
  Au  Au29  1  0.070231  0.345904  0.976275  1
  Au  Au30  1  0.845904  0.570231  0.523725  1
  Au  Au31  1  0.169537  0.891879  0.207035  1
  Au  Au32  1  0.429769  0.154096  0.476275  1
  Au  Au33  1  0.830463  0.108121  0.792965  1
