# generated using pymatgen
data_Dy16In6TcPt
_symmetry_space_group_name_H-M   'P 1'
_cell_length_a   10.46561500
_cell_length_b   10.46560962
_cell_length_c   7.02976800
_cell_angle_alpha   90.00000000
_cell_angle_beta   90.00000000
_cell_angle_gamma   119.99997591
_symmetry_Int_Tables_number   1
_chemical_formula_structural   Dy16In6TcPt
_chemical_formula_sum   'Dy16 In6 Tc1 Pt1'
_cell_volume   666.80832754
_cell_formula_units_Z   1
loop_
 _symmetry_equiv_pos_site_id
 _symmetry_equiv_pos_as_xyz
  1  'x, y, z'
loop_
 _atom_site_type_symbol
 _atom_site_label
 _atom_site_symmetry_multiplicity
 _atom_site_fract_x
 _atom_site_fract_y
 _atom_site_fract_z
 _atom_site_occupancy
  Dy  Dy0  1  0.532564  0.065128  0.514725  1
  Dy  Dy1  1  0.934872  0.467435  0.514725  1
  Dy  Dy2  1  0.532565  0.467436  0.514725  1
  Dy  Dy3  1  0.469525  0.939049  0.016500  1
  Dy  Dy4  1  0.060951  0.530476  0.016500  1
  Dy  Dy5  1  0.469524  0.530475  0.016500  1
  Dy  Dy6  1  0.174837  0.349673  0.722481  1
  Dy  Dy7  1  0.650327  0.825163  0.722481  1
  Dy  Dy8  1  0.174837  0.825163  0.722481  1
  Dy  Dy9  1  0.824114  0.648228  0.222882  1
  Dy  Dy10  1  0.351772  0.175886  0.222882  1
  Dy  Dy11  1  0.824114  0.175886  0.222882  1
  Dy  Dy12  1  0.666667  0.333333  0.890996  1
  Dy  Dy13  1  0.333333  0.666667  0.390507  1
  Dy  Dy14  1  0.000000  0.000000  0.498344  1
  Dy  Dy15  1  0.000000  0.000000  0.998559  1
  In  In16  1  0.837087  0.674174  0.759534  1
  In  In17  1  0.325825  0.162912  0.759534  1
  In  In18  1  0.837087  0.162912  0.759534  1
  In  In19  1  0.163252  0.326503  0.259641  1
  In  In20  1  0.673498  0.836749  0.259641  1
  In  In21  1  0.163252  0.836749  0.259641  1
  Tc  Tc22  1  0.666667  0.333333  0.289696  1
  Pt  Pt23  1  0.333333  0.666667  0.788810  1
