# generated using pymatgen
data_Zr3Sc(GaFe3)2
_symmetry_space_group_name_H-M   'P 1'
_cell_length_a   5.02532900
_cell_length_b   5.02532825
_cell_length_c   8.17775500
_cell_angle_alpha   90.00000000
_cell_angle_beta   90.00000000
_cell_angle_gamma   119.99999835
_symmetry_Int_Tables_number   1
_chemical_formula_structural   Zr3Sc(GaFe3)2
_chemical_formula_sum   'Zr3 Sc1 Ga2 Fe6'
_cell_volume   178.85194547
_cell_formula_units_Z   1
loop_
 _symmetry_equiv_pos_site_id
 _symmetry_equiv_pos_as_xyz
  1  'x, y, z'
loop_
 _atom_site_type_symbol
 _atom_site_label
 _atom_site_symmetry_multiplicity
 _atom_site_fract_x
 _atom_site_fract_y
 _atom_site_fract_z
 _atom_site_occupancy
  Zr  Zr0  1  0.666667  0.333333  0.563592  1
  Zr  Zr1  1  0.666667  0.333333  0.933903  1
  Zr  Zr2  1  0.333333  0.666667  0.068338  1
  Sc  Sc3  1  0.333333  0.666667  0.436168  1
  Ga  Ga4  1  0.000000  0.000000  0.499541  1
  Ga  Ga5  1  0.000000  0.000000  0.999720  1
  Fe  Fe6  1  0.826953  0.173047  0.249478  1
  Fe  Fe7  1  0.826953  0.653906  0.249478  1
  Fe  Fe8  1  0.346094  0.173047  0.249478  1
  Fe  Fe9  1  0.173126  0.826874  0.750101  1
  Fe  Fe10  1  0.173126  0.346251  0.750101  1
  Fe  Fe11  1  0.653749  0.826874  0.750101  1
