# generated using pymatgen
data_MgTiAu4
_symmetry_space_group_name_H-M   'P 1'
_cell_length_a   5.04621603
_cell_length_b   5.04621563
_cell_length_c   4.89283800
_cell_angle_alpha   90.00000000
_cell_angle_beta   90.00000000
_cell_angle_gamma   122.10339578
_symmetry_Int_Tables_number   1
_chemical_formula_structural   MgTiAu4
_chemical_formula_sum   'Mg1 Ti1 Au4'
_cell_volume   105.54125480
_cell_formula_units_Z   1
loop_
 _symmetry_equiv_pos_site_id
 _symmetry_equiv_pos_as_xyz
  1  'x, y, z'
loop_
 _atom_site_type_symbol
 _atom_site_label
 _atom_site_symmetry_multiplicity
 _atom_site_fract_x
 _atom_site_fract_y
 _atom_site_fract_z
 _atom_site_occupancy
  Mg  Mg0  1  0.240803  0.240803  0.250000  1
  Ti  Ti1  1  0.756498  0.756498  0.750000  1
  Au  Au2  1  0.582707  0.900341  0.250000  1
  Au  Au3  1  0.097713  0.421938  0.750000  1
  Au  Au4  1  0.421938  0.097713  0.750000  1
  Au  Au5  1  0.900341  0.582707  0.250000  1
