# generated using pymatgen
data_Ce2TcP4IrRh2
_symmetry_space_group_name_H-M   'P 1'
_cell_length_a   4.21497800
_cell_length_b   4.21113800
_cell_length_c   9.41299100
_cell_angle_alpha   90.00000000
_cell_angle_beta   90.00000000
_cell_angle_gamma   90.00000000
_symmetry_Int_Tables_number   1
_chemical_formula_structural   Ce2TcP4IrRh2
_chemical_formula_sum   'Ce2 Tc1 P4 Ir1 Rh2'
_cell_volume   167.07921619
_cell_formula_units_Z   1
loop_
 _symmetry_equiv_pos_site_id
 _symmetry_equiv_pos_as_xyz
  1  'x, y, z'
loop_
 _atom_site_type_symbol
 _atom_site_label
 _atom_site_symmetry_multiplicity
 _atom_site_fract_x
 _atom_site_fract_y
 _atom_site_fract_z
 _atom_site_occupancy
  Ce  Ce0  1  0.000000  0.500000  0.241607  1
  Ce  Ce1  1  0.500000  0.000000  0.758782  1
  Tc  Tc2  1  0.000000  0.000000  0.500170  1
  P  P3  1  0.000000  0.000000  0.999442  1
  P  P4  1  0.500000  0.500000  0.998971  1
  P  P5  1  0.000000  0.500000  0.629708  1
  P  P6  1  0.500000  0.000000  0.369691  1
  Ir  Ir7  1  0.500000  0.000000  0.113310  1
  Rh  Rh8  1  0.500000  0.500000  0.500398  1
  Rh  Rh9  1  0.000000  0.500000  0.887920  1
