# generated using pymatgen
data_RbGaSiSe4
_symmetry_space_group_name_H-M   'P 1'
_cell_length_a   17.04380700
_cell_length_b   7.27118652
_cell_length_c   7.82054795
_cell_angle_alpha   69.80071104
_cell_angle_beta   90.00000000
_cell_angle_gamma   90.00000000
_symmetry_Int_Tables_number   1
_chemical_formula_structural   RbGaSiSe4
_chemical_formula_sum   'Rb4 Ga4 Si4 Se16'
_cell_volume   909.58252363
_cell_formula_units_Z   4
loop_
 _symmetry_equiv_pos_site_id
 _symmetry_equiv_pos_as_xyz
  1  'x, y, z'
loop_
 _atom_site_type_symbol
 _atom_site_label
 _atom_site_symmetry_multiplicity
 _atom_site_fract_x
 _atom_site_fract_y
 _atom_site_fract_z
 _atom_site_occupancy
  Rb  Rb0  1  0.396696  0.969739  0.182686  1
  Rb  Rb1  1  0.896696  0.030261  0.817314  1
  Rb  Rb2  1  0.602164  0.518860  0.823938  1
  Rb  Rb3  1  0.102164  0.481140  0.176062  1
  Ga  Ga4  1  0.584078  0.164975  0.475473  1
  Ga  Ga5  1  0.084078  0.835025  0.524527  1
  Ga  Ga6  1  0.272929  0.593411  0.707065  1
  Ga  Ga7  1  0.772929  0.406589  0.292935  1
  Si  Si8  1  0.420604  0.324504  0.537103  1
  Si  Si9  1  0.920604  0.675496  0.462897  1
  Si  Si10  1  0.726033  0.909816  0.271442  1
  Si  Si11  1  0.226033  0.090184  0.728558  1
  Se  Se12  1  0.598518  0.884773  0.373084  1
  Se  Se13  1  0.098518  0.115227  0.626916  1
  Se  Se14  1  0.411408  0.595875  0.622450  1
  Se  Se15  1  0.911408  0.404125  0.377550  1
  Se  Se16  1  0.800333  0.780441  0.537012  1
  Se  Se17  1  0.300333  0.219559  0.462988  1
  Se  Se18  1  0.201534  0.723323  0.428180  1
  Se  Se19  1  0.701534  0.276677  0.571820  1
  Se  Se20  1  0.763836  0.217939  0.087097  1
  Se  Se21  1  0.263836  0.782061  0.912903  1
  Se  Se22  1  0.236745  0.267014  0.919796  1
  Se  Se23  1  0.736745  0.732986  0.080204  1
  Se  Se24  1  0.994762  0.914722  0.257399  1
  Se  Se25  1  0.494762  0.085278  0.742601  1
  Se  Se26  1  0.990358  0.600183  0.730655  1
  Se  Se27  1  0.490358  0.399817  0.269345  1
