# generated using pymatgen
data_YbHoZn14Pd3
_symmetry_space_group_name_H-M   'P 1'
_cell_length_a   6.83045235
_cell_length_b   6.83045222
_cell_length_c   6.83045300
_cell_angle_alpha   82.73077960
_cell_angle_beta   82.73077974
_cell_angle_gamma   82.73078179
_symmetry_Int_Tables_number   1
_chemical_formula_structural   YbHoZn14Pd3
_chemical_formula_sum   'Yb1 Ho1 Zn14 Pd3'
_cell_volume   311.58898630
_cell_formula_units_Z   1
loop_
 _symmetry_equiv_pos_site_id
 _symmetry_equiv_pos_as_xyz
  1  'x, y, z'
loop_
 _atom_site_type_symbol
 _atom_site_label
 _atom_site_symmetry_multiplicity
 _atom_site_fract_x
 _atom_site_fract_y
 _atom_site_fract_z
 _atom_site_occupancy
  Yb  Yb0  1  0.336151  0.336151  0.336151  1
  Ho  Ho1  1  0.662937  0.662937  0.662937  1
  Zn  Zn2  1  0.351937  0.351937  0.840494  1
  Zn  Zn3  1  0.840494  0.351937  0.351937  1
  Zn  Zn4  1  0.102785  0.102785  0.102785  1
  Zn  Zn5  1  0.897758  0.897758  0.897758  1
  Zn  Zn6  1  0.299623  0.700161  0.999999  1
  Zn  Zn7  1  0.700161  0.999999  0.299623  1
  Zn  Zn8  1  0.999999  0.299623  0.700161  1
  Zn  Zn9  1  0.700161  0.299623  0.999999  1
  Zn  Zn10  1  0.299623  0.999999  0.700161  1
  Zn  Zn11  1  0.999999  0.700161  0.299623  1
  Zn  Zn12  1  0.159055  0.649093  0.649093  1
  Zn  Zn13  1  0.649093  0.649093  0.159055  1
  Zn  Zn14  1  0.649093  0.159055  0.649093  1
  Zn  Zn15  1  0.351937  0.840494  0.351937  1
  Pd  Pd16  1  0.999476  0.999476  0.500242  1
  Pd  Pd17  1  0.999476  0.500242  0.999476  1
  Pd  Pd18  1  0.500242  0.999476  0.999476  1
