# generated using pymatgen
data_Tb3Gd2S7
_symmetry_space_group_name_H-M   'P 1'
_cell_length_a   19.83426172
_cell_length_b   21.11350180
_cell_length_c   25.21444706
_cell_angle_alpha   71.21932560
_cell_angle_beta   72.64231157
_cell_angle_gamma   72.45089283
_symmetry_Int_Tables_number   1
_chemical_formula_structural   Tb3Gd2S7
_chemical_formula_sum   'Tb3 Gd2 S7'
_cell_volume   9291.69233843
_cell_formula_units_Z   1
loop_
 _symmetry_equiv_pos_site_id
 _symmetry_equiv_pos_as_xyz
  1  'x, y, z'
loop_
 _atom_site_type_symbol
 _atom_site_label
 _atom_site_symmetry_multiplicity
 _atom_site_fract_x
 _atom_site_fract_y
 _atom_site_fract_z
 _atom_site_occupancy
  Tb  Tb0  1  0.174805  0.491207  0.731369  1
  Tb  Tb1  1  0.543818  0.321578  0.971670  1
  Tb  Tb2  1  0.756068  0.553671  0.251076  1
  Gd  Gd3  1  0.150257  0.390398  0.349162  1
  Gd  Gd4  1  0.525712  0.331751  0.621485  1
  S  S5  1  0.514263  0.871540  0.920442  1
  S  S6  1  0.437731  0.997009  0.613394  1
  S  S7  1  0.569758  0.003152  0.174158  1
  S  S8  1  0.832168  0.326791  0.777682  1
  S  S9  1  0.092514  0.732119  0.758522  1
  S  S10  1  0.676937  0.881403  0.730144  1
  S  S11  1  0.310714  0.489297  0.557304  1
