# generated using pymatgen
data_Er16Ni3Ag4Rh
_symmetry_space_group_name_H-M   'P 1'
_cell_length_a   9.43816943
_cell_length_b   9.43850869
_cell_length_c   9.43842100
_cell_angle_alpha   59.32346951
_cell_angle_beta   59.32437940
_cell_angle_gamma   59.32516223
_symmetry_Int_Tables_number   1
_chemical_formula_structural   Er16Ni3Ag4Rh
_chemical_formula_sum   'Er16 Ni3 Ag4 Rh1'
_cell_volume   585.38686623
_cell_formula_units_Z   1
loop_
 _symmetry_equiv_pos_site_id
 _symmetry_equiv_pos_as_xyz
  1  'x, y, z'
loop_
 _atom_site_type_symbol
 _atom_site_label
 _atom_site_symmetry_multiplicity
 _atom_site_fract_x
 _atom_site_fract_y
 _atom_site_fract_z
 _atom_site_occupancy
  Er  Er0  1  0.186012  0.814966  0.814963  1
  Er  Er1  1  0.811160  0.186628  0.186597  1
  Er  Er2  1  0.814948  0.186033  0.814948  1
  Er  Er3  1  0.186590  0.811187  0.186589  1
  Er  Er4  1  0.814960  0.814966  0.186010  1
  Er  Er5  1  0.186595  0.186607  0.811159  1
  Er  Er6  1  0.599765  0.599612  0.599947  1
  Er  Er7  1  0.603841  0.603684  0.197283  1
  Er  Er8  1  0.603667  0.197416  0.603866  1
  Er  Er9  1  0.197392  0.603598  0.603923  1
  Er  Er10  1  0.058389  0.438335  0.438369  1
  Er  Er11  1  0.437826  0.061376  0.060982  1
  Er  Er12  1  0.438352  0.058474  0.438379  1
  Er  Er13  1  0.061303  0.437830  0.061065  1
  Er  Er14  1  0.438351  0.438333  0.058350  1
  Er  Er15  1  0.061048  0.061279  0.437875  1
  Ni  Ni16  1  0.393276  0.392974  0.820880  1
  Ni  Ni17  1  0.393010  0.820991  0.393064  1
  Ni  Ni18  1  0.820861  0.393086  0.393242  1
  Ag  Ag19  1  0.832458  0.832466  0.832426  1
  Ag  Ag20  1  0.831948  0.831929  0.502927  1
  Ag  Ag21  1  0.831946  0.502933  0.831929  1
  Ag  Ag22  1  0.502956  0.831932  0.831919  1
  Rh  Rh23  1  0.393348  0.393362  0.393307  1
