# generated using pymatgen
data_Eu4Ga18Pt5Rh
_symmetry_space_group_name_H-M   'P 1'
_cell_length_a   7.73574249
_cell_length_b   7.73574209
_cell_length_c   9.65843983
_cell_angle_alpha   90.02329257
_cell_angle_beta   90.02328736
_cell_angle_gamma   119.84491521
_symmetry_Int_Tables_number   1
_chemical_formula_structural   Eu4Ga18Pt5Rh
_chemical_formula_sum   'Eu4 Ga18 Pt5 Rh1'
_cell_volume   501.32345302
_cell_formula_units_Z   1
loop_
 _symmetry_equiv_pos_site_id
 _symmetry_equiv_pos_as_xyz
  1  'x, y, z'
loop_
 _atom_site_type_symbol
 _atom_site_label
 _atom_site_symmetry_multiplicity
 _atom_site_fract_x
 _atom_site_fract_y
 _atom_site_fract_z
 _atom_site_occupancy
  Eu  Eu0  1  0.668581  0.995740  0.250445  1
  Eu  Eu1  1  0.004260  0.331419  0.749555  1
  Eu  Eu2  1  0.998854  0.670672  0.250128  1
  Eu  Eu3  1  0.329328  0.001146  0.749872  1
  Ga  Ga4  1  0.665623  0.006574  0.921871  1
  Ga  Ga5  1  0.132129  0.133212  0.249447  1
  Ga  Ga6  1  0.999289  0.334774  0.419449  1
  Ga  Ga7  1  0.333023  0.332759  0.567117  1
  Ga  Ga8  1  0.339410  0.542392  0.249279  1
  Ga  Ga9  1  0.457608  0.660590  0.750721  1
  Ga  Ga10  1  0.866788  0.867871  0.750553  1
  Ga  Ga11  1  0.668420  0.664500  0.063628  1
  Ga  Ga12  1  0.667241  0.666977  0.432883  1
  Ga  Ga13  1  0.999680  0.665332  0.580928  1
  Ga  Ga14  1  0.996384  0.660785  0.921954  1
  Ga  Ga15  1  0.334668  0.000320  0.419072  1
  Ga  Ga16  1  0.660263  0.452924  0.753613  1
  Ga  Ga17  1  0.547076  0.339737  0.246387  1
  Ga  Ga18  1  0.335500  0.331580  0.936372  1
  Ga  Ga19  1  0.339215  0.003616  0.078046  1
  Ga  Ga20  1  0.665226  0.000711  0.580551  1
  Ga  Ga21  1  0.993426  0.334377  0.078129  1
  Pt  Pt22  1  0.330565  0.669435  0.500000  1
  Pt  Pt23  1  0.330493  0.669507  0.000000  1
  Pt  Pt24  1  0.668744  0.331256  0.500000  1
  Pt  Pt25  1  0.000074  0.999926  0.000000  1
  Pt  Pt26  1  0.999841  0.000159  0.500000  1
  Rh  Rh27  1  0.668292  0.331708  0.000000  1
