# generated using pymatgen
data_Er16TlIn2HgRh4
_symmetry_space_group_name_H-M   'P 1'
_cell_length_a   9.56732345
_cell_length_b   9.56321712
_cell_length_c   9.56419702
_cell_angle_alpha   60.03490576
_cell_angle_beta   59.98918193
_cell_angle_gamma   59.98579615
_symmetry_Int_Tables_number   1
_chemical_formula_structural   Er16TlIn2HgRh4
_chemical_formula_sum   'Er16 Tl1 In2 Hg1 Rh4'
_cell_volume   618.81413925
_cell_formula_units_Z   1
loop_
 _symmetry_equiv_pos_site_id
 _symmetry_equiv_pos_as_xyz
  1  'x, y, z'
loop_
 _atom_site_type_symbol
 _atom_site_label
 _atom_site_symmetry_multiplicity
 _atom_site_fract_x
 _atom_site_fract_y
 _atom_site_fract_z
 _atom_site_occupancy
  Er  Er0  1  0.188658  0.189367  0.810947  1
  Er  Er1  1  0.439362  0.057179  0.064096  1
  Er  Er2  1  0.437796  0.059224  0.437576  1
  Er  Er3  1  0.062589  0.435788  0.063252  1
  Er  Er4  1  0.650297  0.051591  0.647817  1
  Er  Er5  1  0.188459  0.811385  0.811696  1
  Er  Er6  1  0.065405  0.059224  0.437576  1
  Er  Er7  1  0.810378  0.189615  0.189630  1
  Er  Er8  1  0.811515  0.811247  0.189008  1
  Er  Er9  1  0.650149  0.647663  0.052039  1
  Er  Er10  1  0.652213  0.649299  0.649570  1
  Er  Er11  1  0.064085  0.434484  0.437347  1
  Er  Er12  1  0.048919  0.649299  0.649570  1
  Er  Er13  1  0.811029  0.189367  0.810947  1
  Er  Er14  1  0.438371  0.435788  0.063252  1
  Er  Er15  1  0.188229  0.811247  0.189008  1
  Tl  Tl16  1  0.414710  0.418213  0.752367  1
  In  In17  1  0.748806  0.419295  0.415797  1
  In  In18  1  0.416102  0.419295  0.415797  1
  Hg  Hg19  1  0.413196  0.760971  0.412637  1
  Rh  Rh20  1  0.857086  0.428236  0.857593  1
  Rh  Rh21  1  0.856929  0.857720  0.428420  1
  Rh  Rh22  1  0.429260  0.857252  0.857029  1
  Rh  Rh23  1  0.856459  0.857252  0.857029  1
