# generated using pymatgen
data_Tm6CoNi
_symmetry_space_group_name_H-M   'P 1'
_cell_length_a   6.19943876
_cell_length_b   6.79930990
_cell_length_c   9.31697200
_cell_angle_alpha   90.00000000
_cell_angle_beta   90.00000000
_cell_angle_gamma   89.87557466
_symmetry_Int_Tables_number   1
_chemical_formula_structural   Tm6CoNi
_chemical_formula_sum   'Tm12 Co2 Ni2'
_cell_volume   392.72719537
_cell_formula_units_Z   2
loop_
 _symmetry_equiv_pos_site_id
 _symmetry_equiv_pos_as_xyz
  1  'x, y, z'
loop_
 _atom_site_type_symbol
 _atom_site_label
 _atom_site_symmetry_multiplicity
 _atom_site_fract_x
 _atom_site_fract_y
 _atom_site_fract_z
 _atom_site_occupancy
  Tm  Tm0  1  0.634522  0.040631  0.250000  1
  Tm  Tm1  1  0.365478  0.959369  0.750000  1
  Tm  Tm2  1  0.140846  0.463928  0.750000  1
  Tm  Tm3  1  0.859154  0.536072  0.250000  1
  Tm  Tm4  1  0.179323  0.181679  0.067026  1
  Tm  Tm5  1  0.820677  0.818321  0.932974  1
  Tm  Tm6  1  0.676256  0.322091  0.934569  1
  Tm  Tm7  1  0.820677  0.818321  0.567026  1
  Tm  Tm8  1  0.323744  0.677909  0.065431  1
  Tm  Tm9  1  0.179323  0.181679  0.432974  1
  Tm  Tm10  1  0.323744  0.677909  0.434569  1
  Tm  Tm11  1  0.676256  0.322091  0.565431  1
  Co  Co12  1  0.452846  0.391184  0.250000  1
  Co  Co13  1  0.547154  0.608816  0.750000  1
  Ni  Ni14  1  0.951641  0.108394  0.750000  1
  Ni  Ni15  1  0.048359  0.891606  0.250000  1
