# generated using pymatgen
data_LaPr15Cd4(IrPd)2
_symmetry_space_group_name_H-M   'P 1'
_cell_length_a   10.08256799
_cell_length_b   10.08256775
_cell_length_c   10.05611783
_cell_angle_alpha   60.00502166
_cell_angle_beta   60.00502390
_cell_angle_gamma   60.20432712
_symmetry_Int_Tables_number   1
_chemical_formula_structural   LaPr15Cd4(IrPd)2
_chemical_formula_sum   'La1 Pr15 Cd4 Ir2 Pd2'
_cell_volume   724.03054171
_cell_formula_units_Z   1
loop_
 _symmetry_equiv_pos_site_id
 _symmetry_equiv_pos_as_xyz
  1  'x, y, z'
loop_
 _atom_site_type_symbol
 _atom_site_label
 _atom_site_symmetry_multiplicity
 _atom_site_fract_x
 _atom_site_fract_y
 _atom_site_fract_z
 _atom_site_occupancy
  La  La0  1  0.348370  0.348370  0.343052  1
  Pr  Pr1  1  0.351078  0.351078  0.951702  1
  Pr  Pr2  1  0.356652  0.943830  0.349983  1
  Pr  Pr3  1  0.943830  0.356652  0.349983  1
  Pr  Pr4  1  0.806304  0.191268  0.189248  1
  Pr  Pr5  1  0.191096  0.804302  0.814026  1
  Pr  Pr6  1  0.191268  0.806304  0.189248  1
  Pr  Pr7  1  0.804302  0.191096  0.814026  1
  Pr  Pr8  1  0.191588  0.191588  0.809679  1
  Pr  Pr9  1  0.810694  0.810694  0.188043  1
  Pr  Pr10  1  0.939625  0.565951  0.560395  1
  Pr  Pr11  1  0.563958  0.938709  0.936413  1
  Pr  Pr12  1  0.565951  0.939625  0.560395  1
  Pr  Pr13  1  0.938709  0.563958  0.936413  1
  Pr  Pr14  1  0.563424  0.563424  0.937888  1
  Pr  Pr15  1  0.938146  0.938146  0.561054  1
  Cd  Cd16  1  0.580190  0.580190  0.580732  1
  Cd  Cd17  1  0.580810  0.580810  0.258015  1
  Cd  Cd18  1  0.579274  0.259723  0.580969  1
  Cd  Cd19  1  0.259723  0.579274  0.580969  1
  Ir  Ir20  1  0.141312  0.570976  0.145072  1
  Ir  Ir21  1  0.570976  0.141312  0.145072  1
  Pd  Pd22  1  0.142003  0.142003  0.146360  1
  Pd  Pd23  1  0.140716  0.140716  0.571258  1
