# generated using pymatgen
data_CsYb(PO3)3
_symmetry_space_group_name_H-M   'P 1'
_cell_length_a   7.63968500
_cell_length_b   9.73414700
_cell_length_c   12.86743200
_cell_angle_alpha   90.00000000
_cell_angle_beta   90.00000000
_cell_angle_gamma   90.00000000
_symmetry_Int_Tables_number   1
_chemical_formula_structural   CsYb(PO3)3
_chemical_formula_sum   'Cs4 Yb4 P12 O36'
_cell_volume   956.89709110
_cell_formula_units_Z   4
loop_
 _symmetry_equiv_pos_site_id
 _symmetry_equiv_pos_as_xyz
  1  'x, y, z'
loop_
 _atom_site_type_symbol
 _atom_site_label
 _atom_site_symmetry_multiplicity
 _atom_site_fract_x
 _atom_site_fract_y
 _atom_site_fract_z
 _atom_site_occupancy
  Cs  Cs0  1  0.750000  0.385791  0.416868  1
  Cs  Cs1  1  0.250000  0.614209  0.583132  1
  Cs  Cs2  1  0.750000  0.885791  0.083132  1
  Cs  Cs3  1  0.250000  0.114209  0.916868  1
  Yb  Yb4  1  0.750000  0.014288  0.778135  1
  Yb  Yb5  1  0.250000  0.985712  0.221865  1
  Yb  Yb6  1  0.750000  0.514288  0.721865  1
  Yb  Yb7  1  0.250000  0.485712  0.278135  1
  P  P8  1  0.250000  0.703693  0.040650  1
  P  P9  1  0.750000  0.296307  0.959350  1
  P  P10  1  0.250000  0.203693  0.459350  1
  P  P11  1  0.750000  0.796307  0.540650  1
  P  P12  1  0.553139  0.252533  0.149595  1
  P  P13  1  0.053139  0.747467  0.850405  1
  P  P14  1  0.946861  0.752533  0.350405  1
  P  P15  1  0.446861  0.247467  0.649595  1
  P  P16  1  0.446861  0.747467  0.850405  1
  P  P17  1  0.946861  0.252533  0.149595  1
  P  P18  1  0.053139  0.247467  0.649595  1
  P  P19  1  0.553139  0.752533  0.350405  1
  O  O20  1  0.250000  0.852986  0.070566  1
  O  O21  1  0.750000  0.147014  0.929434  1
  O  O22  1  0.250000  0.352986  0.429434  1
  O  O23  1  0.750000  0.647014  0.570566  1
  O  O24  1  0.250000  0.595430  0.122002  1
  O  O25  1  0.750000  0.404570  0.877998  1
  O  O26  1  0.250000  0.095430  0.377998  1
  O  O27  1  0.750000  0.904570  0.622002  1
  O  O28  1  0.487110  0.358203  0.224190  1
  O  O29  1  0.987110  0.641797  0.775810  1
  O  O30  1  0.012890  0.858203  0.275810  1
  O  O31  1  0.512890  0.141797  0.724190  1
  O  O32  1  0.512890  0.641797  0.775810  1
  O  O33  1  0.012890  0.358203  0.224190  1
  O  O34  1  0.987110  0.141797  0.724190  1
  O  O35  1  0.487110  0.858203  0.275810  1
  O  O36  1  0.450802  0.122572  0.134501  1
  O  O37  1  0.950803  0.877428  0.865499  1
  O  O38  1  0.049198  0.622572  0.365499  1
  O  O39  1  0.549197  0.377428  0.634501  1
  O  O40  1  0.750000  0.205723  0.183716  1
  O  O41  1  0.250000  0.794277  0.816284  1
  O  O42  1  0.750000  0.705723  0.316284  1
  O  O43  1  0.250000  0.294277  0.683716  1
  O  O44  1  0.585823  0.825805  0.462173  1
  O  O45  1  0.085823  0.174195  0.537827  1
  O  O46  1  0.914177  0.325805  0.037827  1
  O  O47  1  0.414177  0.674195  0.962173  1
  O  O48  1  0.414177  0.174195  0.537827  1
  O  O49  1  0.914177  0.825805  0.462173  1
  O  O50  1  0.085823  0.674195  0.962173  1
  O  O51  1  0.585823  0.325805  0.037827  1
  O  O52  1  0.450802  0.622572  0.365499  1
  O  O53  1  0.950803  0.377428  0.634501  1
  O  O54  1  0.049198  0.122572  0.134501  1
  O  O55  1  0.549197  0.877428  0.865499  1
