# generated using pymatgen
data_La4Pr6Ir5Ru
_symmetry_space_group_name_H-M   'P 1'
_cell_length_a   11.36625300
_cell_length_b   11.36625300
_cell_length_c   6.68605600
_cell_angle_alpha   90.00000000
_cell_angle_beta   90.00000000
_cell_angle_gamma   90.00000000
_symmetry_Int_Tables_number   1
_chemical_formula_structural   La4Pr6Ir5Ru
_chemical_formula_sum   'La8 Pr12 Ir10 Ru2'
_cell_volume   863.78298948
_cell_formula_units_Z   2
loop_
 _symmetry_equiv_pos_site_id
 _symmetry_equiv_pos_as_xyz
  1  'x, y, z'
loop_
 _atom_site_type_symbol
 _atom_site_label
 _atom_site_symmetry_multiplicity
 _atom_site_fract_x
 _atom_site_fract_y
 _atom_site_fract_z
 _atom_site_occupancy
  La  La0  1  0.209674  0.408166  0.614895  1
  La  La1  1  0.209674  0.591834  0.114895  1
  La  La2  1  0.790326  0.408166  0.114895  1
  La  La3  1  0.790326  0.591834  0.614895  1
  La  La4  1  0.908166  0.709674  0.114895  1
  La  La5  1  0.908166  0.290326  0.614895  1
  La  La6  1  0.091834  0.709674  0.614895  1
  La  La7  1  0.091834  0.290326  0.114895  1
  Pr  Pr8  1  0.294523  0.088093  0.385626  1
  Pr  Pr9  1  0.294523  0.911907  0.885626  1
  Pr  Pr10  1  0.705477  0.088093  0.885626  1
  Pr  Pr11  1  0.705477  0.911907  0.385626  1
  Pr  Pr12  1  0.588093  0.794523  0.885626  1
  Pr  Pr13  1  0.588093  0.205477  0.385626  1
  Pr  Pr14  1  0.411907  0.794523  0.385626  1
  Pr  Pr15  1  0.411907  0.205477  0.885626  1
  Pr  Pr16  1  0.000000  0.000000  0.497271  1
  Pr  Pr17  1  0.000000  0.000000  0.997271  1
  Pr  Pr18  1  0.500000  0.500000  0.997271  1
  Pr  Pr19  1  0.500000  0.500000  0.497271  1
  Ir  Ir20  1  0.847849  0.155155  0.251135  1
  Ir  Ir21  1  0.847849  0.844845  0.751135  1
  Ir  Ir22  1  0.152151  0.155155  0.751135  1
  Ir  Ir23  1  0.152151  0.844845  0.251135  1
  Ir  Ir24  1  0.655155  0.347849  0.751135  1
  Ir  Ir25  1  0.655155  0.652151  0.251135  1
  Ir  Ir26  1  0.344845  0.347849  0.251135  1
  Ir  Ir27  1  0.344845  0.652151  0.751135  1
  Ir  Ir28  1  0.000000  0.500000  0.883031  1
  Ir  Ir29  1  0.000000  0.500000  0.383031  1
  Ru  Ru30  1  0.500000  0.000000  0.115800  1
  Ru  Ru31  1  0.500000  0.000000  0.615800  1
