# generated using pymatgen
data_Th2Ga4Pt3Rh
_symmetry_space_group_name_H-M   'P 1'
_cell_length_a   4.27558500
_cell_length_b   4.27558500
_cell_length_c   10.48816700
_cell_angle_alpha   90.00000000
_cell_angle_beta   90.00000000
_cell_angle_gamma   90.00000000
_symmetry_Int_Tables_number   1
_chemical_formula_structural   Th2Ga4Pt3Rh
_chemical_formula_sum   'Th2 Ga4 Pt3 Rh1'
_cell_volume   191.73026981
_cell_formula_units_Z   1
loop_
 _symmetry_equiv_pos_site_id
 _symmetry_equiv_pos_as_xyz
  1  'x, y, z'
loop_
 _atom_site_type_symbol
 _atom_site_label
 _atom_site_symmetry_multiplicity
 _atom_site_fract_x
 _atom_site_fract_y
 _atom_site_fract_z
 _atom_site_occupancy
  Th  Th0  1  0.000000  0.500000  0.249441  1
  Th  Th1  1  0.500000  0.000000  0.750559  1
  Ga  Ga2  1  0.000000  0.000000  0.500000  1
  Ga  Ga3  1  0.500000  0.500000  0.500000  1
  Ga  Ga4  1  0.000000  0.500000  0.871659  1
  Ga  Ga5  1  0.500000  0.000000  0.128341  1
  Pt  Pt6  1  0.500000  0.500000  0.000000  1
  Pt  Pt7  1  0.000000  0.500000  0.635525  1
  Pt  Pt8  1  0.500000  0.000000  0.364475  1
  Rh  Rh9  1  0.000000  0.000000  0.000000  1
