# generated using pymatgen
data_Tm7LuSc12Si15Sb
_symmetry_space_group_name_H-M   'P 1'
_cell_length_a   7.10861780
_cell_length_b   7.34924404
_cell_length_c   13.94226846
_cell_angle_alpha   90.09948216
_cell_angle_beta   88.82830982
_cell_angle_gamma   90.09063435
_symmetry_Int_Tables_number   1
_chemical_formula_structural   Tm7LuSc12Si15Sb
_chemical_formula_sum   'Tm7 Lu1 Sc12 Si15 Sb1'
_cell_volume   728.23120390
_cell_formula_units_Z   1
loop_
 _symmetry_equiv_pos_site_id
 _symmetry_equiv_pos_as_xyz
  1  'x, y, z'
loop_
 _atom_site_type_symbol
 _atom_site_label
 _atom_site_symmetry_multiplicity
 _atom_site_fract_x
 _atom_site_fract_y
 _atom_site_fract_z
 _atom_site_occupancy
  Tm  Tm0  1  0.988548  0.823759  0.904442  1
  Tm  Tm1  1  0.488806  0.676466  0.904346  1
  Tm  Tm2  1  0.993379  0.828514  0.597387  1
  Tm  Tm3  1  0.511163  0.323624  0.096973  1
  Tm  Tm4  1  0.000802  0.172170  0.400798  1
  Tm  Tm5  1  0.509113  0.318478  0.399419  1
  Tm  Tm6  1  0.509049  0.684347  0.599912  1
  Lu  Lu7  1  0.011763  0.177900  0.096761  1
  Sc  Sc8  1  0.165633  0.501576  0.753872  1
  Sc  Sc9  1  0.833877  0.497646  0.251563  1
  Sc  Sc10  1  0.334102  0.003198  0.250616  1
  Sc  Sc11  1  0.667364  0.997616  0.750717  1
  Sc  Sc12  1  0.347677  0.160352  0.630159  1
  Sc  Sc13  1  0.658882  0.826915  0.372797  1
  Sc  Sc14  1  0.154621  0.681772  0.370248  1
  Sc  Sc15  1  0.667083  0.823281  0.124113  1
  Sc  Sc16  1  0.830790  0.325627  0.625399  1
  Sc  Sc17  1  0.331293  0.175856  0.875409  1
  Sc  Sc18  1  0.833040  0.322597  0.875641  1
  Sc  Sc19  1  0.167484  0.677059  0.124885  1
  Si  Si20  1  0.037268  0.115675  0.751001  1
  Si  Si21  1  0.960851  0.887903  0.246527  1
  Si  Si22  1  0.460587  0.614412  0.247954  1
  Si  Si23  1  0.537472  0.386262  0.752472  1
  Si  Si24  1  0.289274  0.866489  0.752343  1
  Si  Si25  1  0.711068  0.129211  0.246925  1
  Si  Si26  1  0.209263  0.371197  0.248753  1
  Si  Si27  1  0.792682  0.629804  0.751619  1
  Si  Si28  1  0.813245  0.539647  0.457526  1
  Si  Si29  1  0.329132  0.963878  0.460142  1
  Si  Si30  1  0.841905  0.533560  0.039910  1
  Si  Si31  1  0.672393  0.037490  0.538617  1
  Si  Si32  1  0.157359  0.465225  0.961373  1
  Si  Si33  1  0.657023  0.034079  0.960321  1
  Si  Si34  1  0.340764  0.967120  0.040165  1
  Sb  Sb35  1  0.185243  0.459291  0.538898  1
