# generated using pymatgen
data_Tm3Lu7In8(PtAu)2
_symmetry_space_group_name_H-M   'P 1'
_cell_length_a   3.58987600
_cell_length_b   8.07793703
_cell_length_c   18.11637972
_cell_angle_alpha   90.08012554
_cell_angle_beta   90.00000000
_cell_angle_gamma   90.00000000
_symmetry_Int_Tables_number   1
_chemical_formula_structural   Tm3Lu7In8(PtAu)2
_chemical_formula_sum   'Tm3 Lu7 In8 Pt2 Au2'
_cell_volume   525.35261864
_cell_formula_units_Z   1
loop_
 _symmetry_equiv_pos_site_id
 _symmetry_equiv_pos_as_xyz
  1  'x, y, z'
loop_
 _atom_site_type_symbol
 _atom_site_label
 _atom_site_symmetry_multiplicity
 _atom_site_fract_x
 _atom_site_fract_y
 _atom_site_fract_z
 _atom_site_occupancy
  Tm  Tm0  1  0.000000  0.119878  0.419233  1
  Tm  Tm1  1  0.000000  0.000006  0.999947  1
  Tm  Tm2  1  0.000000  0.500195  0.500018  1
  Lu  Lu3  1  0.000000  0.880238  0.581374  1
  Lu  Lu4  1  0.000000  0.383527  0.916255  1
  Lu  Lu5  1  0.000000  0.616474  0.083696  1
  Lu  Lu6  1  0.000000  0.256078  0.217449  1
  Lu  Lu7  1  0.000000  0.744008  0.782473  1
  Lu  Lu8  1  0.000000  0.265443  0.722333  1
  Lu  Lu9  1  0.000000  0.734413  0.277570  1
  In  In10  1  0.500000  0.423480  0.352618  1
  In  In11  1  0.500000  0.577160  0.647234  1
  In  In12  1  0.500000  0.076154  0.853448  1
  In  In13  1  0.500000  0.923771  0.146442  1
  In  In14  1  0.500000  0.293079  0.064631  1
  In  In15  1  0.500000  0.706882  0.935322  1
  In  In16  1  0.500000  0.209612  0.567456  1
  In  In17  1  0.500000  0.789838  0.433052  1
  Pt  Pt18  1  0.500000  0.470457  0.804309  1
  Pt  Pt19  1  0.500000  0.529691  0.195682  1
  Au  Au20  1  0.500000  0.030229  0.301634  1
  Au  Au21  1  0.500000  0.969388  0.697825  1
