# generated using pymatgen
data_Y3AlHg2Au3
_symmetry_space_group_name_H-M   'P 1'
_cell_length_a   7.83510309
_cell_length_b   7.65485071
_cell_length_c   3.86924700
_cell_angle_alpha   90.00000000
_cell_angle_beta   90.00000000
_cell_angle_gamma   119.24185200
_symmetry_Int_Tables_number   1
_chemical_formula_structural   Y3AlHg2Au3
_chemical_formula_sum   'Y3 Al1 Hg2 Au3'
_cell_volume   202.49109311
_cell_formula_units_Z   1
loop_
 _symmetry_equiv_pos_site_id
 _symmetry_equiv_pos_as_xyz
  1  'x, y, z'
loop_
 _atom_site_type_symbol
 _atom_site_label
 _atom_site_symmetry_multiplicity
 _atom_site_fract_x
 _atom_site_fract_y
 _atom_site_fract_z
 _atom_site_occupancy
  Y  Y0  1  0.411616  0.400174  0.500000  1
  Y  Y1  1  0.588384  0.988558  0.500000  1
  Y  Y2  1  0.000000  0.609057  0.500000  1
  Al  Al3  1  0.000000  0.263424  0.000000  1
  Hg  Hg4  1  0.729703  0.732911  0.000000  1
  Hg  Hg5  1  0.270297  0.003207  0.000000  1
  Au  Au6  1  0.689162  0.327311  0.000000  1
  Au  Au7  1  0.310838  0.638150  0.000000  1
  Au  Au8  1  0.000000  0.037205  0.500000  1
