# generated using pymatgen
data_Zr3Ti3Sn2Ge
_symmetry_space_group_name_H-M   'P 1'
_cell_length_a   7.40284300
_cell_length_b   7.40284403
_cell_length_c   3.81884300
_cell_angle_alpha   90.00000000
_cell_angle_beta   90.00000000
_cell_angle_gamma   119.99999986
_symmetry_Int_Tables_number   1
_chemical_formula_structural   Zr3Ti3Sn2Ge
_chemical_formula_sum   'Zr3 Ti3 Sn2 Ge1'
_cell_volume   181.24230412
_cell_formula_units_Z   1
loop_
 _symmetry_equiv_pos_site_id
 _symmetry_equiv_pos_as_xyz
  1  'x, y, z'
loop_
 _atom_site_type_symbol
 _atom_site_label
 _atom_site_symmetry_multiplicity
 _atom_site_fract_x
 _atom_site_fract_y
 _atom_site_fract_z
 _atom_site_occupancy
  Zr  Zr0  1  0.608956  0.000000  0.000000  1
  Zr  Zr1  1  0.000000  0.608956  0.000000  1
  Zr  Zr2  1  0.391044  0.391044  0.000000  1
  Ti  Ti3  1  0.239123  0.000000  0.500000  1
  Ti  Ti4  1  0.000000  0.239123  0.500000  1
  Ti  Ti5  1  0.760877  0.760877  0.500000  1
  Sn  Sn6  1  0.333333  0.666667  0.500000  1
  Sn  Sn7  1  0.666667  0.333333  0.500000  1
  Ge  Ge8  1  0.000000  0.000000  0.000000  1
