# generated using pymatgen
data_Yb3DyPt8
_symmetry_space_group_name_H-M   'P 1'
_cell_length_a   9.38476843
_cell_length_b   9.38476901
_cell_length_c   9.38476926
_cell_angle_alpha   33.60588290
_cell_angle_beta   33.60587637
_cell_angle_gamma   33.60587894
_symmetry_Int_Tables_number   1
_chemical_formula_structural   Yb3DyPt8
_chemical_formula_sum   'Yb3 Dy1 Pt8'
_cell_volume   225.55246232
_cell_formula_units_Z   1
loop_
 _symmetry_equiv_pos_site_id
 _symmetry_equiv_pos_as_xyz
  1  'x, y, z'
loop_
 _atom_site_type_symbol
 _atom_site_label
 _atom_site_symmetry_multiplicity
 _atom_site_fract_x
 _atom_site_fract_y
 _atom_site_fract_z
 _atom_site_occupancy
  Yb  Yb0  1  0.187305  0.187305  0.187305  1
  Yb  Yb1  1  0.814243  0.814243  0.814243  1
  Yb  Yb2  1  0.310678  0.310678  0.310678  1
  Dy  Dy3  1  0.687877  0.687877  0.687877  1
  Pt  Pt4  1  0.999895  0.999895  0.999895  1
  Pt  Pt5  1  0.500012  0.500012  0.500012  1
  Pt  Pt6  1  0.748017  0.250169  0.250169  1
  Pt  Pt7  1  0.251452  0.750091  0.750091  1
  Pt  Pt8  1  0.250169  0.748017  0.250169  1
  Pt  Pt9  1  0.750091  0.251452  0.750091  1
  Pt  Pt10  1  0.250169  0.250169  0.748017  1
  Pt  Pt11  1  0.750091  0.750091  0.251452  1
