# generated using pymatgen
data_Tb16Ho3ScPb16
_symmetry_space_group_name_H-M   'P 1'
_cell_length_a   8.17659400
_cell_length_b   8.26754944
_cell_length_c   15.67414900
_cell_angle_alpha   90.00000000
_cell_angle_beta   90.00000000
_cell_angle_gamma   89.74882792
_symmetry_Int_Tables_number   1
_chemical_formula_structural   Tb16Ho3ScPb16
_chemical_formula_sum   'Tb16 Ho3 Sc1 Pb16'
_cell_volume   1059.56848485
_cell_formula_units_Z   1
loop_
 _symmetry_equiv_pos_site_id
 _symmetry_equiv_pos_as_xyz
  1  'x, y, z'
loop_
 _atom_site_type_symbol
 _atom_site_label
 _atom_site_symmetry_multiplicity
 _atom_site_fract_x
 _atom_site_fract_y
 _atom_site_fract_z
 _atom_site_occupancy
  Tb  Tb0  1  0.375405  0.842740  0.879632  1
  Tb  Tb1  1  0.875199  0.657300  0.620705  1
  Tb  Tb2  1  0.623924  0.156641  0.378194  1
  Tb  Tb3  1  0.124879  0.342460  0.121578  1
  Tb  Tb4  1  0.623924  0.156641  0.121806  1
  Tb  Tb5  1  0.124879  0.342460  0.378422  1
  Tb  Tb6  1  0.375405  0.842740  0.620368  1
  Tb  Tb7  1  0.875199  0.657300  0.879295  1
  Tb  Tb8  1  0.533935  0.323586  0.901276  1
  Tb  Tb9  1  0.033625  0.176914  0.598075  1
  Tb  Tb10  1  0.465273  0.677229  0.400601  1
  Tb  Tb11  1  0.966430  0.823556  0.099194  1
  Tb  Tb12  1  0.465273  0.677229  0.099399  1
  Tb  Tb13  1  0.966430  0.823556  0.400806  1
  Tb  Tb14  1  0.533935  0.323586  0.598724  1
  Tb  Tb15  1  0.033625  0.176914  0.901925  1
  Ho  Ho16  1  0.207894  0.504803  0.750000  1
  Ho  Ho17  1  0.707800  0.995411  0.750000  1
  Ho  Ho18  1  0.792475  0.495574  0.250000  1
  Sc  Sc19  1  0.292102  0.005061  0.250000  1
  Pb  Pb20  1  0.282444  0.032702  0.046302  1
  Pb  Pb21  1  0.782186  0.465704  0.456072  1
  Pb  Pb22  1  0.717023  0.966241  0.543527  1
  Pb  Pb23  1  0.217557  0.534090  0.956658  1
  Pb  Pb24  1  0.717023  0.966241  0.956473  1
  Pb  Pb25  1  0.217557  0.534090  0.543342  1
  Pb  Pb26  1  0.282444  0.032702  0.453698  1
  Pb  Pb27  1  0.782186  0.465704  0.043928  1
  Pb  Pb28  1  0.570993  0.624850  0.750000  1
  Pb  Pb29  1  0.071127  0.875261  0.750000  1
  Pb  Pb30  1  0.427354  0.372538  0.250000  1
  Pb  Pb31  1  0.934170  0.121256  0.250000  1
  Pb  Pb32  1  0.346461  0.154732  0.750000  1
  Pb  Pb33  1  0.846896  0.344923  0.750000  1
  Pb  Pb34  1  0.649857  0.846671  0.250000  1
  Pb  Pb35  1  0.157115  0.660592  0.250000  1
