# generated using pymatgen
data_CePrCo12SiP6
_symmetry_space_group_name_H-M   'P 1'
_cell_length_a   9.08792600
_cell_length_b   9.08792705
_cell_length_c   3.64147500
_cell_angle_alpha   90.00000000
_cell_angle_beta   90.00000000
_cell_angle_gamma   119.99999617
_symmetry_Int_Tables_number   1
_chemical_formula_structural   CePrCo12SiP6
_chemical_formula_sum   'Ce1 Pr1 Co12 Si1 P6'
_cell_volume   260.45793659
_cell_formula_units_Z   1
loop_
 _symmetry_equiv_pos_site_id
 _symmetry_equiv_pos_as_xyz
  1  'x, y, z'
loop_
 _atom_site_type_symbol
 _atom_site_label
 _atom_site_symmetry_multiplicity
 _atom_site_fract_x
 _atom_site_fract_y
 _atom_site_fract_z
 _atom_site_occupancy
  Ce  Ce0  1  0.666667  0.333333  0.500000  1
  Pr  Pr1  1  0.333333  0.666667  0.000000  1
  Co  Co2  1  0.434719  0.063812  0.000000  1
  Co  Co3  1  0.936188  0.370906  0.000000  1
  Co  Co4  1  0.629094  0.565281  0.000000  1
  Co  Co5  1  0.385403  0.431343  0.500000  1
  Co  Co6  1  0.568657  0.954059  0.500000  1
  Co  Co7  1  0.045941  0.614597  0.500000  1
  Co  Co8  1  0.155248  0.279519  0.000000  1
  Co  Co9  1  0.720481  0.875728  0.000000  1
  Co  Co10  1  0.124272  0.844752  0.000000  1
  Co  Co11  1  0.226771  0.100568  0.500000  1
  Co  Co12  1  0.899432  0.126205  0.500000  1
  Co  Co13  1  0.873795  0.773229  0.500000  1
  Si  Si14  1  0.000000  0.000000  0.000000  1
  P  P15  1  0.104870  0.396146  0.500000  1
  P  P16  1  0.603854  0.708725  0.500000  1
  P  P17  1  0.291275  0.895130  0.500000  1
  P  P18  1  0.401563  0.294393  0.000000  1
  P  P19  1  0.705607  0.107170  0.000000  1
  P  P20  1  0.892830  0.598437  0.000000  1
