# generated using pymatgen
data_TbHo3(Ga3Ir)6
_symmetry_space_group_name_H-M   'P 1'
_cell_length_a   7.58829901
_cell_length_b   7.58890751
_cell_length_c   9.49522000
_cell_angle_alpha   90.00000000
_cell_angle_beta   90.00000000
_cell_angle_gamma   119.97817043
_symmetry_Int_Tables_number   1
_chemical_formula_structural   TbHo3(Ga3Ir)6
_chemical_formula_sum   'Tb1 Ho3 Ga18 Ir6'
_cell_volume   473.64706248
_cell_formula_units_Z   1
loop_
 _symmetry_equiv_pos_site_id
 _symmetry_equiv_pos_as_xyz
  1  'x, y, z'
loop_
 _atom_site_type_symbol
 _atom_site_label
 _atom_site_symmetry_multiplicity
 _atom_site_fract_x
 _atom_site_fract_y
 _atom_site_fract_z
 _atom_site_occupancy
  Tb  Tb0  1  0.997163  0.667968  0.250000  1
  Ho  Ho1  1  0.002875  0.332059  0.750000  1
  Ho  Ho2  1  0.667979  0.997199  0.250000  1
  Ho  Ho3  1  0.332042  0.002848  0.750000  1
  Ga  Ga4  1  0.126395  0.126489  0.250000  1
  Ga  Ga5  1  0.873632  0.873630  0.750000  1
  Ga  Ga6  1  0.999151  0.333687  0.079671  1
  Ga  Ga7  1  0.000830  0.666103  0.920118  1
  Ga  Ga8  1  0.000830  0.666103  0.579882  1
  Ga  Ga9  1  0.334059  0.999328  0.420331  1
  Ga  Ga10  1  0.999151  0.333687  0.420329  1
  Ga  Ga11  1  0.666104  0.000838  0.579765  1
  Ga  Ga12  1  0.666104  0.000838  0.920235  1
  Ga  Ga13  1  0.334059  0.999328  0.079669  1
  Ga  Ga14  1  0.332723  0.332718  0.563942  1
  Ga  Ga15  1  0.667130  0.667290  0.436226  1
  Ga  Ga16  1  0.667130  0.667290  0.063774  1
  Ga  Ga17  1  0.332723  0.332718  0.936058  1
  Ga  Ga18  1  0.338857  0.546444  0.250000  1
  Ga  Ga19  1  0.661228  0.453556  0.750000  1
  Ga  Ga20  1  0.546321  0.338646  0.250000  1
  Ga  Ga21  1  0.453582  0.661250  0.750000  1
  Ir  Ir22  1  0.671499  0.328347  0.999986  1
  Ir  Ir23  1  0.328442  0.671537  0.999982  1
  Ir  Ir24  1  0.328442  0.671537  0.500018  1
  Ir  Ir25  1  0.671499  0.328347  0.500014  1
  Ir  Ir26  1  0.000024  0.000109  0.999969  1
  Ir  Ir27  1  0.000024  0.000109  0.500031  1
