# generated using pymatgen
data_Pr10InSi4Pb
_symmetry_space_group_name_H-M   'P 1'
_cell_length_a   7.95732400
_cell_length_b   9.36304685
_cell_length_c   7.95732400
_cell_angle_alpha   115.14639160
_cell_angle_beta   90.00000000
_cell_angle_gamma   115.14639160
_symmetry_Int_Tables_number   1
_chemical_formula_structural   Pr10InSi4Pb
_chemical_formula_sum   'Pr10 In1 Si4 Pb1'
_cell_volume   473.86620155
_cell_formula_units_Z   1
loop_
 _symmetry_equiv_pos_site_id
 _symmetry_equiv_pos_as_xyz
  1  'x, y, z'
loop_
 _atom_site_type_symbol
 _atom_site_label
 _atom_site_symmetry_multiplicity
 _atom_site_fract_x
 _atom_site_fract_y
 _atom_site_fract_z
 _atom_site_occupancy
  Pr  Pr0  1  0.981393  0.962787  0.981393  1
  Pr  Pr1  1  0.518607  0.037213  0.518607  1
  Pr  Pr2  1  0.534139  0.727249  0.683767  1
  Pr  Pr3  1  0.193112  0.727249  0.043483  1
  Pr  Pr4  1  0.683767  0.727249  0.193112  1
  Pr  Pr5  1  0.043483  0.727249  0.534139  1
  Pr  Pr6  1  0.456517  0.272751  0.306888  1
  Pr  Pr7  1  0.816233  0.272751  0.965861  1
  Pr  Pr8  1  0.306888  0.272751  0.816233  1
  Pr  Pr9  1  0.965861  0.272751  0.456517  1
  In  In10  1  0.750000  0.500000  0.750000  1
  Si  Si11  1  0.883534  0.000000  0.616466  1
  Si  Si12  1  0.116466  0.000000  0.383534  1
  Si  Si13  1  0.616466  0.000000  0.116466  1
  Si  Si14  1  0.383534  0.000000  0.883534  1
  Pb  Pb15  1  0.250000  0.500000  0.250000  1
