# generated using pymatgen
data_Ti4ZnAuC2
_symmetry_space_group_name_H-M   'P 1'
_cell_length_a   8.40302547
_cell_length_b   8.40302614
_cell_length_c   4.30804700
_cell_angle_alpha   90.00000000
_cell_angle_beta   90.00000000
_cell_angle_gamma   158.93380965
_symmetry_Int_Tables_number   1
_chemical_formula_structural   Ti4ZnAuC2
_chemical_formula_sum   'Ti4 Zn1 Au1 C2'
_cell_volume   109.34168111
_cell_formula_units_Z   1
loop_
 _symmetry_equiv_pos_site_id
 _symmetry_equiv_pos_as_xyz
  1  'x, y, z'
loop_
 _atom_site_type_symbol
 _atom_site_label
 _atom_site_symmetry_multiplicity
 _atom_site_fract_x
 _atom_site_fract_y
 _atom_site_fract_z
 _atom_site_occupancy
  Ti  Ti0  1  0.786654  0.213346  0.250000  1
  Ti  Ti1  1  0.212108  0.787892  0.750000  1
  Ti  Ti2  1  0.610948  0.389052  0.250000  1
  Ti  Ti3  1  0.387604  0.612396  0.750000  1
  Zn  Zn4  1  0.046718  0.953282  0.750000  1
  Au  Au5  1  0.957956  0.042044  0.250000  1
  C  C6  1  0.196650  0.803350  0.250000  1
  C  C7  1  0.801362  0.198638  0.750000  1
