# generated using pymatgen
data_Ba6Mn4RhO15
_symmetry_space_group_name_H-M   'P 1'
_cell_length_a   7.32749069
_cell_length_b   7.32749178
_cell_length_c   7.32748900
_cell_angle_alpha   88.23033072
_cell_angle_beta   88.23011923
_cell_angle_gamma   88.23034464
_symmetry_Int_Tables_number   1
_chemical_formula_structural   Ba6Mn4RhO15
_chemical_formula_sum   'Ba6 Mn4 Rh1 O15'
_cell_volume   392.87683050
_cell_formula_units_Z   1
loop_
 _symmetry_equiv_pos_site_id
 _symmetry_equiv_pos_as_xyz
  1  'x, y, z'
loop_
 _atom_site_type_symbol
 _atom_site_label
 _atom_site_symmetry_multiplicity
 _atom_site_fract_x
 _atom_site_fract_y
 _atom_site_fract_z
 _atom_site_occupancy
  Ba  Ba0  1  0.346712  0.693397  0.046332  1
  Ba  Ba1  1  0.057698  0.339647  0.693119  1
  Ba  Ba2  1  0.693395  0.050529  0.329981  1
  Ba  Ba3  1  0.214490  0.857712  0.526557  1
  Ba  Ba4  1  0.526449  0.204460  0.857588  1
  Ba  Ba5  1  0.858585  0.525049  0.195751  1
  Mn  Mn6  1  0.286207  0.286217  0.284514  1
  Mn  Mn7  1  0.716877  0.690112  0.662771  1
  Mn  Mn8  1  0.096774  0.092624  0.091025  1
  Mn  Mn9  1  0.885542  0.898276  0.907489  1
  Rh  Rh10  1  0.482395  0.481306  0.482746  1
  O  O11  1  0.150778  0.992828  0.854303  1
  O  O12  1  0.862005  0.155618  0.992065  1
  O  O13  1  0.000192  0.857233  0.151246  1
  O  O14  1  0.044988  0.186825  0.334706  1
  O  O15  1  0.335860  0.044782  0.187867  1
  O  O16  1  0.188450  0.335679  0.043284  1
  O  O17  1  0.792672  0.948156  0.670269  1
  O  O18  1  0.660625  0.839965  0.001231  1
  O  O19  1  0.929368  0.656165  0.822784  1
  O  O20  1  0.382605  0.214357  0.520193  1
  O  O21  1  0.522834  0.380543  0.212185  1
  O  O22  1  0.216084  0.522191  0.381619  1
  O  O23  1  0.579231  0.736443  0.439657  1
  O  O24  1  0.428570  0.572155  0.736519  1
  O  O25  1  0.740611  0.437733  0.574197  1
