# generated using pymatgen
data_Y2Co9Ge(MoAs2)3
_symmetry_space_group_name_H-M   'P 1'
_cell_length_a   3.84130100
_cell_length_b   9.41036462
_cell_length_c   9.41036500
_cell_angle_alpha   119.99999782
_cell_angle_beta   90.00000000
_cell_angle_gamma   90.00000000
_symmetry_Int_Tables_number   1
_chemical_formula_structural   Y2Co9Ge(MoAs2)3
_chemical_formula_sum   'Y2 Co9 Ge1 Mo3 As6'
_cell_volume   294.59264555
_cell_formula_units_Z   1
loop_
 _symmetry_equiv_pos_site_id
 _symmetry_equiv_pos_as_xyz
  1  'x, y, z'
loop_
 _atom_site_type_symbol
 _atom_site_label
 _atom_site_symmetry_multiplicity
 _atom_site_fract_x
 _atom_site_fract_y
 _atom_site_fract_z
 _atom_site_occupancy
  Y  Y0  1  0.000000  0.666667  0.333333  1
  Y  Y1  1  0.500000  0.333333  0.666667  1
  Co  Co2  1  0.000000  0.570004  0.940382  1
  Co  Co3  1  0.000000  0.370379  0.429996  1
  Co  Co4  1  0.000000  0.059618  0.629621  1
  Co  Co5  1  0.000000  0.876057  0.159754  1
  Co  Co6  1  0.000000  0.283696  0.123943  1
  Co  Co7  1  0.000000  0.840246  0.716304  1
  Co  Co8  1  0.500000  0.950133  0.383256  1
  Co  Co9  1  0.500000  0.433122  0.049867  1
  Co  Co10  1  0.500000  0.616744  0.566878  1
  Ge  Ge11  1  0.000000  0.000000  0.000000  1
  Mo  Mo12  1  0.500000  0.781841  0.901709  1
  Mo  Mo13  1  0.500000  0.119868  0.218159  1
  Mo  Mo14  1  0.500000  0.098291  0.880132  1
  As  As15  1  0.500000  0.707813  0.119624  1
  As  As16  1  0.500000  0.411811  0.292187  1
  As  As17  1  0.500000  0.880376  0.588189  1
  As  As18  1  0.000000  0.586107  0.699382  1
  As  As19  1  0.000000  0.113275  0.413893  1
  As  As20  1  0.000000  0.300618  0.886725  1
