# generated using pymatgen
data_Ce8Ti5Nb7Si16
_symmetry_space_group_name_H-M   'P 1'
_cell_length_a   7.10788838
_cell_length_b   7.10580420
_cell_length_c   13.21864861
_cell_angle_alpha   89.98390389
_cell_angle_beta   89.96924467
_cell_angle_gamma   89.97824641
_symmetry_Int_Tables_number   1
_chemical_formula_structural   Ce8Ti5Nb7Si16
_chemical_formula_sum   'Ce8 Ti5 Nb7 Si16'
_cell_volume   667.63759263
_cell_formula_units_Z   1
loop_
 _symmetry_equiv_pos_site_id
 _symmetry_equiv_pos_as_xyz
  1  'x, y, z'
loop_
 _atom_site_type_symbol
 _atom_site_label
 _atom_site_symmetry_multiplicity
 _atom_site_fract_x
 _atom_site_fract_y
 _atom_site_fract_z
 _atom_site_occupancy
  Ce  Ce0  1  0.994421  0.664903  0.032276  1
  Ce  Ce1  1  0.005632  0.334311  0.533058  1
  Ce  Ce2  1  0.665828  0.994231  0.966940  1
  Ce  Ce3  1  0.166305  0.506031  0.782425  1
  Ce  Ce4  1  0.834926  0.494506  0.282681  1
  Ce  Ce5  1  0.506103  0.165864  0.216958  1
  Ce  Ce6  1  0.494235  0.833845  0.717829  1
  Ce  Ce7  1  0.335216  0.005342  0.467507  1
  Ti  Ti8  1  0.993194  0.843645  0.622713  1
  Ti  Ti9  1  0.507137  0.342426  0.626773  1
  Ti  Ti10  1  0.156634  0.007014  0.876957  1
  Ti  Ti11  1  0.493351  0.656162  0.127203  1
  Ti  Ti12  1  0.657397  0.492520  0.872892  1
  Nb  Nb13  1  0.343755  0.506122  0.372933  1
  Nb  Nb14  1  0.843626  0.994166  0.376590  1
  Nb  Nb15  1  0.006183  0.156715  0.123255  1
  Nb  Nb16  1  0.669859  0.671071  0.499795  1
  Nb  Nb17  1  0.828828  0.170607  0.750135  1
  Nb  Nb18  1  0.169553  0.830108  0.250265  1
  Nb  Nb19  1  0.328669  0.329252  0.000180  1
  Si  Si20  1  0.042557  0.706906  0.435565  1
  Si  Si21  1  0.957312  0.293439  0.933777  1
  Si  Si22  1  0.706409  0.042637  0.566524  1
  Si  Si23  1  0.207686  0.458536  0.183990  1
  Si  Si24  1  0.792315  0.542899  0.684723  1
  Si  Si25  1  0.457269  0.207065  0.815402  1
  Si  Si26  1  0.542433  0.793330  0.314641  1
  Si  Si27  1  0.294229  0.955902  0.065044  1
  Si  Si28  1  0.797359  0.869522  0.186849  1
  Si  Si29  1  0.298548  0.628629  0.563125  1
  Si  Si30  1  0.700495  0.373297  0.061793  1
  Si  Si31  1  0.628686  0.298056  0.437943  1
  Si  Si32  1  0.372026  0.700680  0.937994  1
  Si  Si33  1  0.129267  0.203366  0.313162  1
  Si  Si34  1  0.200458  0.127687  0.688459  1
  Si  Si35  1  0.872100  0.799210  0.811642  1
