# generated using pymatgen
data_TaBe8Os3
_symmetry_space_group_name_H-M   'P 1'
_cell_length_a   4.40195300
_cell_length_b   4.40195314
_cell_length_c   7.20971800
_cell_angle_alpha   90.00000000
_cell_angle_beta   90.00000000
_cell_angle_gamma   120.00000644
_symmetry_Int_Tables_number   1
_chemical_formula_structural   TaBe8Os3
_chemical_formula_sum   'Ta1 Be8 Os3'
_cell_volume   120.98727582
_cell_formula_units_Z   1
loop_
 _symmetry_equiv_pos_site_id
 _symmetry_equiv_pos_as_xyz
  1  'x, y, z'
loop_
 _atom_site_type_symbol
 _atom_site_label
 _atom_site_symmetry_multiplicity
 _atom_site_fract_x
 _atom_site_fract_y
 _atom_site_fract_z
 _atom_site_occupancy
  Ta  Ta0  1  0.333333  0.666667  0.062757  1
  Be  Be1  1  0.000000  0.000000  0.502876  1
  Be  Be2  1  0.000000  0.000000  0.994582  1
  Be  Be3  1  0.830070  0.169930  0.260489  1
  Be  Be4  1  0.830070  0.660138  0.260489  1
  Be  Be5  1  0.339862  0.169930  0.260489  1
  Be  Be6  1  0.167693  0.832307  0.740730  1
  Be  Be7  1  0.167693  0.335386  0.740730  1
  Be  Be8  1  0.664614  0.832307  0.740730  1
  Os  Os9  1  0.333333  0.666667  0.430217  1
  Os  Os10  1  0.666667  0.333333  0.561208  1
  Os  Os11  1  0.666667  0.333333  0.944701  1
