# generated using pymatgen
data_TbYbAg2(Ru2O7)2
_symmetry_space_group_name_H-M   'P 1'
_cell_length_a   7.21162557
_cell_length_b   7.21162568
_cell_length_c   7.35404525
_cell_angle_alpha   59.36905397
_cell_angle_beta   59.36905021
_cell_angle_gamma   59.12748358
_symmetry_Int_Tables_number   1
_chemical_formula_structural   TbYbAg2(Ru2O7)2
_chemical_formula_sum   'Tb1 Yb1 Ag2 Ru4 O14'
_cell_volume   266.05940351
_cell_formula_units_Z   1
loop_
 _symmetry_equiv_pos_site_id
 _symmetry_equiv_pos_as_xyz
  1  'x, y, z'
loop_
 _atom_site_type_symbol
 _atom_site_label
 _atom_site_symmetry_multiplicity
 _atom_site_fract_x
 _atom_site_fract_y
 _atom_site_fract_z
 _atom_site_occupancy
  Tb  Tb0  1  0.125000  0.125000  0.125000  1
  Yb  Yb1  1  0.125000  0.125000  0.625000  1
  Ag  Ag2  1  0.625000  0.125000  0.125000  1
  Ag  Ag3  1  0.125000  0.625000  0.125000  1
  Ru  Ru4  1  0.625000  0.625000  0.625000  1
  Ru  Ru5  1  0.125000  0.625000  0.625000  1
  Ru  Ru6  1  0.625000  0.625000  0.125000  1
  Ru  Ru7  1  0.625000  0.125000  0.625000  1
  O  O8  1  0.990905  0.990905  0.013194  1
  O  O9  1  0.259095  0.259095  0.236806  1
  O  O10  1  0.291887  0.291887  0.709774  1
  O  O11  1  0.560308  0.560308  0.940038  1
  O  O12  1  0.697072  0.303012  0.691298  1
  O  O13  1  0.704251  0.300810  0.303003  1
  O  O14  1  0.303012  0.697072  0.691298  1
  O  O15  1  0.300810  0.704251  0.303003  1
  O  O16  1  0.689692  0.689692  0.309962  1
  O  O17  1  0.946988  0.552928  0.558702  1
  O  O18  1  0.545749  0.949190  0.946997  1
  O  O19  1  0.958113  0.958113  0.540226  1
  O  O20  1  0.949190  0.545749  0.946997  1
  O  O21  1  0.552928  0.946988  0.558702  1
