# generated using pymatgen
data_Dy2Ho6Ti3Si16W9
_symmetry_space_group_name_H-M   'P 1'
_cell_length_a   6.89820422
_cell_length_b   6.89815950
_cell_length_c   12.80151334
_cell_angle_alpha   89.99176433
_cell_angle_beta   89.99222273
_cell_angle_gamma   89.86858867
_symmetry_Int_Tables_number   1
_chemical_formula_structural   Dy2Ho6Ti3Si16W9
_chemical_formula_sum   'Dy2 Ho6 Ti3 Si16 W9'
_cell_volume   609.15728445
_cell_formula_units_Z   1
loop_
 _symmetry_equiv_pos_site_id
 _symmetry_equiv_pos_as_xyz
  1  'x, y, z'
loop_
 _atom_site_type_symbol
 _atom_site_label
 _atom_site_symmetry_multiplicity
 _atom_site_fract_x
 _atom_site_fract_y
 _atom_site_fract_z
 _atom_site_occupancy
  Dy  Dy0  1  0.339329  0.002408  0.468515  1
  Dy  Dy1  1  0.496740  0.838123  0.719220  1
  Ho  Ho2  1  0.499687  0.161927  0.217500  1
  Ho  Ho3  1  0.838277  0.496864  0.280816  1
  Ho  Ho4  1  0.161754  0.499528  0.782440  1
  Ho  Ho5  1  0.659929  0.999288  0.968803  1
  Ho  Ho6  1  0.001941  0.339569  0.531456  1
  Ho  Ho7  1  0.999145  0.659822  0.031228  1
  Ti  Ti8  1  0.170534  0.831228  0.248542  1
  Ti  Ti9  1  0.831339  0.170643  0.751377  1
  Ti  Ti10  1  0.669297  0.669016  0.499946  1
  Si  Si11  1  0.200040  0.130055  0.683119  1
  Si  Si12  1  0.372670  0.698395  0.933446  1
  Si  Si13  1  0.629650  0.299218  0.433255  1
  Si  Si14  1  0.698454  0.372718  0.066708  1
  Si  Si15  1  0.298706  0.628673  0.566604  1
  Si  Si16  1  0.797347  0.871228  0.183756  1
  Si  Si17  1  0.129538  0.200714  0.316812  1
  Si  Si18  1  0.871679  0.797465  0.816333  1
  Si  Si19  1  0.288956  0.962403  0.062400  1
  Si  Si20  1  0.540203  0.791488  0.313781  1
  Si  Si21  1  0.458747  0.209648  0.814320  1
  Si  Si22  1  0.791901  0.539606  0.686034  1
  Si  Si23  1  0.209183  0.458645  0.185796  1
  Si  Si24  1  0.710095  0.041334  0.563927  1
  Si  Si25  1  0.962352  0.288904  0.937562  1
  Si  Si26  1  0.040773  0.709146  0.436059  1
  W  W27  1  0.331348  0.331289  0.999984  1
  W  W28  1  0.157983  0.002808  0.873791  1
  W  W29  1  0.495002  0.664899  0.124545  1
  W  W30  1  0.505443  0.340475  0.624808  1
  W  W31  1  0.665070  0.494800  0.875514  1
  W  W32  1  0.340313  0.505282  0.375237  1
  W  W33  1  0.840002  0.994188  0.374339  1
  W  W34  1  0.002612  0.158202  0.126322  1
  W  W35  1  0.993959  0.840001  0.625702  1
