# generated using pymatgen
data_NdLu(NbSe2)6
_symmetry_space_group_name_H-M   'P 1'
_cell_length_a   6.10297100
_cell_length_b   6.10297132
_cell_length_c   14.52196000
_cell_angle_alpha   90.00000000
_cell_angle_beta   90.00000000
_cell_angle_gamma   120.00000371
_symmetry_Int_Tables_number   1
_chemical_formula_structural   NdLu(NbSe2)6
_chemical_formula_sum   'Nd1 Lu1 Nb6 Se12'
_cell_volume   468.42329712
_cell_formula_units_Z   1
loop_
 _symmetry_equiv_pos_site_id
 _symmetry_equiv_pos_as_xyz
  1  'x, y, z'
loop_
 _atom_site_type_symbol
 _atom_site_label
 _atom_site_symmetry_multiplicity
 _atom_site_fract_x
 _atom_site_fract_y
 _atom_site_fract_z
 _atom_site_occupancy
  Nd  Nd0  1  0.666667  0.333333  0.750000  1
  Lu  Lu1  1  0.333333  0.666667  0.250000  1
  Nb  Nb2  1  0.333333  0.666667  0.007940  1
  Nb  Nb3  1  0.000000  0.000000  0.007183  1
  Nb  Nb4  1  0.666667  0.333333  0.004820  1
  Nb  Nb5  1  0.333333  0.666667  0.492060  1
  Nb  Nb6  1  0.000000  0.000000  0.492817  1
  Nb  Nb7  1  0.666667  0.333333  0.495180  1
  Se  Se8  1  0.671947  0.665031  0.377918  1
  Se  Se9  1  0.666214  0.674908  0.608486  1
  Se  Se10  1  0.008694  0.674908  0.891514  1
  Se  Se11  1  0.666214  0.991306  0.891514  1
  Se  Se12  1  0.671947  0.006917  0.122082  1
  Se  Se13  1  0.334969  0.006917  0.377918  1
  Se  Se14  1  0.008694  0.333786  0.608486  1
  Se  Se15  1  0.325092  0.991306  0.608486  1
  Se  Se16  1  0.993083  0.665031  0.122082  1
  Se  Se17  1  0.325092  0.333786  0.891514  1
  Se  Se18  1  0.993083  0.328053  0.377918  1
  Se  Se19  1  0.334969  0.328053  0.122082  1
