# generated using pymatgen
data_Tm6Al6Cu2Si3Au
_symmetry_space_group_name_H-M   'P 1'
_cell_length_a   6.85875500
_cell_length_b   6.85875642
_cell_length_c   8.37653800
_cell_angle_alpha   90.00000000
_cell_angle_beta   90.00000000
_cell_angle_gamma   119.99998831
_symmetry_Int_Tables_number   1
_chemical_formula_structural   Tm6Al6Cu2Si3Au
_chemical_formula_sum   'Tm6 Al6 Cu2 Si3 Au1'
_cell_volume   341.26041576
_cell_formula_units_Z   1
loop_
 _symmetry_equiv_pos_site_id
 _symmetry_equiv_pos_as_xyz
  1  'x, y, z'
loop_
 _atom_site_type_symbol
 _atom_site_label
 _atom_site_symmetry_multiplicity
 _atom_site_fract_x
 _atom_site_fract_y
 _atom_site_fract_z
 _atom_site_occupancy
  Tm  Tm0  1  0.589484  0.000632  0.745072  1
  Tm  Tm1  1  0.999368  0.588851  0.745072  1
  Tm  Tm2  1  0.411149  0.410516  0.745072  1
  Tm  Tm3  1  0.999347  0.588854  0.254855  1
  Tm  Tm4  1  0.589507  0.000653  0.254855  1
  Tm  Tm5  1  0.411146  0.410493  0.254855  1
  Al  Al6  1  0.757143  0.760660  0.000018  1
  Al  Al7  1  0.239340  0.996483  0.000018  1
  Al  Al8  1  0.003517  0.242857  0.000018  1
  Al  Al9  1  0.762997  0.762737  0.500007  1
  Al  Al10  1  0.237263  0.000259  0.500007  1
  Al  Al11  1  0.999741  0.237003  0.500007  1
  Cu  Cu12  1  0.000000  0.000000  0.750935  1
  Cu  Cu13  1  0.000000  0.000000  0.249411  1
  Si  Si14  1  0.666667  0.333333  0.999923  1
  Si  Si15  1  0.666667  0.333333  0.499954  1
  Si  Si16  1  0.333333  0.666667  0.499942  1
  Au  Au17  1  0.333333  0.666667  0.999979  1
