# generated using pymatgen
data_Ta3Ti5Ga2(C2O)2
_symmetry_space_group_name_H-M   'P 1'
_cell_length_a   3.07641200
_cell_length_b   3.07641155
_cell_length_c   23.80193600
_cell_angle_alpha   90.00000000
_cell_angle_beta   90.00000000
_cell_angle_gamma   119.99998335
_symmetry_Int_Tables_number   1
_chemical_formula_structural   Ta3Ti5Ga2(C2O)2
_chemical_formula_sum   'Ta3 Ti5 Ga2 C4 O2'
_cell_volume   195.08861129
_cell_formula_units_Z   1
loop_
 _symmetry_equiv_pos_site_id
 _symmetry_equiv_pos_as_xyz
  1  'x, y, z'
loop_
 _atom_site_type_symbol
 _atom_site_label
 _atom_site_symmetry_multiplicity
 _atom_site_fract_x
 _atom_site_fract_y
 _atom_site_fract_z
 _atom_site_occupancy
  Ta  Ta0  1  0.000000  0.000000  0.342246  1
  Ta  Ta1  1  0.000000  0.000000  0.657259  1
  Ta  Ta2  1  0.000000  0.000000  0.843202  1
  Ti  Ti3  1  0.000000  0.000000  0.155431  1
  Ti  Ti4  1  0.333333  0.666667  0.442309  1
  Ti  Ti5  1  0.666667  0.333333  0.557455  1
  Ti  Ti6  1  0.666667  0.333333  0.943589  1
  Ti  Ti7  1  0.333333  0.666667  0.059015  1
  Ga  Ga8  1  0.333333  0.666667  0.247010  1
  Ga  Ga9  1  0.666667  0.333333  0.750224  1
  C  C10  1  0.666667  0.333333  0.394456  1
  C  C11  1  0.333333  0.666667  0.605063  1
  C  C12  1  0.333333  0.666667  0.895388  1
  C  C13  1  0.666667  0.333333  0.107083  1
  O  O14  1  0.000000  0.000000  0.500255  1
  O  O15  1  0.000000  0.000000  0.000015  1
