# generated using pymatgen
data_Pa3PSe2
_symmetry_space_group_name_H-M   'P 1'
_cell_length_a   4.01608807
_cell_length_b   6.93951899
_cell_length_c   7.04757100
_cell_angle_alpha   80.68282989
_cell_angle_beta   73.47568030
_cell_angle_gamma   125.37883208
_symmetry_Int_Tables_number   1
_chemical_formula_structural   Pa3PSe2
_chemical_formula_sum   'Pa3 P1 Se2'
_cell_volume   139.48882267
_cell_formula_units_Z   1
loop_
 _symmetry_equiv_pos_site_id
 _symmetry_equiv_pos_as_xyz
  1  'x, y, z'
loop_
 _atom_site_type_symbol
 _atom_site_label
 _atom_site_symmetry_multiplicity
 _atom_site_fract_x
 _atom_site_fract_y
 _atom_site_fract_z
 _atom_site_occupancy
  Pa  Pa0  1  0.301297  0.592116  0.338060  1
  Pa  Pa1  1  0.920973  0.901777  0.717836  1
  Pa  Pa2  1  0.611018  0.246782  0.028060  1
  P  P3  1  0.110957  0.746823  0.027950  1
  Se  Se4  1  0.770031  0.076517  0.369544  1
  Se  Se5  1  0.452203  0.417294  0.686435  1
