# generated using pymatgen
data_Er12Mn(Si4Os)3
_symmetry_space_group_name_H-M   'P 1'
_cell_length_a   4.19783700
_cell_length_b   10.60745381
_cell_length_c   12.22035600
_cell_angle_alpha   89.95826829
_cell_angle_beta   90.00000000
_cell_angle_gamma   90.00000000
_symmetry_Int_Tables_number   1
_chemical_formula_structural   Er12Mn(Si4Os)3
_chemical_formula_sum   'Er12 Mn1 Si12 Os3'
_cell_volume   544.15229256
_cell_formula_units_Z   1
loop_
 _symmetry_equiv_pos_site_id
 _symmetry_equiv_pos_as_xyz
  1  'x, y, z'
loop_
 _atom_site_type_symbol
 _atom_site_label
 _atom_site_symmetry_multiplicity
 _atom_site_fract_x
 _atom_site_fract_y
 _atom_site_fract_z
 _atom_site_occupancy
  Er  Er0  1  0.250000  0.880394  0.020936  1
  Er  Er1  1  0.250000  0.620938  0.521379  1
  Er  Er2  1  0.750000  0.119728  0.979348  1
  Er  Er3  1  0.750000  0.380086  0.476823  1
  Er  Er4  1  0.250000  0.920284  0.603648  1
  Er  Er5  1  0.250000  0.580073  0.105244  1
  Er  Er6  1  0.750000  0.079218  0.394366  1
  Er  Er7  1  0.750000  0.420574  0.897534  1
  Er  Er8  1  0.250000  0.662429  0.801480  1
  Er  Er9  1  0.250000  0.838747  0.300172  1
  Er  Er10  1  0.750000  0.338951  0.199761  1
  Er  Er11  1  0.750000  0.160188  0.699801  1
  Mn  Mn12  1  0.250000  0.387388  0.681125  1
  Si  Si13  1  0.250000  0.008412  0.820393  1
  Si  Si14  1  0.250000  0.490895  0.321784  1
  Si  Si15  1  0.750000  0.989962  0.179224  1
  Si  Si16  1  0.750000  0.514711  0.677490  1
  Si  Si17  1  0.250000  0.247914  0.843553  1
  Si  Si18  1  0.250000  0.250934  0.340413  1
  Si  Si19  1  0.750000  0.751416  0.158556  1
  Si  Si20  1  0.750000  0.750429  0.659201  1
  Si  Si21  1  0.250000  0.196546  0.541157  1
  Si  Si22  1  0.250000  0.298173  0.044495  1
  Si  Si23  1  0.750000  0.798358  0.455752  1
  Si  Si24  1  0.750000  0.702712  0.956844  1
  Os  Os25  1  0.250000  0.110427  0.179553  1
  Os  Os26  1  0.750000  0.610376  0.319401  1
  Os  Os27  1  0.750000  0.889739  0.820564  1
