# generated using pymatgen
data_Tm4Ni2(OsRu)3
_symmetry_space_group_name_H-M   'P 1'
_cell_length_a   5.12186159
_cell_length_b   5.24106696
_cell_length_c   8.73036200
_cell_angle_alpha   90.00000000
_cell_angle_beta   90.00000000
_cell_angle_gamma   119.17403868
_symmetry_Int_Tables_number   1
_chemical_formula_structural   Tm4Ni2(OsRu)3
_chemical_formula_sum   'Tm4 Ni2 Os3 Ru3'
_cell_volume   204.62806388
_cell_formula_units_Z   1
loop_
 _symmetry_equiv_pos_site_id
 _symmetry_equiv_pos_as_xyz
  1  'x, y, z'
loop_
 _atom_site_type_symbol
 _atom_site_label
 _atom_site_symmetry_multiplicity
 _atom_site_fract_x
 _atom_site_fract_y
 _atom_site_fract_z
 _atom_site_occupancy
  Tm  Tm0  1  0.664666  0.333108  0.564629  1
  Tm  Tm1  1  0.331867  0.667247  0.435223  1
  Tm  Tm2  1  0.331867  0.667247  0.064777  1
  Tm  Tm3  1  0.664666  0.333108  0.935371  1
  Ni  Ni4  1  0.167905  0.335419  0.750000  1
  Ni  Ni5  1  0.835655  0.664320  0.250000  1
  Os  Os6  1  0.177266  0.834159  0.750000  1
  Os  Os7  1  0.660031  0.834649  0.750000  1
  Os  Os8  1  0.831014  0.165735  0.250000  1
  Ru  Ru9  1  0.992917  0.999595  0.499524  1
  Ru  Ru10  1  0.992917  0.999595  0.000476  1
  Ru  Ru11  1  0.349228  0.165814  0.250000  1
