# generated using pymatgen
data_HoTmThGa2
_symmetry_space_group_name_H-M   'P 1'
_cell_length_a   7.65565600
_cell_length_b   7.65976900
_cell_length_c   4.38701400
_cell_angle_alpha   90.00000000
_cell_angle_beta   90.00000000
_cell_angle_gamma   90.00000000
_symmetry_Int_Tables_number   1
_chemical_formula_structural   HoTmThGa2
_chemical_formula_sum   'Ho2 Tm2 Th2 Ga4'
_cell_volume   257.25694235
_cell_formula_units_Z   2
loop_
 _symmetry_equiv_pos_site_id
 _symmetry_equiv_pos_as_xyz
  1  'x, y, z'
loop_
 _atom_site_type_symbol
 _atom_site_label
 _atom_site_symmetry_multiplicity
 _atom_site_fract_x
 _atom_site_fract_y
 _atom_site_fract_z
 _atom_site_occupancy
  Ho  Ho0  1  0.676039  0.175507  0.500000  1
  Ho  Ho1  1  0.176039  0.324493  0.500000  1
  Tm  Tm2  1  0.000096  0.004078  0.000000  1
  Tm  Tm3  1  0.500096  0.495922  0.000000  1
  Th  Th4  1  0.825211  0.673545  0.500000  1
  Th  Th5  1  0.325211  0.826455  0.500000  1
  Ga  Ga6  1  0.877674  0.376110  0.000000  1
  Ga  Ga7  1  0.377674  0.123890  0.000000  1
  Ga  Ga8  1  0.620981  0.882453  0.000000  1
  Ga  Ga9  1  0.120981  0.617547  0.000000  1
