# generated using pymatgen
data_DyTm(Al3Ni)6
_symmetry_space_group_name_H-M   'P 1'
_cell_length_a   10.07182724
_cell_length_b   10.07182705
_cell_length_c   10.07182800
_cell_angle_alpha   42.37987922
_cell_angle_beta   42.37988039
_cell_angle_gamma   42.37987899
_symmetry_Int_Tables_number   1
_chemical_formula_structural   DyTm(Al3Ni)6
_chemical_formula_sum   'Dy1 Tm1 Al18 Ni6'
_cell_volume   420.21743379
_cell_formula_units_Z   1
loop_
 _symmetry_equiv_pos_site_id
 _symmetry_equiv_pos_as_xyz
  1  'x, y, z'
loop_
 _atom_site_type_symbol
 _atom_site_label
 _atom_site_symmetry_multiplicity
 _atom_site_fract_x
 _atom_site_fract_y
 _atom_site_fract_z
 _atom_site_occupancy
  Dy  Dy0  1  0.833095  0.833095  0.833095  1
  Tm  Tm1  1  0.166904  0.166904  0.166904  1
  Al  Al2  1  0.102925  0.432231  0.762736  1
  Al  Al3  1  0.432231  0.762736  0.102925  1
  Al  Al4  1  0.567229  0.897346  0.237531  1
  Al  Al5  1  0.947987  0.947987  0.947987  1
  Al  Al6  1  0.052070  0.052070  0.052070  1
  Al  Al7  1  0.291310  0.709060  0.499634  1
  Al  Al8  1  0.897346  0.237531  0.567229  1
  Al  Al9  1  0.387065  0.387065  0.387065  1
  Al  Al10  1  0.499634  0.291310  0.709060  1
  Al  Al11  1  0.237531  0.567229  0.897346  1
  Al  Al12  1  0.718214  0.718214  0.718214  1
  Al  Al13  1  0.612930  0.612930  0.612930  1
  Al  Al14  1  0.334122  0.000019  0.665866  1
  Al  Al15  1  0.709060  0.499634  0.291310  1
  Al  Al16  1  0.665866  0.334122  0.000019  1
  Al  Al17  1  0.281739  0.281739  0.281739  1
  Al  Al18  1  0.000019  0.665866  0.334122  1
  Al  Al19  1  0.762736  0.102925  0.432231  1
  Ni  Ni20  1  0.418312  0.078388  0.758688  1
  Ni  Ni21  1  0.581368  0.241451  0.921782  1
  Ni  Ni22  1  0.078388  0.758688  0.418312  1
  Ni  Ni23  1  0.758688  0.418312  0.078388  1
  Ni  Ni24  1  0.921782  0.581368  0.241451  1
  Ni  Ni25  1  0.241451  0.921782  0.581368  1
