# generated using pymatgen
data_Dy5P12Ir11(Ru3W)2
_symmetry_space_group_name_H-M   'P 1'
_cell_length_a   12.67596143
_cell_length_b   12.55714917
_cell_length_c   3.98507100
_cell_angle_alpha   90.00000000
_cell_angle_beta   90.00000000
_cell_angle_gamma   119.84571004
_symmetry_Int_Tables_number   1
_chemical_formula_structural   Dy5P12Ir11(Ru3W)2
_chemical_formula_sum   'Dy5 P12 Ir11 Ru6 W2'
_cell_volume   550.18883129
_cell_formula_units_Z   1
loop_
 _symmetry_equiv_pos_site_id
 _symmetry_equiv_pos_as_xyz
  1  'x, y, z'
loop_
 _atom_site_type_symbol
 _atom_site_label
 _atom_site_symmetry_multiplicity
 _atom_site_fract_x
 _atom_site_fract_y
 _atom_site_fract_z
 _atom_site_occupancy
  Dy  Dy0  1  0.664461  0.331069  0.000000  1
  Dy  Dy1  1  0.336543  0.670224  0.000000  1
  Dy  Dy2  1  0.813145  0.001558  0.500000  1
  Dy  Dy3  1  0.184444  0.185669  0.500000  1
  Dy  Dy4  1  0.999724  0.812105  0.500000  1
  P  P5  1  0.634560  0.000196  0.000000  1
  P  P6  1  0.361792  0.363928  0.000000  1
  P  P7  1  0.000227  0.636632  0.000000  1
  P  P8  1  0.686987  0.517848  0.500000  1
  P  P9  1  0.829752  0.306997  0.500000  1
  P  P10  1  0.320596  0.837029  0.500000  1
  P  P11  1  0.522785  0.688431  0.500000  1
  P  P12  1  0.176675  0.998908  0.000000  1
  P  P13  1  0.820238  0.819000  0.000000  1
  P  P14  1  0.996718  0.183538  0.000000  1
  P  P15  1  0.476829  0.162148  0.500000  1
  P  P16  1  0.170747  0.482261  0.500000  1
  Ir  Ir17  1  0.627255  0.804933  0.000000  1
  Ir  Ir18  1  0.181147  0.377884  0.000000  1
  Ir  Ir19  1  0.370503  0.179676  0.000000  1
  Ir  Ir20  1  0.192433  0.818070  0.000000  1
  Ir  Ir21  1  0.805170  0.621384  0.000000  1
  Ir  Ir22  1  0.868254  0.505636  0.500000  1
  Ir  Ir23  1  0.494265  0.358248  0.500000  1
  Ir  Ir24  1  0.637392  0.128738  0.500000  1
  Ir  Ir25  1  0.135813  0.642562  0.500000  1
  Ir  Ir26  1  0.361890  0.492227  0.500000  1
  Ir  Ir27  1  0.997778  0.001515  0.000000  1
  Ru  Ru28  1  0.512990  0.870008  0.500000  1
  Ru  Ru29  1  0.717683  0.714215  0.500000  1
  Ru  Ru30  1  0.002079  0.288814  0.500000  1
  Ru  Ru31  1  0.002371  0.456031  0.000000  1
  Ru  Ru32  1  0.819466  0.197671  0.000000  1
  Ru  Ru33  1  0.280825  0.998264  0.500000  1
  W  W34  1  0.446084  0.998452  0.000000  1
  W  W35  1  0.550374  0.548127  0.000000  1
