# generated using pymatgen
data_Sc8HgPb3Au8
_symmetry_space_group_name_H-M   'P 1'
_cell_length_a   7.80742900
_cell_length_b   7.80742900
_cell_length_c   6.97130300
_cell_angle_alpha   90.00000000
_cell_angle_beta   90.00000000
_cell_angle_gamma   90.00000000
_symmetry_Int_Tables_number   1
_chemical_formula_structural   Sc8HgPb3Au8
_chemical_formula_sum   'Sc8 Hg1 Pb3 Au8'
_cell_volume   424.94238030
_cell_formula_units_Z   1
loop_
 _symmetry_equiv_pos_site_id
 _symmetry_equiv_pos_as_xyz
  1  'x, y, z'
loop_
 _atom_site_type_symbol
 _atom_site_label
 _atom_site_symmetry_multiplicity
 _atom_site_fract_x
 _atom_site_fract_y
 _atom_site_fract_z
 _atom_site_occupancy
  Sc  Sc0  1  0.144793  0.156114  0.996934  1
  Sc  Sc1  1  0.855207  0.843886  0.996934  1
  Sc  Sc2  1  0.656114  0.355207  0.503066  1
  Sc  Sc3  1  0.343886  0.644793  0.503066  1
  Sc  Sc4  1  0.686740  0.322565  0.997396  1
  Sc  Sc5  1  0.313260  0.677435  0.997396  1
  Sc  Sc6  1  0.822565  0.813260  0.502604  1
  Sc  Sc7  1  0.177435  0.186740  0.502604  1
  Hg  Hg8  1  0.000000  0.500000  0.750000  1
  Pb  Pb9  1  0.500000  0.000000  0.250000  1
  Pb  Pb10  1  0.500000  0.000000  0.750000  1
  Pb  Pb11  1  0.000000  0.500000  0.250000  1
  Au  Au12  1  0.373056  0.369767  0.217524  1
  Au  Au13  1  0.631649  0.627412  0.781512  1
  Au  Au14  1  0.626944  0.630233  0.217524  1
  Au  Au15  1  0.872588  0.131649  0.718488  1
  Au  Au16  1  0.869767  0.126944  0.282476  1
  Au  Au17  1  0.368351  0.372588  0.781512  1
  Au  Au18  1  0.130233  0.873056  0.282476  1
  Au  Au19  1  0.127412  0.868351  0.718488  1
