# generated using pymatgen
data_Tm4HfIr3F28
_symmetry_space_group_name_H-M   'P 1'
_cell_length_a   5.53621344
_cell_length_b   8.79282373
_cell_length_c   11.79864100
_cell_angle_alpha   63.03272547
_cell_angle_beta   89.91966892
_cell_angle_gamma   90.02153939
_symmetry_Int_Tables_number   1
_chemical_formula_structural   Tm4HfIr3F28
_chemical_formula_sum   'Tm4 Hf1 Ir3 F28'
_cell_volume   511.89355035
_cell_formula_units_Z   1
loop_
 _symmetry_equiv_pos_site_id
 _symmetry_equiv_pos_as_xyz
  1  'x, y, z'
loop_
 _atom_site_type_symbol
 _atom_site_label
 _atom_site_symmetry_multiplicity
 _atom_site_fract_x
 _atom_site_fract_y
 _atom_site_fract_z
 _atom_site_occupancy
  Tm  Tm0  1  0.257371  0.812287  0.273274  1
  Tm  Tm1  1  0.739685  0.186064  0.733680  1
  Tm  Tm2  1  0.761422  0.185178  0.235351  1
  Tm  Tm3  1  0.240641  0.815739  0.762092  1
  Hf  Hf4  1  0.754041  0.726366  0.044333  1
  Ir  Ir5  1  0.241807  0.272929  0.954087  1
  Ir  Ir6  1  0.257956  0.271929  0.456795  1
  Ir  Ir7  1  0.743931  0.725799  0.545770  1
  F  F8  1  0.944526  0.703893  0.416272  1
  F  F9  1  0.050701  0.295605  0.582805  1
  F  F10  1  0.442923  0.297135  0.080660  1
  F  F11  1  0.528194  0.707775  0.920072  1
  F  F12  1  0.481094  0.732095  0.153194  1
  F  F13  1  0.529971  0.276867  0.853219  1
  F  F14  1  0.970352  0.267216  0.361032  1
  F  F15  1  0.036129  0.729480  0.639403  1
  F  F16  1  0.971846  0.751817  0.171089  1
  F  F17  1  0.046518  0.252280  0.823847  1
  F  F18  1  0.459481  0.252936  0.325837  1
  F  F19  1  0.548712  0.744719  0.678440  1
  F  F20  1  0.772010  0.472661  0.143126  1
  F  F21  1  0.224429  0.519082  0.854589  1
  F  F22  1  0.263811  0.519425  0.359789  1
  F  F23  1  0.737874  0.478647  0.642453  1
  F  F24  1  0.942325  0.274913  0.047557  1
  F  F25  1  0.049435  0.719814  0.947405  1
  F  F26  1  0.443764  0.715591  0.458190  1
  F  F27  1  0.554048  0.283751  0.545440  1
  F  F28  1  0.742153  0.973448  0.451951  1
  F  F29  1  0.262153  0.023922  0.548655  1
  F  F30  1  0.250678  0.026456  0.049943  1
  F  F31  1  0.757776  0.979679  0.941113  1
  F  F32  1  0.571435  0.974582  0.235988  1
  F  F33  1  0.422184  0.028761  0.763750  1
  F  F34  1  0.075868  0.027074  0.269653  1
  F  F35  1  0.922748  0.974086  0.729141  1
