# generated using pymatgen
data_La6SnIrI6
_symmetry_space_group_name_H-M   'P 1'
_cell_length_a   11.36045220
_cell_length_b   11.36068870
_cell_length_c   11.05814079
_cell_angle_alpha   109.75297391
_cell_angle_beta   109.74968740
_cell_angle_gamma   109.99386364
_symmetry_Int_Tables_number   1
_chemical_formula_structural   La6SnIrI6
_chemical_formula_sum   'La12 Sn2 Ir2 I12'
_cell_volume   1083.71713362
_cell_formula_units_Z   2
loop_
 _symmetry_equiv_pos_site_id
 _symmetry_equiv_pos_as_xyz
  1  'x, y, z'
loop_
 _atom_site_type_symbol
 _atom_site_label
 _atom_site_symmetry_multiplicity
 _atom_site_fract_x
 _atom_site_fract_y
 _atom_site_fract_z
 _atom_site_occupancy
  La  La0  1  0.458898  0.491172  0.211338  1
  La  La1  1  0.779940  0.247611  0.288726  1
  La  La2  1  0.769093  0.027950  0.503247  1
  La  La3  1  0.234166  0.475304  0.503226  1
  La  La4  1  0.252441  0.720137  0.211325  1
  La  La5  1  0.024708  0.265801  0.996803  1
  La  La6  1  0.008761  0.041089  0.288640  1
  La  La7  1  0.472045  0.730932  0.996739  1
  La  La8  1  0.493364  0.243334  0.486678  1
  La  La9  1  0.023170  0.476683  0.749930  1
  La  La10  1  0.256691  0.006649  0.013341  1
  La  La11  1  0.226770  0.273161  0.749933  1
  Sn  Sn12  1  0.248785  0.251208  0.250027  1
  Sn  Sn13  1  0.501267  0.998811  0.250016  1
  Ir  Ir14  1  0.004386  0.254380  0.508766  1
  Ir  Ir15  1  0.245631  0.495631  0.991261  1
  I  I16  1  0.247743  0.761086  0.740222  1
  I  I17  1  0.520905  0.507490  0.759645  1
  I  I18  1  0.993450  0.751321  0.998554  1
  I  I19  1  0.738902  0.252232  0.759744  1
  I  I20  1  0.992502  0.979063  0.740309  1
  I  I21  1  0.252898  0.995049  0.501486  1
  I  I22  1  0.748717  0.506532  0.501451  1
  I  I23  1  0.504979  0.247067  0.998508  1
  I  I24  1  0.753739  0.746300  0.250009  1
  I  I25  1  0.747122  0.997321  0.994332  1
  I  I26  1  0.996206  0.503785  0.250018  1
  I  I27  1  0.502717  0.752902  0.505724  1
