# generated using pymatgen
data_Dy3LuMg2Rh3
_symmetry_space_group_name_H-M   'P 1'
_cell_length_a   7.44569200
_cell_length_b   7.41852197
_cell_length_c   4.09383400
_cell_angle_alpha   90.00000000
_cell_angle_beta   90.00000000
_cell_angle_gamma   120.12122729
_symmetry_Int_Tables_number   1
_chemical_formula_structural   Dy3LuMg2Rh3
_chemical_formula_sum   'Dy3 Lu1 Mg2 Rh3'
_cell_volume   195.59218481
_cell_formula_units_Z   1
loop_
 _symmetry_equiv_pos_site_id
 _symmetry_equiv_pos_as_xyz
  1  'x, y, z'
loop_
 _atom_site_type_symbol
 _atom_site_label
 _atom_site_symmetry_multiplicity
 _atom_site_fract_x
 _atom_site_fract_y
 _atom_site_fract_z
 _atom_site_occupancy
  Dy  Dy0  1  0.393834  0.000000  0.500001  1
  Dy  Dy1  1  0.015404  0.429693  0.500001  1
  Dy  Dy2  1  0.585710  0.570306  0.500001  1
  Lu  Lu3  1  0.751592  0.000000  0.000000  1
  Mg  Mg4  1  0.247465  0.247260  0.000000  1
  Mg  Mg5  1  0.000204  0.752739  0.000000  1
  Rh  Rh6  1  0.669143  0.328413  0.000000  1
  Rh  Rh7  1  0.340730  0.671586  0.000000  1
  Rh  Rh8  1  0.995917  0.000000  0.500001  1
