# generated using pymatgen
data_Sc3UGe6Rh7
_symmetry_space_group_name_H-M   'P 1'
_cell_length_a   7.16880745
_cell_length_b   7.13779011
_cell_length_c   7.13927420
_cell_angle_alpha   109.35238403
_cell_angle_beta   109.56722348
_cell_angle_gamma   109.59199340
_symmetry_Int_Tables_number   1
_chemical_formula_structural   Sc3UGe6Rh7
_chemical_formula_sum   'Sc3 U1 Ge6 Rh7'
_cell_volume   280.87630000
_cell_formula_units_Z   1
loop_
 _symmetry_equiv_pos_site_id
 _symmetry_equiv_pos_as_xyz
  1  'x, y, z'
loop_
 _atom_site_type_symbol
 _atom_site_label
 _atom_site_symmetry_multiplicity
 _atom_site_fract_x
 _atom_site_fract_y
 _atom_site_fract_z
 _atom_site_occupancy
  Sc  Sc0  1  0.500000  0.500000  0.500000  1
  Sc  Sc1  1  0.000000  0.000000  0.500000  1
  Sc  Sc2  1  0.000000  0.500000  0.000000  1
  U  U3  1  0.500000  0.000000  0.000000  1
  Ge  Ge4  1  0.310337  0.317184  0.000072  1
  Ge  Ge5  1  0.006858  0.317133  0.317111  1
  Ge  Ge6  1  0.993142  0.682867  0.682889  1
  Ge  Ge7  1  0.689676  0.999949  0.682870  1
  Ge  Ge8  1  0.310324  0.000051  0.317130  1
  Ge  Ge9  1  0.689663  0.682816  0.999928  1
  Rh  Rh10  1  0.749461  0.249460  0.498986  1
  Rh  Rh11  1  0.499999  0.249486  0.750513  1
  Rh  Rh12  1  0.500001  0.750514  0.249487  1
  Rh  Rh13  1  0.250527  0.500994  0.750526  1
  Rh  Rh14  1  0.749473  0.499006  0.249474  1
  Rh  Rh15  1  0.250539  0.750540  0.501014  1
  Rh  Rh16  1  0.000000  0.000000  0.000000  1
