# generated using pymatgen
data_TiNb9(B2P)2
_symmetry_space_group_name_H-M   'P 1'
_cell_length_a   7.26381433
_cell_length_b   7.26381336
_cell_length_c   7.26381378
_cell_angle_alpha   129.46746995
_cell_angle_beta   129.46747726
_cell_angle_gamma   74.25954980
_symmetry_Int_Tables_number   1
_chemical_formula_structural   TiNb9(B2P)2
_chemical_formula_sum   'Ti1 Nb9 B4 P2'
_cell_volume   222.66929326
_cell_formula_units_Z   1
loop_
 _symmetry_equiv_pos_site_id
 _symmetry_equiv_pos_as_xyz
  1  'x, y, z'
loop_
 _atom_site_type_symbol
 _atom_site_label
 _atom_site_symmetry_multiplicity
 _atom_site_fract_x
 _atom_site_fract_y
 _atom_site_fract_z
 _atom_site_occupancy
  Ti  Ti0  1  0.000000  0.000000  0.000000  1
  Nb  Nb1  1  0.500000  0.500000  0.000000  1
  Nb  Nb2  1  0.808689  0.307244  0.837364  1
  Nb  Nb3  1  0.191311  0.692756  0.162636  1
  Nb  Nb4  1  0.469879  0.971324  0.162636  1
  Nb  Nb5  1  0.307244  0.469879  0.498555  1
  Nb  Nb6  1  0.028676  0.191311  0.498555  1
  Nb  Nb7  1  0.530121  0.028676  0.837364  1
  Nb  Nb8  1  0.692756  0.530121  0.501445  1
  Nb  Nb9  1  0.971324  0.808689  0.501445  1
  B  B10  1  0.111558  0.615735  0.727291  1
  B  B11  1  0.888442  0.384265  0.272709  1
  B  B12  1  0.615735  0.888442  0.504177  1
  B  B13  1  0.384265  0.111558  0.495823  1
  P  P14  1  0.249150  0.249150  0.000000  1
  P  P15  1  0.750850  0.750850  0.000000  1
