# generated using pymatgen
data_Lu2Fe9Co3P7
_symmetry_space_group_name_H-M   'P 1'
_cell_length_a   8.91666488
_cell_length_b   8.92718562
_cell_length_c   3.59659800
_cell_angle_alpha   90.00000000
_cell_angle_beta   90.00000000
_cell_angle_gamma   119.79405753
_symmetry_Int_Tables_number   1
_chemical_formula_structural   Lu2Fe9Co3P7
_chemical_formula_sum   'Lu2 Fe9 Co3 P7'
_cell_volume   248.44888817
_cell_formula_units_Z   1
loop_
 _symmetry_equiv_pos_site_id
 _symmetry_equiv_pos_as_xyz
  1  'x, y, z'
loop_
 _atom_site_type_symbol
 _atom_site_label
 _atom_site_symmetry_multiplicity
 _atom_site_fract_x
 _atom_site_fract_y
 _atom_site_fract_z
 _atom_site_occupancy
  Lu  Lu0  1  0.334239  0.668378  0.000000  1
  Lu  Lu1  1  0.999181  0.998720  0.500000  1
  Fe  Fe2  1  0.037020  0.763375  0.000000  1
  Fe  Fe3  1  0.941835  0.452144  0.000000  1
  Fe  Fe4  1  0.513165  0.061571  0.000000  1
  Fe  Fe5  1  0.546643  0.487820  0.000000  1
  Fe  Fe6  1  0.281363  0.898685  0.500000  1
  Fe  Fe7  1  0.617189  0.720661  0.500000  1
  Fe  Fe8  1  0.768558  0.206521  0.500000  1
  Fe  Fe9  1  0.441388  0.234015  0.500000  1
  Fe  Fe10  1  0.788531  0.552690  0.500000  1
  Co  Co11  1  0.727225  0.962729  0.000000  1
  Co  Co12  1  0.233727  0.272519  0.000000  1
  Co  Co13  1  0.104593  0.384419  0.500000  1
  P  P14  1  0.961705  0.219286  0.000000  1
  P  P15  1  0.256005  0.034684  0.000000  1
  P  P16  1  0.779487  0.741977  0.000000  1
  P  P17  1  0.069553  0.624185  0.500000  1
  P  P18  1  0.549446  0.929767  0.500000  1
  P  P19  1  0.381603  0.451541  0.500000  1
  P  P20  1  0.667544  0.334311  0.000000  1
