# generated using pymatgen
data_Gd6Ho4Si5Sn
_symmetry_space_group_name_H-M   'P 1'
_cell_length_a   8.59020100
_cell_length_b   8.61768988
_cell_length_c   6.40110000
_cell_angle_alpha   90.00000000
_cell_angle_beta   90.00000000
_cell_angle_gamma   119.89454907
_symmetry_Int_Tables_number   1
_chemical_formula_structural   Gd6Ho4Si5Sn
_chemical_formula_sum   'Gd6 Ho4 Si5 Sn1'
_cell_volume   410.80898108
_cell_formula_units_Z   1
loop_
 _symmetry_equiv_pos_site_id
 _symmetry_equiv_pos_as_xyz
  1  'x, y, z'
loop_
 _atom_site_type_symbol
 _atom_site_label
 _atom_site_symmetry_multiplicity
 _atom_site_fract_x
 _atom_site_fract_y
 _atom_site_fract_z
 _atom_site_occupancy
  Gd  Gd0  1  0.674151  0.343351  0.003598  1
  Gd  Gd1  1  0.330798  0.656649  0.496402  1
  Gd  Gd2  1  0.330798  0.656649  0.003598  1
  Gd  Gd3  1  0.674151  0.343351  0.496402  1
  Gd  Gd4  1  0.990538  0.747966  0.750000  1
  Gd  Gd5  1  0.242570  0.252034  0.750000  1
  Ho  Ho6  1  0.763118  0.000000  0.750000  1
  Ho  Ho7  1  0.753207  0.756398  0.250000  1
  Ho  Ho8  1  0.996808  0.243602  0.250000  1
  Ho  Ho9  1  0.244071  0.000000  0.250000  1
  Si  Si10  1  0.390871  0.388976  0.250000  1
  Si  Si11  1  0.001896  0.611024  0.250000  1
  Si  Si12  1  0.997115  0.391474  0.750000  1
  Si  Si13  1  0.605642  0.608526  0.750000  1
  Si  Si14  1  0.607199  0.000000  0.250000  1
  Sn  Sn15  1  0.397072  0.000000  0.750000  1
