# generated using pymatgen
data_Tm20Cd6IrRu
_symmetry_space_group_name_H-M   'P 1'
_cell_length_a   9.48769500
_cell_length_b   9.48769398
_cell_length_c   9.70453900
_cell_angle_alpha   90.00000000
_cell_angle_beta   90.00000000
_cell_angle_gamma   120.00000008
_symmetry_Int_Tables_number   1
_chemical_formula_structural   Tm20Cd6IrRu
_chemical_formula_sum   'Tm20 Cd6 Ir1 Ru1'
_cell_volume   756.53134075
_cell_formula_units_Z   1
loop_
 _symmetry_equiv_pos_site_id
 _symmetry_equiv_pos_as_xyz
  1  'x, y, z'
loop_
 _atom_site_type_symbol
 _atom_site_label
 _atom_site_symmetry_multiplicity
 _atom_site_fract_x
 _atom_site_fract_y
 _atom_site_fract_z
 _atom_site_occupancy
  Tm  Tm0  1  0.000000  0.000000  0.499795  1
  Tm  Tm1  1  0.000000  0.000000  0.000205  1
  Tm  Tm2  1  0.209268  0.790732  0.440648  1
  Tm  Tm3  1  0.209268  0.418537  0.440648  1
  Tm  Tm4  1  0.581463  0.790732  0.440648  1
  Tm  Tm5  1  0.790410  0.209590  0.559799  1
  Tm  Tm6  1  0.790410  0.580818  0.559799  1
  Tm  Tm7  1  0.419182  0.209590  0.559799  1
  Tm  Tm8  1  0.790410  0.209590  0.940201  1
  Tm  Tm9  1  0.790410  0.580818  0.940201  1
  Tm  Tm10  1  0.419182  0.209590  0.940201  1
  Tm  Tm11  1  0.209268  0.790732  0.059352  1
  Tm  Tm12  1  0.209268  0.418537  0.059352  1
  Tm  Tm13  1  0.581463  0.790732  0.059352  1
  Tm  Tm14  1  0.541363  0.458637  0.250000  1
  Tm  Tm15  1  0.541363  0.082726  0.250000  1
  Tm  Tm16  1  0.917274  0.458637  0.250000  1
  Tm  Tm17  1  0.458698  0.541302  0.750000  1
  Tm  Tm18  1  0.458698  0.917396  0.750000  1
  Tm  Tm19  1  0.082604  0.541302  0.750000  1
  Cd  Cd20  1  0.885414  0.114586  0.250000  1
  Cd  Cd21  1  0.885414  0.770828  0.250000  1
  Cd  Cd22  1  0.229172  0.114586  0.250000  1
  Cd  Cd23  1  0.114569  0.885431  0.750000  1
  Cd  Cd24  1  0.114569  0.229138  0.750000  1
  Cd  Cd25  1  0.770862  0.885431  0.750000  1
  Ir  Ir26  1  0.333333  0.666667  0.250000  1
  Ru  Ru27  1  0.666667  0.333333  0.750000  1
