# generated using pymatgen
data_LaTb4Se7
_symmetry_space_group_name_H-M   'P 1'
_cell_length_a   7.05158941
_cell_length_b   7.05158952
_cell_length_c   12.34880835
_cell_angle_alpha   103.98798699
_cell_angle_beta   103.98798752
_cell_angle_gamma   33.34731051
_symmetry_Int_Tables_number   1
_chemical_formula_structural   LaTb4Se7
_chemical_formula_sum   'La1 Tb4 Se7'
_cell_volume   326.62510487
_cell_formula_units_Z   1
loop_
 _symmetry_equiv_pos_site_id
 _symmetry_equiv_pos_as_xyz
  1  'x, y, z'
loop_
 _atom_site_type_symbol
 _atom_site_label
 _atom_site_symmetry_multiplicity
 _atom_site_fract_x
 _atom_site_fract_y
 _atom_site_fract_z
 _atom_site_occupancy
  La  La0  1  0.300744  0.300744  0.192451  1
  Tb  Tb1  1  0.997748  0.997748  0.995411  1
  Tb  Tb2  1  0.111916  0.111916  0.426363  1
  Tb  Tb3  1  0.887063  0.887063  0.578852  1
  Tb  Tb4  1  0.700844  0.700844  0.814802  1
  Se  Se5  1  0.655300  0.655300  0.045396  1
  Se  Se6  1  0.968933  0.968933  0.214112  1
  Se  Se7  1  0.738377  0.738377  0.358483  1
  Se  Se8  1  0.496545  0.496545  0.497995  1
  Se  Se9  1  0.259892  0.259892  0.648327  1
  Se  Se10  1  0.042083  0.042083  0.782722  1
  Se  Se11  1  0.340555  0.340555  0.945087  1
