# generated using pymatgen
data_Tb8Tm12Tl15Sn
_symmetry_space_group_name_H-M   'P 1'
_cell_length_a   7.91183153
_cell_length_b   8.25619297
_cell_length_c   15.62945500
_cell_angle_alpha   90.07530307
_cell_angle_beta   89.36523736
_cell_angle_gamma   90.05608502
_symmetry_Int_Tables_number   1
_chemical_formula_structural   Tb8Tm12Tl15Sn
_chemical_formula_sum   'Tb8 Tm12 Tl15 Sn1'
_cell_volume   1020.87712141
_cell_formula_units_Z   1
loop_
 _symmetry_equiv_pos_site_id
 _symmetry_equiv_pos_as_xyz
  1  'x, y, z'
loop_
 _atom_site_type_symbol
 _atom_site_label
 _atom_site_symmetry_multiplicity
 _atom_site_fract_x
 _atom_site_fract_y
 _atom_site_fract_z
 _atom_site_occupancy
  Tb  Tb0  1  0.007403  0.184586  0.093420  1
  Tb  Tb1  1  0.992652  0.815596  0.906709  1
  Tb  Tb2  1  0.492373  0.682970  0.906783  1
  Tb  Tb3  1  0.995944  0.816484  0.594148  1
  Tb  Tb4  1  0.507175  0.316178  0.093492  1
  Tb  Tb5  1  0.005720  0.182443  0.405693  1
  Tb  Tb6  1  0.504963  0.315962  0.406700  1
  Tb  Tb7  1  0.493600  0.683115  0.594289  1
  Tm  Tm8  1  0.164094  0.503802  0.749065  1
  Tm  Tm9  1  0.836920  0.496025  0.249111  1
  Tm  Tm10  1  0.336298  0.005644  0.250058  1
  Tm  Tm11  1  0.664315  0.996053  0.750590  1
  Tm  Tm12  1  0.334047  0.164900  0.624210  1
  Tm  Tm13  1  0.667202  0.835090  0.375736  1
  Tm  Tm14  1  0.167776  0.668459  0.375576  1
  Tm  Tm15  1  0.668458  0.834384  0.123699  1
  Tm  Tm16  1  0.830428  0.333343  0.624299  1
  Tm  Tm17  1  0.330448  0.165200  0.876122  1
  Tm  Tm18  1  0.829862  0.335195  0.875831  1
  Tm  Tm19  1  0.171451  0.664047  0.124266  1
  Tl  Tl20  1  0.026563  0.117544  0.750048  1
  Tl  Tl21  1  0.973997  0.883469  0.248325  1
  Tl  Tl22  1  0.474743  0.616062  0.250757  1
  Tl  Tl23  1  0.525889  0.383812  0.750985  1
  Tl  Tl24  1  0.293623  0.857044  0.750581  1
  Tl  Tl25  1  0.705736  0.142842  0.249653  1
  Tl  Tl26  1  0.205633  0.358215  0.250529  1
  Tl  Tl27  1  0.794746  0.642818  0.749969  1
  Tl  Tl28  1  0.821358  0.535904  0.458029  1
  Tl  Tl29  1  0.321962  0.965473  0.458894  1
  Tl  Tl30  1  0.821732  0.533635  0.042221  1
  Tl  Tl31  1  0.680041  0.034640  0.541484  1
  Tl  Tl32  1  0.177103  0.465886  0.957697  1
  Tl  Tl33  1  0.677319  0.034820  0.957986  1
  Tl  Tl34  1  0.322312  0.964731  0.042201  1
  Sn  Sn35  1  0.176117  0.463624  0.540849  1
