# generated using pymatgen
data_Ho4ErMg3Ir4
_symmetry_space_group_name_H-M   'P 1'
_cell_length_a   4.16995800
_cell_length_b   7.11091891
_cell_length_c   8.61941811
_cell_angle_alpha   89.09929307
_cell_angle_beta   90.00000000
_cell_angle_gamma   90.00000000
_symmetry_Int_Tables_number   1
_chemical_formula_structural   Ho4ErMg3Ir4
_chemical_formula_sum   'Ho4 Er1 Mg3 Ir4'
_cell_volume   255.55341515
_cell_formula_units_Z   1
loop_
 _symmetry_equiv_pos_site_id
 _symmetry_equiv_pos_as_xyz
  1  'x, y, z'
loop_
 _atom_site_type_symbol
 _atom_site_label
 _atom_site_symmetry_multiplicity
 _atom_site_fract_x
 _atom_site_fract_y
 _atom_site_fract_z
 _atom_site_occupancy
  Ho  Ho0  1  0.250000  0.543856  0.162223  1
  Ho  Ho1  1  0.750000  0.470168  0.830447  1
  Ho  Ho2  1  0.250000  0.021128  0.320097  1
  Ho  Ho3  1  0.750000  0.954708  0.679755  1
  Er  Er4  1  0.750000  0.363358  0.440007  1
  Mg  Mg5  1  0.250000  0.135248  0.943333  1
  Mg  Mg6  1  0.750000  0.866018  0.058835  1
  Mg  Mg7  1  0.250000  0.647080  0.566040  1
  Ir  Ir8  1  0.750000  0.749436  0.372552  1
  Ir  Ir9  1  0.250000  0.242930  0.627731  1
  Ir  Ir10  1  0.750000  0.251029  0.126191  1
  Ir  Ir11  1  0.250000  0.755039  0.872790  1
