# generated using pymatgen
data_La8Zn(Si4Pt)3
_symmetry_space_group_name_H-M   'P 1'
_cell_length_a   8.28747100
_cell_length_b   8.28747175
_cell_length_c   8.85435100
_cell_angle_alpha   90.00000000
_cell_angle_beta   90.00000000
_cell_angle_gamma   120.00000099
_symmetry_Int_Tables_number   1
_chemical_formula_structural   La8Zn(Si4Pt)3
_chemical_formula_sum   'La8 Zn1 Si12 Pt3'
_cell_volume   526.66134552
_cell_formula_units_Z   1
loop_
 _symmetry_equiv_pos_site_id
 _symmetry_equiv_pos_as_xyz
  1  'x, y, z'
loop_
 _atom_site_type_symbol
 _atom_site_label
 _atom_site_symmetry_multiplicity
 _atom_site_fract_x
 _atom_site_fract_y
 _atom_site_fract_z
 _atom_site_occupancy
  La  La0  1  0.000000  0.000000  0.250573  1
  La  La1  1  0.000000  0.000000  0.749292  1
  La  La2  1  0.501168  0.498832  0.251818  1
  La  La3  1  0.501168  0.002337  0.251818  1
  La  La4  1  0.997663  0.498832  0.251818  1
  La  La5  1  0.500118  0.499882  0.748318  1
  La  La6  1  0.500118  0.000236  0.748318  1
  La  La7  1  0.999764  0.499882  0.748318  1
  Zn  Zn8  1  0.333333  0.666667  0.003213  1
  Si  Si9  1  0.165983  0.834017  0.500711  1
  Si  Si10  1  0.165983  0.331967  0.500711  1
  Si  Si11  1  0.668033  0.834017  0.500711  1
  Si  Si12  1  0.834293  0.165707  0.499470  1
  Si  Si13  1  0.834293  0.668585  0.499470  1
  Si  Si14  1  0.331415  0.165707  0.499470  1
  Si  Si15  1  0.833260  0.166740  0.000485  1
  Si  Si16  1  0.833260  0.666519  0.000485  1
  Si  Si17  1  0.333481  0.166740  0.000485  1
  Si  Si18  1  0.164604  0.835396  0.999347  1
  Si  Si19  1  0.164604  0.329208  0.999347  1
  Si  Si20  1  0.670792  0.835396  0.999347  1
  Pt  Pt21  1  0.333333  0.666667  0.496593  1
  Pt  Pt22  1  0.666667  0.333333  0.502549  1
  Pt  Pt23  1  0.666667  0.333333  0.997337  1
