# generated using pymatgen
data_Y7ThBePd24
_symmetry_space_group_name_H-M   'P 1'
_cell_length_a   8.32551903
_cell_length_b   8.32552007
_cell_length_c   8.32552000
_cell_angle_alpha   89.95107624
_cell_angle_beta   90.04891688
_cell_angle_gamma   90.04892422
_symmetry_Int_Tables_number   1
_chemical_formula_structural   Y7ThBePd24
_chemical_formula_sum   'Y7 Th1 Be1 Pd24'
_cell_volume   577.07675851
_cell_formula_units_Z   1
loop_
 _symmetry_equiv_pos_site_id
 _symmetry_equiv_pos_as_xyz
  1  'x, y, z'
loop_
 _atom_site_type_symbol
 _atom_site_label
 _atom_site_symmetry_multiplicity
 _atom_site_fract_x
 _atom_site_fract_y
 _atom_site_fract_z
 _atom_site_occupancy
  Y  Y0  1  0.250664  0.250932  0.250932  1
  Y  Y1  1  0.749018  0.749367  0.749367  1
  Y  Y2  1  0.749068  0.749336  0.250932  1
  Y  Y3  1  0.749068  0.250932  0.749336  1
  Y  Y4  1  0.250633  0.250982  0.749367  1
  Y  Y5  1  0.250633  0.749367  0.250982  1
  Y  Y6  1  0.251288  0.748712  0.748712  1
  Th  Th7  1  0.747487  0.252513  0.252513  1
  Be  Be8  1  0.002163  0.997837  0.997837  1
  Pd  Pd9  1  0.253778  0.499750  0.000007  1
  Pd  Pd10  1  0.746148  0.500476  0.999893  1
  Pd  Pd11  1  0.000107  0.253852  0.500476  1
  Pd  Pd12  1  0.499524  0.253852  0.999893  1
  Pd  Pd13  1  0.999993  0.746222  0.499750  1
  Pd  Pd14  1  0.500250  0.746222  0.000007  1
  Pd  Pd15  1  0.499524  0.999893  0.253852  1
  Pd  Pd16  1  0.253778  0.000007  0.499750  1
  Pd  Pd17  1  0.500250  0.000007  0.746222  1
  Pd  Pd18  1  0.746148  0.999893  0.500476  1
  Pd  Pd19  1  0.000107  0.500476  0.253852  1
  Pd  Pd20  1  0.999993  0.499750  0.746222  1
  Pd  Pd21  1  0.250745  0.499901  0.499901  1
  Pd  Pd22  1  0.748824  0.501136  0.501136  1
  Pd  Pd23  1  0.498864  0.251176  0.501136  1
  Pd  Pd24  1  0.500099  0.749255  0.499901  1
  Pd  Pd25  1  0.498864  0.501136  0.251176  1
  Pd  Pd26  1  0.500099  0.499901  0.749255  1
  Pd  Pd27  1  0.268883  0.999668  0.999668  1
  Pd  Pd28  1  0.732817  0.999741  0.999741  1
  Pd  Pd29  1  0.000259  0.267183  0.999741  1
  Pd  Pd30  1  0.000332  0.731117  0.999668  1
  Pd  Pd31  1  0.000259  0.999741  0.267183  1
  Pd  Pd32  1  0.000332  0.999668  0.731117  1
