# generated using pymatgen
data_Li3Tb3CdBi2
_symmetry_space_group_name_H-M   'P 1'
_cell_length_a   7.47966400
_cell_length_b   7.47966310
_cell_length_c   4.61604800
_cell_angle_alpha   90.00000000
_cell_angle_beta   90.00000000
_cell_angle_gamma   120.00000397
_symmetry_Int_Tables_number   1
_chemical_formula_structural   Li3Tb3CdBi2
_chemical_formula_sum   'Li3 Tb3 Cd1 Bi2'
_cell_volume   223.64801940
_cell_formula_units_Z   1
loop_
 _symmetry_equiv_pos_site_id
 _symmetry_equiv_pos_as_xyz
  1  'x, y, z'
loop_
 _atom_site_type_symbol
 _atom_site_label
 _atom_site_symmetry_multiplicity
 _atom_site_fract_x
 _atom_site_fract_y
 _atom_site_fract_z
 _atom_site_occupancy
  Li  Li0  1  0.237867  0.000000  0.000000  1
  Li  Li1  1  0.762133  0.762133  0.000000  1
  Li  Li2  1  0.000000  0.237867  0.000000  1
  Tb  Tb3  1  0.000000  0.580527  0.500000  1
  Tb  Tb4  1  0.419473  0.419473  0.500000  1
  Tb  Tb5  1  0.580527  0.000000  0.500000  1
  Cd  Cd6  1  0.000000  0.000000  0.500000  1
  Bi  Bi7  1  0.333333  0.666667  0.000000  1
  Bi  Bi8  1  0.666667  0.333333  0.000000  1
