# generated using pymatgen
data_Zr23ScP8
_symmetry_space_group_name_H-M   'P 1'
_cell_length_a   10.85666508
_cell_length_b   10.85703114
_cell_length_c   5.37885209
_cell_angle_alpha   90.01680555
_cell_angle_beta   89.98843764
_cell_angle_gamma   89.99267584
_symmetry_Int_Tables_number   1
_chemical_formula_structural   Zr23ScP8
_chemical_formula_sum   'Zr23 Sc1 P8'
_cell_volume   634.01143996
_cell_formula_units_Z   1
loop_
 _symmetry_equiv_pos_site_id
 _symmetry_equiv_pos_as_xyz
  1  'x, y, z'
loop_
 _atom_site_type_symbol
 _atom_site_label
 _atom_site_symmetry_multiplicity
 _atom_site_fract_x
 _atom_site_fract_y
 _atom_site_fract_z
 _atom_site_occupancy
  Zr  Zr0  1  0.362676  0.472658  0.778835  1
  Zr  Zr1  1  0.637146  0.527078  0.778906  1
  Zr  Zr2  1  0.972871  0.137121  0.279196  1
  Zr  Zr3  1  0.472804  0.637217  0.221426  1
  Zr  Zr4  1  0.137363  0.027555  0.720947  1
  Zr  Zr5  1  0.862667  0.973131  0.721392  1
  Zr  Zr6  1  0.527339  0.362867  0.221454  1
  Zr  Zr7  1  0.284468  0.820304  0.985519  1
  Zr  Zr8  1  0.320631  0.215094  0.484638  1
  Zr  Zr9  1  0.678854  0.784450  0.485260  1
  Zr  Zr10  1  0.715088  0.179843  0.984664  1
  Zr  Zr11  1  0.215478  0.679094  0.514602  1
  Zr  Zr12  1  0.179497  0.284816  0.015073  1
  Zr  Zr13  1  0.820396  0.715396  0.014575  1
  Zr  Zr14  1  0.785081  0.320410  0.515008  1
  Zr  Zr15  1  0.892671  0.415454  0.036833  1
  Zr  Zr16  1  0.915292  0.607744  0.537585  1
  Zr  Zr17  1  0.084296  0.392605  0.537239  1
  Zr  Zr18  1  0.107781  0.584712  0.037525  1
  Zr  Zr19  1  0.607222  0.084658  0.462693  1
  Zr  Zr20  1  0.584836  0.892761  0.962743  1
  Zr  Zr21  1  0.415140  0.107515  0.962575  1
  Zr  Zr22  1  0.393073  0.915474  0.463858  1
  Sc  Sc23  1  0.027099  0.862091  0.276693  1
  P  P24  1  0.540587  0.293540  0.713538  1
  P  P25  1  0.794248  0.959216  0.213240  1
  P  P26  1  0.206044  0.040518  0.213551  1
  P  P27  1  0.459080  0.706410  0.713617  1
  P  P28  1  0.959305  0.206194  0.787053  1
  P  P29  1  0.706505  0.540732  0.286631  1
  P  P30  1  0.293508  0.459372  0.286381  1
  P  P31  1  0.040957  0.793970  0.786748  1
