# generated using pymatgen
data_Dy8Ta11NbGe16
_symmetry_space_group_name_H-M   'P 1'
_cell_length_a   7.00747200
_cell_length_b   7.16355200
_cell_length_c   13.55454700
_cell_angle_alpha   90.00000000
_cell_angle_beta   90.00000000
_cell_angle_gamma   89.99683831
_symmetry_Int_Tables_number   1
_chemical_formula_structural   Dy8Ta11NbGe16
_chemical_formula_sum   'Dy8 Ta11 Nb1 Ge16'
_cell_volume   680.41643688
_cell_formula_units_Z   1
loop_
 _symmetry_equiv_pos_site_id
 _symmetry_equiv_pos_as_xyz
  1  'x, y, z'
loop_
 _atom_site_type_symbol
 _atom_site_label
 _atom_site_symmetry_multiplicity
 _atom_site_fract_x
 _atom_site_fract_y
 _atom_site_fract_z
 _atom_site_occupancy
  Dy  Dy0  1  0.496560  0.326834  0.094412  1
  Dy  Dy1  1  0.996389  0.173265  0.405619  1
  Dy  Dy2  1  0.503619  0.673270  0.594505  1
  Dy  Dy3  1  0.003649  0.826985  0.905448  1
  Dy  Dy4  1  0.503619  0.673270  0.905495  1
  Dy  Dy5  1  0.003649  0.826985  0.594552  1
  Dy  Dy6  1  0.496560  0.326834  0.405588  1
  Dy  Dy7  1  0.996389  0.173265  0.094381  1
  Ta  Ta8  1  0.664128  0.014189  0.750000  1
  Ta  Ta9  1  0.164076  0.485609  0.750000  1
  Ta  Ta10  1  0.335529  0.985638  0.250000  1
  Ta  Ta11  1  0.839782  0.329264  0.626167  1
  Ta  Ta12  1  0.339672  0.170759  0.873898  1
  Ta  Ta13  1  0.160260  0.670806  0.126034  1
  Ta  Ta14  1  0.659983  0.829379  0.374074  1
  Ta  Ta15  1  0.160260  0.670806  0.373966  1
  Ta  Ta16  1  0.659983  0.829379  0.125926  1
  Ta  Ta17  1  0.839782  0.329264  0.873833  1
  Ta  Ta18  1  0.339672  0.170759  0.626102  1
  Nb  Nb19  1  0.835631  0.513229  0.250000  1
  Ge  Ge20  1  0.804764  0.639324  0.750000  1
  Ge  Ge21  1  0.304810  0.860597  0.750000  1
  Ge  Ge22  1  0.195979  0.360826  0.250000  1
  Ge  Ge23  1  0.695156  0.138474  0.250000  1
  Ge  Ge24  1  0.539828  0.378359  0.750000  1
  Ge  Ge25  1  0.039742  0.121431  0.750000  1
  Ge  Ge26  1  0.460276  0.621852  0.250000  1
  Ge  Ge27  1  0.959934  0.878363  0.250000  1
  Ge  Ge28  1  0.675414  0.038419  0.541760  1
  Ge  Ge29  1  0.175250  0.461759  0.958262  1
  Ge  Ge30  1  0.324609  0.961626  0.041691  1
  Ge  Ge31  1  0.824887  0.538687  0.458680  1
  Ge  Ge32  1  0.324609  0.961626  0.458309  1
  Ge  Ge33  1  0.824887  0.538687  0.041320  1
  Ge  Ge34  1  0.675414  0.038419  0.958240  1
  Ge  Ge35  1  0.175250  0.461759  0.541738  1
