# generated using pymatgen
data_CaTm3(CuP)6
_symmetry_space_group_name_H-M   'P 1'
_cell_length_a   3.82271500
_cell_length_b   10.61948700
_cell_length_c   12.89611400
_cell_angle_alpha   90.00000000
_cell_angle_beta   90.00000000
_cell_angle_gamma   90.00000000
_symmetry_Int_Tables_number   1
_chemical_formula_structural   CaTm3(CuP)6
_chemical_formula_sum   'Ca2 Tm6 Cu12 P12'
_cell_volume   523.52125876
_cell_formula_units_Z   2
loop_
 _symmetry_equiv_pos_site_id
 _symmetry_equiv_pos_as_xyz
  1  'x, y, z'
loop_
 _atom_site_type_symbol
 _atom_site_label
 _atom_site_symmetry_multiplicity
 _atom_site_fract_x
 _atom_site_fract_y
 _atom_site_fract_z
 _atom_site_occupancy
  Ca  Ca0  1  0.250000  0.931325  0.790712  1
  Ca  Ca1  1  0.750000  0.431325  0.709288  1
  Tm  Tm2  1  0.250000  0.568795  0.294132  1
  Tm  Tm3  1  0.750000  0.068795  0.205868  1
  Tm  Tm4  1  0.250000  0.841845  0.501835  1
  Tm  Tm5  1  0.750000  0.341845  0.998165  1
  Tm  Tm6  1  0.250000  0.657381  0.002977  1
  Tm  Tm7  1  0.750000  0.157381  0.497023  1
  Cu  Cu8  1  0.250000  0.404124  0.517210  1
  Cu  Cu9  1  0.750000  0.904124  0.982790  1
  Cu  Cu10  1  0.250000  0.096676  0.013608  1
  Cu  Cu11  1  0.750000  0.596676  0.486392  1
  Cu  Cu12  1  0.250000  0.273333  0.331702  1
  Cu  Cu13  1  0.750000  0.773333  0.168298  1
  Cu  Cu14  1  0.250000  0.231479  0.830883  1
  Cu  Cu15  1  0.750000  0.731479  0.669117  1
  Cu  Cu16  1  0.250000  0.861260  0.280513  1
  Cu  Cu17  1  0.750000  0.361260  0.219487  1
  Cu  Cu18  1  0.250000  0.636094  0.782511  1
  Cu  Cu19  1  0.750000  0.136094  0.717489  1
  P  P20  1  0.250000  0.235859  0.641310  1
  P  P21  1  0.750000  0.735859  0.858690  1
  P  P22  1  0.250000  0.257055  0.142920  1
  P  P23  1  0.750000  0.757055  0.357080  1
  P  P24  1  0.250000  0.609169  0.600544  1
  P  P25  1  0.750000  0.109169  0.899456  1
  P  P26  1  0.250000  0.894928  0.099909  1
  P  P27  1  0.750000  0.394928  0.400091  1
  P  P28  1  0.250000  0.056920  0.368013  1
  P  P29  1  0.750000  0.556920  0.131987  1
  P  P30  1  0.250000  0.443756  0.876363  1
  P  P31  1  0.750000  0.943756  0.623637  1
