# generated using pymatgen
data_LuMgB4Ru5
_symmetry_space_group_name_H-M   'P 1'
_cell_length_a   3.01205000
_cell_length_b   8.53559896
_cell_length_c   10.13270154
_cell_angle_alpha   91.21869006
_cell_angle_beta   90.00000000
_cell_angle_gamma   90.00000000
_symmetry_Int_Tables_number   1
_chemical_formula_structural   LuMgB4Ru5
_chemical_formula_sum   'Lu2 Mg2 B8 Ru10'
_cell_volume   260.44929133
_cell_formula_units_Z   2
loop_
 _symmetry_equiv_pos_site_id
 _symmetry_equiv_pos_as_xyz
  1  'x, y, z'
loop_
 _atom_site_type_symbol
 _atom_site_label
 _atom_site_symmetry_multiplicity
 _atom_site_fract_x
 _atom_site_fract_y
 _atom_site_fract_z
 _atom_site_occupancy
  Lu  Lu0  1  0.500000  0.654355  0.815200  1
  Lu  Lu1  1  0.500000  0.345645  0.184800  1
  Mg  Mg2  1  0.500000  0.148779  0.681777  1
  Mg  Mg3  1  0.500000  0.851221  0.318223  1
  B  B4  1  0.500000  0.856082  0.599502  1
  B  B5  1  0.500000  0.143918  0.400498  1
  B  B6  1  0.500000  0.348067  0.896191  1
  B  B7  1  0.500000  0.651933  0.103809  1
  B  B8  1  0.500000  0.961968  0.911024  1
  B  B9  1  0.500000  0.038032  0.088976  1
  B  B10  1  0.500000  0.460652  0.588486  1
  B  B11  1  0.500000  0.539348  0.411514  1
  Ru  Ru12  1  0.000000  0.390751  0.736348  1
  Ru  Ru13  1  0.000000  0.609249  0.263652  1
  Ru  Ru14  1  0.000000  0.907386  0.760084  1
  Ru  Ru15  1  0.000000  0.092614  0.239916  1
  Ru  Ru16  1  0.000000  0.000000  0.500000  1
  Ru  Ru17  1  0.000000  0.500000  0.000000  1
  Ru  Ru18  1  0.000000  0.656272  0.549969  1
  Ru  Ru19  1  0.000000  0.343728  0.450031  1
  Ru  Ru20  1  0.000000  0.157413  0.955497  1
  Ru  Ru21  1  0.000000  0.842587  0.044503  1
