# generated using pymatgen
data_LiHo16Cd3Pt4
_symmetry_space_group_name_H-M   'P 1'
_cell_length_a   9.64172569
_cell_length_b   9.64172667
_cell_length_c   9.64172638
_cell_angle_alpha   59.90111220
_cell_angle_beta   59.90110811
_cell_angle_gamma   59.90111109
_symmetry_Int_Tables_number   1
_chemical_formula_structural   LiHo16Cd3Pt4
_chemical_formula_sum   'Li1 Ho16 Cd3 Pt4'
_cell_volume   632.37395321
_cell_formula_units_Z   1
loop_
 _symmetry_equiv_pos_site_id
 _symmetry_equiv_pos_as_xyz
  1  'x, y, z'
loop_
 _atom_site_type_symbol
 _atom_site_label
 _atom_site_symmetry_multiplicity
 _atom_site_fract_x
 _atom_site_fract_y
 _atom_site_fract_z
 _atom_site_occupancy
  Li  Li0  1  0.822463  0.822463  0.822463  1
  Ho  Ho1  1  0.600610  0.600610  0.600610  1
  Ho  Ho2  1  0.603024  0.603024  0.192792  1
  Ho  Ho3  1  0.603024  0.192792  0.603024  1
  Ho  Ho4  1  0.192792  0.603024  0.603024  1
  Ho  Ho5  1  0.059777  0.442019  0.442019  1
  Ho  Ho6  1  0.437960  0.062545  0.062545  1
  Ho  Ho7  1  0.442019  0.059777  0.442019  1
  Ho  Ho8  1  0.062545  0.437960  0.062545  1
  Ho  Ho9  1  0.442019  0.442019  0.059777  1
  Ho  Ho10  1  0.062545  0.062545  0.437960  1
  Ho  Ho11  1  0.185694  0.815466  0.815466  1
  Ho  Ho12  1  0.813343  0.186130  0.186130  1
  Ho  Ho13  1  0.815466  0.185694  0.815466  1
  Ho  Ho14  1  0.186130  0.813343  0.186130  1
  Ho  Ho15  1  0.815466  0.815466  0.185694  1
  Ho  Ho16  1  0.186130  0.186130  0.813343  1
  Cd  Cd17  1  0.832335  0.832335  0.503898  1
  Cd  Cd18  1  0.832335  0.503898  0.832335  1
  Cd  Cd19  1  0.503898  0.832335  0.832335  1
  Pt  Pt20  1  0.394295  0.394295  0.394295  1
  Pt  Pt21  1  0.392655  0.392655  0.820820  1
  Pt  Pt22  1  0.392655  0.820820  0.392655  1
  Pt  Pt23  1  0.820820  0.392655  0.392655  1
