# generated using pymatgen
data_Er3Hf(BiRh5)2
_symmetry_space_group_name_H-M   'P 1'
_cell_length_a   4.23371900
_cell_length_b   5.75758646
_cell_length_c   11.42055941
_cell_angle_alpha   89.89674407
_cell_angle_beta   90.00000000
_cell_angle_gamma   90.00000000
_symmetry_Int_Tables_number   1
_chemical_formula_structural   Er3Hf(BiRh5)2
_chemical_formula_sum   'Er3 Hf1 Bi2 Rh10'
_cell_volume   278.38714027
_cell_formula_units_Z   1
loop_
 _symmetry_equiv_pos_site_id
 _symmetry_equiv_pos_as_xyz
  1  'x, y, z'
loop_
 _atom_site_type_symbol
 _atom_site_label
 _atom_site_symmetry_multiplicity
 _atom_site_fract_x
 _atom_site_fract_y
 _atom_site_fract_z
 _atom_site_occupancy
  Er  Er0  1  0.500000  0.187291  0.642533  1
  Er  Er1  1  0.500000  0.817286  0.358439  1
  Er  Er2  1  0.500000  0.684597  0.859099  1
  Hf  Hf3  1  0.500000  0.321386  0.143360  1
  Bi  Bi4  1  0.000000  0.499843  0.499410  1
  Bi  Bi5  1  0.000000  0.995539  0.000656  1
  Rh  Rh6  1  0.500000  0.205759  0.890636  1
  Rh  Rh7  1  0.500000  0.788817  0.115768  1
  Rh  Rh8  1  0.500000  0.705684  0.616520  1
  Rh  Rh9  1  0.500000  0.297569  0.376632  1
  Rh  Rh10  1  0.000000  0.443068  0.754215  1
  Rh  Rh11  1  0.000000  0.553354  0.245605  1
  Rh  Rh12  1  0.000000  0.002095  0.498491  1
  Rh  Rh13  1  0.000000  0.488534  0.005177  1
  Rh  Rh14  1  0.000000  0.064816  0.244508  1
  Rh  Rh15  1  0.000000  0.944359  0.748951  1
