# generated using pymatgen
data_DyHo7Re(B8Os)3
_symmetry_space_group_name_H-M   'P 1'
_cell_length_a   3.65448000
_cell_length_b   9.13484438
_cell_length_c   11.51618400
_cell_angle_alpha   90.08626644
_cell_angle_beta   90.00000000
_cell_angle_gamma   90.00000000
_symmetry_Int_Tables_number   1
_chemical_formula_structural   DyHo7Re(B8Os)3
_chemical_formula_sum   'Dy1 Ho7 Re1 B24 Os3'
_cell_volume   384.44555628
_cell_formula_units_Z   1
loop_
 _symmetry_equiv_pos_site_id
 _symmetry_equiv_pos_as_xyz
  1  'x, y, z'
loop_
 _atom_site_type_symbol
 _atom_site_label
 _atom_site_symmetry_multiplicity
 _atom_site_fract_x
 _atom_site_fract_y
 _atom_site_fract_z
 _atom_site_occupancy
  Dy  Dy0  1  0.000000  0.322420  0.414889  1
  Ho  Ho1  1  0.000000  0.680025  0.588150  1
  Ho  Ho2  1  0.000000  0.822667  0.083657  1
  Ho  Ho3  1  0.000000  0.176333  0.913225  1
  Ho  Ho4  1  0.000000  0.943352  0.371915  1
  Ho  Ho5  1  0.000000  0.055758  0.627700  1
  Ho  Ho6  1  0.000000  0.443070  0.127771  1
  Ho  Ho7  1  0.000000  0.556448  0.872794  1
  Re  Re8  1  0.000000  0.862484  0.821405  1
  B  B9  1  0.500000  0.553869  0.433258  1
  B  B10  1  0.500000  0.446440  0.567134  1
  B  B11  1  0.500000  0.053547  0.067209  1
  B  B12  1  0.500000  0.947198  0.933222  1
  B  B13  1  0.500000  0.748341  0.419546  1
  B  B14  1  0.500000  0.251766  0.580488  1
  B  B15  1  0.500000  0.248010  0.080576  1
  B  B16  1  0.500000  0.751669  0.919401  1
  B  B17  1  0.500000  0.790539  0.266058  1
  B  B18  1  0.500000  0.209049  0.733242  1
  B  B19  1  0.500000  0.290898  0.233802  1
  B  B20  1  0.500000  0.708416  0.766064  1
  B  B21  1  0.500000  0.631119  0.185374  1
  B  B22  1  0.500000  0.368439  0.814219  1
  B  B23  1  0.500000  0.131581  0.314658  1
  B  B24  1  0.500000  0.868644  0.685569  1
  B  B25  1  0.500000  0.983183  0.212634  1
  B  B26  1  0.500000  0.017826  0.787278  1
  B  B27  1  0.500000  0.483123  0.287666  1
  B  B28  1  0.500000  0.517082  0.712737  1
  B  B29  1  0.500000  0.605895  0.030020  1
  B  B30  1  0.500000  0.392624  0.970614  1
  B  B31  1  0.500000  0.107000  0.470019  1
  B  B32  1  0.500000  0.893309  0.529013  1
  Os  Os33  1  0.000000  0.637448  0.321433  1
  Os  Os34  1  0.000000  0.362699  0.678170  1
  Os  Os35  1  0.000000  0.137731  0.179091  1
