# generated using pymatgen
data_BaHfTh2Bi5
_symmetry_space_group_name_H-M   'P 1'
_cell_length_a   9.69889000
_cell_length_b   9.82025635
_cell_length_c   6.65026400
_cell_angle_alpha   90.00000000
_cell_angle_beta   90.00000000
_cell_angle_gamma   119.59200348
_symmetry_Int_Tables_number   1
_chemical_formula_structural   BaHfTh2Bi5
_chemical_formula_sum   'Ba2 Hf2 Th4 Bi10'
_cell_volume   550.78895860
_cell_formula_units_Z   2
loop_
 _symmetry_equiv_pos_site_id
 _symmetry_equiv_pos_as_xyz
  1  'x, y, z'
loop_
 _atom_site_type_symbol
 _atom_site_label
 _atom_site_symmetry_multiplicity
 _atom_site_fract_x
 _atom_site_fract_y
 _atom_site_fract_z
 _atom_site_occupancy
  Ba  Ba0  1  0.611122  0.000000  0.250000  1
  Ba  Ba1  1  0.388878  0.000000  0.750000  1
  Hf  Hf2  1  0.000000  0.000000  0.000000  1
  Hf  Hf3  1  0.000000  0.000000  0.500000  1
  Th  Th4  1  0.012139  0.622752  0.250000  1
  Th  Th5  1  0.987861  0.377248  0.750000  1
  Th  Th6  1  0.389388  0.377248  0.250000  1
  Th  Th7  1  0.610612  0.622752  0.750000  1
  Bi  Bi8  1  0.255355  0.000000  0.250000  1
  Bi  Bi9  1  0.744645  0.000000  0.750000  1
  Bi  Bi10  1  0.008245  0.268325  0.250000  1
  Bi  Bi11  1  0.991755  0.731675  0.750000  1
  Bi  Bi12  1  0.739919  0.731675  0.250000  1
  Bi  Bi13  1  0.260081  0.268325  0.750000  1
  Bi  Bi14  1  0.322239  0.644477  0.000000  1
  Bi  Bi15  1  0.677761  0.355523  0.000000  1
  Bi  Bi16  1  0.677761  0.355523  0.500000  1
  Bi  Bi17  1  0.322239  0.644477  0.500000  1
