# generated using pymatgen
data_Dy4HfZr2PtF28
_symmetry_space_group_name_H-M   'P 1'
_cell_length_a   5.69068171
_cell_length_b   9.03666882
_cell_length_c   12.16790078
_cell_angle_alpha   62.44307026
_cell_angle_beta   89.91096166
_cell_angle_gamma   89.97337714
_symmetry_Int_Tables_number   1
_chemical_formula_structural   Dy4HfZr2PtF28
_chemical_formula_sum   'Dy4 Hf1 Zr2 Pt1 F28'
_cell_volume   554.74295474
_cell_formula_units_Z   1
loop_
 _symmetry_equiv_pos_site_id
 _symmetry_equiv_pos_as_xyz
  1  'x, y, z'
loop_
 _atom_site_type_symbol
 _atom_site_label
 _atom_site_symmetry_multiplicity
 _atom_site_fract_x
 _atom_site_fract_y
 _atom_site_fract_z
 _atom_site_occupancy
  Dy  Dy0  1  0.757891  0.816433  0.766282  1
  Dy  Dy1  1  0.258072  0.183682  0.731837  1
  Dy  Dy2  1  0.240787  0.184336  0.239209  1
  Dy  Dy3  1  0.743131  0.813659  0.266155  1
  Hf  Hf4  1  0.244294  0.725124  0.045218  1
  Zr  Zr5  1  0.755793  0.273424  0.956754  1
  Zr  Zr6  1  0.255957  0.725167  0.544107  1
  Pt  Pt7  1  0.740177  0.272702  0.455615  1
  F  F8  1  0.460704  0.710183  0.920750  1
  F  F9  1  0.935922  0.294713  0.580796  1
  F  F10  1  0.534705  0.289210  0.082350  1
  F  F11  1  0.038536  0.710885  0.417328  1
  F  F12  1  0.448234  0.278992  0.542046  1
  F  F13  1  0.952391  0.723821  0.950993  1
  F  F14  1  0.554322  0.719885  0.451460  1
  F  F15  1  0.051897  0.275653  0.052252  1
  F  F16  1  0.774306  0.526426  0.859856  1
  F  F17  1  0.269135  0.471476  0.639521  1
  F  F18  1  0.224744  0.475853  0.142039  1
  F  F19  1  0.728504  0.517996  0.357859  1
  F  F20  1  0.759211  0.020617  0.059270  1
  F  F21  1  0.260882  0.978049  0.443223  1
  F  F22  1  0.242765  0.973824  0.941023  1
  F  F23  1  0.743576  0.026852  0.549428  1
  F  F24  1  0.978442  0.732762  0.647435  1
  F  F25  1  0.481812  0.266763  0.851146  1
  F  F26  1  0.024503  0.273272  0.362612  1
  F  F27  1  0.517043  0.732184  0.146806  1
  F  F28  1  0.038643  0.747947  0.171778  1
  F  F29  1  0.549414  0.257123  0.325294  1
  F  F30  1  0.968085  0.252014  0.827553  1
  F  F31  1  0.466112  0.746177  0.673685  1
  F  F32  1  0.423476  0.972492  0.235656  1
  F  F33  1  0.922986  0.027967  0.268029  1
  F  F34  1  0.576658  0.029888  0.764128  1
  F  F35  1  0.076886  0.972450  0.730509  1
