# generated using pymatgen
data_Pr4Al51Cr7
_symmetry_space_group_name_H-M   'P 1'
_cell_length_a   10.23899600
_cell_length_b   10.23899631
_cell_length_c   11.50998400
_cell_angle_alpha   90.00000000
_cell_angle_beta   90.00000000
_cell_angle_gamma   119.99999901
_symmetry_Int_Tables_number   1
_chemical_formula_structural   Pr4Al51Cr7
_chemical_formula_sum   'Pr4 Al51 Cr7'
_cell_volume   1045.00920427
_cell_formula_units_Z   1
loop_
 _symmetry_equiv_pos_site_id
 _symmetry_equiv_pos_as_xyz
  1  'x, y, z'
loop_
 _atom_site_type_symbol
 _atom_site_label
 _atom_site_symmetry_multiplicity
 _atom_site_fract_x
 _atom_site_fract_y
 _atom_site_fract_z
 _atom_site_occupancy
  Pr  Pr0  1  0.000000  0.000000  0.148717  1
  Pr  Pr1  1  0.333334  0.666667  0.310467  1
  Pr  Pr2  1  0.333334  0.666667  0.638461  1
  Pr  Pr3  1  0.000000  0.000000  0.820925  1
  Al  Al4  1  0.244911  0.489822  0.076015  1
  Al  Al5  1  0.244910  0.755088  0.076015  1
  Al  Al6  1  0.510178  0.755088  0.076015  1
  Al  Al7  1  0.483944  0.241972  0.125650  1
  Al  Al8  1  0.758028  0.241972  0.125650  1
  Al  Al9  1  0.758028  0.516056  0.125650  1
  Al  Al10  1  0.028395  0.334611  0.230199  1
  Al  Al11  1  0.306216  0.334611  0.230199  1
  Al  Al12  1  0.028396  0.693784  0.230199  1
  Al  Al13  1  0.665388  0.693784  0.230199  1
  Al  Al14  1  0.306216  0.971604  0.230199  1
  Al  Al15  1  0.665388  0.971604  0.230199  1
  Al  Al16  1  0.575528  0.151056  0.335454  1
  Al  Al17  1  0.575528  0.424473  0.335454  1
  Al  Al18  1  0.848944  0.424473  0.335454  1
  Al  Al19  1  0.088395  0.176790  0.382731  1
  Al  Al20  1  0.088394  0.911605  0.382731  1
  Al  Al21  1  0.823210  0.911605  0.382731  1
  Al  Al22  1  0.064497  0.400714  0.482024  1
  Al  Al23  1  0.336216  0.400714  0.482024  1
  Al  Al24  1  0.064497  0.663784  0.482024  1
  Al  Al25  1  0.599287  0.663784  0.482024  1
  Al  Al26  1  0.336216  0.935502  0.482024  1
  Al  Al27  1  0.599286  0.935502  0.482024  1
  Al  Al28  1  0.485406  0.242703  0.557969  1
  Al  Al29  1  0.757296  0.242703  0.557969  1
  Al  Al30  1  0.757297  0.514593  0.557969  1
  Al  Al31  1  0.908544  0.091456  0.584211  1
  Al  Al32  1  0.182913  0.091456  0.584211  1
  Al  Al33  1  0.908544  0.817087  0.584211  1
  Al  Al34  1  0.512857  0.025713  0.685661  1
  Al  Al35  1  0.512858  0.487143  0.685661  1
  Al  Al36  1  0.974286  0.487143  0.685661  1
  Al  Al37  1  0.166617  0.333234  0.729690  1
  Al  Al38  1  0.166617  0.833383  0.729690  1
  Al  Al39  1  0.666766  0.833383  0.729690  1
  Al  Al40  1  0.358826  0.179413  0.773803  1
  Al  Al41  1  0.820588  0.179413  0.773803  1
  Al  Al42  1  0.820588  0.641175  0.773803  1
  Al  Al43  1  0.150194  0.575097  0.874868  1
  Al  Al44  1  0.424904  0.575097  0.874868  1
  Al  Al45  1  0.424903  0.849805  0.874868  1
  Al  Al46  1  0.576122  0.152244  0.901820  1
  Al  Al47  1  0.576123  0.423878  0.901820  1
  Al  Al48  1  0.847755  0.423878  0.901820  1
  Al  Al49  1  0.269018  0.003150  0.977696  1
  Al  Al50  1  0.734130  0.003150  0.977696  1
  Al  Al51  1  0.269018  0.265870  0.977696  1
  Al  Al52  1  0.996851  0.265870  0.977696  1
  Al  Al53  1  0.734130  0.730982  0.977696  1
  Al  Al54  1  0.996850  0.730982  0.977696  1
  Cr  Cr55  1  0.004303  0.502151  0.073016  1
  Cr  Cr56  1  0.497849  0.502151  0.073016  1
  Cr  Cr57  1  0.497849  0.995697  0.073016  1
  Cr  Cr58  1  0.329363  0.164682  0.386269  1
  Cr  Cr59  1  0.835319  0.164682  0.386269  1
  Cr  Cr60  1  0.835318  0.670636  0.386269  1
  Cr  Cr61  1  0.666667  0.333333  0.729662  1
