# generated using pymatgen
data_CuH4F6
_symmetry_space_group_name_H-M   'P 1'
_cell_length_a   5.55869117
_cell_length_b   3.69383225
_cell_length_c   6.19533592
_cell_angle_alpha   100.76003248
_cell_angle_beta   83.00901582
_cell_angle_gamma   91.71869658
_symmetry_Int_Tables_number   1
_chemical_formula_structural   CuH4F6
_chemical_formula_sum   'Cu1 H4 F6'
_cell_volume   124.03886701
_cell_formula_units_Z   1
loop_
 _symmetry_equiv_pos_site_id
 _symmetry_equiv_pos_as_xyz
  1  'x, y, z'
loop_
 _atom_site_type_symbol
 _atom_site_label
 _atom_site_symmetry_multiplicity
 _atom_site_fract_x
 _atom_site_fract_y
 _atom_site_fract_z
 _atom_site_occupancy
  Cu  Cu0  1  0.636782  0.288367  0.172722  1
  H  H1  1  0.981351  0.562633  0.445043  1
  H  H2  1  0.269075  0.637402  0.639033  1
  H  H3  1  0.947497  0.074121  0.738906  1
  H  H4  1  0.385899  0.347408  0.855342  1
  F  F5  1  0.416460  0.500250  0.672736  1
  F  F6  1  0.867673  0.281940  0.844792  1
  F  F7  1  0.583921  0.803487  0.228217  1
  F  F8  1  0.363916  0.216193  0.988691  1
  F  F9  1  0.086260  0.797941  0.579271  1
  F  F10  1  0.917029  0.333313  0.336119  1
