# generated using pymatgen
data_Li4TcNi9P7
_symmetry_space_group_name_H-M   'P 1'
_cell_length_a   9.05456486
_cell_length_b   9.02280006
_cell_length_c   3.59912200
_cell_angle_alpha   90.00000000
_cell_angle_beta   90.00000000
_cell_angle_gamma   119.53650844
_symmetry_Int_Tables_number   1
_chemical_formula_structural   Li4TcNi9P7
_chemical_formula_sum   'Li4 Tc1 Ni9 P7'
_cell_volume   255.82652968
_cell_formula_units_Z   1
loop_
 _symmetry_equiv_pos_site_id
 _symmetry_equiv_pos_as_xyz
  1  'x, y, z'
loop_
 _atom_site_type_symbol
 _atom_site_label
 _atom_site_symmetry_multiplicity
 _atom_site_fract_x
 _atom_site_fract_y
 _atom_site_fract_z
 _atom_site_occupancy
  Li  Li0  1  0.896934  0.121086  0.500000  1
  Li  Li1  1  0.221071  0.099880  0.500000  1
  Li  Li2  1  0.332876  0.664451  0.000000  1
  Li  Li3  1  0.664384  0.332767  0.500000  1
  Tc  Tc4  1  0.878220  0.787526  0.500000  1
  Ni  Ni5  1  0.713760  0.883189  0.000000  1
  Ni  Ni6  1  0.161771  0.279008  0.000000  1
  Ni  Ni7  1  0.125122  0.836225  0.000000  1
  Ni  Ni8  1  0.627497  0.566857  0.000000  1
  Ni  Ni9  1  0.939315  0.372280  0.000000  1
  Ni  Ni10  1  0.429357  0.056953  0.000000  1
  Ni  Ni11  1  0.565679  0.954497  0.500000  1
  Ni  Ni12  1  0.389550  0.437000  0.500000  1
  Ni  Ni13  1  0.053841  0.611587  0.500000  1
  P  P14  1  0.587354  0.711206  0.500000  1
  P  P15  1  0.126868  0.414747  0.500000  1
  P  P16  1  0.290491  0.870990  0.500000  1
  P  P17  1  0.997364  0.992677  0.000000  1
  P  P18  1  0.879314  0.581851  0.000000  1
  P  P19  1  0.697591  0.125880  0.000000  1
  P  P20  1  0.421642  0.299345  0.000000  1
