# generated using pymatgen
data_TbY2GaSn6
_symmetry_space_group_name_H-M   'P 1'
_cell_length_a   13.18008001
_cell_length_b   13.18008105
_cell_length_c   4.35550200
_cell_angle_alpha   90.00000000
_cell_angle_beta   90.00000000
_cell_angle_gamma   160.14806697
_symmetry_Int_Tables_number   1
_chemical_formula_structural   TbY2GaSn6
_chemical_formula_sum   'Tb1 Y2 Ga1 Sn6'
_cell_volume   256.93898369
_cell_formula_units_Z   1
loop_
 _symmetry_equiv_pos_site_id
 _symmetry_equiv_pos_as_xyz
  1  'x, y, z'
loop_
 _atom_site_type_symbol
 _atom_site_label
 _atom_site_symmetry_multiplicity
 _atom_site_fract_x
 _atom_site_fract_y
 _atom_site_fract_z
 _atom_site_occupancy
  Tb  Tb0  1  0.000000  0.000000  0.500000  1
  Y  Y1  1  0.311168  0.688832  0.000000  1
  Y  Y2  1  0.688832  0.311168  0.000000  1
  Ga  Ga3  1  0.500000  0.500000  0.000000  1
  Sn  Sn4  1  0.405609  0.594391  0.500000  1
  Sn  Sn5  1  0.594391  0.405609  0.500000  1
  Sn  Sn6  1  0.093087  0.906913  0.000000  1
  Sn  Sn7  1  0.906913  0.093087  0.000000  1
  Sn  Sn8  1  0.210965  0.789035  0.500000  1
  Sn  Sn9  1  0.789035  0.210965  0.500000  1
