# generated using pymatgen
data_Nb12Al4Zn8CN3
_symmetry_space_group_name_H-M   'P 1'
_cell_length_a   8.30100474
_cell_length_b   8.30130595
_cell_length_c   8.31148100
_cell_angle_alpha   60.04305418
_cell_angle_beta   60.04173556
_cell_angle_gamma   60.00267705
_symmetry_Int_Tables_number   1
_chemical_formula_structural   Nb12Al4Zn8CN3
_chemical_formula_sum   'Nb12 Al4 Zn8 C1 N3'
_cell_volume   405.25398637
_cell_formula_units_Z   1
loop_
 _symmetry_equiv_pos_site_id
 _symmetry_equiv_pos_as_xyz
  1  'x, y, z'
loop_
 _atom_site_type_symbol
 _atom_site_label
 _atom_site_symmetry_multiplicity
 _atom_site_fract_x
 _atom_site_fract_y
 _atom_site_fract_z
 _atom_site_occupancy
  Nb  Nb0  1  0.815753  0.815794  0.182723  1
  Nb  Nb1  1  0.184789  0.184779  0.815907  1
  Nb  Nb2  1  0.814514  0.184788  0.815899  1
  Nb  Nb3  1  0.185745  0.815771  0.182753  1
  Nb  Nb4  1  0.184768  0.814494  0.815975  1
  Nb  Nb5  1  0.815842  0.185704  0.182612  1
  Nb  Nb6  1  0.434230  0.434158  0.067315  1
  Nb  Nb7  1  0.065210  0.065230  0.434072  1
  Nb  Nb8  1  0.435446  0.065245  0.434078  1
  Nb  Nb9  1  0.064321  0.434144  0.067327  1
  Nb  Nb10  1  0.065205  0.435534  0.434058  1
  Nb  Nb11  1  0.434241  0.064237  0.067286  1
  Al  Al12  1  0.124977  0.625049  0.624954  1
  Al  Al13  1  0.624993  0.125010  0.625039  1
  Al  Al14  1  0.624961  0.625050  0.125003  1
  Al  Al15  1  0.625006  0.625026  0.624983  1
  Zn  Zn16  1  0.751691  0.416147  0.415938  1
  Zn  Zn17  1  0.416191  0.751672  0.415979  1
  Zn  Zn18  1  0.415618  0.415704  0.753035  1
  Zn  Zn19  1  0.416242  0.416119  0.415967  1
  Zn  Zn20  1  0.498308  0.833841  0.834026  1
  Zn  Zn21  1  0.833812  0.498334  0.834052  1
  Zn  Zn22  1  0.834333  0.834350  0.496954  1
  Zn  Zn23  1  0.833818  0.833810  0.834050  1
  C  C24  1  0.124989  0.125001  0.625012  1
  N  N25  1  0.624973  0.124972  0.125004  1
  N  N26  1  0.124965  0.625065  0.125000  1
  N  N27  1  0.125055  0.124975  0.125000  1
