# generated using pymatgen
data_Y12Al4Si4RuRh7
_symmetry_space_group_name_H-M   'P 1'
_cell_length_a   5.58220459
_cell_length_b   7.91918165
_cell_length_c   13.34376587
_cell_angle_alpha   90.10911690
_cell_angle_beta   89.83470699
_cell_angle_gamma   90.19149217
_symmetry_Int_Tables_number   1
_chemical_formula_structural   Y12Al4Si4RuRh7
_chemical_formula_sum   'Y12 Al4 Si4 Ru1 Rh7'
_cell_volume   589.87427285
_cell_formula_units_Z   1
loop_
 _symmetry_equiv_pos_site_id
 _symmetry_equiv_pos_as_xyz
  1  'x, y, z'
loop_
 _atom_site_type_symbol
 _atom_site_label
 _atom_site_symmetry_multiplicity
 _atom_site_fract_x
 _atom_site_fract_y
 _atom_site_fract_z
 _atom_site_occupancy
  Y  Y0  1  0.142496  0.599242  0.103908  1
  Y  Y1  1  0.143122  0.897474  0.896455  1
  Y  Y2  1  0.857223  0.101787  0.396319  1
  Y  Y3  1  0.856895  0.397714  0.603460  1
  Y  Y4  1  0.856397  0.397862  0.898358  1
  Y  Y5  1  0.856085  0.104752  0.103783  1
  Y  Y6  1  0.142929  0.897833  0.603681  1
  Y  Y7  1  0.142797  0.602497  0.396597  1
  Y  Y8  1  0.368348  0.245086  0.249360  1
  Y  Y9  1  0.366738  0.257748  0.750582  1
  Y  Y10  1  0.631500  0.740069  0.247994  1
  Y  Y11  1  0.631969  0.756916  0.750241  1
  Al  Al12  1  0.380657  0.250758  0.000014  1
  Al  Al13  1  0.621217  0.750313  0.499750  1
  Al  Al14  1  0.621566  0.749676  0.000565  1
  Al  Al15  1  0.378645  0.249638  0.500296  1
  Si  Si16  1  0.861982  0.390552  0.250745  1
  Si  Si17  1  0.861598  0.110078  0.750083  1
  Si  Si18  1  0.138336  0.890567  0.249888  1
  Si  Si19  1  0.136362  0.610069  0.749665  1
  Ru  Ru20  1  0.647960  0.470036  0.093068  1
  Rh  Rh21  1  0.643778  0.027640  0.905894  1
  Rh  Rh22  1  0.355479  0.970454  0.406700  1
  Rh  Rh23  1  0.353985  0.529881  0.593059  1
  Rh  Rh24  1  0.355368  0.531035  0.905297  1
  Rh  Rh25  1  0.355184  0.971271  0.093116  1
  Rh  Rh26  1  0.644971  0.029399  0.593416  1
  Rh  Rh27  1  0.646412  0.469652  0.407707  1
