# generated using pymatgen
data_Yb3LuIr8
_symmetry_space_group_name_H-M   'P 1'
_cell_length_a   5.31992500
_cell_length_b   5.31992458
_cell_length_c   8.66976100
_cell_angle_alpha   90.00000000
_cell_angle_beta   90.00000000
_cell_angle_gamma   119.99999639
_symmetry_Int_Tables_number   1
_chemical_formula_structural   Yb3LuIr8
_chemical_formula_sum   'Yb3 Lu1 Ir8'
_cell_volume   212.49502074
_cell_formula_units_Z   1
loop_
 _symmetry_equiv_pos_site_id
 _symmetry_equiv_pos_as_xyz
  1  'x, y, z'
loop_
 _atom_site_type_symbol
 _atom_site_label
 _atom_site_symmetry_multiplicity
 _atom_site_fract_x
 _atom_site_fract_y
 _atom_site_fract_z
 _atom_site_occupancy
  Yb  Yb0  1  0.666667  0.333334  0.073242  1
  Yb  Yb1  1  0.666667  0.333334  0.431276  1
  Yb  Yb2  1  0.333333  0.666666  0.562529  1
  Lu  Lu3  1  0.333333  0.666666  0.930127  1
  Ir  Ir4  1  0.000000  0.000000  0.000625  1
  Ir  Ir5  1  0.170889  0.341778  0.248396  1
  Ir  Ir6  1  0.170889  0.829110  0.248396  1
  Ir  Ir7  1  0.658221  0.829110  0.248396  1
  Ir  Ir8  1  0.000000  0.000000  0.500336  1
  Ir  Ir9  1  0.342083  0.171042  0.752226  1
  Ir  Ir10  1  0.828959  0.171042  0.752226  1
  Ir  Ir11  1  0.828959  0.657918  0.752226  1
