# generated using pymatgen
data_Mn6Si6TcRu11
_symmetry_space_group_name_H-M   'P 1'
_cell_length_a   4.18864400
_cell_length_b   5.92748400
_cell_length_c   12.56762700
_cell_angle_alpha   89.99797296
_cell_angle_beta   90.00103496
_cell_angle_gamma   89.99984061
_symmetry_Int_Tables_number   1
_chemical_formula_structural   Mn6Si6TcRu11
_chemical_formula_sum   'Mn6 Si6 Tc1 Ru11'
_cell_volume   312.03055481
_cell_formula_units_Z   1
loop_
 _symmetry_equiv_pos_site_id
 _symmetry_equiv_pos_as_xyz
  1  'x, y, z'
loop_
 _atom_site_type_symbol
 _atom_site_label
 _atom_site_symmetry_multiplicity
 _atom_site_fract_x
 _atom_site_fract_y
 _atom_site_fract_z
 _atom_site_occupancy
  Mn  Mn0  1  0.000000  0.002218  0.000023  1
  Mn  Mn1  1  0.499659  0.498376  0.165845  1
  Mn  Mn2  1  0.999658  0.000551  0.333322  1
  Mn  Mn3  1  0.499999  0.500129  0.499992  1
  Mn  Mn4  1  0.000341  0.000525  0.666651  1
  Mn  Mn5  1  0.500338  0.498367  0.834185  1
  Si  Si6  1  0.999999  0.502508  0.000028  1
  Si  Si7  1  0.499717  0.998694  0.167251  1
  Si  Si8  1  0.999719  0.500374  0.333253  1
  Si  Si9  1  0.499999  0.999282  0.499971  1
  Si  Si10  1  0.000280  0.500377  0.666715  1
  Si  Si11  1  0.500281  0.998696  0.832773  1
  Tc  Tc12  1  0.499999  0.249008  0.000020  1
  Ru  Ru13  1  0.500000  0.749175  0.000005  1
  Ru  Ru14  1  0.999654  0.250015  0.166983  1
  Ru  Ru15  1  0.999618  0.750026  0.166727  1
  Ru  Ru16  1  0.499626  0.250739  0.333668  1
  Ru  Ru17  1  0.499626  0.750315  0.333520  1
  Ru  Ru18  1  0.000008  0.249558  0.499965  1
  Ru  Ru19  1  0.999999  0.749959  0.499975  1
  Ru  Ru20  1  0.500373  0.250812  0.666326  1
  Ru  Ru21  1  0.500367  0.750250  0.666469  1
  Ru  Ru22  1  0.000366  0.250078  0.833028  1
  Ru  Ru23  1  0.000374  0.749966  0.833307  1
