# generated using pymatgen
data_Pr(NdHg2)5
_symmetry_space_group_name_H-M   'P 1'
_cell_length_a   6.54127994
_cell_length_b   6.54128084
_cell_length_c   10.62142600
_cell_angle_alpha   89.99795253
_cell_angle_beta   89.99795098
_cell_angle_gamma   105.87755741
_symmetry_Int_Tables_number   1
_chemical_formula_structural   Pr(NdHg2)5
_chemical_formula_sum   'Pr1 Nd5 Hg10'
_cell_volume   437.13446594
_cell_formula_units_Z   1
loop_
 _symmetry_equiv_pos_site_id
 _symmetry_equiv_pos_as_xyz
  1  'x, y, z'
loop_
 _atom_site_type_symbol
 _atom_site_label
 _atom_site_symmetry_multiplicity
 _atom_site_fract_x
 _atom_site_fract_y
 _atom_site_fract_z
 _atom_site_occupancy
  Pr  Pr0  1  0.203550  0.796450  0.500000  1
  Nd  Nd1  1  0.590594  0.590453  0.249959  1
  Nd  Nd2  1  0.409547  0.409406  0.750041  1
  Nd  Nd3  1  0.203549  0.796451  0.000000  1
  Nd  Nd4  1  0.796460  0.203540  0.500000  1
  Nd  Nd5  1  0.796462  0.203538  0.000000  1
  Hg  Hg6  1  0.997234  0.997369  0.249920  1
  Hg  Hg7  1  0.002631  0.002766  0.750080  1
  Hg  Hg8  1  0.302801  0.302792  0.033889  1
  Hg  Hg9  1  0.697208  0.697199  0.966111  1
  Hg  Hg10  1  0.302890  0.302939  0.466054  1
  Hg  Hg11  1  0.697061  0.697110  0.533946  1
  Hg  Hg12  1  0.487373  0.050338  0.249904  1
  Hg  Hg13  1  0.949662  0.512627  0.750096  1
  Hg  Hg14  1  0.512876  0.949897  0.750107  1
  Hg  Hg15  1  0.050103  0.487124  0.249893  1
