# generated using pymatgen
data_Nd2SmHo(Ni5Sn)4
_symmetry_space_group_name_H-M   'P 1'
_cell_length_a   4.90743400
_cell_length_b   4.90756179
_cell_length_c   19.74284900
_cell_angle_alpha   90.00000000
_cell_angle_beta   90.00000000
_cell_angle_gamma   119.99752911
_symmetry_Int_Tables_number   1
_chemical_formula_structural   Nd2SmHo(Ni5Sn)4
_chemical_formula_sum   'Nd2 Sm1 Ho1 Ni20 Sn4'
_cell_volume   411.78593856
_cell_formula_units_Z   1
loop_
 _symmetry_equiv_pos_site_id
 _symmetry_equiv_pos_as_xyz
  1  'x, y, z'
loop_
 _atom_site_type_symbol
 _atom_site_label
 _atom_site_symmetry_multiplicity
 _atom_site_fract_x
 _atom_site_fract_y
 _atom_site_fract_z
 _atom_site_occupancy
  Nd  Nd0  1  0.000000  0.000002  0.499254  1
  Nd  Nd1  1  0.000000  0.000002  0.000746  1
  Sm  Sm2  1  0.666666  0.333333  0.750000  1
  Ho  Ho3  1  0.333326  0.666665  0.250000  1
  Ni  Ni4  1  0.000000  0.000009  0.250000  1
  Ni  Ni5  1  0.999997  0.000001  0.750000  1
  Ni  Ni6  1  0.333338  0.666668  0.750000  1
  Ni  Ni7  1  0.666668  0.333338  0.250000  1
  Ni  Ni8  1  0.333332  0.666674  0.957336  1
  Ni  Ni9  1  0.666668  0.333332  0.044489  1
  Ni  Ni10  1  0.666668  0.333332  0.455511  1
  Ni  Ni11  1  0.333332  0.666674  0.542664  1
  Ni  Ni12  1  0.833806  0.166183  0.352080  1
  Ni  Ni13  1  0.833803  0.667605  0.352079  1
  Ni  Ni14  1  0.332399  0.166196  0.352080  1
  Ni  Ni15  1  0.166171  0.833824  0.646035  1
  Ni  Ni16  1  0.166174  0.332347  0.646036  1
  Ni  Ni17  1  0.667649  0.833828  0.646037  1
  Ni  Ni18  1  0.166171  0.833824  0.853965  1
  Ni  Ni19  1  0.166174  0.332347  0.853964  1
  Ni  Ni20  1  0.667649  0.833828  0.853963  1
  Ni  Ni21  1  0.833806  0.166183  0.147920  1
  Ni  Ni22  1  0.833803  0.667605  0.147921  1
  Ni  Ni23  1  0.332399  0.166196  0.147920  1
  Sn  Sn24  1  0.333332  0.666666  0.410900  1
  Sn  Sn25  1  0.666666  0.333335  0.586897  1
  Sn  Sn26  1  0.666666  0.333335  0.913103  1
  Sn  Sn27  1  0.333332  0.666666  0.089100  1
