# generated using pymatgen
data_Ho3Cd3CuHgIr
_symmetry_space_group_name_H-M   'P 1'
_cell_length_a   7.83105100
_cell_length_b   7.83105029
_cell_length_c   3.75274300
_cell_angle_alpha   90.00000000
_cell_angle_beta   90.00000000
_cell_angle_gamma   120.00000721
_symmetry_Int_Tables_number   1
_chemical_formula_structural   Ho3Cd3CuHgIr
_chemical_formula_sum   'Ho3 Cd3 Cu1 Hg1 Ir1'
_cell_volume   199.30559436
_cell_formula_units_Z   1
loop_
 _symmetry_equiv_pos_site_id
 _symmetry_equiv_pos_as_xyz
  1  'x, y, z'
loop_
 _atom_site_type_symbol
 _atom_site_label
 _atom_site_symmetry_multiplicity
 _atom_site_fract_x
 _atom_site_fract_y
 _atom_site_fract_z
 _atom_site_occupancy
  Ho  Ho0  1  0.033738  0.422491  0.500000  1
  Ho  Ho1  1  0.577509  0.611246  0.500000  1
  Ho  Ho2  1  0.388754  0.966262  0.500000  1
  Cd  Cd3  1  0.997256  0.748697  0.000000  1
  Cd  Cd4  1  0.251303  0.248560  0.000000  1
  Cd  Cd5  1  0.751440  0.002744  0.000000  1
  Cu  Cu6  1  0.000000  0.000000  0.500000  1
  Hg  Hg7  1  0.666667  0.333333  0.000000  1
  Ir  Ir8  1  0.333333  0.666667  0.000000  1
