# generated using pymatgen
data_Ba4AlSi7Au20
_symmetry_space_group_name_H-M   'P 1'
_cell_length_a   7.13190600
_cell_length_b   9.12665917
_cell_length_c   10.34091165
_cell_angle_alpha   89.10045256
_cell_angle_beta   90.00000000
_cell_angle_gamma   90.00000000
_symmetry_Int_Tables_number   1
_chemical_formula_structural   Ba4AlSi7Au20
_chemical_formula_sum   'Ba4 Al1 Si7 Au20'
_cell_volume   673.01190016
_cell_formula_units_Z   1
loop_
 _symmetry_equiv_pos_site_id
 _symmetry_equiv_pos_as_xyz
  1  'x, y, z'
loop_
 _atom_site_type_symbol
 _atom_site_label
 _atom_site_symmetry_multiplicity
 _atom_site_fract_x
 _atom_site_fract_y
 _atom_site_fract_z
 _atom_site_occupancy
  Ba  Ba0  1  0.250000  0.242154  0.115759  1
  Ba  Ba1  1  0.250000  0.740687  0.382982  1
  Ba  Ba2  1  0.750000  0.760753  0.884111  1
  Ba  Ba3  1  0.750000  0.255922  0.618258  1
  Al  Al4  1  0.250000  0.050019  0.622567  1
  Si  Si5  1  0.250000  0.546961  0.868930  1
  Si  Si6  1  0.750000  0.952966  0.370440  1
  Si  Si7  1  0.750000  0.457185  0.132291  1
  Si  Si8  1  0.250000  0.321609  0.459689  1
  Si  Si9  1  0.250000  0.831146  0.043836  1
  Si  Si10  1  0.750000  0.667814  0.543013  1
  Si  Si11  1  0.750000  0.169881  0.952987  1
  Au  Au12  1  0.046442  0.094879  0.393819  1
  Au  Au13  1  0.451677  0.598288  0.106265  1
  Au  Au14  1  0.549856  0.898182  0.606773  1
  Au  Au15  1  0.950878  0.404456  0.895525  1
  Au  Au16  1  0.950144  0.898182  0.606773  1
  Au  Au17  1  0.549122  0.404456  0.895525  1
  Au  Au18  1  0.453558  0.094879  0.393819  1
  Au  Au19  1  0.048323  0.598288  0.106265  1
  Au  Au20  1  0.036389  0.076335  0.851484  1
  Au  Au21  1  0.467727  0.576093  0.649500  1
  Au  Au22  1  0.533281  0.926971  0.145980  1
  Au  Au23  1  0.968069  0.421676  0.352806  1
  Au  Au24  1  0.966719  0.926971  0.145980  1
  Au  Au25  1  0.531931  0.421676  0.352806  1
  Au  Au26  1  0.463611  0.076335  0.851484  1
  Au  Au27  1  0.032273  0.576093  0.649500  1
  Au  Au28  1  0.250000  0.314346  0.698783  1
  Au  Au29  1  0.250000  0.812263  0.805832  1
  Au  Au30  1  0.750000  0.690682  0.305725  1
  Au  Au31  1  0.750000  0.191855  0.190493  1
