# generated using pymatgen
data_La10Mg(SnRu2)3
_symmetry_space_group_name_H-M   'P 1'
_cell_length_a   8.78851761
_cell_length_b   8.78851833
_cell_length_c   8.80842300
_cell_angle_alpha   109.51710645
_cell_angle_beta   109.51710812
_cell_angle_gamma   109.42529579
_symmetry_Int_Tables_number   1
_chemical_formula_structural   La10Mg(SnRu2)3
_chemical_formula_sum   'La10 Mg1 Sn3 Ru6'
_cell_volume   523.43324395
_cell_formula_units_Z   1
loop_
 _symmetry_equiv_pos_site_id
 _symmetry_equiv_pos_as_xyz
  1  'x, y, z'
loop_
 _atom_site_type_symbol
 _atom_site_label
 _atom_site_symmetry_multiplicity
 _atom_site_fract_x
 _atom_site_fract_y
 _atom_site_fract_z
 _atom_site_occupancy
  La  La0  1  0.795064  0.001040  0.001233  1
  La  La1  1  0.248449  0.311507  0.060741  1
  La  La2  1  0.705978  0.704938  0.206171  1
  La  La3  1  0.188493  0.936943  0.249234  1
  La  La4  1  0.000000  0.500001  0.293790  1
  La  La5  1  0.747891  0.184836  0.436277  1
  La  La6  1  0.498961  0.794024  0.500193  1
  La  La7  1  0.936945  0.752109  0.688386  1
  La  La8  1  0.315164  0.563055  0.751441  1
  La  La9  1  0.563057  0.251551  0.812290  1
  Mg  Mg10  1  0.000000  0.500000  0.912509  1
  Sn  Sn11  1  0.406615  0.999340  0.999200  1
  Sn  Sn12  1  0.500660  0.407275  0.499859  1
  Sn  Sn13  1  0.092725  0.093385  0.592584  1
  Ru  Ru14  1  0.384697  0.751320  0.131367  1
  Ru  Ru15  1  0.630443  0.380359  0.249603  1
  Ru  Ru16  1  0.119641  0.250084  0.369245  1
  Ru  Ru17  1  0.249916  0.869557  0.619161  1
  Ru  Ru18  1  0.866622  0.115303  0.746670  1
  Ru  Ru19  1  0.748680  0.633377  0.880047  1
