# generated using pymatgen
data_Tb2DyCu4(SnGe)2
_symmetry_space_group_name_H-M   'P 1'
_cell_length_a   8.26986632
_cell_length_b   8.26986672
_cell_length_c   8.26986701
_cell_angle_alpha   149.30492674
_cell_angle_beta   132.07968123
_cell_angle_gamma   57.99051422
_symmetry_Int_Tables_number   1
_chemical_formula_structural   Tb2DyCu4(SnGe)2
_chemical_formula_sum   'Tb2 Dy1 Cu4 Sn2 Ge2'
_cell_volume   212.68609641
_cell_formula_units_Z   1
loop_
 _symmetry_equiv_pos_site_id
 _symmetry_equiv_pos_as_xyz
  1  'x, y, z'
loop_
 _atom_site_type_symbol
 _atom_site_label
 _atom_site_symmetry_multiplicity
 _atom_site_fract_x
 _atom_site_fract_y
 _atom_site_fract_z
 _atom_site_occupancy
  Tb  Tb0  1  0.999926  0.999926  0.000000  1
  Tb  Tb1  1  0.625152  0.125152  0.500000  1
  Dy  Dy2  1  0.374813  0.874813  0.500000  1
  Cu  Cu3  1  0.970817  0.659853  0.310964  1
  Cu  Cu4  1  0.650936  0.340201  0.310735  1
  Cu  Cu5  1  0.348889  0.659853  0.689036  1
  Cu  Cu6  1  0.029466  0.340201  0.689265  1
  Sn  Sn7  1  0.782366  0.782366  0.000000  1
  Sn  Sn8  1  0.217829  0.217829  0.000000  1
  Ge  Ge9  1  0.690120  0.499903  0.190217  1
  Ge  Ge10  1  0.309687  0.499903  0.809783  1
