# generated using pymatgen
data_Nb14SiP7
_symmetry_space_group_name_H-M   'P 1'
_cell_length_a   3.46785100
_cell_length_b   7.74897732
_cell_length_c   13.95287588
_cell_angle_alpha   104.23802072
_cell_angle_beta   90.00000000
_cell_angle_gamma   102.93008496
_symmetry_Int_Tables_number   1
_chemical_formula_structural   Nb14SiP7
_chemical_formula_sum   'Nb14 Si1 P7'
_cell_volume   353.61168411
_cell_formula_units_Z   1
loop_
 _symmetry_equiv_pos_site_id
 _symmetry_equiv_pos_as_xyz
  1  'x, y, z'
loop_
 _atom_site_type_symbol
 _atom_site_label
 _atom_site_symmetry_multiplicity
 _atom_site_fract_x
 _atom_site_fract_y
 _atom_site_fract_z
 _atom_site_occupancy
  Nb  Nb0  1  0.998929  0.997858  0.999251  1
  Nb  Nb1  1  0.337374  0.674748  0.028900  1
  Nb  Nb2  1  0.566426  0.132855  0.173307  1
  Nb  Nb3  1  0.792760  0.585522  0.203853  1
  Nb  Nb4  1  0.196627  0.393252  0.313802  1
  Nb  Nb5  1  0.996438  0.992876  0.334753  1
  Nb  Nb6  1  0.826496  0.652994  0.459843  1
  Nb  Nb7  1  0.500053  0.000108  0.499814  1
  Nb  Nb8  1  0.173887  0.347773  0.540306  1
  Nb  Nb9  1  0.004068  0.008135  0.665424  1
  Nb  Nb10  1  0.803966  0.607933  0.687141  1
  Nb  Nb11  1  0.209491  0.418981  0.799887  1
  Nb  Nb12  1  0.431904  0.863806  0.826924  1
  Nb  Nb13  1  0.661981  0.323963  0.967704  1
  Si  Si14  1  0.174546  0.349093  0.111285  1
  P  P15  1  0.935932  0.871864  0.150500  1
  P  P16  1  0.370600  0.741200  0.336470  1
  P  P17  1  0.625637  0.251277  0.397025  1
  P  P18  1  0.374049  0.748097  0.602917  1
  P  P19  1  0.629750  0.259503  0.664102  1
  P  P20  1  0.063248  0.126494  0.848795  1
  P  P21  1  0.825831  0.651664  0.887997  1
