# generated using pymatgen
data_Er8Tc(B8Os)3
_symmetry_space_group_name_H-M   'P 1'
_cell_length_a   3.63950400
_cell_length_b   9.10705887
_cell_length_c   11.48856609
_cell_angle_alpha   89.94999339
_cell_angle_beta   90.00000000
_cell_angle_gamma   90.00000000
_symmetry_Int_Tables_number   1
_chemical_formula_structural   Er8Tc(B8Os)3
_chemical_formula_sum   'Er8 Tc1 B24 Os3'
_cell_volume   380.79041364
_cell_formula_units_Z   1
loop_
 _symmetry_equiv_pos_site_id
 _symmetry_equiv_pos_as_xyz
  1  'x, y, z'
loop_
 _atom_site_type_symbol
 _atom_site_label
 _atom_site_symmetry_multiplicity
 _atom_site_fract_x
 _atom_site_fract_y
 _atom_site_fract_z
 _atom_site_occupancy
  Er  Er0  1  0.000000  0.323895  0.412921  1
  Er  Er1  1  0.000000  0.677186  0.583649  1
  Er  Er2  1  0.000000  0.820343  0.088195  1
  Er  Er3  1  0.000000  0.177704  0.914673  1
  Er  Er4  1  0.000000  0.943053  0.372705  1
  Er  Er5  1  0.000000  0.056460  0.627309  1
  Er  Er6  1  0.000000  0.444971  0.128043  1
  Er  Er7  1  0.000000  0.556226  0.872392  1
  Tc  Tc8  1  0.000000  0.637788  0.321334  1
  B  B9  1  0.500000  0.552876  0.433376  1
  B  B10  1  0.500000  0.446582  0.566993  1
  B  B11  1  0.500000  0.053577  0.066800  1
  B  B12  1  0.500000  0.946510  0.933416  1
  B  B13  1  0.500000  0.748349  0.419876  1
  B  B14  1  0.500000  0.251723  0.580021  1
  B  B15  1  0.500000  0.248635  0.079940  1
  B  B16  1  0.500000  0.751473  0.920012  1
  B  B17  1  0.500000  0.792042  0.266215  1
  B  B18  1  0.500000  0.208271  0.733708  1
  B  B19  1  0.500000  0.291597  0.233242  1
  B  B20  1  0.500000  0.708686  0.766253  1
  B  B21  1  0.500000  0.631862  0.185567  1
  B  B22  1  0.500000  0.367983  0.814886  1
  B  B23  1  0.500000  0.131827  0.314248  1
  B  B24  1  0.500000  0.868463  0.685300  1
  B  B25  1  0.500000  0.982708  0.212846  1
  B  B26  1  0.500000  0.017237  0.787456  1
  B  B27  1  0.500000  0.482321  0.287208  1
  B  B28  1  0.500000  0.516929  0.712934  1
  B  B29  1  0.500000  0.607278  0.029354  1
  B  B30  1  0.500000  0.392564  0.970040  1
  B  B31  1  0.500000  0.107681  0.470226  1
  B  B32  1  0.500000  0.893337  0.530123  1
  Os  Os33  1  0.000000  0.361744  0.679297  1
  Os  Os34  1  0.000000  0.137709  0.178020  1
  Os  Os35  1  0.000000  0.862413  0.821424  1
