# generated using pymatgen
data_TbTh2Zn3PdPt2
_symmetry_space_group_name_H-M   'P 1'
_cell_length_a   7.58442000
_cell_length_b   7.52994236
_cell_length_c   3.83206300
_cell_angle_alpha   90.00000000
_cell_angle_beta   90.00000000
_cell_angle_gamma   120.23961528
_symmetry_Int_Tables_number   1
_chemical_formula_structural   TbTh2Zn3PdPt2
_chemical_formula_sum   'Tb1 Th2 Zn3 Pd1 Pt2'
_cell_volume   189.07043046
_cell_formula_units_Z   1
loop_
 _symmetry_equiv_pos_site_id
 _symmetry_equiv_pos_as_xyz
  1  'x, y, z'
loop_
 _atom_site_type_symbol
 _atom_site_label
 _atom_site_symmetry_multiplicity
 _atom_site_fract_x
 _atom_site_fract_y
 _atom_site_fract_z
 _atom_site_occupancy
  Tb  Tb0  1  0.403927  0.000000  0.000000  1
  Th  Th1  1  0.000922  0.408205  0.000000  1
  Th  Th2  1  0.592719  0.591795  0.000000  1
  Zn  Zn3  1  0.010231  0.758576  0.500000  1
  Zn  Zn4  1  0.251655  0.241424  0.500000  1
  Zn  Zn5  1  0.739733  0.000000  0.500000  1
  Pd  Pd6  1  0.995981  0.000000  0.000000  1
  Pt  Pt7  1  0.332633  0.660434  0.500000  1
  Pt  Pt8  1  0.672199  0.339566  0.500000  1
