# generated using pymatgen
data_Y4Al17Co4SiPt2
_symmetry_space_group_name_H-M   'P 1'
_cell_length_a   7.48872005
_cell_length_b   7.48872076
_cell_length_c   9.33571000
_cell_angle_alpha   90.00669458
_cell_angle_beta   89.99330542
_cell_angle_gamma   119.56836594
_symmetry_Int_Tables_number   1
_chemical_formula_structural   Y4Al17Co4SiPt2
_chemical_formula_sum   'Y4 Al17 Co4 Si1 Pt2'
_cell_volume   455.37141196
_cell_formula_units_Z   1
loop_
 _symmetry_equiv_pos_site_id
 _symmetry_equiv_pos_as_xyz
  1  'x, y, z'
loop_
 _atom_site_type_symbol
 _atom_site_label
 _atom_site_symmetry_multiplicity
 _atom_site_fract_x
 _atom_site_fract_y
 _atom_site_fract_z
 _atom_site_occupancy
  Y  Y0  1  0.992361  0.674257  0.250043  1
  Y  Y1  1  0.005540  0.332293  0.750181  1
  Y  Y2  1  0.674257  0.992361  0.249957  1
  Y  Y3  1  0.332293  0.005540  0.749819  1
  Al  Al4  1  0.881675  0.881675  0.750000  1
  Al  Al5  1  0.330154  0.324510  0.550931  1
  Al  Al6  1  0.665466  0.671210  0.045697  1
  Al  Al7  1  0.324510  0.330154  0.949069  1
  Al  Al8  1  0.671210  0.665466  0.454303  1
  Al  Al9  1  0.337482  0.549209  0.242093  1
  Al  Al10  1  0.660495  0.451349  0.742208  1
  Al  Al11  1  0.549209  0.337482  0.257907  1
  Al  Al12  1  0.451349  0.660495  0.757792  1
  Al  Al13  1  0.007155  0.335363  0.074136  1
  Al  Al14  1  0.993553  0.666801  0.572046  1
  Al  Al15  1  0.335363  0.007155  0.425864  1
  Al  Al16  1  0.666801  0.993553  0.927954  1
  Al  Al17  1  0.009835  0.674323  0.927614  1
  Al  Al18  1  0.991109  0.328458  0.425316  1
  Al  Al19  1  0.674323  0.009835  0.572386  1
  Al  Al20  1  0.328458  0.991109  0.074684  1
  Co  Co21  1  0.001007  0.000362  0.009158  1
  Co  Co22  1  0.000362  0.001007  0.490842  1
  Co  Co23  1  0.327968  0.668879  0.000399  1
  Co  Co24  1  0.668879  0.327968  0.499601  1
  Si  Si25  1  0.121699  0.121699  0.250000  1
  Pt  Pt26  1  0.670918  0.326567  0.000601  1
  Pt  Pt27  1  0.326567  0.670918  0.499399  1
