# generated using pymatgen
data_Sc4Mn8Co12SiP11
_symmetry_space_group_name_H-M   'P 1'
_cell_length_a   3.55754000
_cell_length_b   10.27392874
_cell_length_c   11.89691351
_cell_angle_alpha   90.11019217
_cell_angle_beta   90.00000000
_cell_angle_gamma   90.00000000
_symmetry_Int_Tables_number   1
_chemical_formula_structural   Sc4Mn8Co12SiP11
_chemical_formula_sum   'Sc4 Mn8 Co12 Si1 P11'
_cell_volume   434.83034312
_cell_formula_units_Z   1
loop_
 _symmetry_equiv_pos_site_id
 _symmetry_equiv_pos_as_xyz
  1  'x, y, z'
loop_
 _atom_site_type_symbol
 _atom_site_label
 _atom_site_symmetry_multiplicity
 _atom_site_fract_x
 _atom_site_fract_y
 _atom_site_fract_z
 _atom_site_occupancy
  Sc  Sc0  1  0.250000  0.582045  0.708034  1
  Sc  Sc1  1  0.250000  0.918016  0.209027  1
  Sc  Sc2  1  0.750000  0.418114  0.293051  1
  Sc  Sc3  1  0.750000  0.082538  0.791690  1
  Mn  Mn4  1  0.250000  0.715396  0.991710  1
  Mn  Mn5  1  0.250000  0.785205  0.491482  1
  Mn  Mn6  1  0.750000  0.285233  0.008682  1
  Mn  Mn7  1  0.750000  0.214878  0.508763  1
  Mn  Mn8  1  0.250000  0.407063  0.489927  1
  Mn  Mn9  1  0.250000  0.092803  0.989899  1
  Mn  Mn10  1  0.750000  0.592915  0.510421  1
  Mn  Mn11  1  0.750000  0.907046  0.010165  1
  Co  Co12  1  0.250000  0.216026  0.178443  1
  Co  Co13  1  0.250000  0.276894  0.676411  1
  Co  Co14  1  0.750000  0.777646  0.822697  1
  Co  Co15  1  0.750000  0.723177  0.324511  1
  Co  Co16  1  0.250000  0.883367  0.697331  1
  Co  Co17  1  0.250000  0.620144  0.198080  1
  Co  Co18  1  0.750000  0.115094  0.303976  1
  Co  Co19  1  0.750000  0.382250  0.801399  1
  Co  Co20  1  0.250000  0.466292  0.928435  1
  Co  Co21  1  0.250000  0.035235  0.433562  1
  Co  Co22  1  0.750000  0.539893  0.064713  1
  Co  Co23  1  0.750000  0.964759  0.567946  1
  Si  Si24  1  0.250000  0.417754  0.113640  1
  P  P25  1  0.250000  0.080136  0.615074  1
  P  P26  1  0.750000  0.580225  0.883995  1
  P  P27  1  0.750000  0.919652  0.386164  1
  P  P28  1  0.250000  0.265329  0.865949  1
  P  P29  1  0.250000  0.235045  0.365689  1
  P  P30  1  0.750000  0.735704  0.135206  1
  P  P31  1  0.750000  0.764668  0.634222  1
  P  P32  1  0.250000  0.595195  0.382099  1
  P  P33  1  0.250000  0.904854  0.882084  1
  P  P34  1  0.750000  0.404531  0.617320  1
  P  P35  1  0.750000  0.094878  0.118203  1
