# generated using pymatgen
data_Tb3Sc2(Hg2Pt)2
_symmetry_space_group_name_H-M   'P 1'
_cell_length_a   3.62307700
_cell_length_b   7.91744000
_cell_length_c   17.60278100
_cell_angle_alpha   90.00000000
_cell_angle_beta   90.00000000
_cell_angle_gamma   90.00000000
_symmetry_Int_Tables_number   1
_chemical_formula_structural   Tb3Sc2(Hg2Pt)2
_chemical_formula_sum   'Tb6 Sc4 Hg8 Pt4'
_cell_volume   504.94448219
_cell_formula_units_Z   2
loop_
 _symmetry_equiv_pos_site_id
 _symmetry_equiv_pos_as_xyz
  1  'x, y, z'
loop_
 _atom_site_type_symbol
 _atom_site_label
 _atom_site_symmetry_multiplicity
 _atom_site_fract_x
 _atom_site_fract_y
 _atom_site_fract_z
 _atom_site_occupancy
  Tb  Tb0  1  0.000000  0.234764  0.213320  1
  Tb  Tb1  1  0.000000  0.765236  0.786680  1
  Tb  Tb2  1  0.000000  0.265236  0.713320  1
  Tb  Tb3  1  0.000000  0.734764  0.286680  1
  Tb  Tb4  1  0.000000  0.000000  0.000000  1
  Tb  Tb5  1  0.000000  0.500000  0.500000  1
  Sc  Sc6  1  0.000000  0.111084  0.414394  1
  Sc  Sc7  1  0.000000  0.888916  0.585606  1
  Sc  Sc8  1  0.000000  0.388916  0.914394  1
  Sc  Sc9  1  0.000000  0.611084  0.085606  1
  Hg  Hg10  1  0.500000  0.412903  0.354357  1
  Hg  Hg11  1  0.500000  0.587097  0.645643  1
  Hg  Hg12  1  0.500000  0.087097  0.854357  1
  Hg  Hg13  1  0.500000  0.912903  0.145643  1
  Hg  Hg14  1  0.500000  0.300750  0.055359  1
  Hg  Hg15  1  0.500000  0.699250  0.944641  1
  Hg  Hg16  1  0.500000  0.199250  0.555359  1
  Hg  Hg17  1  0.500000  0.800750  0.444641  1
  Pt  Pt18  1  0.500000  0.029663  0.307972  1
  Pt  Pt19  1  0.500000  0.970337  0.692028  1
  Pt  Pt20  1  0.500000  0.470337  0.807972  1
  Pt  Pt21  1  0.500000  0.529663  0.192028  1
