# generated using pymatgen
data_Nd3Al12(PdRu)2
_symmetry_space_group_name_H-M   'P 1'
_cell_length_a   8.92268400
_cell_length_b   8.98497676
_cell_length_c   9.66115800
_cell_angle_alpha   90.00000000
_cell_angle_beta   90.00000000
_cell_angle_gamma   119.77092965
_symmetry_Int_Tables_number   1
_chemical_formula_structural   Nd3Al12(PdRu)2
_chemical_formula_sum   'Nd6 Al24 Pd4 Ru4'
_cell_volume   672.31086963
_cell_formula_units_Z   2
loop_
 _symmetry_equiv_pos_site_id
 _symmetry_equiv_pos_as_xyz
  1  'x, y, z'
loop_
 _atom_site_type_symbol
 _atom_site_label
 _atom_site_symmetry_multiplicity
 _atom_site_fract_x
 _atom_site_fract_y
 _atom_site_fract_z
 _atom_site_occupancy
  Nd  Nd0  1  0.189881  0.379761  0.250000  1
  Nd  Nd1  1  0.810119  0.620239  0.750000  1
  Nd  Nd2  1  0.618745  0.811436  0.250000  1
  Nd  Nd3  1  0.381255  0.188564  0.750000  1
  Nd  Nd4  1  0.192693  0.811436  0.250000  1
  Nd  Nd5  1  0.807307  0.188564  0.750000  1
  Al  Al6  1  0.336131  0.672264  0.023029  1
  Al  Al7  1  0.663869  0.327736  0.976971  1
  Al  Al8  1  0.663869  0.327736  0.523029  1
  Al  Al9  1  0.336131  0.672264  0.476971  1
  Al  Al10  1  0.161554  0.323108  0.575295  1
  Al  Al11  1  0.838446  0.676892  0.424705  1
  Al  Al12  1  0.674167  0.842348  0.577078  1
  Al  Al13  1  0.838446  0.676892  0.075295  1
  Al  Al14  1  0.325833  0.157652  0.422922  1
  Al  Al15  1  0.161554  0.323108  0.924705  1
  Al  Al16  1  0.168181  0.842348  0.577078  1
  Al  Al17  1  0.325833  0.157652  0.077078  1
  Al  Al18  1  0.831819  0.157652  0.422922  1
  Al  Al19  1  0.674167  0.842348  0.922922  1
  Al  Al20  1  0.831819  0.157652  0.077078  1
  Al  Al21  1  0.168181  0.842348  0.922922  1
  Al  Al22  1  0.562485  0.124970  0.250000  1
  Al  Al23  1  0.437515  0.875030  0.750000  1
  Al  Al24  1  0.872433  0.435740  0.250000  1
  Al  Al25  1  0.127567  0.564260  0.750000  1
  Al  Al26  1  0.563306  0.435740  0.250000  1
  Al  Al27  1  0.436694  0.564260  0.750000  1
  Al  Al28  1  0.002190  0.004379  0.250000  1
  Al  Al29  1  0.997810  0.995621  0.750000  1
  Pd  Pd30  1  0.000000  0.500000  0.000000  1
  Pd  Pd31  1  0.500000  0.500000  0.000000  1
  Pd  Pd32  1  0.000000  0.500000  0.500000  1
  Pd  Pd33  1  0.500000  0.500000  0.500000  1
  Ru  Ru34  1  0.500000  0.000000  0.000000  1
  Ru  Ru35  1  0.500000  0.000000  0.500000  1
  Ru  Ru36  1  0.000000  0.000000  0.000000  1
  Ru  Ru37  1  0.000000  0.000000  0.500000  1
