# generated using pymatgen
data_HfMn2RuF12
_symmetry_space_group_name_H-M   'P 1'
_cell_length_a   8.25177337
_cell_length_b   5.70752319
_cell_length_c   5.76909400
_cell_angle_alpha   90.10557645
_cell_angle_beta   90.41106274
_cell_angle_gamma   89.62080278
_symmetry_Int_Tables_number   1
_chemical_formula_structural   HfMn2RuF12
_chemical_formula_sum   'Hf1 Mn2 Ru1 F12'
_cell_volume   271.69472320
_cell_formula_units_Z   1
loop_
 _symmetry_equiv_pos_site_id
 _symmetry_equiv_pos_as_xyz
  1  'x, y, z'
loop_
 _atom_site_type_symbol
 _atom_site_label
 _atom_site_symmetry_multiplicity
 _atom_site_fract_x
 _atom_site_fract_y
 _atom_site_fract_z
 _atom_site_occupancy
  Hf  Hf0  1  0.500000  0.000000  0.000000  1
  Mn  Mn1  1  0.000000  0.000000  0.000000  1
  Mn  Mn2  1  0.500000  0.500000  0.500000  1
  Ru  Ru3  1  0.000000  0.500000  0.500000  1
  F  F4  1  0.256850  0.015221  0.997520  1
  F  F5  1  0.508052  0.284194  0.204239  1
  F  F6  1  0.986923  0.296998  0.221228  1
  F  F7  1  0.010472  0.775383  0.302277  1
  F  F8  1  0.494421  0.795255  0.282038  1
  F  F9  1  0.762906  0.515962  0.508898  1
  F  F10  1  0.237094  0.484038  0.491102  1
  F  F11  1  0.505579  0.204745  0.717962  1
  F  F12  1  0.989528  0.224617  0.697723  1
  F  F13  1  0.013077  0.703002  0.778772  1
  F  F14  1  0.491948  0.715806  0.795761  1
  F  F15  1  0.743150  0.984779  0.002480  1
