# generated using pymatgen
data_CaY6NiCl12
_symmetry_space_group_name_H-M   'P 1'
_cell_length_a   8.83107405
_cell_length_b   8.83107392
_cell_length_c   8.83107327
_cell_angle_alpha   106.47616223
_cell_angle_beta   106.47615404
_cell_angle_gamma   106.47615940
_symmetry_Int_Tables_number   1
_chemical_formula_structural   CaY6NiCl12
_chemical_formula_sum   'Ca1 Y6 Ni1 Cl12'
_cell_volume   581.57134201
_cell_formula_units_Z   1
loop_
 _symmetry_equiv_pos_site_id
 _symmetry_equiv_pos_as_xyz
  1  'x, y, z'
loop_
 _atom_site_type_symbol
 _atom_site_label
 _atom_site_symmetry_multiplicity
 _atom_site_fract_x
 _atom_site_fract_y
 _atom_site_fract_z
 _atom_site_occupancy
  Ca  Ca0  1  0.500000  0.500000  0.500000  1
  Y  Y1  1  0.105344  0.022375  0.315974  1
  Y  Y2  1  0.022375  0.315974  0.105344  1
  Y  Y3  1  0.315974  0.105344  0.022375  1
  Y  Y4  1  0.894655  0.977625  0.684026  1
  Y  Y5  1  0.977625  0.684026  0.894655  1
  Y  Y6  1  0.684026  0.894655  0.977625  1
  Ni  Ni7  1  0.000000  0.000000  0.000000  1
  Cl  Cl8  1  0.072926  0.677833  0.216944  1
  Cl  Cl9  1  0.677833  0.216944  0.072926  1
  Cl  Cl10  1  0.216944  0.072926  0.677833  1
  Cl  Cl11  1  0.927074  0.322167  0.783056  1
  Cl  Cl12  1  0.322167  0.783056  0.927074  1
  Cl  Cl13  1  0.783056  0.927074  0.322167  1
  Cl  Cl14  1  0.449378  0.158899  0.372452  1
  Cl  Cl15  1  0.158899  0.372452  0.449378  1
  Cl  Cl16  1  0.372452  0.449378  0.158899  1
  Cl  Cl17  1  0.550622  0.841101  0.627548  1
  Cl  Cl18  1  0.841101  0.627548  0.550622  1
  Cl  Cl19  1  0.627548  0.550622  0.841101  1
