# generated using pymatgen
data_HoEr3Mg2(B2Rh5)2
_symmetry_space_group_name_H-M   'P 1'
_cell_length_a   9.61392427
_cell_length_b   9.61345827
_cell_length_c   3.17845300
_cell_angle_alpha   90.00000000
_cell_angle_beta   90.00000000
_cell_angle_gamma   89.97283518
_symmetry_Int_Tables_number   1
_chemical_formula_structural   HoEr3Mg2(B2Rh5)2
_chemical_formula_sum   'Ho1 Er3 Mg2 B4 Rh10'
_cell_volume   293.76231862
_cell_formula_units_Z   1
loop_
 _symmetry_equiv_pos_site_id
 _symmetry_equiv_pos_as_xyz
  1  'x, y, z'
loop_
 _atom_site_type_symbol
 _atom_site_label
 _atom_site_symmetry_multiplicity
 _atom_site_fract_x
 _atom_site_fract_y
 _atom_site_fract_z
 _atom_site_occupancy
  Ho  Ho0  1  0.675378  0.175374  0.000000  1
  Er  Er1  1  0.324607  0.824611  0.000000  1
  Er  Er2  1  0.175420  0.324587  0.000000  1
  Er  Er3  1  0.824577  0.675427  0.000000  1
  Mg  Mg4  1  0.000032  0.999983  0.000000  1
  Mg  Mg5  1  0.499984  0.500020  0.000000  1
  B  B6  1  0.123025  0.623016  0.000000  1
  B  B7  1  0.877133  0.377124  0.000000  1
  B  B8  1  0.622948  0.876922  0.000000  1
  B  B9  1  0.376910  0.122946  0.000000  1
  Rh  Rh10  1  0.499761  0.999785  0.500000  1
  Rh  Rh11  1  0.000006  0.499999  0.500000  1
  Rh  Rh12  1  0.223650  0.070676  0.500000  1
  Rh  Rh13  1  0.776424  0.929051  0.500000  1
  Rh  Rh14  1  0.070635  0.776308  0.500000  1
  Rh  Rh15  1  0.723789  0.429698  0.500000  1
  Rh  Rh16  1  0.929709  0.223800  0.500000  1
  Rh  Rh17  1  0.276308  0.570619  0.500000  1
  Rh  Rh18  1  0.570659  0.723628  0.500000  1
  Rh  Rh19  1  0.429046  0.276425  0.500000  1
