# generated using pymatgen
data_Dy8Ho12(Ir3Os)3
_symmetry_space_group_name_H-M   'P 1'
_cell_length_a   10.84396600
_cell_length_b   10.84396600
_cell_length_c   6.39766300
_cell_angle_alpha   90.00000000
_cell_angle_beta   90.00000000
_cell_angle_gamma   90.00000000
_symmetry_Int_Tables_number   1
_chemical_formula_structural   Dy8Ho12(Ir3Os)3
_chemical_formula_sum   'Dy8 Ho12 Ir9 Os3'
_cell_volume   752.31141953
_cell_formula_units_Z   1
loop_
 _symmetry_equiv_pos_site_id
 _symmetry_equiv_pos_as_xyz
  1  'x, y, z'
loop_
 _atom_site_type_symbol
 _atom_site_label
 _atom_site_symmetry_multiplicity
 _atom_site_fract_x
 _atom_site_fract_y
 _atom_site_fract_z
 _atom_site_occupancy
  Dy  Dy0  1  0.208203  0.412648  0.623632  1
  Dy  Dy1  1  0.207841  0.587447  0.119758  1
  Dy  Dy2  1  0.792159  0.412553  0.119758  1
  Dy  Dy3  1  0.791797  0.587352  0.623632  1
  Dy  Dy4  1  0.912553  0.707841  0.119758  1
  Dy  Dy5  1  0.912648  0.291797  0.623632  1
  Dy  Dy6  1  0.087352  0.708203  0.623632  1
  Dy  Dy7  1  0.087447  0.292159  0.119758  1
  Ho  Ho8  1  0.294323  0.086363  0.378167  1
  Ho  Ho9  1  0.294334  0.913886  0.878283  1
  Ho  Ho10  1  0.705666  0.086114  0.878283  1
  Ho  Ho11  1  0.705677  0.913637  0.378167  1
  Ho  Ho12  1  0.586114  0.794334  0.878283  1
  Ho  Ho13  1  0.586363  0.205677  0.378167  1
  Ho  Ho14  1  0.413637  0.794323  0.378167  1
  Ho  Ho15  1  0.413886  0.205666  0.878283  1
  Ho  Ho16  1  0.000000  0.000000  0.499446  1
  Ho  Ho17  1  0.000000  0.000000  0.999664  1
  Ho  Ho18  1  0.500000  0.500000  0.999664  1
  Ho  Ho19  1  0.500000  0.500000  0.499446  1
  Ir  Ir20  1  0.848092  0.152668  0.250123  1
  Ir  Ir21  1  0.847885  0.847506  0.749611  1
  Ir  Ir22  1  0.152115  0.152494  0.749611  1
  Ir  Ir23  1  0.151908  0.847332  0.250123  1
  Ir  Ir24  1  0.652494  0.347885  0.749611  1
  Ir  Ir25  1  0.652668  0.651908  0.250123  1
  Ir  Ir26  1  0.347332  0.348092  0.250123  1
  Ir  Ir27  1  0.347506  0.652115  0.749611  1
  Ir  Ir28  1  0.000000  0.500000  0.377613  1
  Os  Os29  1  0.500000  0.000000  0.124911  1
  Os  Os30  1  0.500000  0.000000  0.624768  1
  Os  Os31  1  0.000000  0.500000  0.876197  1
