# generated using pymatgen
data_Nd11Ho(GePd)12
_symmetry_space_group_name_H-M   'P 1'
_cell_length_a   4.51762600
_cell_length_b   7.67759104
_cell_length_c   21.86079718
_cell_angle_alpha   89.99835952
_cell_angle_beta   90.00000000
_cell_angle_gamma   90.00000000
_symmetry_Int_Tables_number   1
_chemical_formula_structural   Nd11Ho(GePd)12
_chemical_formula_sum   'Nd11 Ho1 Ge12 Pd12'
_cell_volume   758.23048950
_cell_formula_units_Z   1
loop_
 _symmetry_equiv_pos_site_id
 _symmetry_equiv_pos_as_xyz
  1  'x, y, z'
loop_
 _atom_site_type_symbol
 _atom_site_label
 _atom_site_symmetry_multiplicity
 _atom_site_fract_x
 _atom_site_fract_y
 _atom_site_fract_z
 _atom_site_occupancy
  Nd  Nd0  1  0.250000  0.709668  0.333721  1
  Nd  Nd1  1  0.750000  0.291230  0.666516  1
  Nd  Nd2  1  0.750000  0.208462  0.166936  1
  Nd  Nd3  1  0.250000  0.791141  0.833033  1
  Nd  Nd4  1  0.250000  0.790840  0.166375  1
  Nd  Nd5  1  0.750000  0.209179  0.833711  1
  Nd  Nd6  1  0.750000  0.291070  0.334394  1
  Nd  Nd7  1  0.250000  0.710242  0.665451  1
  Nd  Nd8  1  0.250000  0.715292  0.001649  1
  Nd  Nd9  1  0.750000  0.284797  0.998489  1
  Nd  Nd10  1  0.750000  0.212819  0.498663  1
  Ho  Ho11  1  0.250000  0.779672  0.501517  1
  Ge  Ge12  1  0.250000  0.088423  0.071194  1
  Ge  Ge13  1  0.750000  0.911546  0.928788  1
  Ge  Ge14  1  0.750000  0.591062  0.430295  1
  Ge  Ge15  1  0.250000  0.413751  0.570932  1
  Ge  Ge16  1  0.250000  0.083361  0.269891  1
  Ge  Ge17  1  0.750000  0.916353  0.729948  1
  Ge  Ge18  1  0.750000  0.583259  0.230431  1
  Ge  Ge19  1  0.250000  0.416566  0.769520  1
  Ge  Ge20  1  0.250000  0.084461  0.398151  1
  Ge  Ge21  1  0.750000  0.913843  0.601363  1
  Ge  Ge22  1  0.750000  0.585170  0.103228  1
  Ge  Ge23  1  0.250000  0.414767  0.896819  1
  Pd  Pd24  1  0.250000  0.416717  0.237747  1
  Pd  Pd25  1  0.750000  0.583263  0.762419  1
  Pd  Pd26  1  0.750000  0.916738  0.262819  1
  Pd  Pd27  1  0.250000  0.083133  0.737178  1
  Pd  Pd28  1  0.250000  0.419610  0.436121  1
  Pd  Pd29  1  0.750000  0.587412  0.562415  1
  Pd  Pd30  1  0.750000  0.916721  0.064802  1
  Pd  Pd31  1  0.250000  0.083162  0.935295  1
  Pd  Pd32  1  0.250000  0.419960  0.093743  1
  Pd  Pd33  1  0.750000  0.579932  0.906403  1
  Pd  Pd34  1  0.750000  0.919140  0.408231  1
  Pd  Pd35  1  0.250000  0.077240  0.591814  1
