# generated using pymatgen
data_Nd2Sc3(SiGe)2
_symmetry_space_group_name_H-M   'P 1'
_cell_length_a   7.29623800
_cell_length_b   7.54841900
_cell_length_c   14.30435100
_cell_angle_alpha   90.00000000
_cell_angle_beta   90.00000000
_cell_angle_gamma   90.00000000
_symmetry_Int_Tables_number   1
_chemical_formula_structural   Nd2Sc3(SiGe)2
_chemical_formula_sum   'Nd8 Sc12 Si8 Ge8'
_cell_volume   787.81301173
_cell_formula_units_Z   4
loop_
 _symmetry_equiv_pos_site_id
 _symmetry_equiv_pos_as_xyz
  1  'x, y, z'
loop_
 _atom_site_type_symbol
 _atom_site_label
 _atom_site_symmetry_multiplicity
 _atom_site_fract_x
 _atom_site_fract_y
 _atom_site_fract_z
 _atom_site_occupancy
  Nd  Nd0  1  0.006557  0.174635  0.099082  1
  Nd  Nd1  1  0.993443  0.825365  0.900918  1
  Nd  Nd2  1  0.493443  0.674635  0.900918  1
  Nd  Nd3  1  0.993443  0.825365  0.599082  1
  Nd  Nd4  1  0.506557  0.325365  0.099082  1
  Nd  Nd5  1  0.006557  0.174635  0.400918  1
  Nd  Nd6  1  0.506557  0.325365  0.400918  1
  Nd  Nd7  1  0.493443  0.674635  0.599082  1
  Sc  Sc8  1  0.165015  0.498505  0.750000  1
  Sc  Sc9  1  0.834985  0.501495  0.250000  1
  Sc  Sc10  1  0.334985  0.998505  0.250000  1
  Sc  Sc11  1  0.665015  0.001495  0.750000  1
  Sc  Sc12  1  0.336277  0.172816  0.626808  1
  Sc  Sc13  1  0.663723  0.827184  0.373192  1
  Sc  Sc14  1  0.163723  0.672816  0.373192  1
  Sc  Sc15  1  0.663723  0.827184  0.126808  1
  Sc  Sc16  1  0.836277  0.327184  0.626808  1
  Sc  Sc17  1  0.336277  0.172816  0.873192  1
  Sc  Sc18  1  0.836277  0.327184  0.873192  1
  Sc  Sc19  1  0.163723  0.672816  0.126808  1
  Si  Si20  1  0.038978  0.123955  0.750000  1
  Si  Si21  1  0.961022  0.876045  0.250000  1
  Si  Si22  1  0.461022  0.623955  0.250000  1
  Si  Si23  1  0.538978  0.376045  0.750000  1
  Si  Si24  1  0.292615  0.879887  0.750000  1
  Si  Si25  1  0.707385  0.120113  0.250000  1
  Si  Si26  1  0.207385  0.379887  0.250000  1
  Si  Si27  1  0.792615  0.620113  0.750000  1
  Ge  Ge28  1  0.166070  0.459089  0.540963  1
  Ge  Ge29  1  0.833930  0.540911  0.459037  1
  Ge  Ge30  1  0.333930  0.959089  0.459037  1
  Ge  Ge31  1  0.833930  0.540911  0.040963  1
  Ge  Ge32  1  0.666070  0.040911  0.540963  1
  Ge  Ge33  1  0.166070  0.459089  0.959037  1
  Ge  Ge34  1  0.666070  0.040911  0.959037  1
  Ge  Ge35  1  0.333930  0.959089  0.040963  1
