# generated using pymatgen
data_PrCd3(Os2O7)2
_symmetry_space_group_name_H-M   'P 1'
_cell_length_a   7.35348021
_cell_length_b   7.29581140
_cell_length_c   7.29581200
_cell_angle_alpha   59.99999728
_cell_angle_beta   60.25908393
_cell_angle_gamma   60.25908547
_symmetry_Int_Tables_number   1
_chemical_formula_structural   PrCd3(Os2O7)2
_chemical_formula_sum   'Pr1 Cd3 Os4 O14'
_cell_volume   277.85283038
_cell_formula_units_Z   1
loop_
 _symmetry_equiv_pos_site_id
 _symmetry_equiv_pos_as_xyz
  1  'x, y, z'
loop_
 _atom_site_type_symbol
 _atom_site_label
 _atom_site_symmetry_multiplicity
 _atom_site_fract_x
 _atom_site_fract_y
 _atom_site_fract_z
 _atom_site_occupancy
  Pr  Pr0  1  0.625000  0.125000  0.125000  1
  Cd  Cd1  1  0.125000  0.125000  0.125000  1
  Cd  Cd2  1  0.125000  0.625000  0.125000  1
  Cd  Cd3  1  0.125000  0.125000  0.625000  1
  Os  Os4  1  0.625000  0.625000  0.625000  1
  Os  Os5  1  0.125000  0.625000  0.625000  1
  Os  Os6  1  0.625000  0.125000  0.625000  1
  Os  Os7  1  0.625000  0.625000  0.125000  1
  O  O8  1  0.230743  0.256419  0.256419  1
  O  O9  1  0.019257  0.993581  0.993581  1
  O  O10  1  0.552438  0.948886  0.549790  1
  O  O11  1  0.313236  0.688829  0.309106  1
  O  O12  1  0.552438  0.549790  0.948886  1
  O  O13  1  0.936764  0.561171  0.561171  1
  O  O14  1  0.552438  0.948886  0.948886  1
  O  O15  1  0.936764  0.940894  0.561171  1
  O  O16  1  0.936764  0.561171  0.940894  1
  O  O17  1  0.697562  0.301114  0.301114  1
  O  O18  1  0.313236  0.688829  0.688829  1
  O  O19  1  0.697562  0.301114  0.700210  1
  O  O20  1  0.313236  0.309106  0.688829  1
  O  O21  1  0.697562  0.700210  0.301114  1
