# generated using pymatgen
data_Tm2Mn2Fe3P6Ir5
_symmetry_space_group_name_H-M   'P 1'
_cell_length_a   3.79595300
_cell_length_b   10.58941800
_cell_length_c   12.42317200
_cell_angle_alpha   90.00000000
_cell_angle_beta   90.00000000
_cell_angle_gamma   90.00000000
_symmetry_Int_Tables_number   1
_chemical_formula_structural   Tm2Mn2Fe3P6Ir5
_chemical_formula_sum   'Tm4 Mn4 Fe6 P12 Ir10'
_cell_volume   499.37341285
_cell_formula_units_Z   2
loop_
 _symmetry_equiv_pos_site_id
 _symmetry_equiv_pos_as_xyz
  1  'x, y, z'
loop_
 _atom_site_type_symbol
 _atom_site_label
 _atom_site_symmetry_multiplicity
 _atom_site_fract_x
 _atom_site_fract_y
 _atom_site_fract_z
 _atom_site_occupancy
  Tm  Tm0  1  0.250000  0.578015  0.715318  1
  Tm  Tm1  1  0.250000  0.921985  0.215318  1
  Tm  Tm2  1  0.750000  0.415777  0.289194  1
  Tm  Tm3  1  0.750000  0.084223  0.789194  1
  Mn  Mn4  1  0.250000  0.702396  0.985548  1
  Mn  Mn5  1  0.250000  0.797604  0.485548  1
  Mn  Mn6  1  0.750000  0.291919  0.006319  1
  Mn  Mn7  1  0.750000  0.208081  0.506319  1
  Fe  Fe8  1  0.750000  0.122347  0.304779  1
  Fe  Fe9  1  0.750000  0.377653  0.804779  1
  Fe  Fe10  1  0.250000  0.460031  0.934378  1
  Fe  Fe11  1  0.250000  0.039969  0.434378  1
  Fe  Fe12  1  0.750000  0.537988  0.064177  1
  Fe  Fe13  1  0.750000  0.962012  0.564177  1
  P  P14  1  0.250000  0.425391  0.105001  1
  P  P15  1  0.250000  0.074609  0.605001  1
  P  P16  1  0.750000  0.561707  0.889912  1
  P  P17  1  0.750000  0.938293  0.389912  1
  P  P18  1  0.250000  0.274638  0.863262  1
  P  P19  1  0.250000  0.225362  0.363262  1
  P  P20  1  0.750000  0.730530  0.132048  1
  P  P21  1  0.750000  0.769470  0.632048  1
  P  P22  1  0.250000  0.598789  0.389477  1
  P  P23  1  0.250000  0.901211  0.889477  1
  P  P24  1  0.750000  0.402319  0.622906  1
  P  P25  1  0.750000  0.097681  0.122906  1
  Ir  Ir26  1  0.250000  0.401828  0.473895  1
  Ir  Ir27  1  0.250000  0.098172  0.973895  1
  Ir  Ir28  1  0.750000  0.593372  0.524180  1
  Ir  Ir29  1  0.750000  0.906628  0.024180  1
  Ir  Ir30  1  0.250000  0.223278  0.173759  1
  Ir  Ir31  1  0.250000  0.276722  0.673759  1
  Ir  Ir32  1  0.750000  0.767052  0.826831  1
  Ir  Ir33  1  0.750000  0.732948  0.326831  1
  Ir  Ir34  1  0.250000  0.883814  0.699018  1
  Ir  Ir35  1  0.250000  0.616186  0.199018  1
