# generated using pymatgen
data_Tb20Sn12BiSb3
_symmetry_space_group_name_H-M   'P 1'
_cell_length_a   8.16440982
_cell_length_b   8.20133559
_cell_length_c   15.49681237
_cell_angle_alpha   89.97228728
_cell_angle_beta   89.96048815
_cell_angle_gamma   90.06562410
_symmetry_Int_Tables_number   1
_chemical_formula_structural   Tb20Sn12BiSb3
_chemical_formula_sum   'Tb20 Sn12 Bi1 Sb3'
_cell_volume   1037.65101528
_cell_formula_units_Z   1
loop_
 _symmetry_equiv_pos_site_id
 _symmetry_equiv_pos_as_xyz
  1  'x, y, z'
loop_
 _atom_site_type_symbol
 _atom_site_label
 _atom_site_symmetry_multiplicity
 _atom_site_fract_x
 _atom_site_fract_y
 _atom_site_fract_z
 _atom_site_occupancy
  Tb  Tb0  1  0.378582  0.837379  0.877271  1
  Tb  Tb1  1  0.877620  0.660441  0.620849  1
  Tb  Tb2  1  0.622527  0.160427  0.379116  1
  Tb  Tb3  1  0.121239  0.342648  0.121639  1
  Tb  Tb4  1  0.627109  0.162100  0.122018  1
  Tb  Tb5  1  0.124234  0.338801  0.378819  1
  Tb  Tb6  1  0.375728  0.838778  0.621299  1
  Tb  Tb7  1  0.875873  0.661491  0.878718  1
  Tb  Tb8  1  0.540657  0.328381  0.895508  1
  Tb  Tb9  1  0.040459  0.171613  0.604469  1
  Tb  Tb10  1  0.459565  0.671502  0.395645  1
  Tb  Tb11  1  0.956300  0.826692  0.105127  1
  Tb  Tb12  1  0.471270  0.674088  0.102060  1
  Tb  Tb13  1  0.970112  0.823722  0.398328  1
  Tb  Tb14  1  0.529778  0.323774  0.601676  1
  Tb  Tb15  1  0.027907  0.177429  0.897185  1
  Tb  Tb16  1  0.205266  0.500609  0.747782  1
  Tb  Tb17  1  0.705385  0.999335  0.752112  1
  Tb  Tb18  1  0.794500  0.499441  0.248002  1
  Tb  Tb19  1  0.294788  0.000695  0.253707  1
  Sn  Sn20  1  0.717220  0.967700  0.957070  1
  Sn  Sn21  1  0.217322  0.532261  0.542949  1
  Sn  Sn22  1  0.282665  0.032387  0.457218  1
  Sn  Sn23  1  0.782696  0.467790  0.042862  1
  Sn  Sn24  1  0.572414  0.622350  0.748853  1
  Sn  Sn25  1  0.072007  0.877341  0.750763  1
  Sn  Sn26  1  0.427885  0.377080  0.249158  1
  Sn  Sn27  1  0.928422  0.122625  0.250961  1
  Sn  Sn28  1  0.340493  0.145947  0.751045  1
  Sn  Sn29  1  0.840249  0.354303  0.748704  1
  Sn  Sn30  1  0.659212  0.853999  0.251217  1
  Sn  Sn31  1  0.159540  0.646331  0.249056  1
  Bi  Bi32  1  0.278749  0.029139  0.043609  1
  Sb  Sb33  1  0.777852  0.471655  0.455322  1
  Sb  Sb34  1  0.722225  0.971619  0.544721  1
  Sb  Sb35  1  0.222147  0.528127  0.955162  1
