# generated using pymatgen
data_YVFe4P3
_symmetry_space_group_name_H-M   'P 1'
_cell_length_a   3.66854900
_cell_length_b   10.38171600
_cell_length_c   11.99772500
_cell_angle_alpha   90.00000000
_cell_angle_beta   90.00000000
_cell_angle_gamma   90.00000000
_symmetry_Int_Tables_number   1
_chemical_formula_structural   YVFe4P3
_chemical_formula_sum   'Y4 V4 Fe16 P12'
_cell_volume   456.94336093
_cell_formula_units_Z   4
loop_
 _symmetry_equiv_pos_site_id
 _symmetry_equiv_pos_as_xyz
  1  'x, y, z'
loop_
 _atom_site_type_symbol
 _atom_site_label
 _atom_site_symmetry_multiplicity
 _atom_site_fract_x
 _atom_site_fract_y
 _atom_site_fract_z
 _atom_site_occupancy
  Y  Y0  1  0.250000  0.582641  0.707293  1
  Y  Y1  1  0.250000  0.917359  0.207293  1
  Y  Y2  1  0.750000  0.417359  0.292707  1
  Y  Y3  1  0.750000  0.082641  0.792707  1
  V  V4  1  0.250000  0.701036  0.990586  1
  V  V5  1  0.250000  0.798964  0.490586  1
  V  V6  1  0.750000  0.298964  0.009414  1
  V  V7  1  0.750000  0.201036  0.509414  1
  Fe  Fe8  1  0.250000  0.408507  0.492291  1
  Fe  Fe9  1  0.250000  0.091493  0.992291  1
  Fe  Fe10  1  0.750000  0.591493  0.507709  1
  Fe  Fe11  1  0.750000  0.908507  0.007709  1
  Fe  Fe12  1  0.250000  0.217204  0.176626  1
  Fe  Fe13  1  0.250000  0.282796  0.676626  1
  Fe  Fe14  1  0.750000  0.782796  0.823374  1
  Fe  Fe15  1  0.750000  0.717204  0.323374  1
  Fe  Fe16  1  0.250000  0.876550  0.700475  1
  Fe  Fe17  1  0.250000  0.623450  0.200475  1
  Fe  Fe18  1  0.750000  0.123450  0.299525  1
  Fe  Fe19  1  0.750000  0.376550  0.799525  1
  Fe  Fe20  1  0.250000  0.464106  0.933188  1
  Fe  Fe21  1  0.250000  0.035894  0.433188  1
  Fe  Fe22  1  0.750000  0.535894  0.066812  1
  Fe  Fe23  1  0.750000  0.964106  0.566812  1
  P  P24  1  0.250000  0.423901  0.112914  1
  P  P25  1  0.250000  0.076099  0.612914  1
  P  P26  1  0.750000  0.576099  0.887086  1
  P  P27  1  0.750000  0.923901  0.387086  1
  P  P28  1  0.250000  0.267036  0.868208  1
  P  P29  1  0.250000  0.232964  0.368208  1
  P  P30  1  0.750000  0.732964  0.131792  1
  P  P31  1  0.750000  0.767036  0.631792  1
  P  P32  1  0.250000  0.597165  0.390410  1
  P  P33  1  0.250000  0.902835  0.890410  1
  P  P34  1  0.750000  0.402835  0.609590  1
  P  P35  1  0.750000  0.097165  0.109590  1
