# generated using pymatgen
data_Tb2(PaGa5)3
_symmetry_space_group_name_H-M   'P 1'
_cell_length_a   12.46065289
_cell_length_b   12.46065319
_cell_length_c   12.46065248
_cell_angle_alpha   28.61847511
_cell_angle_beta   28.61847109
_cell_angle_gamma   28.61847838
_symmetry_Int_Tables_number   1
_chemical_formula_structural   Tb2(PaGa5)3
_chemical_formula_sum   'Tb2 Pa3 Ga15'
_cell_volume   392.37796939
_cell_formula_units_Z   1
loop_
 _symmetry_equiv_pos_site_id
 _symmetry_equiv_pos_as_xyz
  1  'x, y, z'
loop_
 _atom_site_type_symbol
 _atom_site_label
 _atom_site_symmetry_multiplicity
 _atom_site_fract_x
 _atom_site_fract_y
 _atom_site_fract_z
 _atom_site_occupancy
  Tb  Tb0  1  0.400137  0.400137  0.400137  1
  Tb  Tb1  1  0.599863  0.599863  0.599863  1
  Pa  Pa2  1  0.130359  0.130359  0.130359  1
  Pa  Pa3  1  0.869641  0.869641  0.869641  1
  Pa  Pa4  1  0.000000  0.000000  0.000000  1
  Ga  Ga5  1  0.434704  0.881419  0.881419  1
  Ga  Ga6  1  0.881419  0.881419  0.434704  1
  Ga  Ga7  1  0.881419  0.434704  0.881419  1
  Ga  Ga8  1  0.118581  0.565296  0.118581  1
  Ga  Ga9  1  0.118581  0.118581  0.565296  1
  Ga  Ga10  1  0.565296  0.118581  0.118581  1
  Ga  Ga11  1  0.129223  0.635367  0.635367  1
  Ga  Ga12  1  0.635367  0.635367  0.129223  1
  Ga  Ga13  1  0.635367  0.129223  0.635367  1
  Ga  Ga14  1  0.364633  0.870777  0.364633  1
  Ga  Ga15  1  0.364633  0.364633  0.870777  1
  Ga  Ga16  1  0.870777  0.364633  0.364633  1
  Ga  Ga17  1  0.500000  0.500000  0.000000  1
  Ga  Ga18  1  0.500000  0.000000  0.500000  1
  Ga  Ga19  1  0.000000  0.500000  0.500000  1
