# generated using pymatgen
data_Ti6C4O
_symmetry_space_group_name_H-M   'P 1'
_cell_length_a   5.29053864
_cell_length_b   5.29053972
_cell_length_c   5.28967811
_cell_angle_alpha   99.61380360
_cell_angle_beta   99.61380860
_cell_angle_gamma   119.71631467
_symmetry_Int_Tables_number   1
_chemical_formula_structural   Ti6C4O
_chemical_formula_sum   'Ti6 C4 O1'
_cell_volume   121.26603036
_cell_formula_units_Z   1
loop_
 _symmetry_equiv_pos_site_id
 _symmetry_equiv_pos_as_xyz
  1  'x, y, z'
loop_
 _atom_site_type_symbol
 _atom_site_label
 _atom_site_symmetry_multiplicity
 _atom_site_fract_x
 _atom_site_fract_y
 _atom_site_fract_z
 _atom_site_occupancy
  Ti  Ti0  1  0.435992  0.080263  0.250628  1
  Ti  Ti1  1  0.080263  0.435992  0.250628  1
  Ti  Ti2  1  0.738305  0.738305  0.263205  1
  Ti  Ti3  1  0.261696  0.261696  0.736796  1
  Ti  Ti4  1  0.919738  0.564009  0.749371  1
  Ti  Ti5  1  0.564009  0.919738  0.749371  1
  C  C6  1  0.666366  0.333633  0.000000  1
  C  C7  1  0.333633  0.666366  0.000000  1
  C  C8  1  0.834167  0.165834  0.500000  1
  C  C9  1  0.165834  0.834167  0.500000  1
  O  O10  1  0.500000  0.500000  0.500000  1
