# generated using pymatgen
data_Tb2YIn3SnPd2
_symmetry_space_group_name_H-M   'P 1'
_cell_length_a   7.64841406
_cell_length_b   7.64837915
_cell_length_c   4.18185800
_cell_angle_alpha   90.00000000
_cell_angle_beta   90.00000000
_cell_angle_gamma   120.01457923
_symmetry_Int_Tables_number   1
_chemical_formula_structural   Tb2YIn3SnPd2
_chemical_formula_sum   'Tb2 Y1 In3 Sn1 Pd2'
_cell_volume   211.82484277
_cell_formula_units_Z   1
loop_
 _symmetry_equiv_pos_site_id
 _symmetry_equiv_pos_as_xyz
  1  'x, y, z'
loop_
 _atom_site_type_symbol
 _atom_site_label
 _atom_site_symmetry_multiplicity
 _atom_site_fract_x
 _atom_site_fract_y
 _atom_site_fract_z
 _atom_site_occupancy
  Tb  Tb0  1  0.399853  0.416260  0.500000  1
  Tb  Tb1  1  0.583793  0.983631  0.500000  1
  Y  Y2  1  0.016224  0.600107  0.500000  1
  In  In3  1  0.743320  0.759193  0.000000  1
  In  In4  1  0.240745  0.984024  0.000000  1
  In  In5  1  0.015918  0.256759  0.000000  1
  Sn  Sn6  1  0.666784  0.333380  0.000000  1
  Pd  Pd7  1  0.333370  0.666669  0.000000  1
  Pd  Pd8  1  0.999994  0.999975  0.500000  1
