# generated using pymatgen
data_Dy3InSn3Ir2
_symmetry_space_group_name_H-M   'P 1'
_cell_length_a   7.58169900
_cell_length_b   7.58169880
_cell_length_c   4.11534000
_cell_angle_alpha   90.00000000
_cell_angle_beta   90.00000000
_cell_angle_gamma   119.99998894
_symmetry_Int_Tables_number   1
_chemical_formula_structural   Dy3InSn3Ir2
_chemical_formula_sum   'Dy3 In1 Sn3 Ir2'
_cell_volume   204.86580165
_cell_formula_units_Z   1
loop_
 _symmetry_equiv_pos_site_id
 _symmetry_equiv_pos_as_xyz
  1  'x, y, z'
loop_
 _atom_site_type_symbol
 _atom_site_label
 _atom_site_symmetry_multiplicity
 _atom_site_fract_x
 _atom_site_fract_y
 _atom_site_fract_z
 _atom_site_occupancy
  Dy  Dy0  1  0.412168  0.387738  0.500000  1
  Dy  Dy1  1  0.612262  0.024431  0.500000  1
  Dy  Dy2  1  0.975569  0.587832  0.500000  1
  In  In3  1  0.333333  0.666667  0.000000  1
  Sn  Sn4  1  0.755316  0.745477  0.000000  1
  Sn  Sn5  1  0.254523  0.009839  0.000000  1
  Sn  Sn6  1  0.990161  0.244684  0.000000  1
  Ir  Ir7  1  0.666667  0.333333  0.000000  1
  Ir  Ir8  1  0.000000  0.000000  0.500000  1
