# generated using pymatgen
data_ScSb3(PO4)6
_symmetry_space_group_name_H-M   'P 1'
_cell_length_a   8.36670219
_cell_length_b   8.36670266
_cell_length_c   8.92188200
_cell_angle_alpha   62.03794284
_cell_angle_beta   62.03794111
_cell_angle_gamma   59.99999089
_symmetry_Int_Tables_number   1
_chemical_formula_structural   ScSb3(PO4)6
_chemical_formula_sum   'Sc1 Sb3 P6 O24'
_cell_volume   454.73931998
_cell_formula_units_Z   1
loop_
 _symmetry_equiv_pos_site_id
 _symmetry_equiv_pos_as_xyz
  1  'x, y, z'
loop_
 _atom_site_type_symbol
 _atom_site_label
 _atom_site_symmetry_multiplicity
 _atom_site_fract_x
 _atom_site_fract_y
 _atom_site_fract_z
 _atom_site_occupancy
  Sc  Sc0  1  0.855705  0.855705  0.432887  1
  Sb  Sb1  1  0.148704  0.148704  0.553887  1
  Sb  Sb2  1  0.357866  0.357866  0.926402  1
  Sb  Sb3  1  0.643481  0.643481  0.069559  1
  P  P4  1  0.749320  0.039385  0.746536  1
  P  P5  1  0.039385  0.464760  0.746536  1
  P  P6  1  0.464760  0.749320  0.746536  1
  P  P7  1  0.530731  0.256519  0.250315  1
  P  P8  1  0.962435  0.530731  0.250315  1
  P  P9  1  0.256519  0.962435  0.250315  1
  O  O10  1  0.335802  0.102155  0.070357  1
  O  O11  1  0.491686  0.335802  0.070357  1
  O  O12  1  0.961804  0.013864  0.708176  1
  O  O13  1  0.102155  0.491686  0.070357  1
  O  O14  1  0.618688  0.242548  0.775406  1
  O  O15  1  0.714989  0.025902  0.602908  1
  O  O16  1  0.013864  0.316156  0.708176  1
  O  O17  1  0.242548  0.363357  0.775406  1
  O  O18  1  0.363357  0.618688  0.775406  1
  O  O19  1  0.333090  0.289493  0.403289  1
  O  O20  1  0.667509  0.049625  0.283505  1
  O  O21  1  0.974129  0.333090  0.403289  1
  O  O22  1  0.025902  0.656201  0.602908  1
  O  O23  1  0.316156  0.961804  0.708176  1
  O  O24  1  0.656201  0.714989  0.602908  1
  O  O25  1  0.616147  0.391992  0.236655  1
  O  O26  1  0.755206  0.616147  0.236655  1
  O  O27  1  0.999360  0.667509  0.283505  1
  O  O28  1  0.289493  0.974129  0.403289  1
  O  O29  1  0.391992  0.755206  0.236655  1
  O  O30  1  0.879132  0.479512  0.928607  1
  O  O31  1  0.049625  0.999360  0.283505  1
  O  O32  1  0.479512  0.712749  0.928607  1
  O  O33  1  0.712749  0.879132  0.928607  1
