# generated using pymatgen
data_Ac2Sm2Ga5Ir9
_symmetry_space_group_name_H-M   'P 1'
_cell_length_a   12.35311904
_cell_length_b   12.35311952
_cell_length_c   12.35312000
_cell_angle_alpha   26.77750701
_cell_angle_beta   26.77751290
_cell_angle_gamma   26.77750593
_symmetry_Int_Tables_number   1
_chemical_formula_structural   Ac2Sm2Ga5Ir9
_chemical_formula_sum   'Ac2 Sm2 Ga5 Ir9'
_cell_volume   337.38766644
_cell_formula_units_Z   1
loop_
 _symmetry_equiv_pos_site_id
 _symmetry_equiv_pos_as_xyz
  1  'x, y, z'
loop_
 _atom_site_type_symbol
 _atom_site_label
 _atom_site_symmetry_multiplicity
 _atom_site_fract_x
 _atom_site_fract_y
 _atom_site_fract_z
 _atom_site_occupancy
  Ac  Ac0  1  0.948690  0.948690  0.948690  1
  Ac  Ac1  1  0.051310  0.051310  0.051310  1
  Sm  Sm2  1  0.851837  0.851837  0.851837  1
  Sm  Sm3  1  0.148163  0.148163  0.148163  1
  Ga  Ga4  1  0.500000  0.500000  0.500000  1
  Ga  Ga5  1  0.721696  0.721696  0.721696  1
  Ga  Ga6  1  0.278304  0.278304  0.278304  1
  Ga  Ga7  1  0.610683  0.610683  0.610683  1
  Ga  Ga8  1  0.389317  0.389317  0.389317  1
  Ir  Ir9  1  0.500000  0.500000  0.000000  1
  Ir  Ir10  1  0.000000  0.500000  0.500000  1
  Ir  Ir11  1  0.500000  0.000000  0.500000  1
  Ir  Ir12  1  0.385730  0.896553  0.385730  1
  Ir  Ir13  1  0.385730  0.385730  0.896553  1
  Ir  Ir14  1  0.896553  0.385730  0.385730  1
  Ir  Ir15  1  0.614270  0.103447  0.614270  1
  Ir  Ir16  1  0.614270  0.614270  0.103447  1
  Ir  Ir17  1  0.103447  0.614270  0.614270  1
