# generated using pymatgen
data_Tc2B4Mo3W
_symmetry_space_group_name_H-M   'P 1'
_cell_length_a   3.10993500
_cell_length_b   7.53961570
_cell_length_c   9.66697390
_cell_angle_alpha   89.95056071
_cell_angle_beta   90.00000000
_cell_angle_gamma   90.00000000
_symmetry_Int_Tables_number   1
_chemical_formula_structural   Tc2B4Mo3W
_chemical_formula_sum   'Tc4 B8 Mo6 W2'
_cell_volume   226.66836218
_cell_formula_units_Z   2
loop_
 _symmetry_equiv_pos_site_id
 _symmetry_equiv_pos_as_xyz
  1  'x, y, z'
loop_
 _atom_site_type_symbol
 _atom_site_label
 _atom_site_symmetry_multiplicity
 _atom_site_fract_x
 _atom_site_fract_y
 _atom_site_fract_z
 _atom_site_occupancy
  Tc  Tc0  1  0.500000  0.622526  0.395755  1
  Tc  Tc1  1  0.500000  0.377474  0.604245  1
  Tc  Tc2  1  0.000000  0.876836  0.895487  1
  Tc  Tc3  1  0.000000  0.123164  0.104513  1
  B  B4  1  0.500000  0.115122  0.459442  1
  B  B5  1  0.500000  0.884878  0.540558  1
  B  B6  1  0.000000  0.385038  0.959376  1
  B  B7  1  0.000000  0.614962  0.040624  1
  B  B8  1  0.500000  0.121894  0.266646  1
  B  B9  1  0.500000  0.878106  0.733354  1
  B  B10  1  0.000000  0.377376  0.766199  1
  B  B11  1  0.000000  0.622624  0.233801  1
  Mo  Mo12  1  0.000000  0.690293  0.630254  1
  Mo  Mo13  1  0.000000  0.309707  0.369746  1
  Mo  Mo14  1  0.500000  0.577253  0.862011  1
  Mo  Mo15  1  0.500000  0.422747  0.137989  1
  Mo  Mo16  1  0.000000  0.921711  0.362155  1
  Mo  Mo17  1  0.000000  0.078289  0.637845  1
  W  W18  1  0.500000  0.811396  0.130105  1
  W  W19  1  0.500000  0.188604  0.869895  1
