# generated using pymatgen
data_La5Bi3O14
_symmetry_space_group_name_H-M   'P 1'
_cell_length_a   6.85054839
_cell_length_b   6.89288662
_cell_length_c   8.05897895
_cell_angle_alpha   106.72353417
_cell_angle_beta   89.69706189
_cell_angle_gamma   97.73708836
_symmetry_Int_Tables_number   1
_chemical_formula_structural   La5Bi3O14
_chemical_formula_sum   'La5 Bi3 O14'
_cell_volume   360.90771130
_cell_formula_units_Z   1
loop_
 _symmetry_equiv_pos_site_id
 _symmetry_equiv_pos_as_xyz
  1  'x, y, z'
loop_
 _atom_site_type_symbol
 _atom_site_label
 _atom_site_symmetry_multiplicity
 _atom_site_fract_x
 _atom_site_fract_y
 _atom_site_fract_z
 _atom_site_occupancy
  La  La0  1  0.459848  0.006277  0.254849  1
  La  La1  1  0.534765  0.002945  0.750121  1
  La  La2  1  0.264363  0.526603  0.880239  1
  La  La3  1  0.746889  0.466737  0.117384  1
  La  La4  1  0.754930  0.487726  0.619568  1
  Bi  Bi5  1  0.993333  0.999265  0.499572  1
  Bi  Bi6  1  0.998482  0.995277  0.997451  1
  Bi  Bi7  1  0.292389  0.536929  0.390422  1
  O  O8  1  0.441235  0.644249  0.175437  1
  O  O9  1  0.562979  0.362529  0.836488  1
  O  O10  1  0.292713  0.921876  0.953180  1
  O  O11  1  0.705730  0.070176  0.048480  1
  O  O12  1  0.286267  0.925911  0.512687  1
  O  O13  1  0.706764  0.087167  0.494143  1
  O  O14  1  0.544626  0.363742  0.345144  1
  O  O15  1  0.457435  0.639541  0.648283  1
  O  O16  1  0.924132  0.670123  0.947532  1
  O  O17  1  0.071566  0.312154  0.025767  1
  O  O18  1  0.072774  0.324677  0.622897  1
  O  O19  1  0.900182  0.678396  0.386331  1
  O  O20  1  0.888575  0.911637  0.728215  1
  O  O21  1  0.100023  0.066062  0.265810  1
