# generated using pymatgen
data_LiSm6Al17(Tc3Os4)2
_symmetry_space_group_name_H-M   'P 1'
_cell_length_a   8.85013300
_cell_length_b   8.85013275
_cell_length_c   9.66450300
_cell_angle_alpha   90.00000000
_cell_angle_beta   90.00000000
_cell_angle_gamma   119.99999721
_symmetry_Int_Tables_number   1
_chemical_formula_structural   LiSm6Al17(Tc3Os4)2
_chemical_formula_sum   'Li1 Sm6 Al17 Tc6 Os8'
_cell_volume   655.55593156
_cell_formula_units_Z   1
loop_
 _symmetry_equiv_pos_site_id
 _symmetry_equiv_pos_as_xyz
  1  'x, y, z'
loop_
 _atom_site_type_symbol
 _atom_site_label
 _atom_site_symmetry_multiplicity
 _atom_site_fract_x
 _atom_site_fract_y
 _atom_site_fract_z
 _atom_site_occupancy
  Li  Li0  1  0.000000  0.000000  0.250000  1
  Sm  Sm1  1  0.189061  0.378120  0.250000  1
  Sm  Sm2  1  0.804240  0.608481  0.750000  1
  Sm  Sm3  1  0.621880  0.810939  0.250000  1
  Sm  Sm4  1  0.391519  0.195760  0.750000  1
  Sm  Sm5  1  0.189061  0.810939  0.250000  1
  Sm  Sm6  1  0.804240  0.195760  0.750000  1
  Al  Al7  1  0.333333  0.666667  0.006806  1
  Al  Al8  1  0.666667  0.333333  0.993319  1
  Al  Al9  1  0.666667  0.333333  0.506681  1
  Al  Al10  1  0.333333  0.666667  0.493194  1
  Al  Al11  1  0.164722  0.329446  0.576934  1
  Al  Al12  1  0.836654  0.673306  0.423252  1
  Al  Al13  1  0.670554  0.835278  0.576934  1
  Al  Al14  1  0.836654  0.673306  0.076748  1
  Al  Al15  1  0.326694  0.163346  0.423252  1
  Al  Al16  1  0.164722  0.329446  0.923066  1
  Al  Al17  1  0.164722  0.835278  0.576934  1
  Al  Al18  1  0.326694  0.163346  0.076748  1
  Al  Al19  1  0.836654  0.163346  0.423252  1
  Al  Al20  1  0.670554  0.835278  0.923066  1
  Al  Al21  1  0.836654  0.163346  0.076748  1
  Al  Al22  1  0.164722  0.835278  0.923066  1
  Al  Al23  1  0.000000  0.000000  0.750000  1
  Tc  Tc24  1  0.573235  0.146471  0.250000  1
  Tc  Tc25  1  0.426695  0.853390  0.750000  1
  Tc  Tc26  1  0.853529  0.426765  0.250000  1
  Tc  Tc27  1  0.146610  0.573305  0.750000  1
  Tc  Tc28  1  0.573235  0.426765  0.250000  1
  Tc  Tc29  1  0.426695  0.573305  0.750000  1
  Os  Os30  1  0.499619  0.999238  0.001076  1
  Os  Os31  1  0.000762  0.500381  0.001076  1
  Os  Os32  1  0.499619  0.999238  0.498924  1
  Os  Os33  1  0.499619  0.500381  0.001076  1
  Os  Os34  1  0.000762  0.500381  0.498924  1
  Os  Os35  1  0.499619  0.500381  0.498924  1
  Os  Os36  1  0.000000  0.000000  0.996157  1
  Os  Os37  1  0.000000  0.000000  0.503843  1
