# generated using pymatgen
data_CuPd(RuO3)4
_symmetry_space_group_name_H-M   'P 1'
_cell_length_a   4.57153631
_cell_length_b   4.57153631
_cell_length_c   9.34793600
_cell_angle_alpha   90.00000000
_cell_angle_beta   90.00000000
_cell_angle_gamma   90.04221167
_symmetry_Int_Tables_number   1
_chemical_formula_structural   CuPd(RuO3)4
_chemical_formula_sum   'Cu1 Pd1 Ru4 O12'
_cell_volume   195.36194016
_cell_formula_units_Z   1
loop_
 _symmetry_equiv_pos_site_id
 _symmetry_equiv_pos_as_xyz
  1  'x, y, z'
loop_
 _atom_site_type_symbol
 _atom_site_label
 _atom_site_symmetry_multiplicity
 _atom_site_fract_x
 _atom_site_fract_y
 _atom_site_fract_z
 _atom_site_occupancy
  Cu  Cu0  1  0.500000  0.500000  0.500000  1
  Pd  Pd1  1  0.000000  0.000000  0.000000  1
  Ru  Ru2  1  0.500000  0.500000  0.830809  1
  Ru  Ru3  1  0.000000  0.000000  0.335729  1
  Ru  Ru4  1  0.500000  0.500000  0.169191  1
  Ru  Ru5  1  0.000000  0.000000  0.664271  1
  O  O6  1  0.705835  0.705835  0.675900  1
  O  O7  1  0.294165  0.294165  0.675900  1
  O  O8  1  0.705835  0.705835  0.324100  1
  O  O9  1  0.200250  0.799750  0.172607  1
  O  O10  1  0.799750  0.200250  0.172607  1
  O  O11  1  0.799750  0.200250  0.827393  1
  O  O12  1  0.315408  0.315408  0.000000  1
  O  O13  1  0.193931  0.806069  0.500000  1
  O  O14  1  0.806069  0.193931  0.500000  1
  O  O15  1  0.684592  0.684592  0.000000  1
  O  O16  1  0.294165  0.294165  0.324100  1
  O  O17  1  0.200250  0.799750  0.827393  1
