# generated using pymatgen
data_LiTb15ErIn3Rh4
_symmetry_space_group_name_H-M   'P 1'
_cell_length_a   9.68953777
_cell_length_b   9.68953803
_cell_length_c   9.68444934
_cell_angle_alpha   59.93396144
_cell_angle_beta   59.93395837
_cell_angle_gamma   59.91337862
_symmetry_Int_Tables_number   1
_chemical_formula_structural   LiTb15ErIn3Rh4
_chemical_formula_sum   'Li1 Tb15 Er1 In3 Rh4'
_cell_volume   641.87030933
_cell_formula_units_Z   1
loop_
 _symmetry_equiv_pos_site_id
 _symmetry_equiv_pos_as_xyz
  1  'x, y, z'
loop_
 _atom_site_type_symbol
 _atom_site_label
 _atom_site_symmetry_multiplicity
 _atom_site_fract_x
 _atom_site_fract_y
 _atom_site_fract_z
 _atom_site_occupancy
  Li  Li0  1  0.427758  0.427758  0.427834  1
  Tb  Tb1  1  0.808522  0.190708  0.809169  1
  Tb  Tb2  1  0.187455  0.187455  0.813496  1
  Tb  Tb3  1  0.650437  0.047404  0.650221  1
  Tb  Tb4  1  0.061697  0.061697  0.438062  1
  Tb  Tb5  1  0.436684  0.436684  0.063106  1
  Tb  Tb6  1  0.650743  0.650743  0.649687  1
  Tb  Tb7  1  0.813544  0.186795  0.187446  1
  Tb  Tb8  1  0.190708  0.808522  0.809169  1
  Tb  Tb9  1  0.047404  0.650437  0.650221  1
  Tb  Tb10  1  0.438642  0.061160  0.061845  1
  Tb  Tb11  1  0.436984  0.062904  0.436115  1
  Tb  Tb12  1  0.061160  0.438642  0.061845  1
  Tb  Tb13  1  0.650399  0.650399  0.047975  1
  Tb  Tb14  1  0.186795  0.813544  0.187446  1
  Tb  Tb15  1  0.062904  0.436984  0.436115  1
  Er  Er16  1  0.808554  0.808554  0.191244  1
  In  In17  1  0.418015  0.418015  0.745072  1
  In  In18  1  0.418210  0.745206  0.417844  1
  In  In19  1  0.745206  0.418210  0.417844  1
  Rh  Rh20  1  0.857682  0.426066  0.857590  1
  Rh  Rh21  1  0.856869  0.856869  0.857719  1
  Rh  Rh22  1  0.857561  0.857561  0.425343  1
  Rh  Rh23  1  0.426066  0.857682  0.857590  1
