# generated using pymatgen
data_ErHf(NiP)3
_symmetry_space_group_name_H-M   'P 1'
_cell_length_a   3.71967300
_cell_length_b   10.12487300
_cell_length_c   12.26874100
_cell_angle_alpha   90.00000000
_cell_angle_beta   90.00000000
_cell_angle_gamma   90.00000000
_symmetry_Int_Tables_number   1
_chemical_formula_structural   ErHf(NiP)3
_chemical_formula_sum   'Er4 Hf4 Ni12 P12'
_cell_volume   462.05571376
_cell_formula_units_Z   4
loop_
 _symmetry_equiv_pos_site_id
 _symmetry_equiv_pos_as_xyz
  1  'x, y, z'
loop_
 _atom_site_type_symbol
 _atom_site_label
 _atom_site_symmetry_multiplicity
 _atom_site_fract_x
 _atom_site_fract_y
 _atom_site_fract_z
 _atom_site_occupancy
  Er  Er0  1  0.250000  0.070796  0.207318  1
  Er  Er1  1  0.750000  0.929204  0.792682  1
  Er  Er2  1  0.750000  0.570796  0.292682  1
  Er  Er3  1  0.250000  0.429204  0.707318  1
  Hf  Hf4  1  0.250000  0.159914  0.497124  1
  Hf  Hf5  1  0.750000  0.840086  0.502876  1
  Hf  Hf6  1  0.750000  0.659914  0.002876  1
  Hf  Hf7  1  0.250000  0.340086  0.997124  1
  Ni  Ni8  1  0.250000  0.728237  0.664675  1
  Ni  Ni9  1  0.750000  0.271763  0.335325  1
  Ni  Ni10  1  0.750000  0.228237  0.835325  1
  Ni  Ni11  1  0.250000  0.771763  0.164675  1
  Ni  Ni12  1  0.250000  0.365096  0.217976  1
  Ni  Ni13  1  0.750000  0.634904  0.782024  1
  Ni  Ni14  1  0.750000  0.865096  0.282024  1
  Ni  Ni15  1  0.250000  0.134904  0.717976  1
  Ni  Ni16  1  0.250000  0.599902  0.483064  1
  Ni  Ni17  1  0.750000  0.400098  0.516936  1
  Ni  Ni18  1  0.750000  0.099902  0.016936  1
  Ni  Ni19  1  0.250000  0.900098  0.983064  1
  P  P20  1  0.250000  0.945220  0.622656  1
  P  P21  1  0.750000  0.054780  0.377344  1
  P  P22  1  0.750000  0.445220  0.877344  1
  P  P23  1  0.250000  0.554780  0.122656  1
  P  P24  1  0.250000  0.394476  0.402343  1
  P  P25  1  0.750000  0.605524  0.597657  1
  P  P26  1  0.750000  0.894476  0.097657  1
  P  P27  1  0.250000  0.105524  0.902343  1
  P  P28  1  0.250000  0.769606  0.355395  1
  P  P29  1  0.750000  0.230394  0.644605  1
  P  P30  1  0.750000  0.269606  0.144605  1
  P  P31  1  0.250000  0.730394  0.855395  1
