# generated using pymatgen
data_LuU6MnSb10
_symmetry_space_group_name_H-M   'P 1'
_cell_length_a   9.23832100
_cell_length_b   9.23832103
_cell_length_c   6.18762300
_cell_angle_alpha   90.00000000
_cell_angle_beta   90.00000000
_cell_angle_gamma   119.99999630
_symmetry_Int_Tables_number   1
_chemical_formula_structural   LuU6MnSb10
_chemical_formula_sum   'Lu1 U6 Mn1 Sb10'
_cell_volume   457.34147838
_cell_formula_units_Z   1
loop_
 _symmetry_equiv_pos_site_id
 _symmetry_equiv_pos_as_xyz
  1  'x, y, z'
loop_
 _atom_site_type_symbol
 _atom_site_label
 _atom_site_symmetry_multiplicity
 _atom_site_fract_x
 _atom_site_fract_y
 _atom_site_fract_z
 _atom_site_occupancy
  Lu  Lu0  1  0.000000  0.000000  0.000000  1
  U  U1  1  0.387804  0.000000  0.754190  1
  U  U2  1  0.387804  0.387804  0.245810  1
  U  U3  1  0.000000  0.612196  0.245810  1
  U  U4  1  0.000000  0.387804  0.754190  1
  U  U5  1  0.612196  0.612196  0.754190  1
  U  U6  1  0.612196  0.000000  0.245810  1
  Mn  Mn7  1  0.000000  0.000000  0.500000  1
  Sb  Sb8  1  0.666667  0.333333  0.500000  1
  Sb  Sb9  1  0.333333  0.666667  0.000000  1
  Sb  Sb10  1  0.733813  0.000000  0.737409  1
  Sb  Sb11  1  0.733813  0.733813  0.262591  1
  Sb  Sb12  1  0.333333  0.666667  0.500000  1
  Sb  Sb13  1  0.666667  0.333333  0.000000  1
  Sb  Sb14  1  0.266187  0.000000  0.262591  1
  Sb  Sb15  1  0.266187  0.266187  0.737409  1
  Sb  Sb16  1  0.000000  0.733813  0.737409  1
  Sb  Sb17  1  0.000000  0.266187  0.262591  1
