# generated using pymatgen
data_Dy2Ho3Hf5(Si5Ir2)4
_symmetry_space_group_name_H-M   'P 1'
_cell_length_a   12.48091745
_cell_length_b   12.48116945
_cell_length_c   4.16292800
_cell_angle_alpha   90.00000000
_cell_angle_beta   90.00000000
_cell_angle_gamma   90.03088572
_symmetry_Int_Tables_number   1
_chemical_formula_structural   Dy2Ho3Hf5(Si5Ir2)4
_chemical_formula_sum   'Dy2 Ho3 Hf5 Si20 Ir8'
_cell_volume   648.48603319
_cell_formula_units_Z   1
loop_
 _symmetry_equiv_pos_site_id
 _symmetry_equiv_pos_as_xyz
  1  'x, y, z'
loop_
 _atom_site_type_symbol
 _atom_site_label
 _atom_site_symmetry_multiplicity
 _atom_site_fract_x
 _atom_site_fract_y
 _atom_site_fract_z
 _atom_site_occupancy
  Dy  Dy0  1  0.884117  0.384698  0.500000  1
  Dy  Dy1  1  0.115883  0.615302  0.500000  1
  Ho  Ho2  1  0.000000  0.000000  0.000000  1
  Ho  Ho3  1  0.384712  0.115865  0.500000  1
  Ho  Ho4  1  0.615288  0.884135  0.500000  1
  Hf  Hf5  1  0.500000  0.500000  0.000000  1
  Hf  Hf6  1  0.673696  0.175179  0.500000  1
  Hf  Hf7  1  0.326304  0.824821  0.500000  1
  Hf  Hf8  1  0.175247  0.326227  0.500000  1
  Hf  Hf9  1  0.824753  0.673773  0.500000  1
  Si  Si10  1  0.565729  0.067818  0.000000  1
  Si  Si11  1  0.434271  0.932182  0.000000  1
  Si  Si12  1  0.067892  0.434184  0.000000  1
  Si  Si13  1  0.932108  0.565816  0.000000  1
  Si  Si14  1  0.665497  0.701576  0.000000  1
  Si  Si15  1  0.334503  0.298424  0.000000  1
  Si  Si16  1  0.163907  0.800585  0.000000  1
  Si  Si17  1  0.836093  0.199415  0.000000  1
  Si  Si18  1  0.298525  0.665506  0.000000  1
  Si  Si19  1  0.701475  0.334494  0.000000  1
  Si  Si20  1  0.199513  0.163888  0.000000  1
  Si  Si21  1  0.800487  0.836112  0.000000  1
  Si  Si22  1  0.650984  0.508041  0.500000  1
  Si  Si23  1  0.349016  0.491959  0.500000  1
  Si  Si24  1  0.156639  0.992717  0.500000  1
  Si  Si25  1  0.843361  0.007283  0.500000  1
  Si  Si26  1  0.491972  0.651024  0.500000  1
  Si  Si27  1  0.508028  0.348976  0.500000  1
  Si  Si28  1  0.007304  0.156588  0.500000  1
  Si  Si29  1  0.992696  0.843412  0.500000  1
  Ir  Ir30  1  0.741759  0.521912  0.000000  1
  Ir  Ir31  1  0.258241  0.478088  0.000000  1
  Ir  Ir32  1  0.246593  0.977857  0.000000  1
  Ir  Ir33  1  0.753407  0.022143  0.000000  1
  Ir  Ir34  1  0.478267  0.741989  0.000000  1
  Ir  Ir35  1  0.521733  0.258011  0.000000  1
  Ir  Ir36  1  0.022322  0.246355  0.000000  1
  Ir  Ir37  1  0.977678  0.753645  0.000000  1
