# generated using pymatgen
data_CeSmZnNi9
_symmetry_space_group_name_H-M   'P 1'
_cell_length_a   4.00275600
_cell_length_b   4.92455500
_cell_length_c   8.48006800
_cell_angle_alpha   90.00000000
_cell_angle_beta   90.00000000
_cell_angle_gamma   90.00000000
_symmetry_Int_Tables_number   1
_chemical_formula_structural   CeSmZnNi9
_chemical_formula_sum   'Ce1 Sm1 Zn1 Ni9'
_cell_volume   167.15733719
_cell_formula_units_Z   1
loop_
 _symmetry_equiv_pos_site_id
 _symmetry_equiv_pos_as_xyz
  1  'x, y, z'
loop_
 _atom_site_type_symbol
 _atom_site_label
 _atom_site_symmetry_multiplicity
 _atom_site_fract_x
 _atom_site_fract_y
 _atom_site_fract_z
 _atom_site_occupancy
  Ce  Ce0  1  0.000000  0.500000  0.000000  1
  Sm  Sm1  1  0.000000  0.000000  0.500000  1
  Zn  Zn2  1  0.500000  0.500000  0.500000  1
  Ni  Ni3  1  0.000000  0.500000  0.318916  1
  Ni  Ni4  1  0.000000  0.000000  0.837728  1
  Ni  Ni5  1  0.000000  0.000000  0.162272  1
  Ni  Ni6  1  0.000000  0.500000  0.681084  1
  Ni  Ni7  1  0.500000  0.000000  0.000000  1
  Ni  Ni8  1  0.500000  0.752359  0.247772  1
  Ni  Ni9  1  0.500000  0.247641  0.752228  1
  Ni  Ni10  1  0.500000  0.247641  0.247772  1
  Ni  Ni11  1  0.500000  0.752359  0.752228  1
