# generated using pymatgen
data_Sc22Ir3Os5
_symmetry_space_group_name_H-M   'P 1'
_cell_length_a   9.43660701
_cell_length_b   9.47756184
_cell_length_c   9.46673076
_cell_angle_alpha   60.15599898
_cell_angle_beta   60.18107710
_cell_angle_gamma   60.06703778
_symmetry_Int_Tables_number   1
_chemical_formula_structural   Sc22Ir3Os5
_chemical_formula_sum   'Sc22 Ir3 Os5'
_cell_volume   600.50939174
_cell_formula_units_Z   1
loop_
 _symmetry_equiv_pos_site_id
 _symmetry_equiv_pos_as_xyz
  1  'x, y, z'
loop_
 _atom_site_type_symbol
 _atom_site_label
 _atom_site_symmetry_multiplicity
 _atom_site_fract_x
 _atom_site_fract_y
 _atom_site_fract_z
 _atom_site_occupancy
  Sc  Sc0  1  0.803029  0.801635  0.198365  1
  Sc  Sc1  1  0.196910  0.801803  0.198197  1
  Sc  Sc2  1  0.802316  0.197684  0.197684  1
  Sc  Sc3  1  0.196971  0.198365  0.801635  1
  Sc  Sc4  1  0.803090  0.198197  0.801803  1
  Sc  Sc5  1  0.197684  0.802316  0.802316  1
  Sc  Sc6  1  0.616490  0.614561  0.149589  1
  Sc  Sc7  1  0.619359  0.149589  0.614561  1
  Sc  Sc8  1  0.148213  0.617524  0.614921  1
  Sc  Sc9  1  0.619340  0.614921  0.617524  1
  Sc  Sc10  1  0.383510  0.385439  0.850411  1
  Sc  Sc11  1  0.380641  0.850411  0.385439  1
  Sc  Sc12  1  0.851787  0.382476  0.385079  1
  Sc  Sc13  1  0.380660  0.385079  0.382476  1
  Sc  Sc14  1  0.844238  0.843869  0.468675  1
  Sc  Sc15  1  0.843217  0.468675  0.843869  1
  Sc  Sc16  1  0.468527  0.842948  0.844559  1
  Sc  Sc17  1  0.843965  0.844559  0.842948  1
  Sc  Sc18  1  0.155762  0.156131  0.531325  1
  Sc  Sc19  1  0.156783  0.531325  0.156131  1
  Sc  Sc20  1  0.531473  0.157052  0.155441  1
  Sc  Sc21  1  0.156035  0.155441  0.157052  1
  Ir  Ir22  1  0.500000  0.000000  0.500000  1
  Ir  Ir23  1  0.000000  0.500000  0.000000  1
  Ir  Ir24  1  0.500000  0.000000  0.000000  1
  Os  Os25  1  0.000000  0.000000  0.000000  1
  Os  Os26  1  0.500000  0.500000  0.500000  1
  Os  Os27  1  0.000000  0.000000  0.500000  1
  Os  Os28  1  0.000000  0.500000  0.500000  1
  Os  Os29  1  0.500000  0.500000  0.000000  1
