# generated using pymatgen
data_Hf7MgMnSi16Ru11
_symmetry_space_group_name_H-M   'P 1'
_cell_length_a   9.87731497
_cell_length_b   9.87787040
_cell_length_c   13.32566853
_cell_angle_alpha   53.96263655
_cell_angle_beta   53.91271815
_cell_angle_gamma   31.16265458
_symmetry_Int_Tables_number   1
_chemical_formula_structural   Hf7MgMnSi16Ru11
_chemical_formula_sum   'Hf7 Mg1 Mn1 Si16 Ru11'
_cell_volume   532.53178778
_cell_formula_units_Z   1
loop_
 _symmetry_equiv_pos_site_id
 _symmetry_equiv_pos_as_xyz
  1  'x, y, z'
loop_
 _atom_site_type_symbol
 _atom_site_label
 _atom_site_symmetry_multiplicity
 _atom_site_fract_x
 _atom_site_fract_y
 _atom_site_fract_z
 _atom_site_occupancy
  Hf  Hf0  1  0.440793  0.706396  0.852537  1
  Hf  Hf1  1  0.703068  0.448529  0.351839  1
  Hf  Hf2  1  0.556302  0.292483  0.149633  1
  Hf  Hf3  1  0.037659  0.296633  0.635076  1
  Hf  Hf4  1  0.705496  0.962604  0.862483  1
  Hf  Hf5  1  0.957151  0.704522  0.364609  1
  Hf  Hf6  1  0.294122  0.040643  0.135963  1
  Mg  Mg7  1  0.307959  0.559181  0.637259  1
  Mn  Mn8  1  0.652345  0.822718  0.281572  1
  Si  Si9  1  0.875691  0.123746  0.250999  1
  Si  Si10  1  0.125204  0.872165  0.750078  1
  Si  Si11  1  0.383250  0.615225  0.250448  1
  Si  Si12  1  0.620466  0.380145  0.749667  1
  Si  Si13  1  0.969823  0.256153  0.894276  1
  Si  Si14  1  0.744698  0.027976  0.606666  1
  Si  Si15  1  0.016107  0.748556  0.112911  1
  Si  Si16  1  0.260425  0.974167  0.389181  1
  Si  Si17  1  0.577359  0.075522  0.070425  1
  Si  Si18  1  0.906619  0.435337  0.433891  1
  Si  Si19  1  0.421679  0.922661  0.934412  1
  Si  Si20  1  0.087519  0.573180  0.566233  1
  Si  Si21  1  0.390210  0.137428  0.394315  1
  Si  Si22  1  0.853198  0.614904  0.106800  1
  Si  Si23  1  0.613824  0.855614  0.603779  1
  Si  Si24  1  0.145137  0.392877  0.891293  1
  Ru  Ru25  1  0.173933  0.347080  0.220750  1
  Ru  Ru26  1  0.758863  0.482661  0.070329  1
  Ru  Ru27  1  0.823476  0.650469  0.783367  1
  Ru  Ru28  1  0.901868  0.139293  0.584215  1
  Ru  Ru29  1  0.858844  0.098579  0.916659  1
  Ru  Ru30  1  0.104889  0.857095  0.413017  1
  Ru  Ru31  1  0.143030  0.895684  0.085571  1
  Ru  Ru32  1  0.242928  0.513093  0.933652  1
  Ru  Ru33  1  0.481226  0.764861  0.568349  1
  Ru  Ru34  1  0.516820  0.237641  0.429838  1
  Ru  Ru35  1  0.348019  0.174181  0.717909  1
