# generated using pymatgen
data_Tb5Sc(Rh2Pb)6
_symmetry_space_group_name_H-M   'P 1'
_cell_length_a   4.61637200
_cell_length_b   7.24742000
_cell_length_c   13.65163900
_cell_angle_alpha   90.00000000
_cell_angle_beta   90.00080008
_cell_angle_gamma   90.00000000
_symmetry_Int_Tables_number   1
_chemical_formula_structural   Tb5Sc(Rh2Pb)6
_chemical_formula_sum   'Tb5 Sc1 Rh12 Pb6'
_cell_volume   456.73997493
_cell_formula_units_Z   1
loop_
 _symmetry_equiv_pos_site_id
 _symmetry_equiv_pos_as_xyz
  1  'x, y, z'
loop_
 _atom_site_type_symbol
 _atom_site_label
 _atom_site_symmetry_multiplicity
 _atom_site_fract_x
 _atom_site_fract_y
 _atom_site_fract_z
 _atom_site_occupancy
  Tb  Tb0  1  0.000034  0.000000  0.997699  1
  Tb  Tb1  1  0.499998  0.500000  0.165119  1
  Tb  Tb2  1  0.999952  0.000000  0.333324  1
  Tb  Tb3  1  0.500012  0.500000  0.501481  1
  Tb  Tb4  1  0.000018  0.000000  0.669030  1
  Sc  Sc5  1  0.499993  0.500000  0.833344  1
  Rh  Rh6  1  0.499986  0.258257  0.994319  1
  Rh  Rh7  1  0.499986  0.741743  0.994319  1
  Rh  Rh8  1  0.999989  0.249104  0.165513  1
  Rh  Rh9  1  0.999989  0.750896  0.165513  1
  Rh  Rh10  1  0.500014  0.250411  0.333334  1
  Rh  Rh11  1  0.500014  0.749589  0.333334  1
  Rh  Rh12  1  0.999958  0.249122  0.501085  1
  Rh  Rh13  1  0.999958  0.750879  0.501085  1
  Rh  Rh14  1  0.500009  0.258208  0.672425  1
  Rh  Rh15  1  0.500009  0.741792  0.672425  1
  Rh  Rh16  1  0.999998  0.260586  0.833337  1
  Rh  Rh17  1  0.999998  0.739414  0.833337  1
  Pb  Pb18  1  0.999952  0.500000  0.997260  1
  Pb  Pb19  1  0.499801  0.000000  0.164502  1
  Pb  Pb20  1  0.999985  0.500000  0.333143  1
  Pb  Pb21  1  0.499757  0.000000  0.502256  1
  Pb  Pb22  1  0.000232  0.500000  0.669332  1
  Pb  Pb23  1  0.500355  0.000000  0.833483  1
