# generated using pymatgen
data_YbPr4TlSi2
_symmetry_space_group_name_H-M   'P 1'
_cell_length_a   7.91665300
_cell_length_b   9.29024992
_cell_length_c   7.91665300
_cell_angle_alpha   115.21862254
_cell_angle_beta   90.00000000
_cell_angle_gamma   115.21862254
_symmetry_Int_Tables_number   1
_chemical_formula_structural   YbPr4TlSi2
_chemical_formula_sum   'Yb2 Pr8 Tl2 Si4'
_cell_volume   464.68010257
_cell_formula_units_Z   2
loop_
 _symmetry_equiv_pos_site_id
 _symmetry_equiv_pos_as_xyz
  1  'x, y, z'
loop_
 _atom_site_type_symbol
 _atom_site_label
 _atom_site_symmetry_multiplicity
 _atom_site_fract_x
 _atom_site_fract_y
 _atom_site_fract_z
 _atom_site_occupancy
  Yb  Yb0  1  0.000000  0.000000  0.000000  1
  Yb  Yb1  1  0.500000  0.000000  0.500000  1
  Pr  Pr2  1  0.537744  0.722801  0.685058  1
  Pr  Pr3  1  0.185058  0.722801  0.037744  1
  Pr  Pr4  1  0.685058  0.722801  0.185058  1
  Pr  Pr5  1  0.037744  0.722801  0.537744  1
  Pr  Pr6  1  0.462256  0.277199  0.314942  1
  Pr  Pr7  1  0.814942  0.277199  0.962256  1
  Pr  Pr8  1  0.314942  0.277199  0.814942  1
  Pr  Pr9  1  0.962256  0.277199  0.462256  1
  Tl  Tl10  1  0.750000  0.500000  0.750000  1
  Tl  Tl11  1  0.250000  0.500000  0.250000  1
  Si  Si12  1  0.885661  0.000000  0.614339  1
  Si  Si13  1  0.114339  0.000000  0.385661  1
  Si  Si14  1  0.614339  0.000000  0.114339  1
  Si  Si15  1  0.385661  0.000000  0.885661  1
