# generated using pymatgen
data_Dy8ReTc11Ge16
_symmetry_space_group_name_H-M   'P 1'
_cell_length_a   6.95578171
_cell_length_b   6.95427941
_cell_length_c   12.98681574
_cell_angle_alpha   90.09640884
_cell_angle_beta   90.00796159
_cell_angle_gamma   89.95540255
_symmetry_Int_Tables_number   1
_chemical_formula_structural   Dy8ReTc11Ge16
_chemical_formula_sum   'Dy8 Re1 Tc11 Ge16'
_cell_volume   628.20300326
_cell_formula_units_Z   1
loop_
 _symmetry_equiv_pos_site_id
 _symmetry_equiv_pos_as_xyz
  1  'x, y, z'
loop_
 _atom_site_type_symbol
 _atom_site_label
 _atom_site_symmetry_multiplicity
 _atom_site_fract_x
 _atom_site_fract_y
 _atom_site_fract_z
 _atom_site_occupancy
  Dy  Dy0  1  0.008972  0.661036  0.028401  1
  Dy  Dy1  1  0.992630  0.337503  0.527281  1
  Dy  Dy2  1  0.662674  0.007371  0.972488  1
  Dy  Dy3  1  0.160610  0.491974  0.777559  1
  Dy  Dy4  1  0.840827  0.507514  0.277663  1
  Dy  Dy5  1  0.493630  0.160337  0.222749  1
  Dy  Dy6  1  0.507808  0.838097  0.722263  1
  Dy  Dy7  1  0.339603  0.991030  0.471494  1
  Re  Re8  1  0.685004  0.518023  0.876556  1
  Tc  Tc9  1  0.306945  0.477599  0.379584  1
  Tc  Tc10  1  0.810042  0.018866  0.372639  1
  Tc  Tc11  1  0.982292  0.188471  0.126639  1
  Tc  Tc12  1  0.019314  0.811300  0.628053  1
  Tc  Tc13  1  0.480605  0.314333  0.623623  1
  Tc  Tc14  1  0.187015  0.981980  0.872861  1
  Tc  Tc15  1  0.661851  0.662457  0.499949  1
  Tc  Tc16  1  0.836399  0.162980  0.750330  1
  Tc  Tc17  1  0.164126  0.836864  0.249964  1
  Tc  Tc18  1  0.338907  0.337990  0.999967  1
  Tc  Tc19  1  0.523193  0.693000  0.120093  1
  Ge  Ge20  1  0.015472  0.726012  0.435242  1
  Ge  Ge21  1  0.981826  0.276455  0.934380  1
  Ge  Ge22  1  0.724730  0.017694  0.565769  1
  Ge  Ge23  1  0.230908  0.484445  0.185281  1
  Ge  Ge24  1  0.776416  0.517975  0.683244  1
  Ge  Ge25  1  0.480414  0.221927  0.816022  1
  Ge  Ge26  1  0.515774  0.769607  0.314446  1
  Ge  Ge27  1  0.276179  0.984445  0.065487  1
  Ge  Ge28  1  0.812570  0.889403  0.182699  1
  Ge  Ge29  1  0.309541  0.612402  0.567761  1
  Ge  Ge30  1  0.690103  0.388900  0.067762  1
  Ge  Ge31  1  0.610590  0.311327  0.432653  1
  Ge  Ge32  1  0.385919  0.690649  0.931874  1
  Ge  Ge33  1  0.110683  0.187728  0.317236  1
  Ge  Ge34  1  0.188296  0.111717  0.682546  1
  Ge  Ge35  1  0.888130  0.810589  0.817439  1
