# generated using pymatgen
data_Nd5Fe3(P3Ir4)4
_symmetry_space_group_name_H-M   'P 1'
_cell_length_a   12.67577400
_cell_length_b   12.67577424
_cell_length_c   4.01770100
_cell_angle_alpha   90.00000000
_cell_angle_beta   90.00000000
_cell_angle_gamma   120.00000458
_symmetry_Int_Tables_number   1
_chemical_formula_structural   Nd5Fe3(P3Ir4)4
_chemical_formula_sum   'Nd5 Fe3 P12 Ir16'
_cell_volume   559.05843951
_cell_formula_units_Z   1
loop_
 _symmetry_equiv_pos_site_id
 _symmetry_equiv_pos_as_xyz
  1  'x, y, z'
loop_
 _atom_site_type_symbol
 _atom_site_label
 _atom_site_symmetry_multiplicity
 _atom_site_fract_x
 _atom_site_fract_y
 _atom_site_fract_z
 _atom_site_occupancy
  Nd  Nd0  1  0.000000  0.183753  0.500000  1
  Nd  Nd1  1  0.816247  0.816247  0.500000  1
  Nd  Nd2  1  0.183753  0.000000  0.500000  1
  Nd  Nd3  1  0.666667  0.333333  0.000000  1
  Nd  Nd4  1  0.333333  0.666667  0.000000  1
  Fe  Fe5  1  0.000000  0.707827  0.500000  1
  Fe  Fe6  1  0.292173  0.292173  0.500000  1
  Fe  Fe7  1  0.707827  0.000000  0.500000  1
  P  P8  1  0.000000  0.815513  0.000000  1
  P  P9  1  0.184487  0.184487  0.000000  1
  P  P10  1  0.815513  0.000000  0.000000  1
  P  P11  1  0.690667  0.165332  0.500000  1
  P  P12  1  0.834668  0.525335  0.500000  1
  P  P13  1  0.474665  0.309333  0.500000  1
  P  P14  1  0.165332  0.690667  0.500000  1
  P  P15  1  0.525335  0.834668  0.500000  1
  P  P16  1  0.309333  0.474665  0.500000  1
  P  P17  1  0.000000  0.362715  0.000000  1
  P  P18  1  0.637285  0.637285  0.000000  1
  P  P19  1  0.362715  0.000000  0.000000  1
  Ir  Ir20  1  0.000000  0.544924  0.000000  1
  Ir  Ir21  1  0.455076  0.455076  0.000000  1
  Ir  Ir22  1  0.544924  0.000000  0.000000  1
  Ir  Ir23  1  0.803289  0.180578  0.000000  1
  Ir  Ir24  1  0.819422  0.622712  0.000000  1
  Ir  Ir25  1  0.377288  0.196711  0.000000  1
  Ir  Ir26  1  0.180578  0.803289  0.000000  1
  Ir  Ir27  1  0.622712  0.819422  0.000000  1
  Ir  Ir28  1  0.196711  0.377288  0.000000  1
  Ir  Ir29  1  0.871252  0.363535  0.500000  1
  Ir  Ir30  1  0.636465  0.507716  0.500000  1
  Ir  Ir31  1  0.492284  0.128748  0.500000  1
  Ir  Ir32  1  0.363535  0.871252  0.500000  1
  Ir  Ir33  1  0.507716  0.636465  0.500000  1
  Ir  Ir34  1  0.128748  0.492284  0.500000  1
  Ir  Ir35  1  0.000000  0.000000  0.000000  1
