# generated using pymatgen
data_Y5Fe10Co7(NiP6)2
_symmetry_space_group_name_H-M   'P 1'
_cell_length_a   12.01630392
_cell_length_b   12.01795594
_cell_length_c   3.69531000
_cell_angle_alpha   90.00000000
_cell_angle_beta   90.00000000
_cell_angle_gamma   119.91327672
_symmetry_Int_Tables_number   1
_chemical_formula_structural   Y5Fe10Co7(NiP6)2
_chemical_formula_sum   'Y5 Fe10 Co7 Ni2 P12'
_cell_volume   462.55340208
_cell_formula_units_Z   1
loop_
 _symmetry_equiv_pos_site_id
 _symmetry_equiv_pos_as_xyz
  1  'x, y, z'
loop_
 _atom_site_type_symbol
 _atom_site_label
 _atom_site_symmetry_multiplicity
 _atom_site_fract_x
 _atom_site_fract_y
 _atom_site_fract_z
 _atom_site_occupancy
  Y  Y0  1  0.333182  0.665632  0.500000  1
  Y  Y1  1  0.666600  0.334174  0.500000  1
  Y  Y2  1  0.000190  0.189437  0.000000  1
  Y  Y3  1  0.811268  0.811267  0.000000  1
  Y  Y4  1  0.188961  0.999842  0.000000  1
  Fe  Fe5  1  0.622402  0.822666  0.500000  1
  Fe  Fe6  1  0.178082  0.798742  0.500000  1
  Fe  Fe7  1  0.199999  0.378731  0.500000  1
  Fe  Fe8  1  0.378226  0.200476  0.500000  1
  Fe  Fe9  1  0.820609  0.621277  0.500000  1
  Fe  Fe10  1  0.800205  0.179549  0.500000  1
  Fe  Fe11  1  0.999392  0.553079  0.500000  1
  Fe  Fe12  1  0.446186  0.445059  0.500000  1
  Fe  Fe13  1  0.555578  0.002569  0.500000  1
  Fe  Fe14  1  0.516480  0.637254  0.000000  1
  Co  Co15  1  0.124289  0.484664  0.000000  1
  Co  Co16  1  0.485237  0.125219  0.000000  1
  Co  Co17  1  0.638267  0.514578  0.000000  1
  Co  Co18  1  0.876412  0.361929  0.000000  1
  Co  Co19  1  0.999376  0.715181  0.000000  1
  Co  Co20  1  0.283972  0.284357  0.000000  1
  Co  Co21  1  0.715453  0.001025  0.000000  1
  Ni  Ni22  1  0.360866  0.875003  0.000000  1
  Ni  Ni23  1  0.999627  0.999754  0.500000  1
  P  P24  1  0.000512  0.368220  0.500000  1
  P  P25  1  0.630316  0.631721  0.500000  1
  P  P26  1  0.368577  0.003135  0.500000  1
  P  P27  1  0.523428  0.829207  0.000000  1
  P  P28  1  0.164034  0.685460  0.000000  1
  P  P29  1  0.313237  0.478565  0.000000  1
  P  P30  1  0.477989  0.311894  0.000000  1
  P  P31  1  0.832823  0.521851  0.000000  1
  P  P32  1  0.688920  0.168071  0.000000  1
  P  P33  1  0.999717  0.815770  0.500000  1
  P  P34  1  0.183526  0.183928  0.500000  1
  P  P35  1  0.816062  0.000717  0.500000  1
