# generated using pymatgen
data_HfNb4(NiP)4
_symmetry_space_group_name_H-M   'P 1'
_cell_length_a   7.31618565
_cell_length_b   7.31618548
_cell_length_c   7.31633647
_cell_angle_alpha   93.16506788
_cell_angle_beta   93.61463437
_cell_angle_gamma   151.85290172
_symmetry_Int_Tables_number   1
_chemical_formula_structural   HfNb4(NiP)4
_chemical_formula_sum   'Hf1 Nb4 Ni4 P4'
_cell_volume   179.19439882
_cell_formula_units_Z   1
loop_
 _symmetry_equiv_pos_site_id
 _symmetry_equiv_pos_as_xyz
  1  'x, y, z'
loop_
 _atom_site_type_symbol
 _atom_site_label
 _atom_site_symmetry_multiplicity
 _atom_site_fract_x
 _atom_site_fract_y
 _atom_site_fract_z
 _atom_site_occupancy
  Hf  Hf0  1  0.802576  0.130472  0.933047  1
  Nb  Nb1  1  0.131978  0.195144  0.327122  1
  Nb  Nb2  1  0.869398  0.804056  0.673454  1
  Nb  Nb3  1  0.193686  0.871607  0.065293  1
  Nb  Nb4  1  0.500658  0.499572  0.000230  1
  Ni  Ni5  1  0.915119  0.390373  0.305493  1
  Ni  Ni6  1  0.083971  0.610031  0.694003  1
  Ni  Ni7  1  0.609836  0.914921  0.524756  1
  Ni  Ni8  1  0.389956  0.085181  0.475137  1
  P  P9  1  0.554402  0.241046  0.795448  1
  P  P10  1  0.241106  0.442245  0.683350  1
  P  P11  1  0.760707  0.555357  0.316065  1
  P  P12  1  0.446606  0.759995  0.206601  1
