# generated using pymatgen
data_Ho10Er2In2Fe2Ru
_symmetry_space_group_name_H-M   'P 1'
_cell_length_a   8.33232405
_cell_length_b   8.32879537
_cell_length_c   8.32924348
_cell_angle_alpha   108.69028843
_cell_angle_beta   108.65002193
_cell_angle_gamma   111.07263342
_symmetry_Int_Tables_number   1
_chemical_formula_structural   Ho10Er2In2Fe2Ru
_chemical_formula_sum   'Ho10 Er2 In2 Fe2 Ru1'
_cell_volume   444.77832750
_cell_formula_units_Z   1
loop_
 _symmetry_equiv_pos_site_id
 _symmetry_equiv_pos_as_xyz
  1  'x, y, z'
loop_
 _atom_site_type_symbol
 _atom_site_label
 _atom_site_symmetry_multiplicity
 _atom_site_fract_x
 _atom_site_fract_y
 _atom_site_fract_z
 _atom_site_occupancy
  Ho  Ho0  1  0.953875  0.192255  0.761564  1
  Ho  Ho1  1  0.193055  0.954256  0.761673  1
  Ho  Ho2  1  0.046125  0.807745  0.238436  1
  Ho  Ho3  1  0.806945  0.045744  0.238327  1
  Ho  Ho4  1  0.192962  0.431278  0.238809  1
  Ho  Ho5  1  0.807038  0.568722  0.761191  1
  Ho  Ho6  1  0.307488  0.307706  0.614688  1
  Ho  Ho7  1  0.692512  0.692294  0.385312  1
  Ho  Ho8  1  0.307594  0.692911  0.999787  1
  Ho  Ho9  1  0.692406  0.307089  0.000213  1
  Er  Er10  1  0.430550  0.192246  0.238214  1
  Er  Er11  1  0.569450  0.807754  0.761786  1
  In  In12  1  0.500000  0.000000  0.500000  1
  In  In13  1  0.000000  0.500000  0.500000  1
  Fe  Fe14  1  0.387764  0.387165  0.001988  1
  Fe  Fe15  1  0.612236  0.612835  0.998012  1
  Ru  Ru16  1  0.000000  0.000000  0.000000  1
