# generated using pymatgen
data_LiAcZn12
_symmetry_space_group_name_H-M   'P 1'
_cell_length_a   8.65004550
_cell_length_b   8.65004514
_cell_length_c   8.65004500
_cell_angle_alpha   59.99999671
_cell_angle_beta   59.99999808
_cell_angle_gamma   59.99999735
_symmetry_Int_Tables_number   1
_chemical_formula_structural   LiAcZn12
_chemical_formula_sum   'Li2 Ac2 Zn24'
_cell_volume   457.65699940
_cell_formula_units_Z   2
loop_
 _symmetry_equiv_pos_site_id
 _symmetry_equiv_pos_as_xyz
  1  'x, y, z'
loop_
 _atom_site_type_symbol
 _atom_site_label
 _atom_site_symmetry_multiplicity
 _atom_site_fract_x
 _atom_site_fract_y
 _atom_site_fract_z
 _atom_site_occupancy
  Li  Li0  1  0.500000  0.500000  0.500000  1
  Li  Li1  1  0.000000  0.000000  0.000000  1
  Ac  Ac2  1  0.250000  0.250000  0.250000  1
  Ac  Ac3  1  0.750000  0.750000  0.750000  1
  Zn  Zn4  1  0.798789  0.558141  0.201211  1
  Zn  Zn5  1  0.201211  0.441859  0.798789  1
  Zn  Zn6  1  0.558141  0.798789  0.441859  1
  Zn  Zn7  1  0.441859  0.201211  0.558141  1
  Zn  Zn8  1  0.298789  0.941859  0.701211  1
  Zn  Zn9  1  0.701211  0.058141  0.298789  1
  Zn  Zn10  1  0.941859  0.298789  0.058141  1
  Zn  Zn11  1  0.058141  0.701211  0.941859  1
  Zn  Zn12  1  0.201211  0.798789  0.558141  1
  Zn  Zn13  1  0.798789  0.201211  0.441859  1
  Zn  Zn14  1  0.441859  0.558141  0.798789  1
  Zn  Zn15  1  0.558141  0.441859  0.201211  1
  Zn  Zn16  1  0.701211  0.298789  0.941859  1
  Zn  Zn17  1  0.298789  0.701211  0.058141  1
  Zn  Zn18  1  0.058141  0.941859  0.298789  1
  Zn  Zn19  1  0.941859  0.058141  0.701211  1
  Zn  Zn20  1  0.558141  0.201211  0.798789  1
  Zn  Zn21  1  0.441859  0.798789  0.201211  1
  Zn  Zn22  1  0.798789  0.441859  0.558141  1
  Zn  Zn23  1  0.201211  0.558141  0.441859  1
  Zn  Zn24  1  0.941859  0.701211  0.298789  1
  Zn  Zn25  1  0.058141  0.298789  0.701211  1
  Zn  Zn26  1  0.298789  0.058141  0.941859  1
  Zn  Zn27  1  0.701211  0.941859  0.058141  1
