# generated using pymatgen
data_Tb2Al20Fe3Ir
_symmetry_space_group_name_H-M   'P 1'
_cell_length_a   6.76946263
_cell_length_b   6.76402685
_cell_length_c   9.00704962
_cell_angle_alpha   90.09384717
_cell_angle_beta   89.88620618
_cell_angle_gamma   96.99264120
_symmetry_Int_Tables_number   1
_chemical_formula_structural   Tb2Al20Fe3Ir
_chemical_formula_sum   'Tb2 Al20 Fe3 Ir1'
_cell_volume   409.35334380
_cell_formula_units_Z   1
loop_
 _symmetry_equiv_pos_site_id
 _symmetry_equiv_pos_as_xyz
  1  'x, y, z'
loop_
 _atom_site_type_symbol
 _atom_site_label
 _atom_site_symmetry_multiplicity
 _atom_site_fract_x
 _atom_site_fract_y
 _atom_site_fract_z
 _atom_site_occupancy
  Tb  Tb0  1  0.874224  0.128008  0.748479  1
  Tb  Tb1  1  0.125776  0.871992  0.251521  1
  Al  Al2  1  0.413550  0.140555  0.744508  1
  Al  Al3  1  0.137781  0.416542  0.251060  1
  Al  Al4  1  0.586450  0.859445  0.255492  1
  Al  Al5  1  0.862219  0.583458  0.748940  1
  Al  Al6  1  0.519782  0.778762  0.744655  1
  Al  Al7  1  0.780903  0.518969  0.250616  1
  Al  Al8  1  0.480218  0.221238  0.255345  1
  Al  Al9  1  0.219097  0.481031  0.749384  1
  Al  Al10  1  0.842768  0.156711  0.402178  1
  Al  Al11  1  0.157232  0.843289  0.597822  1
  Al  Al12  1  0.848737  0.160976  0.100732  1
  Al  Al13  1  0.151263  0.839024  0.899268  1
  Al  Al14  1  0.628509  0.380343  0.950987  1
  Al  Al15  1  0.371491  0.619657  0.049013  1
  Al  Al16  1  0.626357  0.375120  0.547272  1
  Al  Al17  1  0.373643  0.624880  0.452728  1
  Al  Al18  1  0.777734  0.768010  0.002850  1
  Al  Al19  1  0.773254  0.771563  0.501358  1
  Al  Al20  1  0.222266  0.231989  0.997150  1
  Al  Al21  1  0.226746  0.228436  0.498642  1
  Fe  Fe22  1  0.000000  0.500000  0.000000  1
  Fe  Fe23  1  0.500000  0.000000  0.500000  1
  Fe  Fe24  1  0.000000  0.500000  0.500000  1
  Ir  Ir25  1  0.500000  0.000000  0.000000  1
