# generated using pymatgen
data_Ac8La9Tm3Pb16
_symmetry_space_group_name_H-M   'P 1'
_cell_length_a   8.56726700
_cell_length_b   8.63475888
_cell_length_c   16.54419500
_cell_angle_alpha   90.00000000
_cell_angle_beta   90.00000000
_cell_angle_gamma   90.21514935
_symmetry_Int_Tables_number   1
_chemical_formula_structural   Ac8La9Tm3Pb16
_chemical_formula_sum   'Ac8 La9 Tm3 Pb16'
_cell_volume   1223.86945216
_cell_formula_units_Z   1
loop_
 _symmetry_equiv_pos_site_id
 _symmetry_equiv_pos_as_xyz
  1  'x, y, z'
loop_
 _atom_site_type_symbol
 _atom_site_label
 _atom_site_symmetry_multiplicity
 _atom_site_fract_x
 _atom_site_fract_y
 _atom_site_fract_z
 _atom_site_occupancy
  Ac  Ac0  1  0.971626  0.819838  0.899326  1
  Ac  Ac1  1  0.471774  0.681310  0.599482  1
  Ac  Ac2  1  0.527812  0.320259  0.097900  1
  Ac  Ac3  1  0.028317  0.180946  0.402293  1
  Ac  Ac4  1  0.971626  0.819838  0.600674  1
  Ac  Ac5  1  0.471774  0.681310  0.900518  1
  Ac  Ac6  1  0.527812  0.320259  0.402100  1
  Ac  Ac7  1  0.028317  0.180946  0.097707  1
  La  La8  1  0.877833  0.657450  0.383350  1
  La  La9  1  0.376023  0.841906  0.116643  1
  La  La10  1  0.623497  0.157799  0.619894  1
  La  La11  1  0.122987  0.342413  0.881392  1
  La  La12  1  0.122987  0.342413  0.618608  1
  La  La13  1  0.623497  0.157799  0.880106  1
  La  La14  1  0.376023  0.841906  0.383357  1
  La  La15  1  0.877833  0.657450  0.116650  1
  La  La16  1  0.709627  0.996027  0.250000  1
  Tm  Tm17  1  0.286684  0.004745  0.750000  1
  Tm  Tm18  1  0.785987  0.495644  0.750000  1
  Tm  Tm19  1  0.212963  0.506769  0.250000  1
  Pb  Pb20  1  0.785938  0.465831  0.548903  1
  Pb  Pb21  1  0.286494  0.035048  0.951582  1
  Pb  Pb22  1  0.713823  0.963250  0.456163  1
  Pb  Pb23  1  0.214446  0.533222  0.048232  1
  Pb  Pb24  1  0.214446  0.533222  0.451768  1
  Pb  Pb25  1  0.713823  0.963250  0.043837  1
  Pb  Pb26  1  0.286494  0.035048  0.548418  1
  Pb  Pb27  1  0.785938  0.465831  0.951097  1
  Pb  Pb28  1  0.167260  0.643871  0.750000  1
  Pb  Pb29  1  0.666918  0.854021  0.750000  1
  Pb  Pb30  1  0.328236  0.145711  0.250000  1
  Pb  Pb31  1  0.836996  0.362850  0.250000  1
  Pb  Pb32  1  0.927433  0.126505  0.750000  1
  Pb  Pb33  1  0.426304  0.374129  0.750000  1
  Pb  Pb34  1  0.571399  0.618100  0.250000  1
  Pb  Pb35  1  0.079051  0.873082  0.250000  1
