# generated using pymatgen
data_Eu2Sb2O7
_symmetry_space_group_name_H-M   'P 1'
_cell_length_a   7.59797443
_cell_length_b   7.59797330
_cell_length_c   7.59797400
_cell_angle_alpha   59.99999697
_cell_angle_beta   60.00000188
_cell_angle_gamma   59.99999886
_symmetry_Int_Tables_number   1
_chemical_formula_structural   Eu2Sb2O7
_chemical_formula_sum   'Eu4 Sb4 O14'
_cell_volume   310.15471577
_cell_formula_units_Z   2
loop_
 _symmetry_equiv_pos_site_id
 _symmetry_equiv_pos_as_xyz
  1  'x, y, z'
loop_
 _atom_site_type_symbol
 _atom_site_label
 _atom_site_symmetry_multiplicity
 _atom_site_fract_x
 _atom_site_fract_y
 _atom_site_fract_z
 _atom_site_occupancy
  Eu  Eu0  1  0.125000  0.625000  0.125000  1
  Eu  Eu1  1  0.125000  0.125000  0.625000  1
  Eu  Eu2  1  0.625000  0.125000  0.125000  1
  Eu  Eu3  1  0.125000  0.125000  0.125000  1
  Sb  Sb4  1  0.625000  0.625000  0.625000  1
  Sb  Sb5  1  0.125000  0.625000  0.625000  1
  Sb  Sb6  1  0.625000  0.625000  0.125000  1
  Sb  Sb7  1  0.625000  0.125000  0.625000  1
  O  O8  1  0.300219  0.699781  0.699781  1
  O  O9  1  0.550219  0.949781  0.949781  1
  O  O10  1  0.699781  0.699781  0.300219  1
  O  O11  1  0.300219  0.300219  0.699781  1
  O  O12  1  0.000000  0.000000  0.000000  1
  O  O13  1  0.300219  0.699781  0.300219  1
  O  O14  1  0.699781  0.300219  0.699781  1
  O  O15  1  0.949781  0.550219  0.949781  1
  O  O16  1  0.550219  0.550219  0.949781  1
  O  O17  1  0.949781  0.949781  0.550219  1
  O  O18  1  0.250000  0.250000  0.250000  1
  O  O19  1  0.550219  0.949781  0.550219  1
  O  O20  1  0.699781  0.300219  0.300219  1
  O  O21  1  0.949781  0.550219  0.550219  1
