# generated using pymatgen
data_Tb5Dy5(SiSn3)2
_symmetry_space_group_name_H-M   'P 1'
_cell_length_a   9.25307300
_cell_length_b   9.25266084
_cell_length_c   6.47180200
_cell_angle_alpha   90.00000000
_cell_angle_beta   90.00000000
_cell_angle_gamma   119.99853045
_symmetry_Int_Tables_number   1
_chemical_formula_structural   Tb5Dy5(SiSn3)2
_chemical_formula_sum   'Tb5 Dy5 Si2 Sn6'
_cell_volume   479.86040488
_cell_formula_units_Z   1
loop_
 _symmetry_equiv_pos_site_id
 _symmetry_equiv_pos_as_xyz
  1  'x, y, z'
loop_
 _atom_site_type_symbol
 _atom_site_label
 _atom_site_symmetry_multiplicity
 _atom_site_fract_x
 _atom_site_fract_y
 _atom_site_fract_z
 _atom_site_occupancy
  Tb  Tb0  1  0.747193  0.747174  0.750000  1
  Tb  Tb1  1  0.252807  0.999981  0.750000  1
  Tb  Tb2  1  0.000000  0.252819  0.750000  1
  Tb  Tb3  1  0.252825  0.252814  0.250000  1
  Tb  Tb4  1  0.747175  0.999989  0.250000  1
  Dy  Dy5  1  0.666683  0.333359  0.000010  1
  Dy  Dy6  1  0.333317  0.666677  0.000010  1
  Dy  Dy7  1  0.333317  0.666677  0.499990  1
  Dy  Dy8  1  0.666683  0.333359  0.499990  1
  Dy  Dy9  1  0.000000  0.747305  0.250000  1
  Si  Si10  1  0.000000  0.999899  0.000112  1
  Si  Si11  1  0.000000  0.999899  0.499888  1
  Sn  Sn12  1  0.391188  0.391188  0.750000  1
  Sn  Sn13  1  0.608812  0.000000  0.750000  1
  Sn  Sn14  1  0.000000  0.608808  0.750000  1
  Sn  Sn15  1  0.608911  0.608851  0.250000  1
  Sn  Sn16  1  0.391089  0.999940  0.250000  1
  Sn  Sn17  1  0.000000  0.391262  0.250000  1
