# generated using pymatgen
data_Rb8AcEu3Cl20
_symmetry_space_group_name_H-M   'P 1'
_cell_length_a   8.41338580
_cell_length_b   8.88806800
_cell_length_c   13.44775600
_cell_angle_alpha   90.00000000
_cell_angle_beta   90.99624825
_cell_angle_gamma   90.00000000
_symmetry_Int_Tables_number   1
_chemical_formula_structural   Rb8AcEu3Cl20
_chemical_formula_sum   'Rb8 Ac1 Eu3 Cl20'
_cell_volume   1005.45430675
_cell_formula_units_Z   1
loop_
 _symmetry_equiv_pos_site_id
 _symmetry_equiv_pos_as_xyz
  1  'x, y, z'
loop_
 _atom_site_type_symbol
 _atom_site_label
 _atom_site_symmetry_multiplicity
 _atom_site_fract_x
 _atom_site_fract_y
 _atom_site_fract_z
 _atom_site_occupancy
  Rb  Rb0  1  0.948138  0.006400  0.827105  1
  Rb  Rb1  1  0.055623  0.996538  0.172892  1
  Rb  Rb2  1  0.444301  0.994723  0.669238  1
  Rb  Rb3  1  0.055623  0.503462  0.172892  1
  Rb  Rb4  1  0.555721  0.006653  0.330790  1
  Rb  Rb5  1  0.948138  0.493600  0.827105  1
  Rb  Rb6  1  0.555721  0.493347  0.330790  1
  Rb  Rb7  1  0.444301  0.505277  0.669238  1
  Ac  Ac8  1  0.570209  0.750000  0.005157  1
  Eu  Eu9  1  0.937901  0.750000  0.502438  1
  Eu  Eu10  1  0.058659  0.250000  0.497367  1
  Eu  Eu11  1  0.432910  0.250000  0.996912  1
  Cl  Cl12  1  0.116675  0.750000  0.675474  1
  Cl  Cl13  1  0.881735  0.250000  0.324109  1
  Cl  Cl14  1  0.614722  0.250000  0.826813  1
  Cl  Cl15  1  0.373635  0.750000  0.182105  1
  Cl  Cl16  1  0.840416  0.040342  0.572744  1
  Cl  Cl17  1  0.156484  0.960310  0.427446  1
  Cl  Cl18  1  0.337114  0.966050  0.920189  1
  Cl  Cl19  1  0.156484  0.539690  0.427446  1
  Cl  Cl20  1  0.661634  0.049283  0.080090  1
  Cl  Cl21  1  0.840416  0.459658  0.572744  1
  Cl  Cl22  1  0.661634  0.450717  0.080090  1
  Cl  Cl23  1  0.337114  0.533950  0.920189  1
  Cl  Cl24  1  0.599875  0.750000  0.508934  1
  Cl  Cl25  1  0.397169  0.250000  0.488519  1
  Cl  Cl26  1  0.094063  0.250000  0.991375  1
  Cl  Cl27  1  0.919291  0.750000  0.009411  1
  Cl  Cl28  1  0.660430  0.750000  0.796926  1
  Cl  Cl29  1  0.344663  0.250000  0.195054  1
  Cl  Cl30  1  0.154191  0.250000  0.694996  1
  Cl  Cl31  1  0.845009  0.750000  0.303420  1
