# generated using pymatgen
data_Pr4ThSiSe4
_symmetry_space_group_name_H-M   'P 1'
_cell_length_a   7.40682447
_cell_length_b   7.40682330
_cell_length_c   7.40682366
_cell_angle_alpha   99.53907037
_cell_angle_beta   99.53906910
_cell_angle_gamma   131.95600458
_symmetry_Int_Tables_number   1
_chemical_formula_structural   Pr4ThSiSe4
_chemical_formula_sum   'Pr4 Th1 Si1 Se4'
_cell_volume   276.01038490
_cell_formula_units_Z   1
loop_
 _symmetry_equiv_pos_site_id
 _symmetry_equiv_pos_as_xyz
  1  'x, y, z'
loop_
 _atom_site_type_symbol
 _atom_site_label
 _atom_site_symmetry_multiplicity
 _atom_site_fract_x
 _atom_site_fract_y
 _atom_site_fract_z
 _atom_site_occupancy
  Pr  Pr0  1  0.404618  0.789521  0.194139  1
  Pr  Pr1  1  0.595382  0.210479  0.805861  1
  Pr  Pr2  1  0.210479  0.404618  0.615095  1
  Pr  Pr3  1  0.789521  0.595382  0.384905  1
  Th  Th4  1  0.000000  0.000000  0.000000  1
  Si  Si5  1  0.500000  0.500000  0.000000  1
  Se  Se6  1  0.096486  0.701370  0.797855  1
  Se  Se7  1  0.701370  0.903514  0.604883  1
  Se  Se8  1  0.298630  0.096486  0.395117  1
  Se  Se9  1  0.903514  0.298630  0.202145  1
