# generated using pymatgen
data_YTm2(CuSi)4
_symmetry_space_group_name_H-M   'P 1'
_cell_length_a   7.79208841
_cell_length_b   7.79208912
_cell_length_c   7.79208830
_cell_angle_alpha   149.35112835
_cell_angle_beta   130.37143374
_cell_angle_gamma   59.46612780
_symmetry_Int_Tables_number   1
_chemical_formula_structural   YTm2(CuSi)4
_chemical_formula_sum   'Y1 Tm2 Cu4 Si4'
_cell_volume   182.26457995
_cell_formula_units_Z   1
loop_
 _symmetry_equiv_pos_site_id
 _symmetry_equiv_pos_as_xyz
  1  'x, y, z'
loop_
 _atom_site_type_symbol
 _atom_site_label
 _atom_site_symmetry_multiplicity
 _atom_site_fract_x
 _atom_site_fract_y
 _atom_site_fract_z
 _atom_site_occupancy
  Y  Y0  1  0.000000  0.000000  0.000000  1
  Tm  Tm1  1  0.371287  0.871287  0.500000  1
  Tm  Tm2  1  0.628713  0.128713  0.500000  1
  Cu  Cu3  1  0.638754  0.330559  0.308195  1
  Cu  Cu4  1  0.361246  0.669441  0.691805  1
  Cu  Cu5  1  0.022363  0.330559  0.691805  1
  Cu  Cu6  1  0.977637  0.669441  0.308195  1
  Si  Si7  1  0.216560  0.216560  0.000000  1
  Si  Si8  1  0.783440  0.783440  0.000000  1
  Si  Si9  1  0.683850  0.500000  0.183850  1
  Si  Si10  1  0.316150  0.500000  0.816150  1
