# generated using pymatgen
data_Hf2Ag2F11
_symmetry_space_group_name_H-M   'P 1'
_cell_length_a   5.86230952
_cell_length_b   5.97916872
_cell_length_c   8.01432604
_cell_angle_alpha   112.84502695
_cell_angle_beta   95.90112104
_cell_angle_gamma   105.41430119
_symmetry_Int_Tables_number   1
_chemical_formula_structural   Hf2Ag2F11
_chemical_formula_sum   'Hf2 Ag2 F11'
_cell_volume   242.76618444
_cell_formula_units_Z   1
loop_
 _symmetry_equiv_pos_site_id
 _symmetry_equiv_pos_as_xyz
  1  'x, y, z'
loop_
 _atom_site_type_symbol
 _atom_site_label
 _atom_site_symmetry_multiplicity
 _atom_site_fract_x
 _atom_site_fract_y
 _atom_site_fract_z
 _atom_site_occupancy
  Hf  Hf0  1  0.503845  0.735531  0.233581  1
  Hf  Hf1  1  0.496155  0.264469  0.766419  1
  Ag  Ag2  1  0.000000  0.000000  0.000000  1
  Ag  Ag3  1  0.000000  0.500000  0.500000  1
  F  F4  1  0.263236  0.841465  0.115231  1
  F  F5  1  0.344558  0.347721  0.011191  1
  F  F6  1  0.655442  0.652279  0.988809  1
  F  F7  1  0.767688  0.474878  0.687885  1
  F  F8  1  0.780113  0.053266  0.281648  1
  F  F9  1  0.219887  0.946734  0.718352  1
  F  F10  1  0.736764  0.158535  0.884769  1
  F  F11  1  0.232312  0.525122  0.312115  1
  F  F12  1  0.734058  0.610863  0.341757  1
  F  F13  1  0.265942  0.389137  0.658243  1
  F  F14  1  0.500000  0.000000  0.500000  1
