# generated using pymatgen
data_Tb6Ho6Co4BiOs
_symmetry_space_group_name_H-M   'P 1'
_cell_length_a   8.33930390
_cell_length_b   8.34393742
_cell_length_c   8.33930386
_cell_angle_alpha   111.16580267
_cell_angle_beta   110.34729842
_cell_angle_gamma   106.90944484
_symmetry_Int_Tables_number   1
_chemical_formula_structural   Tb6Ho6Co4BiOs
_chemical_formula_sum   'Tb6 Ho6 Co4 Bi1 Os1'
_cell_volume   446.12786099
_cell_formula_units_Z   1
loop_
 _symmetry_equiv_pos_site_id
 _symmetry_equiv_pos_as_xyz
  1  'x, y, z'
loop_
 _atom_site_type_symbol
 _atom_site_label
 _atom_site_symmetry_multiplicity
 _atom_site_fract_x
 _atom_site_fract_y
 _atom_site_fract_z
 _atom_site_occupancy
  Tb  Tb0  1  0.819496  0.718593  0.536744  1
  Tb  Tb1  1  0.180504  0.281407  0.463256  1
  Tb  Tb2  1  0.181850  0.718593  0.899098  1
  Tb  Tb3  1  0.818150  0.281407  0.100902  1
  Tb  Tb4  1  0.687621  0.378303  0.690683  1
  Tb  Tb5  1  0.312379  0.621697  0.309317  1
  Ho  Ho6  1  0.687588  0.997205  0.309616  1
  Ho  Ho7  1  0.312412  0.002795  0.690384  1
  Ho  Ho8  1  0.591434  0.787812  0.804754  1
  Ho  Ho9  1  0.408566  0.212188  0.195246  1
  Ho  Ho10  1  0.983059  0.787812  0.196378  1
  Ho  Ho11  1  0.016941  0.212188  0.803622  1
  Co  Co12  1  0.624581  0.000000  0.624581  1
  Co  Co13  1  0.375419  0.000000  0.375419  1
  Co  Co14  1  0.110690  0.611174  0.500484  1
  Co  Co15  1  0.889310  0.388826  0.499516  1
  Bi  Bi16  1  0.500000  0.500000  0.000000  1
  Os  Os17  1  0.000000  0.000000  0.000000  1
