# generated using pymatgen
data_HoCd(CuRh)2
_symmetry_space_group_name_H-M   'P 1'
_cell_length_a   5.01761384
_cell_length_b   5.17813170
_cell_length_c   5.17813177
_cell_angle_alpha   63.10306268
_cell_angle_beta   61.02025589
_cell_angle_gamma   61.02024898
_symmetry_Int_Tables_number   1
_chemical_formula_structural   HoCd(CuRh)2
_chemical_formula_sum   'Ho1 Cd1 Cu2 Rh2'
_cell_volume   98.70433089
_cell_formula_units_Z   1
loop_
 _symmetry_equiv_pos_site_id
 _symmetry_equiv_pos_as_xyz
  1  'x, y, z'
loop_
 _atom_site_type_symbol
 _atom_site_label
 _atom_site_symmetry_multiplicity
 _atom_site_fract_x
 _atom_site_fract_y
 _atom_site_fract_z
 _atom_site_occupancy
  Ho  Ho0  1  0.747210  0.752790  0.752790  1
  Cd  Cd1  1  0.994875  0.005125  0.005125  1
  Cu  Cu2  1  0.379183  0.371759  0.371759  1
  Cu  Cu3  1  0.877298  0.371759  0.371759  1
  Rh  Rh4  1  0.375716  0.373217  0.875349  1
  Rh  Rh5  1  0.375716  0.875349  0.373217  1
