# generated using pymatgen
data_ThU3AlGa17Ir6
_symmetry_space_group_name_H-M   'P 1'
_cell_length_a   7.63571490
_cell_length_b   7.70237489
_cell_length_c   9.44782748
_cell_angle_alpha   90.04966621
_cell_angle_beta   90.17711329
_cell_angle_gamma   119.80294010
_symmetry_Int_Tables_number   1
_chemical_formula_structural   ThU3AlGa17Ir6
_chemical_formula_sum   'Th1 U3 Al1 Ga17 Ir6'
_cell_volume   482.16109391
_cell_formula_units_Z   1
loop_
 _symmetry_equiv_pos_site_id
 _symmetry_equiv_pos_as_xyz
  1  'x, y, z'
loop_
 _atom_site_type_symbol
 _atom_site_label
 _atom_site_symmetry_multiplicity
 _atom_site_fract_x
 _atom_site_fract_y
 _atom_site_fract_z
 _atom_site_occupancy
  Th  Th0  1  0.000469  0.669132  0.749908  1
  U  U1  1  0.999015  0.328752  0.250600  1
  U  U2  1  0.670462  0.997162  0.751517  1
  U  U3  1  0.330775  0.002669  0.249063  1
  Al  Al4  1  0.335994  0.337512  0.444151  1
  Ga  Ga5  1  0.130610  0.132020  0.747925  1
  Ga  Ga6  1  0.867086  0.871579  0.247487  1
  Ga  Ga7  1  0.000147  0.330446  0.575223  1
  Ga  Ga8  1  0.000572  0.666956  0.413817  1
  Ga  Ga9  1  0.999124  0.663911  0.085903  1
  Ga  Ga10  1  0.339333  0.005280  0.923600  1
  Ga  Ga11  1  0.002064  0.330203  0.923937  1
  Ga  Ga12  1  0.663296  0.998383  0.079161  1
  Ga  Ga13  1  0.664431  0.001055  0.421786  1
  Ga  Ga14  1  0.341213  0.004843  0.574795  1
  Ga  Ga15  1  0.328906  0.330940  0.070825  1
  Ga  Ga16  1  0.661879  0.662704  0.936665  1
  Ga  Ga17  1  0.668525  0.670983  0.563995  1
  Ga  Ga18  1  0.343247  0.544268  0.749807  1
  Ga  Ga19  1  0.653367  0.453593  0.250290  1
  Ga  Ga20  1  0.543417  0.335294  0.749779  1
  Ga  Ga21  1  0.448188  0.658105  0.250054  1
  Ir  Ir22  1  0.673664  0.335504  0.499129  1
  Ir  Ir23  1  0.327911  0.669305  0.500536  1
  Ir  Ir24  1  0.326595  0.670991  0.998358  1
  Ir  Ir25  1  0.674428  0.331045  0.000760  1
  Ir  Ir26  1  0.007335  0.003752  0.494740  1
  Ir  Ir27  1  0.997948  0.993613  0.996186  1
