# generated using pymatgen
data_Ba2TbClO3
_symmetry_space_group_name_H-M   'P 1'
_cell_length_a   4.44780500
_cell_length_b   4.44780500
_cell_length_c   15.12676500
_cell_angle_alpha   90.00000000
_cell_angle_beta   90.00000000
_cell_angle_gamma   90.00000000
_symmetry_Int_Tables_number   1
_chemical_formula_structural   Ba2TbClO3
_chemical_formula_sum   'Ba4 Tb2 Cl2 O6'
_cell_volume   299.25232788
_cell_formula_units_Z   2
loop_
 _symmetry_equiv_pos_site_id
 _symmetry_equiv_pos_as_xyz
  1  'x, y, z'
loop_
 _atom_site_type_symbol
 _atom_site_label
 _atom_site_symmetry_multiplicity
 _atom_site_fract_x
 _atom_site_fract_y
 _atom_site_fract_z
 _atom_site_occupancy
  Ba  Ba0  1  0.500000  0.000000  0.094552  1
  Ba  Ba1  1  0.500000  0.000000  0.351493  1
  Ba  Ba2  1  0.000000  0.500000  0.648507  1
  Ba  Ba3  1  0.000000  0.500000  0.905448  1
  Tb  Tb4  1  0.500000  0.000000  0.783543  1
  Tb  Tb5  1  0.000000  0.500000  0.216457  1
  Cl  Cl6  1  0.500000  0.000000  0.576132  1
  Cl  Cl7  1  0.000000  0.500000  0.423868  1
  O  O8  1  0.000000  0.500000  0.073024  1
  O  O9  1  0.000000  0.000000  0.239860  1
  O  O10  1  0.500000  0.500000  0.760140  1
  O  O11  1  0.500000  0.000000  0.926976  1
  O  O12  1  0.000000  0.000000  0.760140  1
  O  O13  1  0.500000  0.500000  0.239860  1
