# generated using pymatgen
data_Tb2Yb3Ru2
_symmetry_space_group_name_H-M   'P 1'
_cell_length_a   6.41844068
_cell_length_b   7.32239250
_cell_length_c   8.52465802
_cell_angle_alpha   96.83126046
_cell_angle_beta   112.11477910
_cell_angle_gamma   90.00000030
_symmetry_Int_Tables_number   1
_chemical_formula_structural   Tb2Yb3Ru2
_chemical_formula_sum   'Tb4 Yb6 Ru4'
_cell_volume   368.09802397
_cell_formula_units_Z   2
loop_
 _symmetry_equiv_pos_site_id
 _symmetry_equiv_pos_as_xyz
  1  'x, y, z'
loop_
 _atom_site_type_symbol
 _atom_site_label
 _atom_site_symmetry_multiplicity
 _atom_site_fract_x
 _atom_site_fract_y
 _atom_site_fract_z
 _atom_site_occupancy
  Tb  Tb0  1  0.802479  0.320868  0.431360  1
  Tb  Tb1  1  0.371119  0.179132  0.568640  1
  Tb  Tb2  1  0.426870  0.750000  0.000000  1
  Tb  Tb3  1  0.563879  0.250000  0.000000  1
  Yb  Yb4  1  0.796137  0.578455  0.823165  1
  Yb  Yb5  1  0.972972  0.921545  0.176835  1
  Yb  Yb6  1  0.201185  0.418307  0.180187  1
  Yb  Yb7  1  0.020998  0.081693  0.819813  1
  Yb  Yb8  1  0.206562  0.682640  0.562708  1
  Yb  Yb9  1  0.643854  0.817360  0.437292  1
  Ru  Ru10  1  0.595252  0.929780  0.785320  1
  Ru  Ru11  1  0.809931  0.570220  0.214680  1
  Ru  Ru12  1  0.411200  0.080778  0.233640  1
  Ru  Ru13  1  0.177561  0.419222  0.766360  1
