# generated using pymatgen
data_YbPr8ErIr6
_symmetry_space_group_name_H-M   'P 1'
_cell_length_a   11.26847900
_cell_length_b   11.26847900
_cell_length_c   6.51592100
_cell_angle_alpha   90.00000000
_cell_angle_beta   90.00000000
_cell_angle_gamma   90.00000000
_symmetry_Int_Tables_number   1
_chemical_formula_structural   YbPr8ErIr6
_chemical_formula_sum   'Yb2 Pr16 Er2 Ir12'
_cell_volume   827.38264992
_cell_formula_units_Z   2
loop_
 _symmetry_equiv_pos_site_id
 _symmetry_equiv_pos_as_xyz
  1  'x, y, z'
loop_
 _atom_site_type_symbol
 _atom_site_label
 _atom_site_symmetry_multiplicity
 _atom_site_fract_x
 _atom_site_fract_y
 _atom_site_fract_z
 _atom_site_occupancy
  Yb  Yb0  1  0.000000  0.000000  0.500000  1
  Yb  Yb1  1  0.000000  0.000000  0.000000  1
  Pr  Pr2  1  0.287554  0.086994  0.385153  1
  Pr  Pr3  1  0.287554  0.913006  0.885153  1
  Pr  Pr4  1  0.712446  0.086994  0.885153  1
  Pr  Pr5  1  0.712446  0.913006  0.385153  1
  Pr  Pr6  1  0.588445  0.788578  0.883553  1
  Pr  Pr7  1  0.588445  0.211422  0.383553  1
  Pr  Pr8  1  0.411555  0.788578  0.383553  1
  Pr  Pr9  1  0.411555  0.211422  0.883553  1
  Pr  Pr10  1  0.211422  0.411555  0.616447  1
  Pr  Pr11  1  0.211422  0.588445  0.116447  1
  Pr  Pr12  1  0.788578  0.411555  0.116447  1
  Pr  Pr13  1  0.788578  0.588445  0.616447  1
  Pr  Pr14  1  0.913006  0.712446  0.114847  1
  Pr  Pr15  1  0.913006  0.287554  0.614847  1
  Pr  Pr16  1  0.086994  0.712446  0.614847  1
  Pr  Pr17  1  0.086994  0.287554  0.114847  1
  Er  Er18  1  0.500000  0.500000  0.000000  1
  Er  Er19  1  0.500000  0.500000  0.500000  1
  Ir  Ir20  1  0.846201  0.153799  0.250000  1
  Ir  Ir21  1  0.846201  0.846201  0.750000  1
  Ir  Ir22  1  0.153799  0.153799  0.750000  1
  Ir  Ir23  1  0.153799  0.846201  0.250000  1
  Ir  Ir24  1  0.647247  0.352753  0.750000  1
  Ir  Ir25  1  0.647247  0.647247  0.250000  1
  Ir  Ir26  1  0.352753  0.352753  0.250000  1
  Ir  Ir27  1  0.352753  0.647247  0.750000  1
  Ir  Ir28  1  0.500000  0.000000  0.116887  1
  Ir  Ir29  1  0.500000  0.000000  0.616887  1
  Ir  Ir30  1  0.000000  0.500000  0.883113  1
  Ir  Ir31  1  0.000000  0.500000  0.383113  1
