# generated using pymatgen
data_Dy2TmCd2InAg2Rh
_symmetry_space_group_name_H-M   'P 1'
_cell_length_a   7.93005600
_cell_length_b   7.91347589
_cell_length_c   3.76072800
_cell_angle_alpha   90.00000000
_cell_angle_beta   90.00000000
_cell_angle_gamma   119.96465080
_symmetry_Int_Tables_number   1
_chemical_formula_structural   Dy2TmCd2InAg2Rh
_chemical_formula_sum   'Dy2 Tm1 Cd2 In1 Ag2 Rh1'
_cell_volume   204.45638586
_cell_formula_units_Z   1
loop_
 _symmetry_equiv_pos_site_id
 _symmetry_equiv_pos_as_xyz
  1  'x, y, z'
loop_
 _atom_site_type_symbol
 _atom_site_label
 _atom_site_symmetry_multiplicity
 _atom_site_fract_x
 _atom_site_fract_y
 _atom_site_fract_z
 _atom_site_occupancy
  Dy  Dy0  1  0.968309  0.388795  0.500000  1
  Dy  Dy1  1  0.611967  0.579940  0.500000  1
  Tm  Tm2  1  0.419527  0.035515  0.500000  1
  Cd  Cd3  1  0.267682  0.274852  0.000000  1
  Cd  Cd4  1  0.006274  0.732394  0.000000  1
  In  In5  1  0.726471  0.992216  0.000000  1
  Ag  Ag6  1  0.334437  0.668901  0.000000  1
  Ag  Ag7  1  0.001102  0.000071  0.500000  1
  Rh  Rh8  1  0.664230  0.327315  0.000000  1
