# generated using pymatgen
data_Y8Zn4Ag3Ir
_symmetry_space_group_name_H-M   'P 1'
_cell_length_a   7.16129900
_cell_length_b   7.18311000
_cell_length_c   7.16265600
_cell_angle_alpha   90.00000000
_cell_angle_beta   90.00241600
_cell_angle_gamma   90.00000000
_symmetry_Int_Tables_number   1
_chemical_formula_structural   Y8Zn4Ag3Ir
_chemical_formula_sum   'Y8 Zn4 Ag3 Ir1'
_cell_volume   368.44987851
_cell_formula_units_Z   1
loop_
 _symmetry_equiv_pos_site_id
 _symmetry_equiv_pos_as_xyz
  1  'x, y, z'
loop_
 _atom_site_type_symbol
 _atom_site_label
 _atom_site_symmetry_multiplicity
 _atom_site_fract_x
 _atom_site_fract_y
 _atom_site_fract_z
 _atom_site_occupancy
  Y  Y0  1  0.243882  0.507995  0.256071  1
  Y  Y1  1  0.243882  0.992005  0.256071  1
  Y  Y2  1  0.756198  0.995276  0.256281  1
  Y  Y3  1  0.756198  0.504724  0.256281  1
  Y  Y4  1  0.243768  0.508018  0.743821  1
  Y  Y5  1  0.243768  0.991983  0.743821  1
  Y  Y6  1  0.756089  0.995302  0.743828  1
  Y  Y7  1  0.756089  0.504698  0.743828  1
  Zn  Zn8  1  0.003738  0.250000  0.000002  1
  Zn  Zn9  1  0.996144  0.750000  0.999999  1
  Zn  Zn10  1  0.504000  0.750000  0.499998  1
  Zn  Zn11  1  0.496152  0.250000  0.500004  1
  Ag  Ag12  1  0.496262  0.250000  0.999999  1
  Ag  Ag13  1  0.503647  0.750000  0.999997  1
  Ag  Ag14  1  0.003878  0.250000  0.499975  1
  Ir  Ir15  1  0.996305  0.750000  0.500020  1
