# generated using pymatgen
data_Nd9Y(Ga2Sn)2
_symmetry_space_group_name_H-M   'P 1'
_cell_length_a   9.13880556
_cell_length_b   9.13880528
_cell_length_c   9.13880499
_cell_angle_alpha   127.29409128
_cell_angle_beta   127.29410661
_cell_angle_gamma   77.77138719
_symmetry_Int_Tables_number   1
_chemical_formula_structural   Nd9Y(Ga2Sn)2
_chemical_formula_sum   'Nd9 Y1 Ga4 Sn2'
_cell_volume   468.27433627
_cell_formula_units_Z   1
loop_
 _symmetry_equiv_pos_site_id
 _symmetry_equiv_pos_as_xyz
  1  'x, y, z'
loop_
 _atom_site_type_symbol
 _atom_site_label
 _atom_site_symmetry_multiplicity
 _atom_site_fract_x
 _atom_site_fract_y
 _atom_site_fract_z
 _atom_site_occupancy
  Nd  Nd0  1  0.500000  0.500000  0.000000  1
  Nd  Nd1  1  0.523509  0.023715  0.837607  1
  Nd  Nd2  1  0.186106  0.685899  0.162393  1
  Nd  Nd3  1  0.023715  0.186106  0.500206  1
  Nd  Nd4  1  0.685899  0.523509  0.499794  1
  Nd  Nd5  1  0.476491  0.976285  0.162393  1
  Nd  Nd6  1  0.813894  0.314101  0.837607  1
  Nd  Nd7  1  0.976285  0.813894  0.499794  1
  Nd  Nd8  1  0.314101  0.476491  0.500206  1
  Y  Y9  1  0.000000  0.000000  0.000000  1
  Ga  Ga10  1  0.879653  0.373426  0.253078  1
  Ga  Ga11  1  0.120347  0.626574  0.746922  1
  Ga  Ga12  1  0.373426  0.120347  0.493772  1
  Ga  Ga13  1  0.626574  0.879653  0.506228  1
  Sn  Sn14  1  0.248015  0.248015  0.000000  1
  Sn  Sn15  1  0.751985  0.751985  0.000000  1
