# generated using pymatgen
data_Er13Th3Mg3CdNi4
_symmetry_space_group_name_H-M   'P 1'
_cell_length_a   9.54778193
_cell_length_b   9.59817187
_cell_length_c   9.59817300
_cell_angle_alpha   59.99999956
_cell_angle_beta   59.82526187
_cell_angle_gamma   59.82526113
_symmetry_Int_Tables_number   1
_chemical_formula_structural   Er13Th3Mg3CdNi4
_chemical_formula_sum   'Er13 Th3 Mg3 Cd1 Ni4'
_cell_volume   620.31527846
_cell_formula_units_Z   1
loop_
 _symmetry_equiv_pos_site_id
 _symmetry_equiv_pos_as_xyz
  1  'x, y, z'
loop_
 _atom_site_type_symbol
 _atom_site_label
 _atom_site_symmetry_multiplicity
 _atom_site_fract_x
 _atom_site_fract_y
 _atom_site_fract_z
 _atom_site_occupancy
  Er  Er0  1  0.956411  0.347863  0.347863  1
  Er  Er1  1  0.813258  0.187289  0.187289  1
  Er  Er2  1  0.187395  0.813956  0.813956  1
  Er  Er3  1  0.187395  0.813956  0.184691  1
  Er  Er4  1  0.813258  0.187289  0.812165  1
  Er  Er5  1  0.187395  0.184691  0.813956  1
  Er  Er6  1  0.813258  0.812165  0.187289  1
  Er  Er7  1  0.937256  0.566081  0.566081  1
  Er  Er8  1  0.566331  0.933102  0.933102  1
  Er  Er9  1  0.566331  0.933102  0.567465  1
  Er  Er10  1  0.937256  0.566081  0.930581  1
  Er  Er11  1  0.566331  0.567465  0.933102  1
  Er  Er12  1  0.937256  0.930581  0.566081  1
  Th  Th13  1  0.343783  0.348430  0.348430  1
  Th  Th14  1  0.343783  0.348430  0.959358  1
  Th  Th15  1  0.343783  0.959358  0.348430  1
  Mg  Mg16  1  0.579815  0.579734  0.579734  1
  Mg  Mg17  1  0.579815  0.579734  0.260716  1
  Mg  Mg18  1  0.579815  0.260716  0.579734  1
  Cd  Cd19  1  0.254102  0.581965  0.581965  1
  Ni  Ni20  1  0.145087  0.141469  0.141469  1
  Ni  Ni21  1  0.145087  0.141469  0.571974  1
  Ni  Ni22  1  0.145087  0.571974  0.141469  1
  Ni  Ni23  1  0.570709  0.143097  0.143097  1
