# generated using pymatgen
data_CaLa5DyCoBr12
_symmetry_space_group_name_H-M   'P 1'
_cell_length_a   9.71565728
_cell_length_b   9.49799018
_cell_length_c   9.76962500
_cell_angle_alpha   107.67862371
_cell_angle_beta   107.70505123
_cell_angle_gamma   106.02137845
_symmetry_Int_Tables_number   1
_chemical_formula_structural   CaLa5DyCoBr12
_chemical_formula_sum   'Ca1 La5 Dy1 Co1 Br12'
_cell_volume   747.86009642
_cell_formula_units_Z   1
loop_
 _symmetry_equiv_pos_site_id
 _symmetry_equiv_pos_as_xyz
  1  'x, y, z'
loop_
 _atom_site_type_symbol
 _atom_site_label
 _atom_site_symmetry_multiplicity
 _atom_site_fract_x
 _atom_site_fract_y
 _atom_site_fract_z
 _atom_site_occupancy
  Ca  Ca0  1  0.501784  0.498565  0.496261  1
  La  La1  1  0.022430  0.298750  0.101544  1
  La  La2  1  0.113454  0.028683  0.321175  1
  La  La3  1  0.895071  0.974068  0.682471  1
  La  La4  1  0.975291  0.701854  0.900070  1
  La  La5  1  0.678393  0.892204  0.970910  1
  Dy  Dy6  1  0.303525  0.104537  0.029768  1
  Co  Co7  1  0.999457  0.000950  0.002121  1
  Br  Br8  1  0.672450  0.219768  0.068749  1
  Br  Br9  1  0.380556  0.447318  0.163668  1
  Br  Br10  1  0.069538  0.679927  0.219259  1
  Br  Br11  1  0.785218  0.931220  0.315445  1
  Br  Br12  1  0.459614  0.162252  0.366685  1
  Br  Br13  1  0.175952  0.386906  0.461351  1
  Br  Br14  1  0.829284  0.614489  0.539909  1
  Br  Br15  1  0.541851  0.833592  0.615876  1
  Br  Br16  1  0.228709  0.073768  0.702914  1
  Br  Br17  1  0.932667  0.320884  0.782315  1
  Br  Br18  1  0.617113  0.536220  0.823730  1
  Br  Br19  1  0.317650  0.794048  0.935784  1
