# generated using pymatgen
data_Lu17Sc3(GaBi3)3
_symmetry_space_group_name_H-M   'P 1'
_cell_length_a   7.94025141
_cell_length_b   9.19947200
_cell_length_c   11.62367701
_cell_angle_alpha   90.00000000
_cell_angle_beta   89.83612107
_cell_angle_gamma   90.00000000
_symmetry_Int_Tables_number   1
_chemical_formula_structural   Lu17Sc3(GaBi3)3
_chemical_formula_sum   'Lu17 Sc3 Ga3 Bi9'
_cell_volume   849.06103866
_cell_formula_units_Z   1
loop_
 _symmetry_equiv_pos_site_id
 _symmetry_equiv_pos_as_xyz
  1  'x, y, z'
loop_
 _atom_site_type_symbol
 _atom_site_label
 _atom_site_symmetry_multiplicity
 _atom_site_fract_x
 _atom_site_fract_y
 _atom_site_fract_z
 _atom_site_occupancy
  Lu  Lu0  1  0.521373  0.250000  0.990645  1
  Lu  Lu1  1  0.346214  0.250000  0.294910  1
  Lu  Lu2  1  0.655307  0.750000  0.703997  1
  Lu  Lu3  1  0.148199  0.750000  0.793047  1
  Lu  Lu4  1  0.844255  0.250000  0.217261  1
  Lu  Lu5  1  0.198349  0.250000  0.775040  1
  Lu  Lu6  1  0.818587  0.750000  0.213737  1
  Lu  Lu7  1  0.320178  0.750000  0.287167  1
  Lu  Lu8  1  0.676561  0.250000  0.708367  1
  Lu  Lu9  1  0.192249  0.049515  0.060858  1
  Lu  Lu10  1  0.812156  0.927126  0.944405  1
  Lu  Lu11  1  0.314537  0.940593  0.554796  1
  Lu  Lu12  1  0.812156  0.572874  0.944405  1
  Lu  Lu13  1  0.684769  0.058219  0.446541  1
  Lu  Lu14  1  0.192249  0.450485  0.060858  1
  Lu  Lu15  1  0.684769  0.441781  0.446541  1
  Lu  Lu16  1  0.314537  0.559407  0.554796  1
  Sc  Sc17  1  0.034598  0.250000  0.508606  1
  Sc  Sc18  1  0.963787  0.750000  0.490657  1
  Sc  Sc19  1  0.462494  0.750000  0.010659  1
  Ga  Ga20  1  0.401013  0.250000  0.538936  1
  Ga  Ga21  1  0.594991  0.750000  0.459305  1
  Ga  Ga22  1  0.094913  0.750000  0.040352  1
  Bi  Bi23  1  0.908198  0.250000  0.953935  1
  Bi  Bi24  1  0.056122  0.000179  0.325074  1
  Bi  Bi25  1  0.943374  0.999620  0.674098  1
  Bi  Bi26  1  0.443384  0.993941  0.823727  1
  Bi  Bi27  1  0.943374  0.500380  0.674098  1
  Bi  Bi28  1  0.558901  0.999892  0.177191  1
  Bi  Bi29  1  0.056122  0.499821  0.325074  1
  Bi  Bi30  1  0.558901  0.500108  0.177191  1
  Bi  Bi31  1  0.443384  0.506059  0.823727  1
