# generated using pymatgen
data_Sr3YbTaNbO9
_symmetry_space_group_name_H-M   'P 1'
_cell_length_a   5.89918048
_cell_length_b   5.89964993
_cell_length_c   14.91636315
_cell_angle_alpha   89.96485003
_cell_angle_beta   89.98095075
_cell_angle_gamma   60.00650453
_symmetry_Int_Tables_number   1
_chemical_formula_structural   Sr3YbTaNbO9
_chemical_formula_sum   'Sr6 Yb2 Ta2 Nb2 O18'
_cell_volume   449.61406123
_cell_formula_units_Z   2
loop_
 _symmetry_equiv_pos_site_id
 _symmetry_equiv_pos_as_xyz
  1  'x, y, z'
loop_
 _atom_site_type_symbol
 _atom_site_label
 _atom_site_symmetry_multiplicity
 _atom_site_fract_x
 _atom_site_fract_y
 _atom_site_fract_z
 _atom_site_occupancy
  Sr  Sr0  1  0.000027  0.000025  0.250308  1
  Sr  Sr1  1  0.666507  0.667767  0.371775  1
  Sr  Sr2  1  0.667426  0.664093  0.122270  1
  Sr  Sr3  1  0.332584  0.335801  0.875535  1
  Sr  Sr4  1  0.333514  0.332273  0.630080  1
  Sr  Sr5  1  0.999982  0.999957  0.749734  1
  Yb  Yb6  1  0.000023  0.000056  0.499378  1
  Yb  Yb7  1  0.999998  0.999891  0.000620  1
  Ta  Ta8  1  0.332893  0.334174  0.349201  1
  Ta  Ta9  1  0.334666  0.331153  0.149109  1
  Nb  Nb10  1  0.665211  0.668875  0.851914  1
  Nb  Nb11  1  0.667228  0.665808  0.649747  1
  O  O12  1  0.585055  0.967918  0.750425  1
  O  O13  1  0.913451  0.741916  0.593933  1
  O  O14  1  0.912322  0.745820  0.906670  1
  O  O15  1  0.343262  0.911718  0.594558  1
  O  O16  1  0.343338  0.916617  0.907517  1
  O  O17  1  0.966554  0.447483  0.751254  1
  O  O18  1  0.447191  0.585484  0.751643  1
  O  O19  1  0.260363  0.648719  0.090958  1
  O  O20  1  0.256557  0.656761  0.404296  1
  O  O21  1  0.743989  0.341507  0.595170  1
  O  O22  1  0.739996  0.349681  0.909701  1
  O  O23  1  0.549631  0.413246  0.248431  1
  O  O24  1  0.037892  0.549295  0.248766  1
  O  O25  1  0.654888  0.084621  0.093088  1
  O  O26  1  0.655014  0.089500  0.404945  1
  O  O27  1  0.088937  0.254635  0.093847  1
  O  O28  1  0.087812  0.258618  0.405492  1
  O  O29  1  0.413692  0.036591  0.249636  1
