# generated using pymatgen
data_Ho5ErNiI10
_symmetry_space_group_name_H-M   'P 1'
_cell_length_a   7.67602612
_cell_length_b   9.65283280
_cell_length_c   9.66311859
_cell_angle_alpha   107.04562204
_cell_angle_beta   96.93915514
_cell_angle_gamma   104.58725454
_symmetry_Int_Tables_number   1
_chemical_formula_structural   Ho5ErNiI10
_chemical_formula_sum   'Ho5 Er1 Ni1 I10'
_cell_volume   647.64980392
_cell_formula_units_Z   1
loop_
 _symmetry_equiv_pos_site_id
 _symmetry_equiv_pos_as_xyz
  1  'x, y, z'
loop_
 _atom_site_type_symbol
 _atom_site_label
 _atom_site_symmetry_multiplicity
 _atom_site_fract_x
 _atom_site_fract_y
 _atom_site_fract_z
 _atom_site_occupancy
  Ho  Ho0  1  0.338297  0.120019  0.160602  1
  Ho  Ho1  1  0.662007  0.880258  0.839465  1
  Ho  Ho2  1  0.969357  0.278017  0.082777  1
  Ho  Ho3  1  0.030807  0.721695  0.916752  1
  Ho  Ho4  1  0.888748  0.960305  0.234903  1
  Er  Er5  1  0.111136  0.039724  0.765931  1
  Ni  Ni6  1  0.000095  0.998549  0.998422  1
  I  I7  1  0.350802  0.450395  0.272279  1
  I  I8  1  0.648585  0.549714  0.728037  1
  I  I9  1  0.774427  0.256285  0.344287  1
  I  I10  1  0.225488  0.744675  0.655615  1
  I  I11  1  0.545104  0.184867  0.906788  1
  I  I12  1  0.454542  0.815210  0.093296  1
  I  I13  1  0.743010  0.913083  0.537779  1
  I  I14  1  0.257555  0.087725  0.463283  1
  I  I15  1  0.914638  0.627490  0.180459  1
  I  I16  1  0.085402  0.371989  0.819324  1
