# generated using pymatgen
data_KP(SF)2
_symmetry_space_group_name_H-M   'P 1'
_cell_length_a   9.51540000
_cell_length_b   7.27264500
_cell_length_c   8.86595900
_cell_angle_alpha   90.00000000
_cell_angle_beta   90.00000000
_cell_angle_gamma   90.00000000
_symmetry_Int_Tables_number   1
_chemical_formula_structural   KP(SF)2
_chemical_formula_sum   'K4 P4 S8 F8'
_cell_volume   613.54321389
_cell_formula_units_Z   4
loop_
 _symmetry_equiv_pos_site_id
 _symmetry_equiv_pos_as_xyz
  1  'x, y, z'
loop_
 _atom_site_type_symbol
 _atom_site_label
 _atom_site_symmetry_multiplicity
 _atom_site_fract_x
 _atom_site_fract_y
 _atom_site_fract_z
 _atom_site_occupancy
  K  K0  1  0.184375  0.250000  0.104336  1
  K  K1  1  0.684375  0.250000  0.395664  1
  K  K2  1  0.315627  0.749999  0.604337  1
  K  K3  1  0.815626  0.749999  0.895664  1
  P  P4  1  0.415914  0.749999  0.186984  1
  P  P5  1  0.915914  0.749999  0.313016  1
  P  P6  1  0.084085  0.250000  0.686985  1
  P  P7  1  0.584085  0.250000  0.813016  1
  S  S8  1  0.901383  0.515825  0.206099  1
  S  S9  1  0.901383  0.984174  0.206099  1
  S  S10  1  0.401383  0.515825  0.293901  1
  S  S11  1  0.401383  0.984174  0.293901  1
  S  S12  1  0.598617  0.015827  0.706098  1
  S  S13  1  0.598617  0.484175  0.706098  1
  S  S14  1  0.098618  0.015827  0.793902  1
  S  S15  1  0.098618  0.484175  0.793902  1
  F  F16  1  0.307225  0.749999  0.048440  1
  F  F17  1  0.554767  0.749999  0.083761  1
  F  F18  1  0.054766  0.749999  0.416239  1
  F  F19  1  0.807225  0.749999  0.451560  1
  F  F20  1  0.192775  0.250000  0.548440  1
  F  F21  1  0.945235  0.250000  0.583761  1
  F  F22  1  0.445235  0.250000  0.916240  1
  F  F23  1  0.692774  0.250000  0.951561  1
