# generated using pymatgen
data_TbErTm3CoSb2
_symmetry_space_group_name_H-M   'P 1'
_cell_length_a   7.77991900
_cell_length_b   8.72128100
_cell_length_c   12.03662700
_cell_angle_alpha   90.00000000
_cell_angle_beta   90.00000000
_cell_angle_gamma   90.00000000
_symmetry_Int_Tables_number   1
_chemical_formula_structural   TbErTm3CoSb2
_chemical_formula_sum   'Tb4 Er4 Tm12 Co4 Sb8'
_cell_volume   816.69549052
_cell_formula_units_Z   4
loop_
 _symmetry_equiv_pos_site_id
 _symmetry_equiv_pos_as_xyz
  1  'x, y, z'
loop_
 _atom_site_type_symbol
 _atom_site_label
 _atom_site_symmetry_multiplicity
 _atom_site_fract_x
 _atom_site_fract_y
 _atom_site_fract_z
 _atom_site_occupancy
  Tb  Tb0  1  0.622254  0.750000  0.306599  1
  Tb  Tb1  1  0.122254  0.250000  0.193401  1
  Tb  Tb2  1  0.377746  0.250000  0.693401  1
  Tb  Tb3  1  0.877746  0.750000  0.806599  1
  Er  Er4  1  0.154768  0.750000  0.203662  1
  Er  Er5  1  0.654768  0.250000  0.296338  1
  Er  Er6  1  0.845232  0.250000  0.796338  1
  Er  Er7  1  0.345232  0.750000  0.703662  1
  Tm  Tm8  1  0.450020  0.750000  0.997670  1
  Tm  Tm9  1  0.950020  0.250000  0.502330  1
  Tm  Tm10  1  0.549980  0.250000  0.002330  1
  Tm  Tm11  1  0.049980  0.750000  0.497670  1
  Tm  Tm12  1  0.822754  0.963404  0.065139  1
  Tm  Tm13  1  0.322754  0.036596  0.434861  1
  Tm  Tm14  1  0.177246  0.463404  0.934861  1
  Tm  Tm15  1  0.677246  0.536596  0.565139  1
  Tm  Tm16  1  0.177246  0.036596  0.934861  1
  Tm  Tm17  1  0.677246  0.963404  0.565139  1
  Tm  Tm18  1  0.822754  0.536596  0.065139  1
  Tm  Tm19  1  0.322754  0.463404  0.434861  1
  Co  Co20  1  0.432338  0.750000  0.490872  1
  Co  Co21  1  0.932338  0.250000  0.009128  1
  Co  Co22  1  0.567662  0.250000  0.509128  1
  Co  Co23  1  0.067662  0.750000  0.990872  1
  Sb  Sb24  1  0.929779  0.991566  0.328674  1
  Sb  Sb25  1  0.429779  0.008434  0.171326  1
  Sb  Sb26  1  0.070221  0.491566  0.671326  1
  Sb  Sb27  1  0.570221  0.508434  0.828674  1
  Sb  Sb28  1  0.070221  0.008434  0.671326  1
  Sb  Sb29  1  0.570221  0.991566  0.828674  1
  Sb  Sb30  1  0.929779  0.508434  0.328674  1
  Sb  Sb31  1  0.429779  0.491566  0.171326  1
