# generated using pymatgen
data_Lu2Si14Ir5Os
_symmetry_space_group_name_H-M   'P 1'
_cell_length_a   8.00040244
_cell_length_b   8.00040358
_cell_length_c   8.02423651
_cell_angle_alpha   56.71274685
_cell_angle_beta   56.71274226
_cell_angle_gamma   56.78661417
_symmetry_Int_Tables_number   1
_chemical_formula_structural   Lu2Si14Ir5Os
_chemical_formula_sum   'Lu2 Si14 Ir5 Os1'
_cell_volume   335.81554544
_cell_formula_units_Z   1
loop_
 _symmetry_equiv_pos_site_id
 _symmetry_equiv_pos_as_xyz
  1  'x, y, z'
loop_
 _atom_site_type_symbol
 _atom_site_label
 _atom_site_symmetry_multiplicity
 _atom_site_fract_x
 _atom_site_fract_y
 _atom_site_fract_z
 _atom_site_occupancy
  Lu  Lu0  1  0.000993  0.003104  0.997118  1
  Lu  Lu1  1  0.496896  0.499007  0.502882  1
  Si  Si2  1  0.752658  0.747342  0.750000  1
  Si  Si3  1  0.249341  0.250659  0.250000  1
  Si  Si4  1  0.850460  0.064803  0.672385  1
  Si  Si5  1  0.672249  0.851531  0.064301  1
  Si  Si6  1  0.065194  0.669956  0.850806  1
  Si  Si7  1  0.648469  0.827751  0.435699  1
  Si  Si8  1  0.435197  0.649540  0.827615  1
  Si  Si9  1  0.830044  0.434806  0.649194  1
  Si  Si10  1  0.170919  0.564581  0.354352  1
  Si  Si11  1  0.564820  0.351276  0.171995  1
  Si  Si12  1  0.350351  0.173203  0.564703  1
  Si  Si13  1  0.935419  0.329081  0.145648  1
  Si  Si14  1  0.326797  0.149649  0.935297  1
  Si  Si15  1  0.148724  0.935180  0.328005  1
  Ir  Ir16  1  0.250364  0.927057  0.572083  1
  Ir  Ir17  1  0.572943  0.249636  0.927917  1
  Ir  Ir18  1  0.926371  0.573629  0.250000  1
  Ir  Ir19  1  0.427298  0.750402  0.072426  1
  Ir  Ir20  1  0.749598  0.072702  0.427574  1
  Os  Os21  1  0.074896  0.425104  0.750000  1
