# generated using pymatgen
data_Li2Dy16CdInRh4
_symmetry_space_group_name_H-M   'P 1'
_cell_length_a   9.68107485
_cell_length_b   9.64151851
_cell_length_c   9.64001906
_cell_angle_alpha   59.67136541
_cell_angle_beta   59.85901490
_cell_angle_gamma   59.86419286
_symmetry_Int_Tables_number   1
_chemical_formula_structural   Li2Dy16CdInRh4
_chemical_formula_sum   'Li2 Dy16 Cd1 In1 Rh4'
_cell_volume   633.33647927
_cell_formula_units_Z   1
loop_
 _symmetry_equiv_pos_site_id
 _symmetry_equiv_pos_as_xyz
  1  'x, y, z'
loop_
 _atom_site_type_symbol
 _atom_site_label
 _atom_site_symmetry_multiplicity
 _atom_site_fract_x
 _atom_site_fract_y
 _atom_site_fract_z
 _atom_site_occupancy
  Li  Li0  1  0.923534  0.927353  0.926823  1
  Li  Li1  1  0.222289  0.927353  0.926823  1
  Dy  Dy2  1  0.564109  0.562169  0.937273  1
  Dy  Dy3  1  0.151986  0.542233  0.153796  1
  Dy  Dy4  1  0.690790  0.308797  0.309623  1
  Dy  Dy5  1  0.935108  0.561387  0.568396  1
  Dy  Dy6  1  0.936450  0.562169  0.937273  1
  Dy  Dy7  1  0.689324  0.689070  0.311738  1
  Dy  Dy8  1  0.562683  0.936953  0.937681  1
  Dy  Dy9  1  0.150541  0.150841  0.151692  1
  Dy  Dy10  1  0.309868  0.689070  0.311738  1
  Dy  Dy11  1  0.546927  0.150841  0.151692  1
  Dy  Dy12  1  0.312138  0.313453  0.686545  1
  Dy  Dy13  1  0.315977  0.684349  0.683697  1
  Dy  Dy14  1  0.153368  0.153639  0.539625  1
  Dy  Dy15  1  0.687865  0.313453  0.686545  1
  Dy  Dy16  1  0.935732  0.935508  0.564032  1
  Dy  Dy17  1  0.564728  0.935508  0.564032  1
  Cd  Cd18  1  0.920555  0.243197  0.915693  1
  In  In19  1  0.919505  0.917286  0.243704  1
  Rh  Rh20  1  0.358662  0.355887  0.926789  1
  Rh  Rh21  1  0.361744  0.356866  0.354959  1
  Rh  Rh22  1  0.926431  0.356866  0.354959  1
  Rh  Rh23  1  0.359687  0.925754  0.354872  1
