# generated using pymatgen
data_Tm3CdSn3Ir2
_symmetry_space_group_name_H-M   'P 1'
_cell_length_a   7.66773200
_cell_length_b   7.66773139
_cell_length_c   3.88271900
_cell_angle_alpha   90.00000000
_cell_angle_beta   90.00000000
_cell_angle_gamma   120.00000262
_symmetry_Int_Tables_number   1
_chemical_formula_structural   Tm3CdSn3Ir2
_chemical_formula_sum   'Tm3 Cd1 Sn3 Ir2'
_cell_volume   197.69714476
_cell_formula_units_Z   1
loop_
 _symmetry_equiv_pos_site_id
 _symmetry_equiv_pos_as_xyz
  1  'x, y, z'
loop_
 _atom_site_type_symbol
 _atom_site_label
 _atom_site_symmetry_multiplicity
 _atom_site_fract_x
 _atom_site_fract_y
 _atom_site_fract_z
 _atom_site_occupancy
  Tm  Tm0  1  0.971739  0.381543  0.500000  1
  Tm  Tm1  1  0.618457  0.590196  0.500000  1
  Tm  Tm2  1  0.409804  0.028261  0.500000  1
  Cd  Cd3  1  0.333333  0.666667  0.000000  1
  Sn  Sn4  1  0.000183  0.743700  0.000000  1
  Sn  Sn5  1  0.256300  0.256483  0.000000  1
  Sn  Sn6  1  0.743517  0.999817  0.000000  1
  Ir  Ir7  1  0.666667  0.333333  0.000000  1
  Ir  Ir8  1  0.000000  0.000000  0.500000  1
