# generated using pymatgen
data_ErFe3CoMoP3
_symmetry_space_group_name_H-M   'P 1'
_cell_length_a   3.69902900
_cell_length_b   10.40365700
_cell_length_c   11.91127400
_cell_angle_alpha   90.00000000
_cell_angle_beta   90.00000000
_cell_angle_gamma   90.00000000
_symmetry_Int_Tables_number   1
_chemical_formula_structural   ErFe3CoMoP3
_chemical_formula_sum   'Er4 Fe12 Co4 Mo4 P12'
_cell_volume   458.38666667
_cell_formula_units_Z   4
loop_
 _symmetry_equiv_pos_site_id
 _symmetry_equiv_pos_as_xyz
  1  'x, y, z'
loop_
 _atom_site_type_symbol
 _atom_site_label
 _atom_site_symmetry_multiplicity
 _atom_site_fract_x
 _atom_site_fract_y
 _atom_site_fract_z
 _atom_site_occupancy
  Er  Er0  1  0.250000  0.581578  0.706034  1
  Er  Er1  1  0.250000  0.918422  0.206034  1
  Er  Er2  1  0.750000  0.418422  0.293966  1
  Er  Er3  1  0.750000  0.081578  0.793966  1
  Fe  Fe4  1  0.250000  0.216646  0.177049  1
  Fe  Fe5  1  0.250000  0.283354  0.677049  1
  Fe  Fe6  1  0.750000  0.783354  0.822951  1
  Fe  Fe7  1  0.750000  0.716646  0.322951  1
  Fe  Fe8  1  0.250000  0.877292  0.701662  1
  Fe  Fe9  1  0.250000  0.622708  0.201662  1
  Fe  Fe10  1  0.750000  0.122708  0.298338  1
  Fe  Fe11  1  0.750000  0.377292  0.798338  1
  Fe  Fe12  1  0.250000  0.463050  0.932572  1
  Fe  Fe13  1  0.250000  0.036950  0.432572  1
  Fe  Fe14  1  0.750000  0.536950  0.067428  1
  Fe  Fe15  1  0.750000  0.963050  0.567428  1
  Co  Co16  1  0.250000  0.406673  0.486930  1
  Co  Co17  1  0.250000  0.093328  0.986930  1
  Co  Co18  1  0.750000  0.593327  0.513070  1
  Co  Co19  1  0.750000  0.906673  0.013070  1
  Mo  Mo20  1  0.250000  0.705403  0.986737  1
  Mo  Mo21  1  0.250000  0.794597  0.486737  1
  Mo  Mo22  1  0.750000  0.294597  0.013263  1
  Mo  Mo23  1  0.750000  0.205403  0.513263  1
  P  P24  1  0.250000  0.425016  0.114397  1
  P  P25  1  0.250000  0.074984  0.614397  1
  P  P26  1  0.750000  0.574984  0.885603  1
  P  P27  1  0.750000  0.925016  0.385603  1
  P  P28  1  0.250000  0.265717  0.866052  1
  P  P29  1  0.250000  0.234283  0.366052  1
  P  P30  1  0.750000  0.734283  0.133948  1
  P  P31  1  0.750000  0.765717  0.633948  1
  P  P32  1  0.250000  0.593597  0.391539  1
  P  P33  1  0.250000  0.906403  0.891539  1
  P  P34  1  0.750000  0.406403  0.608461  1
  P  P35  1  0.750000  0.093597  0.108461  1
