# generated using pymatgen
data_TbDy3AlZn11
_symmetry_space_group_name_H-M   'P 1'
_cell_length_a   4.40689800
_cell_length_b   6.68799722
_cell_length_c   10.09357834
_cell_angle_alpha   89.97049821
_cell_angle_beta   90.00000000
_cell_angle_gamma   90.00000000
_symmetry_Int_Tables_number   1
_chemical_formula_structural   TbDy3AlZn11
_chemical_formula_sum   'Tb1 Dy3 Al1 Zn11'
_cell_volume   297.49124071
_cell_formula_units_Z   1
loop_
 _symmetry_equiv_pos_site_id
 _symmetry_equiv_pos_as_xyz
  1  'x, y, z'
loop_
 _atom_site_type_symbol
 _atom_site_label
 _atom_site_symmetry_multiplicity
 _atom_site_fract_x
 _atom_site_fract_y
 _atom_site_fract_z
 _atom_site_occupancy
  Tb  Tb0  1  0.250000  0.780653  0.836040  1
  Dy  Dy1  1  0.250000  0.279923  0.660263  1
  Dy  Dy2  1  0.750000  0.719204  0.338355  1
  Dy  Dy3  1  0.750000  0.217427  0.163132  1
  Al  Al4  1  0.250000  0.537076  0.105637  1
  Zn  Zn5  1  0.250000  0.036111  0.395088  1
  Zn  Zn6  1  0.750000  0.464085  0.895297  1
  Zn  Zn7  1  0.750000  0.963990  0.604461  1
  Zn  Zn8  1  0.250000  0.920559  0.148338  1
  Zn  Zn9  1  0.250000  0.417990  0.352967  1
  Zn  Zn10  1  0.750000  0.082791  0.852089  1
  Zn  Zn11  1  0.750000  0.582518  0.648230  1
  Zn  Zn12  1  0.250000  0.216075  0.956675  1
  Zn  Zn13  1  0.250000  0.716954  0.542911  1
  Zn  Zn14  1  0.750000  0.781846  0.043112  1
  Zn  Zn15  1  0.750000  0.282795  0.457405  1
