# generated using pymatgen
data_EuLu5(AuO7)2
_symmetry_space_group_name_H-M   'P 1'
_cell_length_a   6.38272660
_cell_length_b   6.38272787
_cell_length_c   7.31501900
_cell_angle_alpha   90.05174166
_cell_angle_beta   89.94825833
_cell_angle_gamma   108.59582224
_symmetry_Int_Tables_number   1
_chemical_formula_structural   EuLu5(AuO7)2
_chemical_formula_sum   'Eu1 Lu5 Au2 O14'
_cell_volume   282.44939303
_cell_formula_units_Z   1
loop_
 _symmetry_equiv_pos_site_id
 _symmetry_equiv_pos_as_xyz
  1  'x, y, z'
loop_
 _atom_site_type_symbol
 _atom_site_label
 _atom_site_symmetry_multiplicity
 _atom_site_fract_x
 _atom_site_fract_y
 _atom_site_fract_z
 _atom_site_occupancy
  Eu  Eu0  1  0.500000  0.500000  0.000000  1
  Lu  Lu1  1  0.500000  0.500000  0.500000  1
  Lu  Lu2  1  0.528399  0.998391  0.747612  1
  Lu  Lu3  1  0.998391  0.528399  0.252388  1
  Lu  Lu4  1  0.471601  0.001609  0.252388  1
  Lu  Lu5  1  0.001609  0.471601  0.747612  1
  Au  Au6  1  0.000000  0.000000  0.500000  1
  Au  Au7  1  0.000000  0.000000  0.000000  1
  O  O8  1  0.665689  0.915298  0.475138  1
  O  O9  1  0.915298  0.665689  0.524862  1
  O  O10  1  0.666032  0.923639  0.024567  1
  O  O11  1  0.923639  0.666032  0.975433  1
  O  O12  1  0.334311  0.084702  0.524862  1
  O  O13  1  0.084702  0.334311  0.475138  1
  O  O14  1  0.333968  0.076361  0.975433  1
  O  O15  1  0.076361  0.333968  0.024567  1
  O  O16  1  0.915725  0.084275  0.749835  1
  O  O17  1  0.084275  0.915725  0.250165  1
  O  O18  1  0.363359  0.636641  0.740306  1
  O  O19  1  0.636641  0.363359  0.259694  1
  O  O20  1  0.641587  0.358413  0.740638  1
  O  O21  1  0.358413  0.641587  0.259362  1
