# generated using pymatgen
data_Sc2Cu3Ni4
_symmetry_space_group_name_H-M   'P 1'
_cell_length_a   4.78130135
_cell_length_b   4.77576274
_cell_length_c   6.35173700
_cell_angle_alpha   82.42918230
_cell_angle_beta   81.89001706
_cell_angle_gamma   119.93534478
_symmetry_Int_Tables_number   1
_chemical_formula_structural   Sc2Cu3Ni4
_chemical_formula_sum   'Sc2 Cu3 Ni4'
_cell_volume   120.92765664
_cell_formula_units_Z   1
loop_
 _symmetry_equiv_pos_site_id
 _symmetry_equiv_pos_as_xyz
  1  'x, y, z'
loop_
 _atom_site_type_symbol
 _atom_site_label
 _atom_site_symmetry_multiplicity
 _atom_site_fract_x
 _atom_site_fract_y
 _atom_site_fract_z
 _atom_site_occupancy
  Sc  Sc0  1  0.598508  0.598674  0.240647  1
  Sc  Sc1  1  0.397266  0.402400  0.757233  1
  Cu  Cu2  1  0.288291  0.960293  0.155425  1
  Cu  Cu3  1  0.036788  0.706545  0.845854  1
  Cu  Cu4  1  0.713182  0.043381  0.845221  1
  Ni  Ni5  1  0.999783  0.000396  0.500385  1
  Ni  Ni6  1  0.964956  0.287734  0.159272  1
  Ni  Ni7  1  0.501049  0.000085  0.498527  1
  Ni  Ni8  1  0.000177  0.500493  0.497435  1
