# generated using pymatgen
data_Er5Tm3Mn2(B12Rh)2
_symmetry_space_group_name_H-M   'P 1'
_cell_length_a   3.58653200
_cell_length_b   9.06832256
_cell_length_c   11.43772401
_cell_angle_alpha   90.16498031
_cell_angle_beta   90.00000000
_cell_angle_gamma   90.00000000
_symmetry_Int_Tables_number   1
_chemical_formula_structural   Er5Tm3Mn2(B12Rh)2
_chemical_formula_sum   'Er5 Tm3 Mn2 B24 Rh2'
_cell_volume   371.99703829
_cell_formula_units_Z   1
loop_
 _symmetry_equiv_pos_site_id
 _symmetry_equiv_pos_as_xyz
  1  'x, y, z'
loop_
 _atom_site_type_symbol
 _atom_site_label
 _atom_site_symmetry_multiplicity
 _atom_site_fract_x
 _atom_site_fract_y
 _atom_site_fract_z
 _atom_site_occupancy
  Er  Er0  1  0.500000  0.317612  0.410118  1
  Er  Er1  1  0.500000  0.682449  0.589857  1
  Er  Er2  1  0.500000  0.171945  0.917806  1
  Er  Er3  1  0.500000  0.827967  0.082186  1
  Er  Er4  1  0.500000  0.440093  0.126290  1
  Tm  Tm5  1  0.500000  0.559931  0.873622  1
  Tm  Tm6  1  0.500000  0.052119  0.629694  1
  Tm  Tm7  1  0.500000  0.947873  0.370347  1
  Mn  Mn8  1  0.500000  0.139316  0.180618  1
  Mn  Mn9  1  0.500000  0.860453  0.819393  1
  B  B10  1  0.000000  0.107930  0.470555  1
  B  B11  1  0.000000  0.892064  0.529450  1
  B  B12  1  0.000000  0.390887  0.969786  1
  B  B13  1  0.000000  0.609373  0.029696  1
  B  B14  1  0.000000  0.132044  0.313413  1
  B  B15  1  0.000000  0.867950  0.686611  1
  B  B16  1  0.000000  0.367709  0.817115  1
  B  B17  1  0.000000  0.632558  0.182957  1
  B  B18  1  0.000000  0.053713  0.067805  1
  B  B19  1  0.000000  0.946252  0.932160  1
  B  B20  1  0.000000  0.446140  0.566197  1
  B  B21  1  0.000000  0.553841  0.433840  1
  B  B22  1  0.000000  0.482180  0.286842  1
  B  B23  1  0.000000  0.517933  0.713372  1
  B  B24  1  0.000000  0.014617  0.788388  1
  B  B25  1  0.000000  0.985373  0.211609  1
  B  B26  1  0.000000  0.245963  0.081455  1
  B  B27  1  0.000000  0.753739  0.918513  1
  B  B28  1  0.000000  0.249509  0.578985  1
  B  B29  1  0.000000  0.750533  0.421035  1
  B  B30  1  0.000000  0.290636  0.233486  1
  B  B31  1  0.000000  0.709065  0.766639  1
  B  B32  1  0.000000  0.206924  0.735132  1
  B  B33  1  0.000000  0.793127  0.264864  1
  Rh  Rh34  1  0.500000  0.361326  0.678958  1
  Rh  Rh35  1  0.500000  0.638858  0.321205  1
