# generated using pymatgen
data_BaZnPd3O8
_symmetry_space_group_name_H-M   'P 1'
_cell_length_a   6.17010601
_cell_length_b   7.29099199
_cell_length_c   10.68673200
_cell_angle_alpha   104.14176355
_cell_angle_beta   90.00291581
_cell_angle_gamma   64.96428586
_symmetry_Int_Tables_number   1
_chemical_formula_structural   BaZnPd3O8
_chemical_formula_sum   'Ba2 Zn2 Pd6 O16'
_cell_volume   419.45278238
_cell_formula_units_Z   2
loop_
 _symmetry_equiv_pos_site_id
 _symmetry_equiv_pos_as_xyz
  1  'x, y, z'
loop_
 _atom_site_type_symbol
 _atom_site_label
 _atom_site_symmetry_multiplicity
 _atom_site_fract_x
 _atom_site_fract_y
 _atom_site_fract_z
 _atom_site_occupancy
  Ba  Ba0  1  0.750039  0.499915  0.749983  1
  Ba  Ba1  1  0.250041  0.499911  0.249986  1
  Zn  Zn2  1  0.500039  0.999925  0.499988  1
  Zn  Zn3  1  0.000038  0.999925  0.999987  1
  Pd  Pd4  1  0.249974  0.000005  0.749991  1
  Pd  Pd5  1  0.749984  0.000004  0.249996  1
  Pd  Pd6  1  0.000005  0.000003  0.500013  1
  Pd  Pd7  1  0.500007  0.000002  0.000011  1
  Pd  Pd8  1  0.750015  0.000006  0.749997  1
  Pd  Pd9  1  0.250009  0.000003  0.250000  1
  O  O10  1  0.079006  0.841943  0.640331  1
  O  O11  1  0.579011  0.841935  0.140329  1
  O  O12  1  0.420873  0.158298  0.859710  1
  O  O13  1  0.920879  0.158288  0.359707  1
  O  O14  1  0.823232  0.834213  0.885810  1
  O  O15  1  0.323236  0.834210  0.385808  1
  O  O16  1  0.917113  0.165777  0.854556  1
  O  O17  1  0.417116  0.165773  0.354553  1
  O  O18  1  0.676722  0.165764  0.614168  1
  O  O19  1  0.176723  0.165762  0.114167  1
  O  O20  1  0.157482  0.165781  0.614181  1
  O  O21  1  0.657482  0.165779  0.114179  1
  O  O22  1  0.582899  0.834199  0.645478  1
  O  O23  1  0.082902  0.834195  0.145475  1
  O  O24  1  0.342589  0.834194  0.885798  1
  O  O25  1  0.842589  0.834191  0.385796  1
