# generated using pymatgen
data_NdI16
_symmetry_space_group_name_H-M   'P 1'
_cell_length_a   9.10994410
_cell_length_b   10.47357499
_cell_length_c   14.11563419
_cell_angle_alpha   101.48015537
_cell_angle_beta   93.98034585
_cell_angle_gamma   122.01221191
_symmetry_Int_Tables_number   1
_chemical_formula_structural   NdI16
_chemical_formula_sum   'Nd1 I16'
_cell_volume   1094.09603222
_cell_formula_units_Z   1
loop_
 _symmetry_equiv_pos_site_id
 _symmetry_equiv_pos_as_xyz
  1  'x, y, z'
loop_
 _atom_site_type_symbol
 _atom_site_label
 _atom_site_symmetry_multiplicity
 _atom_site_fract_x
 _atom_site_fract_y
 _atom_site_fract_z
 _atom_site_occupancy
  Nd  Nd0  1  0.000000  0.000000  0.000000  1
  I  I1  1  0.767182  0.933391  0.164544  1
  I  I2  1  0.232818  0.066609  0.835456  1
  I  I3  1  0.330978  0.210223  0.173325  1
  I  I4  1  0.669022  0.789777  0.826675  1
  I  I5  1  0.971712  0.281915  0.980627  1
  I  I6  1  0.028288  0.718085  0.019373  1
  I  I7  1  0.352941  0.483255  0.304576  1
  I  I8  1  0.647059  0.516745  0.695424  1
  I  I9  1  0.932730  0.590552  0.268611  1
  I  I10  1  0.067270  0.409448  0.731389  1
  I  I11  1  0.405082  0.832693  0.088727  1
  I  I12  1  0.594918  0.167307  0.911273  1
  I  I13  1  0.610655  0.253806  0.558573  1
  I  I14  1  0.389345  0.746194  0.441427  1
  I  I15  1  0.789748  0.428759  0.407355  1
  I  I16  1  0.210252  0.571241  0.592645  1
