# generated using pymatgen
data_Er10In8RuPt3
_symmetry_space_group_name_H-M   'P 1'
_cell_length_a   3.61437900
_cell_length_b   8.08071232
_cell_length_c   18.18029171
_cell_angle_alpha   90.03202156
_cell_angle_beta   90.00000000
_cell_angle_gamma   90.00000000
_symmetry_Int_Tables_number   1
_chemical_formula_structural   Er10In8RuPt3
_chemical_formula_sum   'Er10 In8 Ru1 Pt3'
_cell_volume   530.98727738
_cell_formula_units_Z   1
loop_
 _symmetry_equiv_pos_site_id
 _symmetry_equiv_pos_as_xyz
  1  'x, y, z'
loop_
 _atom_site_type_symbol
 _atom_site_label
 _atom_site_symmetry_multiplicity
 _atom_site_fract_x
 _atom_site_fract_y
 _atom_site_fract_z
 _atom_site_occupancy
  Er  Er0  1  0.000000  0.115761  0.411709  1
  Er  Er1  1  0.000000  0.883783  0.585782  1
  Er  Er2  1  0.000000  0.383754  0.914117  1
  Er  Er3  1  0.000000  0.617894  0.086924  1
  Er  Er4  1  0.000000  0.234932  0.222367  1
  Er  Er5  1  0.000000  0.757136  0.779150  1
  Er  Er6  1  0.000000  0.256845  0.720939  1
  Er  Er7  1  0.000000  0.751323  0.279240  1
  Er  Er8  1  0.000000  0.999321  0.000224  1
  Er  Er9  1  0.000000  0.500334  0.499644  1
  In  In10  1  0.500000  0.422093  0.351476  1
  In  In11  1  0.500000  0.575666  0.648115  1
  In  In12  1  0.500000  0.075993  0.851804  1
  In  In13  1  0.500000  0.928864  0.150032  1
  In  In14  1  0.500000  0.291909  0.065843  1
  In  In15  1  0.500000  0.707918  0.933701  1
  In  In16  1  0.500000  0.208196  0.566651  1
  In  In17  1  0.500000  0.794349  0.431559  1
  Ru  Ru18  1  0.500000  0.020863  0.304062  1
  Pt  Pt19  1  0.500000  0.975622  0.696453  1
  Pt  Pt20  1  0.500000  0.475983  0.803758  1
  Pt  Pt21  1  0.500000  0.521462  0.196449  1
