# generated using pymatgen
data_PaCu4Pt
_symmetry_space_group_name_H-M   'P 1'
_cell_length_a   4.99972264
_cell_length_b   4.99972223
_cell_length_c   4.99972300
_cell_angle_alpha   60.00000155
_cell_angle_beta   60.00000422
_cell_angle_gamma   59.99999632
_symmetry_Int_Tables_number   1
_chemical_formula_structural   PaCu4Pt
_chemical_formula_sum   'Pa1 Cu4 Pt1'
_cell_volume   88.37363975
_cell_formula_units_Z   1
loop_
 _symmetry_equiv_pos_site_id
 _symmetry_equiv_pos_as_xyz
  1  'x, y, z'
loop_
 _atom_site_type_symbol
 _atom_site_label
 _atom_site_symmetry_multiplicity
 _atom_site_fract_x
 _atom_site_fract_y
 _atom_site_fract_z
 _atom_site_occupancy
  Pa  Pa0  1  0.000000  0.000000  0.000000  1
  Cu  Cu1  1  0.624156  0.624156  0.127533  1
  Cu  Cu2  1  0.624156  0.127533  0.624156  1
  Cu  Cu3  1  0.127533  0.624156  0.624156  1
  Cu  Cu4  1  0.624156  0.624156  0.624156  1
  Pt  Pt5  1  0.250000  0.250000  0.250000  1
