# generated using pymatgen
data_Zr9Si16Mo11
_symmetry_space_group_name_H-M   'P 1'
_cell_length_a   6.78647442
_cell_length_b   6.78647442
_cell_length_c   12.55619045
_cell_angle_alpha   89.91061413
_cell_angle_beta   90.08938587
_cell_angle_gamma   90.25128878
_symmetry_Int_Tables_number   1
_chemical_formula_structural   Zr9Si16Mo11
_chemical_formula_sum   'Zr9 Si16 Mo11'
_cell_volume   578.28389571
_cell_formula_units_Z   1
loop_
 _symmetry_equiv_pos_site_id
 _symmetry_equiv_pos_as_xyz
  1  'x, y, z'
loop_
 _atom_site_type_symbol
 _atom_site_label
 _atom_site_symmetry_multiplicity
 _atom_site_fract_x
 _atom_site_fract_y
 _atom_site_fract_z
 _atom_site_occupancy
  Zr  Zr0  1  0.001941  0.664335  0.031628  1
  Zr  Zr1  1  0.993154  0.337936  0.532169  1
  Zr  Zr2  1  0.664335  0.001941  0.968372  1
  Zr  Zr3  1  0.160257  0.497548  0.780807  1
  Zr  Zr4  1  0.838500  0.507338  0.284708  1
  Zr  Zr5  1  0.497548  0.160257  0.219193  1
  Zr  Zr6  1  0.507338  0.838500  0.715292  1
  Zr  Zr7  1  0.337936  0.993154  0.467831  1
  Zr  Zr8  1  0.332652  0.332652  0.000000  1
  Si  Si9  1  0.037541  0.712293  0.436866  1
  Si  Si10  1  0.952648  0.293349  0.931988  1
  Si  Si11  1  0.712293  0.037541  0.563134  1
  Si  Si12  1  0.208542  0.467425  0.192200  1
  Si  Si13  1  0.787093  0.537406  0.685309  1
  Si  Si14  1  0.467425  0.208542  0.807800  1
  Si  Si15  1  0.537406  0.787093  0.314691  1
  Si  Si16  1  0.293349  0.952648  0.068012  1
  Si  Si17  1  0.874444  0.796617  0.820328  1
  Si  Si18  1  0.125088  0.202525  0.320932  1
  Si  Si19  1  0.796617  0.874444  0.179672  1
  Si  Si20  1  0.294976  0.623995  0.571028  1
  Si  Si21  1  0.713697  0.372062  0.073349  1
  Si  Si22  1  0.623995  0.294976  0.428972  1
  Si  Si23  1  0.372062  0.713697  0.926651  1
  Si  Si24  1  0.202525  0.125088  0.679068  1
  Mo  Mo25  1  0.331749  0.492847  0.381199  1
  Mo  Mo26  1  0.831660  0.006400  0.370923  1
  Mo  Mo27  1  0.002064  0.165165  0.126059  1
  Mo  Mo28  1  0.006400  0.831660  0.629077  1
  Mo  Mo29  1  0.659061  0.505678  0.878129  1
  Mo  Mo30  1  0.492847  0.331749  0.618801  1
  Mo  Mo31  1  0.505678  0.659061  0.121871  1
  Mo  Mo32  1  0.165165  0.002064  0.873941  1
  Mo  Mo33  1  0.668959  0.668959  0.500000  1
  Mo  Mo34  1  0.832695  0.170357  0.747313  1
  Mo  Mo35  1  0.170357  0.832695  0.252687  1
