# generated using pymatgen
data_NdFe2Ni2MoP3
_symmetry_space_group_name_H-M   'P 1'
_cell_length_a   3.71807600
_cell_length_b   10.36325800
_cell_length_c   12.00955600
_cell_angle_alpha   90.00000000
_cell_angle_beta   90.00000000
_cell_angle_gamma   90.00000000
_symmetry_Int_Tables_number   1
_chemical_formula_structural   NdFe2Ni2MoP3
_chemical_formula_sum   'Nd4 Fe8 Ni8 Mo4 P12'
_cell_volume   462.74477609
_cell_formula_units_Z   4
loop_
 _symmetry_equiv_pos_site_id
 _symmetry_equiv_pos_as_xyz
  1  'x, y, z'
loop_
 _atom_site_type_symbol
 _atom_site_label
 _atom_site_symmetry_multiplicity
 _atom_site_fract_x
 _atom_site_fract_y
 _atom_site_fract_z
 _atom_site_occupancy
  Nd  Nd0  1  0.250000  0.580478  0.706686  1
  Nd  Nd1  1  0.250000  0.919522  0.206686  1
  Nd  Nd2  1  0.750000  0.419522  0.293314  1
  Nd  Nd3  1  0.750000  0.080478  0.793314  1
  Fe  Fe4  1  0.250000  0.878637  0.700216  1
  Fe  Fe5  1  0.250000  0.621363  0.200216  1
  Fe  Fe6  1  0.750000  0.121363  0.299784  1
  Fe  Fe7  1  0.750000  0.378637  0.799784  1
  Fe  Fe8  1  0.250000  0.464145  0.934193  1
  Fe  Fe9  1  0.250000  0.035855  0.434193  1
  Fe  Fe10  1  0.750000  0.535855  0.065807  1
  Fe  Fe11  1  0.750000  0.964145  0.565807  1
  Ni  Ni12  1  0.250000  0.406824  0.489105  1
  Ni  Ni13  1  0.250000  0.093176  0.989105  1
  Ni  Ni14  1  0.750000  0.593176  0.510895  1
  Ni  Ni15  1  0.750000  0.906824  0.010895  1
  Ni  Ni16  1  0.250000  0.224719  0.173253  1
  Ni  Ni17  1  0.250000  0.275281  0.673253  1
  Ni  Ni18  1  0.750000  0.775281  0.826747  1
  Ni  Ni19  1  0.750000  0.724719  0.326747  1
  Mo  Mo20  1  0.250000  0.704894  0.988375  1
  Mo  Mo21  1  0.250000  0.795106  0.488375  1
  Mo  Mo22  1  0.750000  0.295106  0.011625  1
  Mo  Mo23  1  0.750000  0.204894  0.511625  1
  P  P24  1  0.250000  0.429713  0.111192  1
  P  P25  1  0.250000  0.070287  0.611192  1
  P  P26  1  0.750000  0.570287  0.888808  1
  P  P27  1  0.750000  0.929713  0.388808  1
  P  P28  1  0.250000  0.275088  0.862285  1
  P  P29  1  0.250000  0.224912  0.362285  1
  P  P30  1  0.750000  0.724912  0.137715  1
  P  P31  1  0.750000  0.775088  0.637715  1
  P  P32  1  0.250000  0.601259  0.388746  1
  P  P33  1  0.250000  0.898741  0.888746  1
  P  P34  1  0.750000  0.398741  0.611254  1
  P  P35  1  0.750000  0.101259  0.111254  1
