# generated using pymatgen
data_Tm4Co2TcRu5
_symmetry_space_group_name_H-M   'P 1'
_cell_length_a   5.13607843
_cell_length_b   5.25343260
_cell_length_c   8.81158700
_cell_angle_alpha   90.00000000
_cell_angle_beta   90.00000000
_cell_angle_gamma   121.02113604
_symmetry_Int_Tables_number   1
_chemical_formula_structural   Tm4Co2TcRu5
_chemical_formula_sum   'Tm4 Co2 Tc1 Ru5'
_cell_volume   203.75029081
_cell_formula_units_Z   1
loop_
 _symmetry_equiv_pos_site_id
 _symmetry_equiv_pos_as_xyz
  1  'x, y, z'
loop_
 _atom_site_type_symbol
 _atom_site_label
 _atom_site_symmetry_multiplicity
 _atom_site_fract_x
 _atom_site_fract_y
 _atom_site_fract_z
 _atom_site_occupancy
  Tm  Tm0  1  0.328033  0.662970  0.432858  1
  Tm  Tm1  1  0.659139  0.328744  0.564879  1
  Tm  Tm2  1  0.659139  0.328744  0.935121  1
  Tm  Tm3  1  0.328033  0.662970  0.067142  1
  Co  Co4  1  0.835781  0.164350  0.250000  1
  Co  Co5  1  0.177624  0.834210  0.750000  1
  Tc  Tc6  1  0.676145  0.837793  0.750000  1
  Ru  Ru7  1  0.982491  0.990289  0.500108  1
  Ru  Ru8  1  0.982491  0.990289  0.999892  1
  Ru  Ru9  1  0.832221  0.664572  0.250000  1
  Ru  Ru10  1  0.352031  0.176708  0.250000  1
  Ru  Ru11  1  0.186874  0.358357  0.750000  1
