# generated using pymatgen
data_Dy4CuAs5Ir7
_symmetry_space_group_name_H-M   'P 1'
_cell_length_a   7.27407474
_cell_length_b   7.27427748
_cell_length_c   7.27427859
_cell_angle_alpha   107.90430517
_cell_angle_beta   110.25984878
_cell_angle_gamma   110.25985449
_symmetry_Int_Tables_number   1
_chemical_formula_structural   Dy4CuAs5Ir7
_chemical_formula_sum   'Dy4 Cu1 As5 Ir7'
_cell_volume   296.14051909
_cell_formula_units_Z   1
loop_
 _symmetry_equiv_pos_site_id
 _symmetry_equiv_pos_as_xyz
  1  'x, y, z'
loop_
 _atom_site_type_symbol
 _atom_site_label
 _atom_site_symmetry_multiplicity
 _atom_site_fract_x
 _atom_site_fract_y
 _atom_site_fract_z
 _atom_site_occupancy
  Dy  Dy0  1  0.000004  0.989283  0.502331  1
  Dy  Dy1  1  0.000004  0.502331  0.989283  1
  Dy  Dy2  1  0.486938  0.989270  0.989270  1
  Dy  Dy3  1  0.513036  0.502327  0.502327  1
  Cu  Cu4  1  0.999990  0.695930  0.695930  1
  As  As5  1  0.684516  0.682898  0.998386  1
  As  As6  1  0.315501  0.998388  0.313880  1
  As  As7  1  0.000004  0.330791  0.330791  1
  As  As8  1  0.315501  0.313880  0.998388  1
  As  As9  1  0.684516  0.998386  0.682898  1
  Ir  Ir10  1  0.748996  0.244877  0.495878  1
  Ir  Ir11  1  0.748996  0.495878  0.244877  1
  Ir  Ir12  1  0.500002  0.246265  0.746264  1
  Ir  Ir13  1  0.250997  0.495887  0.746886  1
  Ir  Ir14  1  0.250997  0.746886  0.495887  1
  Ir  Ir15  1  0.500002  0.746264  0.246265  1
  Ir  Ir16  1  0.999999  0.020458  0.020458  1
