# generated using pymatgen
data_Tb6Ho3ErSn6
_symmetry_space_group_name_H-M   'P 1'
_cell_length_a   8.99132500
_cell_length_b   8.99132537
_cell_length_c   6.55036000
_cell_angle_alpha   90.00000000
_cell_angle_beta   90.00000000
_cell_angle_gamma   120.00000232
_symmetry_Int_Tables_number   1
_chemical_formula_structural   Tb6Ho3ErSn6
_chemical_formula_sum   'Tb6 Ho3 Er1 Sn6'
_cell_volume   458.60966191
_cell_formula_units_Z   1
loop_
 _symmetry_equiv_pos_site_id
 _symmetry_equiv_pos_as_xyz
  1  'x, y, z'
loop_
 _atom_site_type_symbol
 _atom_site_label
 _atom_site_symmetry_multiplicity
 _atom_site_fract_x
 _atom_site_fract_y
 _atom_site_fract_z
 _atom_site_occupancy
  Tb  Tb0  1  0.000049  0.760941  0.750050  1
  Tb  Tb1  1  0.000049  0.239108  0.249950  1
  Tb  Tb2  1  0.760892  0.760941  0.249950  1
  Tb  Tb3  1  0.760892  0.999951  0.750050  1
  Tb  Tb4  1  0.239059  0.239108  0.750050  1
  Tb  Tb5  1  0.239059  0.999951  0.249950  1
  Ho  Ho6  1  0.333333  0.666667  0.500000  1
  Ho  Ho7  1  0.666667  0.333333  0.000000  1
  Ho  Ho8  1  0.666667  0.333333  0.500000  1
  Er  Er9  1  0.333333  0.666667  0.000000  1
  Sn  Sn10  1  0.395719  0.999557  0.750329  1
  Sn  Sn11  1  0.395719  0.396162  0.249671  1
  Sn  Sn12  1  0.000443  0.604281  0.249671  1
  Sn  Sn13  1  0.000443  0.396162  0.750329  1
  Sn  Sn14  1  0.603838  0.604281  0.750329  1
  Sn  Sn15  1  0.603838  0.999557  0.249671  1
