# generated using pymatgen
data_Pr5NdCo16(TcP6)2
_symmetry_space_group_name_H-M   'P 1'
_cell_length_a   3.80385400
_cell_length_b   10.72979917
_cell_length_c   12.49967618
_cell_angle_alpha   90.01984745
_cell_angle_beta   90.00000000
_cell_angle_gamma   90.00000000
_symmetry_Int_Tables_number   1
_chemical_formula_structural   Pr5NdCo16(TcP6)2
_chemical_formula_sum   'Pr5 Nd1 Co16 Tc2 P12'
_cell_volume   510.16912134
_cell_formula_units_Z   1
loop_
 _symmetry_equiv_pos_site_id
 _symmetry_equiv_pos_as_xyz
  1  'x, y, z'
loop_
 _atom_site_type_symbol
 _atom_site_label
 _atom_site_symmetry_multiplicity
 _atom_site_fract_x
 _atom_site_fract_y
 _atom_site_fract_z
 _atom_site_occupancy
  Pr  Pr0  1  0.000000  0.499910  0.522436  1
  Pr  Pr1  1  0.500000  0.000055  0.477985  1
  Pr  Pr2  1  0.500000  0.817511  0.205807  1
  Pr  Pr3  1  0.500000  0.182606  0.206134  1
  Pr  Pr4  1  0.000000  0.682360  0.793959  1
  Nd  Nd5  1  0.000000  0.317184  0.794269  1
  Co  Co6  1  0.500000  0.499111  0.705652  1
  Co  Co7  1  0.000000  0.000145  0.294405  1
  Co  Co8  1  0.000000  0.499426  0.988228  1
  Co  Co9  1  0.500000  0.000483  0.011000  1
  Co  Co10  1  0.500000  0.331971  0.991364  1
  Co  Co11  1  0.500000  0.667463  0.991715  1
  Co  Co12  1  0.000000  0.168269  0.007772  1
  Co  Co13  1  0.000000  0.832294  0.007729  1
  Co  Co14  1  0.500000  0.296397  0.430939  1
  Co  Co15  1  0.500000  0.703462  0.430325  1
  Co  Co16  1  0.000000  0.203657  0.570391  1
  Co  Co17  1  0.000000  0.796455  0.569671  1
  Co  Co18  1  0.500000  0.882228  0.710400  1
  Co  Co19  1  0.500000  0.118647  0.710743  1
  Co  Co20  1  0.000000  0.618006  0.289529  1
  Co  Co21  1  0.000000  0.381971  0.290003  1
  Tc  Tc22  1  0.500000  0.499652  0.154030  1
  Tc  Tc23  1  0.000000  0.000403  0.845854  1
  P  P24  1  0.500000  0.499271  0.886195  1
  P  P25  1  0.000000  0.000260  0.112894  1
  P  P26  1  0.500000  0.500033  0.342134  1
  P  P27  1  0.000000  0.000081  0.657981  1
  P  P28  1  0.500000  0.306247  0.614938  1
  P  P29  1  0.500000  0.693945  0.613864  1
  P  P30  1  0.000000  0.194102  0.386567  1
  P  P31  1  0.000000  0.806038  0.386082  1
  P  P32  1  0.500000  0.848136  0.896039  1
  P  P33  1  0.500000  0.152314  0.895516  1
  P  P34  1  0.000000  0.651647  0.103483  1
  P  P35  1  0.000000  0.348261  0.103968  1
