# generated using pymatgen
data_La3Th(CdSi2)2
_symmetry_space_group_name_H-M   'P 1'
_cell_length_a   7.53850716
_cell_length_b   7.53850716
_cell_length_c   4.37300600
_cell_angle_alpha   90.00000000
_cell_angle_beta   90.00000000
_cell_angle_gamma   89.51627778
_symmetry_Int_Tables_number   1
_chemical_formula_structural   La3Th(CdSi2)2
_chemical_formula_sum   'La3 Th1 Cd2 Si4'
_cell_volume   248.50509618
_cell_formula_units_Z   1
loop_
 _symmetry_equiv_pos_site_id
 _symmetry_equiv_pos_as_xyz
  1  'x, y, z'
loop_
 _atom_site_type_symbol
 _atom_site_label
 _atom_site_symmetry_multiplicity
 _atom_site_fract_x
 _atom_site_fract_y
 _atom_site_fract_z
 _atom_site_occupancy
  La  La0  1  0.819239  0.318201  0.500001  1
  La  La1  1  0.181799  0.680762  0.500001  1
  La  La2  1  0.680815  0.819186  0.500001  1
  Th  Th3  1  0.320483  0.179517  0.500001  1
  Cd  Cd4  1  0.000731  0.999983  0.000000  1
  Cd  Cd5  1  0.500017  0.499269  0.000000  1
  Si  Si6  1  0.606707  0.115942  0.000000  1
  Si  Si7  1  0.116784  0.383216  0.000000  1
  Si  Si8  1  0.889369  0.610632  0.000000  1
  Si  Si9  1  0.384058  0.893294  0.000000  1
