# generated using pymatgen
data_Ac4Ga4Pd3Rh
_symmetry_space_group_name_H-M   'P 1'
_cell_length_a   4.69951300
_cell_length_b   7.38917482
_cell_length_c   8.11759000
_cell_angle_alpha   89.92808148
_cell_angle_beta   90.00000000
_cell_angle_gamma   90.00000000
_symmetry_Int_Tables_number   1
_chemical_formula_structural   Ac4Ga4Pd3Rh
_chemical_formula_sum   'Ac4 Ga4 Pd3 Rh1'
_cell_volume   281.88733725
_cell_formula_units_Z   1
loop_
 _symmetry_equiv_pos_site_id
 _symmetry_equiv_pos_as_xyz
  1  'x, y, z'
loop_
 _atom_site_type_symbol
 _atom_site_label
 _atom_site_symmetry_multiplicity
 _atom_site_fract_x
 _atom_site_fract_y
 _atom_site_fract_z
 _atom_site_occupancy
  Ac  Ac0  1  0.250000  0.035523  0.686331  1
  Ac  Ac1  1  0.250000  0.531691  0.809553  1
  Ac  Ac2  1  0.750000  0.973974  0.309809  1
  Ac  Ac3  1  0.750000  0.467726  0.193650  1
  Ga  Ga4  1  0.250000  0.160317  0.073590  1
  Ga  Ga5  1  0.250000  0.651258  0.429067  1
  Ga  Ga6  1  0.750000  0.843111  0.929910  1
  Ga  Ga7  1  0.750000  0.340416  0.568597  1
  Pd  Pd8  1  0.250000  0.784576  0.106914  1
  Pd  Pd9  1  0.750000  0.716945  0.607321  1
  Pd  Pd10  1  0.750000  0.215768  0.892224  1
  Rh  Rh11  1  0.250000  0.278696  0.393031  1
