# generated using pymatgen
data_Tb4Y4Sc12Si15Ir
_symmetry_space_group_name_H-M   'P 1'
_cell_length_a   7.09372714
_cell_length_b   7.44444973
_cell_length_c   13.99842510
_cell_angle_alpha   90.00470903
_cell_angle_beta   89.98729145
_cell_angle_gamma   90.21634162
_symmetry_Int_Tables_number   1
_chemical_formula_structural   Tb4Y4Sc12Si15Ir
_chemical_formula_sum   'Tb4 Y4 Sc12 Si15 Ir1'
_cell_volume   739.23607124
_cell_formula_units_Z   1
loop_
 _symmetry_equiv_pos_site_id
 _symmetry_equiv_pos_as_xyz
  1  'x, y, z'
loop_
 _atom_site_type_symbol
 _atom_site_label
 _atom_site_symmetry_multiplicity
 _atom_site_fract_x
 _atom_site_fract_y
 _atom_site_fract_z
 _atom_site_occupancy
  Tb  Tb0  1  0.511238  0.323622  0.096716  1
  Tb  Tb1  1  0.011513  0.178012  0.403468  1
  Tb  Tb2  1  0.511156  0.323671  0.403258  1
  Tb  Tb3  1  0.488437  0.676229  0.595945  1
  Y  Y4  1  0.011423  0.178028  0.096638  1
  Y  Y5  1  0.990654  0.825444  0.903832  1
  Y  Y6  1  0.488577  0.676380  0.904041  1
  Y  Y7  1  0.990657  0.825460  0.596171  1
  Sc  Sc8  1  0.156665  0.498036  0.749999  1
  Sc  Sc9  1  0.838044  0.496764  0.250069  1
  Sc  Sc10  1  0.338861  0.003971  0.250023  1
  Sc  Sc11  1  0.669053  0.999353  0.749947  1
  Sc  Sc12  1  0.321194  0.173170  0.626750  1
  Sc  Sc13  1  0.671500  0.825055  0.373829  1
  Sc  Sc14  1  0.170916  0.677409  0.374180  1
  Sc  Sc15  1  0.671375  0.825061  0.126262  1
  Sc  Sc16  1  0.835074  0.320410  0.626779  1
  Sc  Sc17  1  0.321101  0.173269  0.873285  1
  Sc  Sc18  1  0.835224  0.320296  0.873170  1
  Sc  Sc19  1  0.170993  0.677452  0.125816  1
  Si  Si20  1  0.968571  0.883178  0.249992  1
  Si  Si21  1  0.467900  0.615844  0.249953  1
  Si  Si22  1  0.530657  0.388439  0.750013  1
  Si  Si23  1  0.286331  0.869750  0.749998  1
  Si  Si24  1  0.713224  0.128461  0.249882  1
  Si  Si25  1  0.212826  0.372580  0.249950  1
  Si  Si26  1  0.779330  0.625184  0.750079  1
  Si  Si27  1  0.158800  0.467889  0.537468  1
  Si  Si28  1  0.843851  0.536124  0.461236  1
  Si  Si29  1  0.345574  0.965590  0.460361  1
  Si  Si30  1  0.843808  0.536071  0.038755  1
  Si  Si31  1  0.656102  0.034265  0.538251  1
  Si  Si32  1  0.158900  0.467802  0.962480  1
  Si  Si33  1  0.656154  0.034178  0.961693  1
  Si  Si34  1  0.345435  0.965501  0.039678  1
  Ir  Ir35  1  0.028879  0.112054  0.750036  1
