# generated using pymatgen
data_TbHo13Lu2(In3Ir)2
_symmetry_space_group_name_H-M   'P 1'
_cell_length_a   10.36576519
_cell_length_b   10.37738831
_cell_length_c   7.00859230
_cell_angle_alpha   90.05389136
_cell_angle_beta   89.98575585
_cell_angle_gamma   119.95333524
_symmetry_Int_Tables_number   1
_chemical_formula_structural   TbHo13Lu2(In3Ir)2
_chemical_formula_sum   'Tb1 Ho13 Lu2 In6 Ir2'
_cell_volume   653.21279306
_cell_formula_units_Z   1
loop_
 _symmetry_equiv_pos_site_id
 _symmetry_equiv_pos_as_xyz
  1  'x, y, z'
loop_
 _atom_site_type_symbol
 _atom_site_label
 _atom_site_symmetry_multiplicity
 _atom_site_fract_x
 _atom_site_fract_y
 _atom_site_fract_z
 _atom_site_occupancy
  Tb  Tb0  1  0.532970  0.065941  0.505440  1
  Ho  Ho1  1  0.466616  0.933244  0.005325  1
  Ho  Ho2  1  0.065282  0.532725  0.006225  1
  Ho  Ho3  1  0.467468  0.532759  0.006180  1
  Ho  Ho4  1  0.176651  0.353304  0.712581  1
  Ho  Ho5  1  0.647405  0.822410  0.713167  1
  Ho  Ho6  1  0.174990  0.822435  0.713164  1
  Ho  Ho7  1  0.823987  0.647981  0.216629  1
  Ho  Ho8  1  0.352862  0.177228  0.214391  1
  Ho  Ho9  1  0.824438  0.177287  0.214381  1
  Ho  Ho10  1  0.667361  0.334677  0.885893  1
  Ho  Ho11  1  0.332546  0.665116  0.385893  1
  Ho  Ho12  1  0.000077  0.000126  0.492722  1
  Ho  Ho13  1  0.000120  0.000235  0.992296  1
  Lu  Lu14  1  0.931861  0.465817  0.506860  1
  Lu  Lu15  1  0.533984  0.465889  0.506961  1
  In  In16  1  0.836671  0.673339  0.752851  1
  In  In17  1  0.325501  0.162939  0.752422  1
  In  In18  1  0.837418  0.162962  0.752352  1
  In  In19  1  0.162749  0.325499  0.252427  1
  In  In20  1  0.674218  0.837591  0.251941  1
  In  In21  1  0.163394  0.837634  0.251947  1
  Ir  Ir22  1  0.668267  0.336482  0.283665  1
  Ir  Ir23  1  0.333165  0.666382  0.782331  1
