# generated using pymatgen
data_Tb3TmGa12Ni
_symmetry_space_group_name_H-M   'P 1'
_cell_length_a   7.48376166
_cell_length_b   7.48376210
_cell_length_c   7.49269100
_cell_angle_alpha   109.49539397
_cell_angle_beta   109.49539517
_cell_angle_gamma   109.44703791
_symmetry_Int_Tables_number   1
_chemical_formula_structural   Tb3TmGa12Ni
_chemical_formula_sum   'Tb3 Tm1 Ga12 Ni1'
_cell_volume   322.94323269
_cell_formula_units_Z   1
loop_
 _symmetry_equiv_pos_site_id
 _symmetry_equiv_pos_as_xyz
  1  'x, y, z'
loop_
 _atom_site_type_symbol
 _atom_site_label
 _atom_site_symmetry_multiplicity
 _atom_site_fract_x
 _atom_site_fract_y
 _atom_site_fract_z
 _atom_site_occupancy
  Tb  Tb0  1  0.000000  0.500000  0.000000  1
  Tb  Tb1  1  0.500000  0.000000  0.000000  1
  Tb  Tb2  1  0.500000  0.500000  0.500000  1
  Tm  Tm3  1  0.000000  0.000000  0.500000  1
  Ga  Ga4  1  0.750603  0.249397  0.500000  1
  Ga  Ga5  1  0.750603  0.501206  0.250603  1
  Ga  Ga6  1  0.498794  0.249397  0.749397  1
  Ga  Ga7  1  0.249397  0.498794  0.749397  1
  Ga  Ga8  1  0.249397  0.750603  0.500000  1
  Ga  Ga9  1  0.501206  0.750603  0.250603  1
  Ga  Ga10  1  0.712070  0.712070  0.000899  1
  Ga  Ga11  1  0.287930  0.000000  0.288828  1
  Ga  Ga12  1  0.000000  0.287930  0.288828  1
  Ga  Ga13  1  0.287930  0.287930  0.999101  1
  Ga  Ga14  1  0.712070  0.000000  0.711172  1
  Ga  Ga15  1  0.000000  0.712070  0.711172  1
  Ni  Ni16  1  0.000000  0.000000  0.000000  1
