# generated using pymatgen
data_Tb2Ga9Ni2Os
_symmetry_space_group_name_H-M   'P 1'
_cell_length_a   7.46156292
_cell_length_b   7.46155936
_cell_length_c   9.47190501
_cell_angle_alpha   90.12690449
_cell_angle_beta   90.12693580
_cell_angle_gamma   119.61252304
_symmetry_Int_Tables_number   1
_chemical_formula_structural   Tb2Ga9Ni2Os
_chemical_formula_sum   'Tb4 Ga18 Ni4 Os2'
_cell_volume   458.46442462
_cell_formula_units_Z   2
loop_
 _symmetry_equiv_pos_site_id
 _symmetry_equiv_pos_as_xyz
  1  'x, y, z'
loop_
 _atom_site_type_symbol
 _atom_site_label
 _atom_site_symmetry_multiplicity
 _atom_site_fract_x
 _atom_site_fract_y
 _atom_site_fract_z
 _atom_site_occupancy
  Tb  Tb0  1  0.993675  0.669278  0.248957  1
  Tb  Tb1  1  0.999479  0.326651  0.750168  1
  Tb  Tb2  1  0.673349  0.000521  0.249832  1
  Tb  Tb3  1  0.330722  0.006325  0.751043  1
  Ga  Ga4  1  0.128078  0.128169  0.246026  1
  Ga  Ga5  1  0.871831  0.871922  0.753974  1
  Ga  Ga6  1  0.000721  0.335981  0.075026  1
  Ga  Ga7  1  0.001999  0.666116  0.923920  1
  Ga  Ga8  1  0.005395  0.665363  0.574959  1
  Ga  Ga9  1  0.334637  0.994605  0.425041  1
  Ga  Ga10  1  0.006203  0.338368  0.424802  1
  Ga  Ga11  1  0.661632  0.993797  0.575198  1
  Ga  Ga12  1  0.664019  0.999280  0.924974  1
  Ga  Ga13  1  0.333884  0.998001  0.076080  1
  Ga  Ga14  1  0.334652  0.335633  0.560755  1
  Ga  Ga15  1  0.664367  0.665348  0.439245  1
  Ga  Ga16  1  0.665007  0.666766  0.062807  1
  Ga  Ga17  1  0.333234  0.334992  0.937193  1
  Ga  Ga18  1  0.338299  0.554150  0.249375  1
  Ga  Ga19  1  0.662149  0.453273  0.753342  1
  Ga  Ga20  1  0.546727  0.337851  0.246658  1
  Ga  Ga21  1  0.445850  0.661701  0.750625  1
  Ni  Ni22  1  0.670778  0.329222  0.000000  1
  Ni  Ni23  1  0.329878  0.670122  0.000000  1
  Ni  Ni24  1  0.330026  0.669973  0.500000  1
  Ni  Ni25  1  0.000005  0.999995  0.000000  1
  Os  Os26  1  0.672641  0.327359  0.500000  1
  Os  Os27  1  0.000761  0.999239  0.500000  1
