# generated using pymatgen
data_Sc3Al3SiGePt
_symmetry_space_group_name_H-M   'P 1'
_cell_length_a   6.71485900
_cell_length_b   6.71485834
_cell_length_c   4.04888300
_cell_angle_alpha   90.00000000
_cell_angle_beta   90.00000000
_cell_angle_gamma   119.99999834
_symmetry_Int_Tables_number   1
_chemical_formula_structural   Sc3Al3SiGePt
_chemical_formula_sum   'Sc3 Al3 Si1 Ge1 Pt1'
_cell_volume   158.10282087
_cell_formula_units_Z   1
loop_
 _symmetry_equiv_pos_site_id
 _symmetry_equiv_pos_as_xyz
  1  'x, y, z'
loop_
 _atom_site_type_symbol
 _atom_site_label
 _atom_site_symmetry_multiplicity
 _atom_site_fract_x
 _atom_site_fract_y
 _atom_site_fract_z
 _atom_site_occupancy
  Sc  Sc0  1  0.414385  0.996414  0.000000  1
  Sc  Sc1  1  0.003586  0.417971  0.000000  1
  Sc  Sc2  1  0.582028  0.585615  0.000000  1
  Al  Al3  1  0.755866  0.995717  0.500000  1
  Al  Al4  1  0.239850  0.244134  0.500000  1
  Al  Al5  1  0.004283  0.760149  0.500000  1
  Si  Si6  1  0.333333  0.666667  0.500000  1
  Ge  Ge7  1  0.666666  0.333333  0.500000  1
  Pt  Pt8  1  0.000000  0.000000  0.000000  1
