# generated using pymatgen
data_Ca4Pr16(Ga3Pb)3
_symmetry_space_group_name_H-M   'P 1'
_cell_length_a   8.13411700
_cell_length_b   8.13411700
_cell_length_c   14.49356900
_cell_angle_alpha   90.00000000
_cell_angle_beta   90.00000000
_cell_angle_gamma   90.00000000
_symmetry_Int_Tables_number   1
_chemical_formula_structural   Ca4Pr16(Ga3Pb)3
_chemical_formula_sum   'Ca4 Pr16 Ga9 Pb3'
_cell_volume   958.95046108
_cell_formula_units_Z   1
loop_
 _symmetry_equiv_pos_site_id
 _symmetry_equiv_pos_as_xyz
  1  'x, y, z'
loop_
 _atom_site_type_symbol
 _atom_site_label
 _atom_site_symmetry_multiplicity
 _atom_site_fract_x
 _atom_site_fract_y
 _atom_site_fract_z
 _atom_site_occupancy
  Ca  Ca0  1  0.500000  0.500000  0.756557  1
  Ca  Ca1  1  0.000000  0.000000  0.248210  1
  Ca  Ca2  1  0.000000  0.000000  0.751790  1
  Ca  Ca3  1  0.500000  0.500000  0.243443  1
  Pr  Pr4  1  0.675478  0.165031  0.102974  1
  Pr  Pr5  1  0.169249  0.668058  0.607291  1
  Pr  Pr6  1  0.324522  0.834969  0.102974  1
  Pr  Pr7  1  0.830751  0.331942  0.607291  1
  Pr  Pr8  1  0.834969  0.675478  0.102974  1
  Pr  Pr9  1  0.331942  0.169249  0.607291  1
  Pr  Pr10  1  0.165031  0.324522  0.102974  1
  Pr  Pr11  1  0.668058  0.830751  0.607291  1
  Pr  Pr12  1  0.834969  0.324522  0.897026  1
  Pr  Pr13  1  0.331942  0.830751  0.392709  1
  Pr  Pr14  1  0.165031  0.675478  0.897026  1
  Pr  Pr15  1  0.668058  0.169249  0.392709  1
  Pr  Pr16  1  0.675478  0.834969  0.897026  1
  Pr  Pr17  1  0.169249  0.331942  0.392709  1
  Pr  Pr18  1  0.324522  0.165031  0.897026  1
  Pr  Pr19  1  0.830751  0.668058  0.392709  1
  Ga  Ga20  1  0.619018  0.119859  0.751271  1
  Ga  Ga21  1  0.119859  0.619018  0.248729  1
  Ga  Ga22  1  0.880141  0.380982  0.248729  1
  Ga  Ga23  1  0.380982  0.880141  0.751271  1
  Ga  Ga24  1  0.880141  0.619018  0.751271  1
  Ga  Ga25  1  0.380982  0.119859  0.248729  1
  Ga  Ga26  1  0.119859  0.380982  0.751271  1
  Ga  Ga27  1  0.619018  0.880141  0.248729  1
  Ga  Ga28  1  0.000000  0.000000  0.000000  1
  Pb  Pb29  1  0.500000  0.500000  0.500000  1
  Pb  Pb30  1  0.500000  0.500000  0.000000  1
  Pb  Pb31  1  0.000000  0.000000  0.500000  1
