# generated using pymatgen
data_Ce4AgSe6O
_symmetry_space_group_name_H-M   'P 1'
_cell_length_a   9.53529086
_cell_length_b   9.53635135
_cell_length_c   7.17661639
_cell_angle_alpha   89.88867697
_cell_angle_beta   90.19472196
_cell_angle_gamma   119.98764515
_symmetry_Int_Tables_number   1
_chemical_formula_structural   Ce4AgSe6O
_chemical_formula_sum   'Ce8 Ag2 Se12 O2'
_cell_volume   565.22072974
_cell_formula_units_Z   2
loop_
 _symmetry_equiv_pos_site_id
 _symmetry_equiv_pos_as_xyz
  1  'x, y, z'
loop_
 _atom_site_type_symbol
 _atom_site_label
 _atom_site_symmetry_multiplicity
 _atom_site_fract_x
 _atom_site_fract_y
 _atom_site_fract_z
 _atom_site_occupancy
  Ce  Ce0  1  0.801906  0.603521  0.157896  1
  Ce  Ce1  1  0.396457  0.197721  0.158114  1
  Ce  Ce2  1  0.801915  0.198227  0.158372  1
  Ce  Ce3  1  0.334104  0.666640  0.211323  1
  Ce  Ce4  1  0.199216  0.397956  0.657808  1
  Ce  Ce5  1  0.198919  0.801315  0.658085  1
  Ce  Ce6  1  0.602354  0.801227  0.657958  1
  Ce  Ce7  1  0.667649  0.333358  0.711086  1
  Ag  Ag8  1  0.999949  0.999836  0.498830  1
  Ag  Ag9  1  0.999913  0.999839  0.997579  1
  Se  Se10  1  0.136076  0.863717  0.265309  1
  Se  Se11  1  0.727622  0.863695  0.265127  1
  Se  Se12  1  0.135971  0.272207  0.264951  1
  Se  Se13  1  0.530656  0.469358  0.441901  1
  Se  Se14  1  0.937988  0.468844  0.441270  1
  Se  Se15  1  0.531014  0.061602  0.441795  1
  Se  Se16  1  0.272028  0.136210  0.764680  1
  Se  Se17  1  0.863936  0.136027  0.764843  1
  Se  Se18  1  0.863872  0.728012  0.764343  1
  Se  Se19  1  0.062647  0.531341  0.941685  1
  Se  Se20  1  0.468572  0.531947  0.941468  1
  Se  Se21  1  0.468728  0.937207  0.941632  1
  O  O22  1  0.665727  0.333000  0.049515  1
  O  O23  1  0.332782  0.667196  0.549758  1
