# generated using pymatgen
data_Dy12In2Os3
_symmetry_space_group_name_H-M   'P 1'
_cell_length_a   8.46737829
_cell_length_b   8.46737868
_cell_length_c   8.46737792
_cell_angle_alpha   109.45396356
_cell_angle_beta   109.45396850
_cell_angle_gamma   109.50573009
_symmetry_Int_Tables_number   1
_chemical_formula_structural   Dy12In2Os3
_chemical_formula_sum   'Dy12 In2 Os3'
_cell_volume   467.33134255
_cell_formula_units_Z   1
loop_
 _symmetry_equiv_pos_site_id
 _symmetry_equiv_pos_as_xyz
  1  'x, y, z'
loop_
 _atom_site_type_symbol
 _atom_site_label
 _atom_site_symmetry_multiplicity
 _atom_site_fract_x
 _atom_site_fract_y
 _atom_site_fract_z
 _atom_site_occupancy
  Dy  Dy0  1  0.184699  0.426481  0.241782  1
  Dy  Dy1  1  0.815301  0.573519  0.758218  1
  Dy  Dy2  1  0.184699  0.942919  0.758218  1
  Dy  Dy3  1  0.942919  0.184699  0.758218  1
  Dy  Dy4  1  0.815301  0.057081  0.241782  1
  Dy  Dy5  1  0.057081  0.815301  0.241782  1
  Dy  Dy6  1  0.426481  0.184699  0.241782  1
  Dy  Dy7  1  0.573519  0.815301  0.758218  1
  Dy  Dy8  1  0.318501  0.318501  0.637005  1
  Dy  Dy9  1  0.681499  0.681499  0.362995  1
  Dy  Dy10  1  0.681499  0.318501  0.000000  1
  Dy  Dy11  1  0.318501  0.681499  0.000000  1
  In  In12  1  0.000000  0.500000  0.500000  1
  In  In13  1  0.500000  0.000000  0.500000  1
  Os  Os14  1  0.344776  0.344776  0.000000  1
  Os  Os15  1  0.655224  0.655224  0.000000  1
  Os  Os16  1  0.000000  0.000000  0.000000  1
