# generated using pymatgen
data_SmDyCo6(SiB)2
_symmetry_space_group_name_H-M   'P 1'
_cell_length_a   5.17991300
_cell_length_b   5.17716365
_cell_length_c   6.46812900
_cell_angle_alpha   90.00000000
_cell_angle_beta   90.00000000
_cell_angle_gamma   120.01757506
_symmetry_Int_Tables_number   1
_chemical_formula_structural   SmDyCo6(SiB)2
_chemical_formula_sum   'Sm1 Dy1 Co6 Si2 B2'
_cell_volume   150.19197331
_cell_formula_units_Z   1
loop_
 _symmetry_equiv_pos_site_id
 _symmetry_equiv_pos_as_xyz
  1  'x, y, z'
loop_
 _atom_site_type_symbol
 _atom_site_label
 _atom_site_symmetry_multiplicity
 _atom_site_fract_x
 _atom_site_fract_y
 _atom_site_fract_z
 _atom_site_occupancy
  Sm  Sm0  1  0.999975  0.000000  0.000000  1
  Dy  Dy1  1  0.999992  0.000000  0.500000  1
  Co  Co2  1  0.499988  0.000000  0.284418  1
  Co  Co3  1  0.499986  0.500002  0.284473  1
  Co  Co4  1  0.999984  0.499998  0.284473  1
  Co  Co5  1  0.499988  0.000000  0.715582  1
  Co  Co6  1  0.499986  0.500002  0.715527  1
  Co  Co7  1  0.999984  0.499998  0.715527  1
  Si  Si8  1  0.333307  0.666662  0.000000  1
  Si  Si9  1  0.666645  0.333338  0.000000  1
  B  B10  1  0.333365  0.666768  0.500000  1
  B  B11  1  0.666598  0.333232  0.500000  1
