# generated using pymatgen
data_Dy3Tm(AlRe3)2
_symmetry_space_group_name_H-M   'P 1'
_cell_length_a   5.34902600
_cell_length_b   5.34902702
_cell_length_c   9.03883300
_cell_angle_alpha   90.00000000
_cell_angle_beta   90.00000000
_cell_angle_gamma   120.00000607
_symmetry_Int_Tables_number   1
_chemical_formula_structural   Dy3Tm(AlRe3)2
_chemical_formula_sum   'Dy3 Tm1 Al2 Re6'
_cell_volume   223.97135017
_cell_formula_units_Z   1
loop_
 _symmetry_equiv_pos_site_id
 _symmetry_equiv_pos_as_xyz
  1  'x, y, z'
loop_
 _atom_site_type_symbol
 _atom_site_label
 _atom_site_symmetry_multiplicity
 _atom_site_fract_x
 _atom_site_fract_y
 _atom_site_fract_z
 _atom_site_occupancy
  Dy  Dy0  1  0.333333  0.666667  0.432895  1
  Dy  Dy1  1  0.666667  0.333333  0.566762  1
  Dy  Dy2  1  0.666667  0.333333  0.933426  1
  Tm  Tm3  1  0.333333  0.666667  0.067296  1
  Al  Al4  1  0.000000  0.000000  0.499987  1
  Al  Al5  1  0.000000  0.000000  0.000087  1
  Re  Re6  1  0.830581  0.169419  0.249256  1
  Re  Re7  1  0.830581  0.661161  0.249256  1
  Re  Re8  1  0.338839  0.169419  0.249256  1
  Re  Re9  1  0.169563  0.830437  0.750593  1
  Re  Re10  1  0.169563  0.339127  0.750593  1
  Re  Re11  1  0.660873  0.830437  0.750593  1
