# generated using pymatgen
data_Th3ZnGe2Rh3
_symmetry_space_group_name_H-M   'P 1'
_cell_length_a   7.26103036
_cell_length_b   7.31478907
_cell_length_c   4.03933000
_cell_angle_alpha   90.00000000
_cell_angle_beta   90.00000000
_cell_angle_gamma   120.24522067
_symmetry_Int_Tables_number   1
_chemical_formula_structural   Th3ZnGe2Rh3
_chemical_formula_sum   'Th3 Zn1 Ge2 Rh3'
_cell_volume   185.33676153
_cell_formula_units_Z   1
loop_
 _symmetry_equiv_pos_site_id
 _symmetry_equiv_pos_as_xyz
  1  'x, y, z'
loop_
 _atom_site_type_symbol
 _atom_site_label
 _atom_site_symmetry_multiplicity
 _atom_site_fract_x
 _atom_site_fract_y
 _atom_site_fract_z
 _atom_site_occupancy
  Th  Th0  1  0.409500  0.410536  0.500000  1
  Th  Th1  1  0.590500  0.001036  0.500000  1
  Th  Th2  1  0.000000  0.587055  0.500000  1
  Zn  Zn3  1  0.000000  0.244508  0.000000  1
  Ge  Ge4  1  0.754576  0.758325  0.000000  1
  Ge  Ge5  1  0.245424  0.003749  0.000000  1
  Rh  Rh6  1  0.661279  0.335984  0.000000  1
  Rh  Rh7  1  0.338721  0.674706  0.000000  1
  Rh  Rh8  1  0.000000  0.984103  0.500000  1
