# generated using pymatgen
data_NdDyZn5Si
_symmetry_space_group_name_H-M   'P 1'
_cell_length_a   8.25139936
_cell_length_b   8.25139865
_cell_length_c   8.77930300
_cell_angle_alpha   90.00000000
_cell_angle_beta   90.00000000
_cell_angle_gamma   149.43818877
_symmetry_Int_Tables_number   1
_chemical_formula_structural   NdDyZn5Si
_chemical_formula_sum   'Nd2 Dy2 Zn10 Si2'
_cell_volume   303.93345026
_cell_formula_units_Z   2
loop_
 _symmetry_equiv_pos_site_id
 _symmetry_equiv_pos_as_xyz
  1  'x, y, z'
loop_
 _atom_site_type_symbol
 _atom_site_label
 _atom_site_symmetry_multiplicity
 _atom_site_fract_x
 _atom_site_fract_y
 _atom_site_fract_z
 _atom_site_occupancy
  Nd  Nd0  1  0.000000  0.000000  0.500000  1
  Nd  Nd1  1  0.000000  0.000000  0.000000  1
  Dy  Dy2  1  0.200964  0.799036  0.250000  1
  Dy  Dy3  1  0.799036  0.200964  0.750000  1
  Zn  Zn4  1  0.812499  0.187501  0.392849  1
  Zn  Zn5  1  0.187501  0.812499  0.607151  1
  Zn  Zn6  1  0.812499  0.187501  0.107151  1
  Zn  Zn7  1  0.187501  0.812499  0.892849  1
  Zn  Zn8  1  0.651224  0.348776  0.474010  1
  Zn  Zn9  1  0.348776  0.651224  0.525990  1
  Zn  Zn10  1  0.651224  0.348776  0.025990  1
  Zn  Zn11  1  0.348776  0.651224  0.974010  1
  Zn  Zn12  1  0.402861  0.597139  0.250000  1
  Zn  Zn13  1  0.597139  0.402861  0.750000  1
  Si  Si14  1  0.557301  0.442699  0.250000  1
  Si  Si15  1  0.442699  0.557301  0.750000  1
