# generated using pymatgen
data_TbDy3Tm4(WO6)4
_symmetry_space_group_name_H-M   'P 1'
_cell_length_a   5.38269400
_cell_length_b   7.67729863
_cell_length_c   11.39283340
_cell_angle_alpha   75.49826144
_cell_angle_beta   90.00000000
_cell_angle_gamma   90.00000000
_symmetry_Int_Tables_number   1
_chemical_formula_structural   TbDy3Tm4(WO6)4
_chemical_formula_sum   'Tb1 Dy3 Tm4 W4 O24'
_cell_volume   455.80391901
_cell_formula_units_Z   1
loop_
 _symmetry_equiv_pos_site_id
 _symmetry_equiv_pos_as_xyz
  1  'x, y, z'
loop_
 _atom_site_type_symbol
 _atom_site_label
 _atom_site_symmetry_multiplicity
 _atom_site_fract_x
 _atom_site_fract_y
 _atom_site_fract_z
 _atom_site_occupancy
  Tb  Tb0  1  0.683944  0.500000  0.750000  1
  Dy  Dy1  1  0.741476  0.000000  0.750000  1
  Dy  Dy2  1  0.258581  0.000000  0.250000  1
  Dy  Dy3  1  0.316105  0.500000  0.250000  1
  Tm  Tm4  1  0.183740  0.794255  0.578732  1
  Tm  Tm5  1  0.816406  0.793983  0.078894  1
  Tm  Tm6  1  0.183740  0.205745  0.921268  1
  Tm  Tm7  1  0.816406  0.206017  0.421106  1
  W  W8  1  0.255768  0.723726  0.886288  1
  W  W9  1  0.744237  0.723595  0.385893  1
  W  W10  1  0.255768  0.276274  0.613712  1
  W  W11  1  0.744237  0.276405  0.114107  1
  O  O12  1  0.045931  0.940767  0.897140  1
  O  O13  1  0.536936  0.844387  0.932533  1
  O  O14  1  0.953935  0.940926  0.396831  1
  O  O15  1  0.456474  0.791393  0.726335  1
  O  O16  1  0.463403  0.844425  0.432403  1
  O  O17  1  0.982017  0.712617  0.770593  1
  O  O18  1  0.543312  0.790965  0.226296  1
  O  O19  1  0.853348  0.635043  0.549121  1
  O  O20  1  0.357831  0.488536  0.886989  1
  O  O21  1  0.018557  0.711792  0.270695  1
  O  O22  1  0.357831  0.511464  0.613011  1
  O  O23  1  0.853348  0.364957  0.950879  1
  O  O24  1  0.147043  0.635090  0.049641  1
  O  O25  1  0.641008  0.488625  0.386518  1
  O  O26  1  0.982017  0.287383  0.729407  1
  O  O27  1  0.641008  0.511375  0.113482  1
  O  O28  1  0.147043  0.364910  0.450359  1
  O  O29  1  0.456474  0.208607  0.773665  1
  O  O30  1  0.018557  0.288208  0.229305  1
  O  O31  1  0.536936  0.155613  0.567467  1
  O  O32  1  0.543312  0.209035  0.273704  1
  O  O33  1  0.045931  0.059233  0.602860  1
  O  O34  1  0.463403  0.155575  0.067597  1
  O  O35  1  0.953935  0.059074  0.103169  1
