# generated using pymatgen
data_Ho7Th7RuRh5
_symmetry_space_group_name_H-M   'P 1'
_cell_length_a   9.88851143
_cell_length_b   9.79064948
_cell_length_c   6.34794262
_cell_angle_alpha   89.84259696
_cell_angle_beta   90.28145604
_cell_angle_gamma   120.39215967
_symmetry_Int_Tables_number   1
_chemical_formula_structural   Ho7Th7RuRh5
_chemical_formula_sum   'Ho7 Th7 Ru1 Rh5'
_cell_volume   530.11610978
_cell_formula_units_Z   1
loop_
 _symmetry_equiv_pos_site_id
 _symmetry_equiv_pos_as_xyz
  1  'x, y, z'
loop_
 _atom_site_type_symbol
 _atom_site_label
 _atom_site_symmetry_multiplicity
 _atom_site_fract_x
 _atom_site_fract_y
 _atom_site_fract_z
 _atom_site_occupancy
  Ho  Ho0  1  0.873288  0.745937  0.742488  1
  Ho  Ho1  1  0.539841  0.463674  0.446940  1
  Ho  Ho2  1  0.921331  0.461230  0.445953  1
  Ho  Ho3  1  0.539720  0.079132  0.446491  1
  Ho  Ho4  1  0.464426  0.538420  0.942307  1
  Ho  Ho5  1  0.078041  0.539582  0.945507  1
  Ho  Ho6  1  0.463155  0.924990  0.945678  1
  Th  Th7  1  0.332130  0.667283  0.464675  1
  Th  Th8  1  0.669426  0.332681  0.965594  1
  Th  Th9  1  0.126827  0.869620  0.242507  1
  Th  Th10  1  0.746962  0.874489  0.239603  1
  Th  Th11  1  0.123127  0.251791  0.236776  1
  Th  Th12  1  0.868275  0.126308  0.741169  1
  Th  Th13  1  0.254116  0.124841  0.738840  1
  Ru  Ru14  1  0.816212  0.183189  0.194342  1
  Rh  Rh15  1  0.370553  0.186736  0.194566  1
  Rh  Rh16  1  0.811004  0.627738  0.195086  1
  Rh  Rh17  1  0.192530  0.817092  0.691827  1
  Rh  Rh18  1  0.621326  0.813612  0.687231  1
  Rh  Rh19  1  0.187706  0.371659  0.695960  1
