# generated using pymatgen
data_Pr7(TmPb2)3
_symmetry_space_group_name_H-M   'P 1'
_cell_length_a   6.81412500
_cell_length_b   9.33150365
_cell_length_c   9.33140024
_cell_angle_alpha   120.00006168
_cell_angle_beta   90.00028421
_cell_angle_gamma   89.99950203
_symmetry_Int_Tables_number   1
_chemical_formula_structural   Pr7(TmPb2)3
_chemical_formula_sum   'Pr7 Tm3 Pb6'
_cell_volume   513.85301060
_cell_formula_units_Z   1
loop_
 _symmetry_equiv_pos_site_id
 _symmetry_equiv_pos_as_xyz
  1  'x, y, z'
loop_
 _atom_site_type_symbol
 _atom_site_label
 _atom_site_symmetry_multiplicity
 _atom_site_fract_x
 _atom_site_fract_y
 _atom_site_fract_z
 _atom_site_occupancy
  Pr  Pr0  1  0.500000  0.333320  0.666678  1
  Pr  Pr1  1  0.751133  0.240797  0.999900  1
  Pr  Pr2  1  0.751124  0.759072  0.759169  1
  Pr  Pr3  1  0.751119  0.000097  0.240923  1
  Pr  Pr4  1  0.248874  0.759101  0.999897  1
  Pr  Pr5  1  0.248883  0.240831  0.240929  1
  Pr  Pr6  1  0.248874  0.000101  0.759179  1
  Tm  Tm7  1  0.499998  0.666645  0.333313  1
  Tm  Tm8  1  0.999999  0.666670  0.333319  1
  Tm  Tm9  1  0.999998  0.333358  0.666684  1
  Pb  Pb10  1  0.754298  0.604128  0.004653  1
  Pb  Pb11  1  0.754276  0.400500  0.395860  1
  Pb  Pb12  1  0.754291  0.995337  0.599491  1
  Pb  Pb13  1  0.245691  0.400529  0.004655  1
  Pb  Pb14  1  0.245721  0.604157  0.599494  1
  Pb  Pb15  1  0.245721  0.995357  0.395859  1
