# generated using pymatgen
data_Tm9LuSi5Bi
_symmetry_space_group_name_H-M   'P 1'
_cell_length_a   8.44161402
_cell_length_b   8.44285127
_cell_length_c   6.24824501
_cell_angle_alpha   89.99435123
_cell_angle_beta   90.00093618
_cell_angle_gamma   120.26347217
_symmetry_Int_Tables_number   1
_chemical_formula_structural   Tm9LuSi5Bi
_chemical_formula_sum   'Tm9 Lu1 Si5 Bi1'
_cell_volume   384.63088932
_cell_formula_units_Z   1
loop_
 _symmetry_equiv_pos_site_id
 _symmetry_equiv_pos_as_xyz
  1  'x, y, z'
loop_
 _atom_site_type_symbol
 _atom_site_label
 _atom_site_symmetry_multiplicity
 _atom_site_fract_x
 _atom_site_fract_y
 _atom_site_fract_z
 _atom_site_occupancy
  Tm  Tm0  1  0.330709  0.677065  0.505048  1
  Tm  Tm1  1  0.330599  0.677133  0.994960  1
  Tm  Tm2  1  0.677099  0.330631  0.995066  1
  Tm  Tm3  1  0.768680  0.768617  0.250099  1
  Tm  Tm4  1  0.239201  0.984401  0.250095  1
  Tm  Tm5  1  0.984271  0.239183  0.250109  1
  Tm  Tm6  1  0.239499  0.239451  0.749939  1
  Tm  Tm7  1  0.755528  0.998556  0.749909  1
  Tm  Tm8  1  0.998384  0.755450  0.749837  1
  Lu  Lu9  1  0.677318  0.330627  0.504981  1
  Si  Si10  1  0.603794  0.998938  0.250360  1
  Si  Si11  1  0.998201  0.603462  0.250381  1
  Si  Si12  1  0.606998  0.606728  0.749800  1
  Si  Si13  1  0.393653  0.003195  0.749618  1
  Si  Si14  1  0.002461  0.393298  0.749558  1
  Bi  Bi15  1  0.393607  0.393264  0.250240  1
