# generated using pymatgen
data_YbPrPt4
_symmetry_space_group_name_H-M   'P 1'
_cell_length_a   5.47819558
_cell_length_b   5.47819526
_cell_length_c   5.47819600
_cell_angle_alpha   60.00000762
_cell_angle_beta   60.00000957
_cell_angle_gamma   60.00000443
_symmetry_Int_Tables_number   1
_chemical_formula_structural   YbPrPt4
_chemical_formula_sum   'Yb1 Pr1 Pt4'
_cell_volume   116.25126328
_cell_formula_units_Z   1
loop_
 _symmetry_equiv_pos_site_id
 _symmetry_equiv_pos_as_xyz
  1  'x, y, z'
loop_
 _atom_site_type_symbol
 _atom_site_label
 _atom_site_symmetry_multiplicity
 _atom_site_fract_x
 _atom_site_fract_y
 _atom_site_fract_z
 _atom_site_occupancy
  Yb  Yb0  1  0.250000  0.250000  0.250000  1
  Pr  Pr1  1  0.000000  0.000000  0.000000  1
  Pt  Pt2  1  0.624450  0.624450  0.126648  1
  Pt  Pt3  1  0.624450  0.126648  0.624450  1
  Pt  Pt4  1  0.126648  0.624450  0.624450  1
  Pt  Pt5  1  0.624450  0.624450  0.624450  1
