# generated using pymatgen
data_NdY15Cd4Ir3Pt
_symmetry_space_group_name_H-M   'P 1'
_cell_length_a   9.69083220
_cell_length_b   9.69083173
_cell_length_c   9.69122151
_cell_angle_alpha   60.21186449
_cell_angle_beta   60.21186852
_cell_angle_gamma   60.08884775
_symmetry_Int_Tables_number   1
_chemical_formula_structural   NdY15Cd4Ir3Pt
_chemical_formula_sum   'Nd1 Y15 Cd4 Ir3 Pt1'
_cell_volume   646.04331926
_cell_formula_units_Z   1
loop_
 _symmetry_equiv_pos_site_id
 _symmetry_equiv_pos_as_xyz
  1  'x, y, z'
loop_
 _atom_site_type_symbol
 _atom_site_label
 _atom_site_symmetry_multiplicity
 _atom_site_fract_x
 _atom_site_fract_y
 _atom_site_fract_z
 _atom_site_occupancy
  Nd  Nd0  1  0.936841  0.936841  0.564082  1
  Y  Y1  1  0.347876  0.347876  0.347672  1
  Y  Y2  1  0.352716  0.352716  0.949273  1
  Y  Y3  1  0.353357  0.949002  0.351926  1
  Y  Y4  1  0.949002  0.353357  0.351926  1
  Y  Y5  1  0.805314  0.191710  0.189468  1
  Y  Y6  1  0.189023  0.810208  0.810622  1
  Y  Y7  1  0.191710  0.805314  0.189468  1
  Y  Y8  1  0.810208  0.189023  0.810622  1
  Y  Y9  1  0.190513  0.190513  0.805939  1
  Y  Y10  1  0.810569  0.810569  0.187476  1
  Y  Y11  1  0.938470  0.560823  0.562968  1
  Y  Y12  1  0.562004  0.937317  0.939558  1
  Y  Y13  1  0.560823  0.938470  0.562968  1
  Y  Y14  1  0.937317  0.562004  0.939558  1
  Y  Y15  1  0.562910  0.562910  0.938409  1
  Cd  Cd16  1  0.581214  0.581214  0.580801  1
  Cd  Cd17  1  0.581053  0.581053  0.256173  1
  Cd  Cd18  1  0.578204  0.258423  0.581150  1
  Cd  Cd19  1  0.258423  0.578204  0.581150  1
  Ir  Ir20  1  0.142442  0.142442  0.574719  1
  Ir  Ir21  1  0.141911  0.574790  0.141521  1
  Ir  Ir22  1  0.574790  0.141911  0.141521  1
  Pt  Pt23  1  0.143307  0.143307  0.141027  1
