# generated using pymatgen
data_LaN8
_symmetry_space_group_name_H-M   'P 1'
_cell_length_a   4.09804485
_cell_length_b   4.05472920
_cell_length_c   11.80184405
_cell_angle_alpha   85.41796335
_cell_angle_beta   69.68140700
_cell_angle_gamma   82.81269362
_symmetry_Int_Tables_number   1
_chemical_formula_structural   LaN8
_chemical_formula_sum   'La1 N8'
_cell_volume   182.31748909
_cell_formula_units_Z   1
loop_
 _symmetry_equiv_pos_site_id
 _symmetry_equiv_pos_as_xyz
  1  'x, y, z'
loop_
 _atom_site_type_symbol
 _atom_site_label
 _atom_site_symmetry_multiplicity
 _atom_site_fract_x
 _atom_site_fract_y
 _atom_site_fract_z
 _atom_site_occupancy
  La  La0  1  0.631172  0.815320  0.121862  1
  N  N1  1  0.209613  0.414731  0.144771  1
  N  N2  1  0.080371  0.601111  0.908523  1
  N  N3  1  0.416146  0.086849  0.556012  1
  N  N4  1  0.007797  0.210689  0.144703  1
  N  N5  1  0.197814  0.596110  0.806919  1
  N  N6  1  0.681013  0.107458  0.807848  1
  N  N7  1  0.676660  0.959038  0.504332  1
  N  N8  1  0.599155  0.079874  0.909393  1
