# generated using pymatgen
data_HoLu15(In3Cu)2
_symmetry_space_group_name_H-M   'P 1'
_cell_length_a   10.32908300
_cell_length_b   10.32908251
_cell_length_c   6.73191800
_cell_angle_alpha   90.00000000
_cell_angle_beta   90.00000000
_cell_angle_gamma   119.99999836
_symmetry_Int_Tables_number   1
_chemical_formula_structural   HoLu15(In3Cu)2
_chemical_formula_sum   'Ho1 Lu15 In6 Cu2'
_cell_volume   622.00370282
_cell_formula_units_Z   1
loop_
 _symmetry_equiv_pos_site_id
 _symmetry_equiv_pos_as_xyz
  1  'x, y, z'
loop_
 _atom_site_type_symbol
 _atom_site_label
 _atom_site_symmetry_multiplicity
 _atom_site_fract_x
 _atom_site_fract_y
 _atom_site_fract_z
 _atom_site_occupancy
  Ho  Ho0  1  0.000000  0.000000  0.989055  1
  Lu  Lu1  1  0.525364  0.050729  0.509767  1
  Lu  Lu2  1  0.949271  0.474636  0.509767  1
  Lu  Lu3  1  0.525364  0.474636  0.509767  1
  Lu  Lu4  1  0.474564  0.949129  0.009887  1
  Lu  Lu5  1  0.050871  0.525436  0.009887  1
  Lu  Lu6  1  0.474564  0.525436  0.009887  1
  Lu  Lu7  1  0.176173  0.352345  0.720295  1
  Lu  Lu8  1  0.647655  0.823827  0.720295  1
  Lu  Lu9  1  0.176173  0.823827  0.720295  1
  Lu  Lu10  1  0.823780  0.647562  0.221725  1
  Lu  Lu11  1  0.352438  0.176220  0.221725  1
  Lu  Lu12  1  0.823780  0.176220  0.221725  1
  Lu  Lu13  1  0.666667  0.333333  0.881724  1
  Lu  Lu14  1  0.333333  0.666667  0.382249  1
  Lu  Lu15  1  0.000000  0.000000  0.488945  1
  In  In16  1  0.835702  0.671406  0.742825  1
  In  In17  1  0.328594  0.164298  0.742825  1
  In  In18  1  0.835702  0.164298  0.742825  1
  In  In19  1  0.164275  0.328549  0.244678  1
  In  In20  1  0.671451  0.835725  0.244678  1
  In  In21  1  0.164275  0.835725  0.244678  1
  Cu  Cu22  1  0.666667  0.333333  0.284010  1
  Cu  Cu23  1  0.333333  0.666667  0.784531  1
