# generated using pymatgen
data_TmOsI18
_symmetry_space_group_name_H-M   'P 1'
_cell_length_a   10.15126724
_cell_length_b   10.17485904
_cell_length_c   10.25997562
_cell_angle_alpha   94.24261561
_cell_angle_beta   94.53940821
_cell_angle_gamma   94.40981415
_symmetry_Int_Tables_number   1
_chemical_formula_structural   TmOsI18
_chemical_formula_sum   'Tm1 Os1 I18'
_cell_volume   1049.85475691
_cell_formula_units_Z   1
loop_
 _symmetry_equiv_pos_site_id
 _symmetry_equiv_pos_as_xyz
  1  'x, y, z'
loop_
 _atom_site_type_symbol
 _atom_site_label
 _atom_site_symmetry_multiplicity
 _atom_site_fract_x
 _atom_site_fract_y
 _atom_site_fract_z
 _atom_site_occupancy
  Tm  Tm0  1  0.500000  0.500000  0.500000  1
  Os  Os1  1  0.000000  0.000000  0.000000  1
  I  I2  1  0.795923  0.484781  0.527904  1
  I  I3  1  0.527610  0.793560  0.479793  1
  I  I4  1  0.482415  0.529458  0.791839  1
  I  I5  1  0.204077  0.515219  0.472096  1
  I  I6  1  0.472390  0.206440  0.520207  1
  I  I7  1  0.517585  0.470542  0.208161  1
  I  I8  1  0.900831  0.362041  0.766368  1
  I  I9  1  0.768878  0.903912  0.361646  1
  I  I10  1  0.363105  0.769735  0.896657  1
  I  I11  1  0.099169  0.637959  0.233632  1
  I  I12  1  0.231122  0.096088  0.638354  1
  I  I13  1  0.636895  0.230265  0.103343  1
  I  I14  1  0.995397  0.967483  0.734524  1
  I  I15  1  0.734206  0.002620  0.962664  1
  I  I16  1  0.971143  0.737538  0.998903  1
  I  I17  1  0.004603  0.032517  0.265476  1
  I  I18  1  0.265794  0.997380  0.037336  1
  I  I19  1  0.028857  0.262462  0.001097  1
