# generated using pymatgen
data_TmLu3TcB12Rh
_symmetry_space_group_name_H-M   'P 1'
_cell_length_a   3.61790500
_cell_length_b   9.04155709
_cell_length_c   11.42296101
_cell_angle_alpha   90.33947459
_cell_angle_beta   90.00000000
_cell_angle_gamma   90.00000000
_symmetry_Int_Tables_number   1
_chemical_formula_structural   TmLu3TcB12Rh
_chemical_formula_sum   'Tm2 Lu6 Tc2 B24 Rh2'
_cell_volume   373.65556890
_cell_formula_units_Z   2
loop_
 _symmetry_equiv_pos_site_id
 _symmetry_equiv_pos_as_xyz
  1  'x, y, z'
loop_
 _atom_site_type_symbol
 _atom_site_label
 _atom_site_symmetry_multiplicity
 _atom_site_fract_x
 _atom_site_fract_y
 _atom_site_fract_z
 _atom_site_occupancy
  Tm  Tm0  1  0.500000  0.317732  0.411030  1
  Tm  Tm1  1  0.500000  0.682268  0.588970  1
  Lu  Lu2  1  0.500000  0.173878  0.917477  1
  Lu  Lu3  1  0.500000  0.826122  0.082523  1
  Lu  Lu4  1  0.500000  0.442021  0.126424  1
  Lu  Lu5  1  0.500000  0.557979  0.873576  1
  Lu  Lu6  1  0.500000  0.053598  0.628357  1
  Lu  Lu7  1  0.500000  0.946402  0.371643  1
  Tc  Tc8  1  0.500000  0.139264  0.179940  1
  Tc  Tc9  1  0.500000  0.860736  0.820060  1
  B  B10  1  0.000000  0.105433  0.471738  1
  B  B11  1  0.000000  0.894567  0.528262  1
  B  B12  1  0.000000  0.395008  0.970828  1
  B  B13  1  0.000000  0.604992  0.029172  1
  B  B14  1  0.000000  0.131820  0.315583  1
  B  B15  1  0.000000  0.868180  0.684417  1
  B  B16  1  0.000000  0.367589  0.817460  1
  B  B17  1  0.000000  0.632411  0.182540  1
  B  B18  1  0.000000  0.052969  0.066686  1
  B  B19  1  0.000000  0.947031  0.933314  1
  B  B20  1  0.000000  0.445467  0.565434  1
  B  B21  1  0.000000  0.554533  0.434566  1
  B  B22  1  0.000000  0.482864  0.287397  1
  B  B23  1  0.000000  0.517136  0.712603  1
  B  B24  1  0.000000  0.017902  0.786955  1
  B  B25  1  0.000000  0.982098  0.213045  1
  B  B26  1  0.000000  0.249391  0.080363  1
  B  B27  1  0.000000  0.750609  0.919637  1
  B  B28  1  0.000000  0.249574  0.578591  1
  B  B29  1  0.000000  0.750426  0.421409  1
  B  B30  1  0.000000  0.293959  0.235045  1
  B  B31  1  0.000000  0.706041  0.764955  1
  B  B32  1  0.000000  0.207220  0.735647  1
  B  B33  1  0.000000  0.792780  0.264353  1
  Rh  Rh34  1  0.500000  0.361272  0.679062  1
  Rh  Rh35  1  0.500000  0.638728  0.320938  1
