# generated using pymatgen
data_Nd2TiCrO8
_symmetry_space_group_name_H-M   'P 1'
_cell_length_a   6.20058661
_cell_length_b   6.20058637
_cell_length_c   6.20058622
_cell_angle_alpha   105.97305324
_cell_angle_beta   105.97305483
_cell_angle_gamma   116.71991361
_symmetry_Int_Tables_number   1
_chemical_formula_structural   Nd2TiCrO8
_chemical_formula_sum   'Nd2 Ti1 Cr1 O8'
_cell_volume   181.28751561
_cell_formula_units_Z   1
loop_
 _symmetry_equiv_pos_site_id
 _symmetry_equiv_pos_as_xyz
  1  'x, y, z'
loop_
 _atom_site_type_symbol
 _atom_site_label
 _atom_site_symmetry_multiplicity
 _atom_site_fract_x
 _atom_site_fract_y
 _atom_site_fract_z
 _atom_site_occupancy
  Nd  Nd0  1  0.000000  0.000000  0.000000  1
  Nd  Nd1  1  0.250000  0.750000  0.500000  1
  Ti  Ti2  1  0.750000  0.250000  0.500000  1
  Cr  Cr3  1  0.500000  0.500000  0.000000  1
  O  O4  1  0.342935  0.518397  0.175461  1
  O  O5  1  0.377916  0.062031  0.315885  1
  O  O6  1  0.746145  0.062031  0.684115  1
  O  O7  1  0.342935  0.167474  0.824539  1
  O  O8  1  0.832526  0.657065  0.175461  1
  O  O9  1  0.937969  0.253855  0.315885  1
  O  O10  1  0.937969  0.622084  0.684115  1
  O  O11  1  0.481603  0.657065  0.824539  1
