# generated using pymatgen
data_Er8Nb7Si16W5
_symmetry_space_group_name_H-M   'P 1'
_cell_length_a   6.94083877
_cell_length_b   6.94389888
_cell_length_c   12.89913706
_cell_angle_alpha   89.88408363
_cell_angle_beta   89.92659794
_cell_angle_gamma   90.02329686
_symmetry_Int_Tables_number   1
_chemical_formula_structural   Er8Nb7Si16W5
_chemical_formula_sum   'Er8 Nb7 Si16 W5'
_cell_volume   621.69119998
_cell_formula_units_Z   1
loop_
 _symmetry_equiv_pos_site_id
 _symmetry_equiv_pos_as_xyz
  1  'x, y, z'
loop_
 _atom_site_type_symbol
 _atom_site_label
 _atom_site_symmetry_multiplicity
 _atom_site_fract_x
 _atom_site_fract_y
 _atom_site_fract_z
 _atom_site_occupancy
  Er  Er0  1  0.999972  0.338431  0.219118  1
  Er  Er1  1  0.000476  0.661771  0.717355  1
  Er  Er2  1  0.161308  0.500240  0.468094  1
  Er  Er3  1  0.499365  0.839139  0.032607  1
  Er  Er4  1  0.838564  0.500330  0.968153  1
  Er  Er5  1  0.499957  0.160912  0.531225  1
  Er  Er6  1  0.338792  0.000246  0.781923  1
  Er  Er7  1  0.661888  0.999710  0.281841  1
  Nb  Nb8  1  0.845180  0.006144  0.874440  1
  Nb  Nb9  1  0.505193  0.656277  0.623525  1
  Nb  Nb10  1  0.345380  0.494341  0.875334  1
  Nb  Nb11  1  0.492145  0.344433  0.125589  1
  Nb  Nb12  1  0.655247  0.505559  0.375539  1
  Nb  Nb13  1  0.994972  0.154913  0.624914  1
  Nb  Nb14  1  0.005456  0.845511  0.125774  1
  Si  Si15  1  0.294568  0.040402  0.187012  1
  Si  Si16  1  0.704234  0.958333  0.684907  1
  Si  Si17  1  0.454770  0.796138  0.433718  1
  Si  Si18  1  0.203199  0.542273  0.065007  1
  Si  Si19  1  0.541797  0.203920  0.935143  1
  Si  Si20  1  0.795536  0.457710  0.565013  1
  Si  Si21  1  0.042180  0.296180  0.814968  1
  Si  Si22  1  0.960765  0.707519  0.315362  1
  Si  Si23  1  0.368741  0.292979  0.318827  1
  Si  Si24  1  0.631906  0.703124  0.817101  1
  Si  Si25  1  0.201634  0.869142  0.565245  1
  Si  Si26  1  0.132142  0.797602  0.932727  1
  Si  Si27  1  0.797220  0.132744  0.067522  1
  Si  Si28  1  0.871506  0.199849  0.431815  1
  Si  Si29  1  0.297816  0.368179  0.682386  1
  Si  Si30  1  0.702804  0.630898  0.183004  1
  W  W31  1  0.169227  0.169699  0.000771  1
  W  W32  1  0.830464  0.831605  0.499645  1
  W  W33  1  0.329647  0.668461  0.250176  1
  W  W34  1  0.669549  0.330707  0.749774  1
  W  W35  1  0.156398  0.994581  0.374452  1
