# generated using pymatgen
data_Y20Cd5InIr2
_symmetry_space_group_name_H-M   'P 1'
_cell_length_a   9.74025570
_cell_length_b   9.74024782
_cell_length_c   9.82880400
_cell_angle_alpha   90.00000000
_cell_angle_beta   90.00000000
_cell_angle_gamma   120.14463160
_symmetry_Int_Tables_number   1
_chemical_formula_structural   Y20Cd5InIr2
_chemical_formula_sum   'Y20 Cd5 In1 Ir2'
_cell_volume   806.37467906
_cell_formula_units_Z   1
loop_
 _symmetry_equiv_pos_site_id
 _symmetry_equiv_pos_as_xyz
  1  'x, y, z'
loop_
 _atom_site_type_symbol
 _atom_site_label
 _atom_site_symmetry_multiplicity
 _atom_site_fract_x
 _atom_site_fract_y
 _atom_site_fract_z
 _atom_site_occupancy
  Y  Y0  1  0.001911  0.998089  0.502169  1
  Y  Y1  1  0.001911  0.998089  0.997831  1
  Y  Y2  1  0.539747  0.460253  0.250000  1
  Y  Y3  1  0.537445  0.082719  0.250000  1
  Y  Y4  1  0.917281  0.462555  0.250000  1
  Y  Y5  1  0.457961  0.542039  0.750000  1
  Y  Y6  1  0.459413  0.918126  0.750000  1
  Y  Y7  1  0.081873  0.540587  0.750000  1
  Y  Y8  1  0.209275  0.790725  0.439947  1
  Y  Y9  1  0.207865  0.417054  0.438897  1
  Y  Y10  1  0.582946  0.792135  0.438897  1
  Y  Y11  1  0.791470  0.208530  0.559122  1
  Y  Y12  1  0.790119  0.581495  0.560837  1
  Y  Y13  1  0.418505  0.209881  0.560837  1
  Y  Y14  1  0.791470  0.208530  0.940878  1
  Y  Y15  1  0.790119  0.581495  0.939163  1
  Y  Y16  1  0.418505  0.209881  0.939163  1
  Y  Y17  1  0.209275  0.790725  0.060053  1
  Y  Y18  1  0.207865  0.417054  0.061103  1
  Y  Y19  1  0.582946  0.792135  0.061103  1
  Cd  Cd20  1  0.885658  0.770105  0.250000  1
  Cd  Cd21  1  0.229895  0.114342  0.250000  1
  Cd  Cd22  1  0.116143  0.883858  0.750000  1
  Cd  Cd23  1  0.114620  0.229972  0.750000  1
  Cd  Cd24  1  0.770028  0.885380  0.750000  1
  In  In25  1  0.884481  0.115518  0.250000  1
  Ir  Ir26  1  0.333273  0.666727  0.250000  1
  Ir  Ir27  1  0.668000  0.332000  0.750000  1
