# generated using pymatgen
data_FeCuAg2F7
_symmetry_space_group_name_H-M   'P 1'
_cell_length_a   7.57122222
_cell_length_b   7.54887484
_cell_length_c   7.54438370
_cell_angle_alpha   119.06359677
_cell_angle_beta   119.57202784
_cell_angle_gamma   91.06060259
_symmetry_Int_Tables_number   1
_chemical_formula_structural   FeCuAg2F7
_chemical_formula_sum   'Fe2 Cu2 Ag4 F14'
_cell_volume   308.30787871
_cell_formula_units_Z   2
loop_
 _symmetry_equiv_pos_site_id
 _symmetry_equiv_pos_as_xyz
  1  'x, y, z'
loop_
 _atom_site_type_symbol
 _atom_site_label
 _atom_site_symmetry_multiplicity
 _atom_site_fract_x
 _atom_site_fract_y
 _atom_site_fract_z
 _atom_site_occupancy
  Fe  Fe0  1  0.000000  0.000000  0.500000  1
  Fe  Fe1  1  0.000000  0.500000  0.000000  1
  Cu  Cu2  1  0.500000  0.000000  0.500000  1
  Cu  Cu3  1  0.000000  0.500000  0.500000  1
  Ag  Ag4  1  0.000000  0.000000  0.000000  1
  Ag  Ag5  1  0.500000  0.500000  0.000000  1
  Ag  Ag6  1  0.500000  0.000000  0.000000  1
  Ag  Ag7  1  0.500000  0.500000  0.500000  1
  F  F8  1  0.371374  0.091348  0.280042  1
  F  F9  1  0.689893  0.409359  0.280577  1
  F  F10  1  0.693967  0.332195  0.782077  1
  F  F11  1  0.949991  0.168329  0.361506  1
  F  F12  1  0.950008  0.588433  0.781554  1
  F  F13  1  0.693878  0.911963  0.361848  1
  F  F14  1  0.306122  0.088037  0.638152  1
  F  F15  1  0.049992  0.411567  0.218446  1
  F  F16  1  0.050009  0.831671  0.638494  1
  F  F17  1  0.306033  0.667805  0.217923  1
  F  F18  1  0.928896  0.750456  0.178455  1
  F  F19  1  0.628626  0.908652  0.719958  1
  F  F20  1  0.310107  0.590641  0.719423  1
  F  F21  1  0.071104  0.249544  0.821545  1
