# generated using pymatgen
data_KPrTa6Cl18
_symmetry_space_group_name_H-M   'P 1'
_cell_length_a   10.33641380
_cell_length_b   10.33641314
_cell_length_c   10.33641300
_cell_angle_alpha   55.29786501
_cell_angle_beta   55.29786754
_cell_angle_gamma   55.29786969
_symmetry_Int_Tables_number   1
_chemical_formula_structural   KPrTa6Cl18
_chemical_formula_sum   'K1 Pr1 Ta6 Cl18'
_cell_volume   695.57041341
_cell_formula_units_Z   1
loop_
 _symmetry_equiv_pos_site_id
 _symmetry_equiv_pos_as_xyz
  1  'x, y, z'
loop_
 _atom_site_type_symbol
 _atom_site_label
 _atom_site_symmetry_multiplicity
 _atom_site_fract_x
 _atom_site_fract_y
 _atom_site_fract_z
 _atom_site_occupancy
  K  K0  1  0.221653  0.221653  0.221653  1
  Pr  Pr1  1  0.498619  0.498619  0.498619  1
  Ta  Ta2  1  0.803391  0.145100  0.916667  1
  Ta  Ta3  1  0.916667  0.803391  0.145100  1
  Ta  Ta4  1  0.145100  0.916667  0.803391  1
  Ta  Ta5  1  0.197405  0.855170  0.082619  1
  Ta  Ta6  1  0.082619  0.197405  0.855170  1
  Ta  Ta7  1  0.855170  0.082619  0.197405  1
  Cl  Cl8  1  0.862194  0.408179  0.731141  1
  Cl  Cl9  1  0.731141  0.862194  0.408179  1
  Cl  Cl10  1  0.408179  0.731141  0.862194  1
  Cl  Cl11  1  0.137876  0.590832  0.269761  1
  Cl  Cl12  1  0.269761  0.137876  0.590832  1
  Cl  Cl13  1  0.590832  0.269761  0.137876  1
  Cl  Cl14  1  0.537894  0.333532  0.813251  1
  Cl  Cl15  1  0.813251  0.537894  0.333532  1
  Cl  Cl16  1  0.333532  0.813251  0.537894  1
  Cl  Cl17  1  0.455666  0.667290  0.192308  1
  Cl  Cl18  1  0.192308  0.455666  0.667290  1
  Cl  Cl19  1  0.667290  0.192308  0.455666  1
  Cl  Cl20  1  0.665880  0.937323  0.073640  1
  Cl  Cl21  1  0.073640  0.665880  0.937323  1
  Cl  Cl22  1  0.937323  0.073640  0.665880  1
  Cl  Cl23  1  0.334317  0.062658  0.926776  1
  Cl  Cl24  1  0.926776  0.334317  0.062658  1
  Cl  Cl25  1  0.062658  0.926776  0.334317  1
