# generated using pymatgen
data_DyErSn(PRh2)6
_symmetry_space_group_name_H-M   'P 1'
_cell_length_a   9.76935500
_cell_length_b   9.76935422
_cell_length_c   3.86980700
_cell_angle_alpha   90.00000000
_cell_angle_beta   90.00000000
_cell_angle_gamma   119.99999925
_symmetry_Int_Tables_number   1
_chemical_formula_structural   DyErSn(PRh2)6
_chemical_formula_sum   'Dy1 Er1 Sn1 P6 Rh12'
_cell_volume   319.85392837
_cell_formula_units_Z   1
loop_
 _symmetry_equiv_pos_site_id
 _symmetry_equiv_pos_as_xyz
  1  'x, y, z'
loop_
 _atom_site_type_symbol
 _atom_site_label
 _atom_site_symmetry_multiplicity
 _atom_site_fract_x
 _atom_site_fract_y
 _atom_site_fract_z
 _atom_site_occupancy
  Dy  Dy0  1  0.333333  0.666667  0.751155  1
  Er  Er1  1  0.666667  0.333333  0.248836  1
  Sn  Sn2  1  0.000000  0.000000  0.499992  1
  P  P3  1  0.406280  0.287549  0.746681  1
  P  P4  1  0.712451  0.118732  0.746681  1
  P  P5  1  0.881268  0.593720  0.746681  1
  P  P6  1  0.593857  0.712514  0.253058  1
  P  P7  1  0.287486  0.881342  0.253058  1
  P  P8  1  0.118658  0.406143  0.253058  1
  Rh  Rh9  1  0.454469  0.068547  0.747635  1
  Rh  Rh10  1  0.931453  0.385921  0.747635  1
  Rh  Rh11  1  0.614079  0.545531  0.747635  1
  Rh  Rh12  1  0.545991  0.932126  0.252520  1
  Rh  Rh13  1  0.067874  0.613866  0.252520  1
  Rh  Rh14  1  0.386134  0.454009  0.252520  1
  Rh  Rh15  1  0.161732  0.287584  0.758578  1
  Rh  Rh16  1  0.712416  0.874148  0.758578  1
  Rh  Rh17  1  0.125852  0.838268  0.758578  1
  Rh  Rh18  1  0.838168  0.712162  0.241533  1
  Rh  Rh19  1  0.287838  0.126006  0.241533  1
  Rh  Rh20  1  0.873994  0.161832  0.241533  1
