# generated using pymatgen
data_TmLuPa2(WC2)4
_symmetry_space_group_name_H-M   'P 1'
_cell_length_a   3.32146200
_cell_length_b   5.72299005
_cell_length_c   10.88365310
_cell_angle_alpha   90.01588309
_cell_angle_beta   90.00000000
_cell_angle_gamma   90.00000000
_symmetry_Int_Tables_number   1
_chemical_formula_structural   TmLuPa2(WC2)4
_chemical_formula_sum   'Tm1 Lu1 Pa2 W4 C8'
_cell_volume   206.88402345
_cell_formula_units_Z   1
loop_
 _symmetry_equiv_pos_site_id
 _symmetry_equiv_pos_as_xyz
  1  'x, y, z'
loop_
 _atom_site_type_symbol
 _atom_site_label
 _atom_site_symmetry_multiplicity
 _atom_site_fract_x
 _atom_site_fract_y
 _atom_site_fract_z
 _atom_site_occupancy
  Tm  Tm0  1  0.750000  0.913480  0.860343  1
  Lu  Lu1  1  0.750000  0.413914  0.639461  1
  Pa  Pa2  1  0.250000  0.586038  0.362239  1
  Pa  Pa3  1  0.250000  0.086120  0.138009  1
  W  W4  1  0.250000  0.905349  0.613677  1
  W  W5  1  0.250000  0.405613  0.885827  1
  W  W6  1  0.750000  0.088539  0.398488  1
  W  W7  1  0.750000  0.588279  0.101964  1
  C  C8  1  0.250000  0.661447  0.747595  1
  C  C9  1  0.250000  0.162934  0.751306  1
  C  C10  1  0.750000  0.340170  0.255411  1
  C  C11  1  0.750000  0.840336  0.244762  1
  C  C12  1  0.250000  0.238141  0.490169  1
  C  C13  1  0.250000  0.737211  0.010570  1
  C  C14  1  0.750000  0.765716  0.512386  1
  C  C15  1  0.750000  0.266714  0.987793  1
