# generated using pymatgen
data_Dy3Ho2Mn2O12
_symmetry_space_group_name_H-M   'P 1'
_cell_length_a   6.80131554
_cell_length_b   6.80131571
_cell_length_c   7.22673091
_cell_angle_alpha   74.64283915
_cell_angle_beta   74.64284153
_cell_angle_gamma   50.08915171
_symmetry_Int_Tables_number   1
_chemical_formula_structural   Dy3Ho2Mn2O12
_chemical_formula_sum   'Dy3 Ho2 Mn2 O12'
_cell_volume   245.21747470
_cell_formula_units_Z   1
loop_
 _symmetry_equiv_pos_site_id
 _symmetry_equiv_pos_as_xyz
  1  'x, y, z'
loop_
 _atom_site_type_symbol
 _atom_site_label
 _atom_site_symmetry_multiplicity
 _atom_site_fract_x
 _atom_site_fract_y
 _atom_site_fract_z
 _atom_site_occupancy
  Dy  Dy0  1  0.305163  0.305163  0.356276  1
  Dy  Dy1  1  0.694837  0.694837  0.643724  1
  Dy  Dy2  1  0.000000  0.000000  0.500000  1
  Ho  Ho3  1  0.307403  0.307403  0.836058  1
  Ho  Ho4  1  0.692597  0.692597  0.163942  1
  Mn  Mn5  1  0.754314  0.245686  0.000000  1
  Mn  Mn6  1  0.245686  0.754314  0.000000  1
  O  O7  1  0.902259  0.421488  0.919092  1
  O  O8  1  0.421488  0.902259  0.919092  1
  O  O9  1  0.097741  0.578512  0.080908  1
  O  O10  1  0.578512  0.097741  0.080908  1
  O  O11  1  0.097645  0.597241  0.575804  1
  O  O12  1  0.597241  0.097645  0.575804  1
  O  O13  1  0.902355  0.402759  0.424196  1
  O  O14  1  0.402759  0.902355  0.424196  1
  O  O15  1  0.999754  0.999754  0.821493  1
  O  O16  1  0.000246  0.000246  0.178507  1
  O  O17  1  0.499441  0.499441  0.819665  1
  O  O18  1  0.500559  0.500559  0.180335  1
