# generated using pymatgen
data_NdHo2Co7(P3Ru)2
_symmetry_space_group_name_H-M   'P 1'
_cell_length_a   3.76105200
_cell_length_b   10.62556500
_cell_length_c   12.34247200
_cell_angle_alpha   90.00000000
_cell_angle_beta   90.00000000
_cell_angle_gamma   90.00000000
_symmetry_Int_Tables_number   1
_chemical_formula_structural   NdHo2Co7(P3Ru)2
_chemical_formula_sum   'Nd2 Ho4 Co14 P12 Ru4'
_cell_volume   493.24594206
_cell_formula_units_Z   2
loop_
 _symmetry_equiv_pos_site_id
 _symmetry_equiv_pos_as_xyz
  1  'x, y, z'
loop_
 _atom_site_type_symbol
 _atom_site_label
 _atom_site_symmetry_multiplicity
 _atom_site_fract_x
 _atom_site_fract_y
 _atom_site_fract_z
 _atom_site_occupancy
  Nd  Nd0  1  0.000000  0.500000  0.529050  1
  Nd  Nd1  1  0.500000  0.000000  0.478163  1
  Ho  Ho2  1  0.500000  0.818104  0.201305  1
  Ho  Ho3  1  0.500000  0.181896  0.201305  1
  Ho  Ho4  1  0.000000  0.683261  0.796892  1
  Ho  Ho5  1  0.000000  0.316739  0.796892  1
  Co  Co6  1  0.000000  0.500000  0.985911  1
  Co  Co7  1  0.500000  0.000000  0.013230  1
  Co  Co8  1  0.000000  0.201198  0.575767  1
  Co  Co9  1  0.000000  0.798802  0.575767  1
  Co  Co10  1  0.500000  0.880079  0.713714  1
  Co  Co11  1  0.500000  0.119921  0.713714  1
  Co  Co12  1  0.000000  0.620997  0.284396  1
  Co  Co13  1  0.000000  0.379003  0.284396  1
  Co  Co14  1  0.500000  0.332424  0.990217  1
  Co  Co15  1  0.500000  0.667576  0.990217  1
  Co  Co16  1  0.000000  0.167286  0.008574  1
  Co  Co17  1  0.000000  0.832714  0.008574  1
  Co  Co18  1  0.500000  0.500000  0.708249  1
  Co  Co19  1  0.000000  0.000000  0.291525  1
  P  P20  1  0.500000  0.306621  0.622370  1
  P  P21  1  0.500000  0.693379  0.622370  1
  P  P22  1  0.000000  0.186562  0.378751  1
  P  P23  1  0.000000  0.813438  0.378751  1
  P  P24  1  0.500000  0.500000  0.883517  1
  P  P25  1  0.000000  0.000000  0.115668  1
  P  P26  1  0.500000  0.846106  0.894907  1
  P  P27  1  0.500000  0.153894  0.894907  1
  P  P28  1  0.000000  0.653949  0.103876  1
  P  P29  1  0.000000  0.346051  0.103876  1
  P  P30  1  0.500000  0.500000  0.341908  1
  P  P31  1  0.000000  0.000000  0.655588  1
  Ru  Ru32  1  0.500000  0.295600  0.428786  1
  Ru  Ru33  1  0.500000  0.704400  0.428786  1
  Ru  Ru34  1  0.500000  0.500000  0.154805  1
  Ru  Ru35  1  0.000000  0.000000  0.843278  1
