# generated using pymatgen
data_Ho5ErIn2F20
_symmetry_space_group_name_H-M   'P 1'
_cell_length_a   8.25424043
_cell_length_b   8.25424469
_cell_length_c   8.25982200
_cell_angle_alpha   59.97767883
_cell_angle_beta   59.97756891
_cell_angle_gamma   60.04458379
_symmetry_Int_Tables_number   1
_chemical_formula_structural   Ho5ErIn2F20
_chemical_formula_sum   'Ho5 Er1 In2 F20'
_cell_volume   397.93230356
_cell_formula_units_Z   1
loop_
 _symmetry_equiv_pos_site_id
 _symmetry_equiv_pos_as_xyz
  1  'x, y, z'
loop_
 _atom_site_type_symbol
 _atom_site_label
 _atom_site_symmetry_multiplicity
 _atom_site_fract_x
 _atom_site_fract_y
 _atom_site_fract_z
 _atom_site_occupancy
  Ho  Ho0  1  0.240857  0.759269  0.240730  1
  Ho  Ho1  1  0.759271  0.240856  0.240730  1
  Ho  Ho2  1  0.240856  0.759269  0.759143  1
  Ho  Ho3  1  0.240786  0.240788  0.759213  1
  Ho  Ho4  1  0.759270  0.240856  0.759144  1
  Er  Er5  1  0.759256  0.759257  0.240744  1
  In  In6  1  0.750024  0.750021  0.749972  1
  In  In7  1  0.250022  0.250023  0.249976  1
  F  F8  1  0.829049  0.170986  0.499982  1
  F  F9  1  0.499982  0.171100  0.828900  1
  F  F10  1  0.828470  0.500910  0.171531  1
  F  F11  1  0.499982  0.171101  0.500018  1
  F  F12  1  0.828469  0.500911  0.499090  1
  F  F13  1  0.171102  0.499982  0.828899  1
  F  F14  1  0.500910  0.828470  0.499090  1
  F  F15  1  0.500018  0.500018  0.170952  1
  F  F16  1  0.889399  0.331770  0.889416  1
  F  F17  1  0.110585  0.110585  0.668231  1
  F  F18  1  0.668508  0.109655  0.110920  1
  F  F19  1  0.110585  0.110585  0.110602  1
  F  F20  1  0.331769  0.889399  0.889416  1
  F  F21  1  0.889081  0.889079  0.890345  1
  F  F22  1  0.889080  0.889082  0.331491  1
  F  F23  1  0.109655  0.668508  0.110919  1
  F  F24  1  0.170986  0.829049  0.499982  1
  F  F25  1  0.500910  0.828470  0.171530  1
  F  F26  1  0.171101  0.499983  0.500018  1
  F  F27  1  0.500018  0.500019  0.829014  1
