# generated using pymatgen
data_Er8MgSi16W11
_symmetry_space_group_name_H-M   'P 1'
_cell_length_a   6.87349840
_cell_length_b   6.87349840
_cell_length_c   12.75044096
_cell_angle_alpha   89.92165362
_cell_angle_beta   90.07834638
_cell_angle_gamma   89.91730282
_symmetry_Int_Tables_number   1
_chemical_formula_structural   Er8MgSi16W11
_chemical_formula_sum   'Er8 Mg1 Si16 W11'
_cell_volume   602.39257594
_cell_formula_units_Z   1
loop_
 _symmetry_equiv_pos_site_id
 _symmetry_equiv_pos_as_xyz
  1  'x, y, z'
loop_
 _atom_site_type_symbol
 _atom_site_label
 _atom_site_symmetry_multiplicity
 _atom_site_fract_x
 _atom_site_fract_y
 _atom_site_fract_z
 _atom_site_occupancy
  Er  Er0  1  0.337072  0.997453  0.468667  1
  Er  Er1  1  0.503187  0.839132  0.718065  1
  Er  Er2  1  0.499528  0.161236  0.219047  1
  Er  Er3  1  0.839132  0.503187  0.281935  1
  Er  Er4  1  0.161236  0.499528  0.780953  1
  Er  Er5  1  0.663891  0.000000  0.967700  1
  Er  Er6  1  0.997453  0.337072  0.531333  1
  Er  Er7  1  0.000000  0.663891  0.032300  1
  Mg  Mg8  1  0.331926  0.331926  0.000000  1
  Si  Si9  1  0.203169  0.126284  0.683007  1
  Si  Si10  1  0.373253  0.708292  0.931467  1
  Si  Si11  1  0.625561  0.298699  0.432400  1
  Si  Si12  1  0.708292  0.373253  0.068533  1
  Si  Si13  1  0.298699  0.625561  0.567600  1
  Si  Si14  1  0.798127  0.872774  0.182945  1
  Si  Si15  1  0.126284  0.203169  0.316993  1
  Si  Si16  1  0.872774  0.798127  0.817055  1
  Si  Si17  1  0.289414  0.954638  0.065842  1
  Si  Si18  1  0.538205  0.790455  0.313072  1
  Si  Si19  1  0.466483  0.210994  0.812220  1
  Si  Si20  1  0.790455  0.538205  0.686928  1
  Si  Si21  1  0.210994  0.466483  0.187780  1
  Si  Si22  1  0.711181  0.033960  0.562481  1
  Si  Si23  1  0.954638  0.289414  0.934158  1
  Si  Si24  1  0.033960  0.711181  0.437519  1
  W  W25  1  0.165487  0.831003  0.253433  1
  W  W26  1  0.831003  0.165487  0.746567  1
  W  W27  1  0.666096  0.666096  0.500000  1
  W  W28  1  0.161054  0.999658  0.872651  1
  W  W29  1  0.504260  0.662237  0.123853  1
  W  W30  1  0.504062  0.334367  0.623324  1
  W  W31  1  0.662237  0.504260  0.876147  1
  W  W32  1  0.334367  0.504062  0.376676  1
  W  W33  1  0.834873  0.001991  0.372897  1
  W  W34  1  0.999658  0.161054  0.127349  1
  W  W35  1  0.001991  0.834873  0.627103  1
