# generated using pymatgen
data_Zr4Ta6ZnSi7
_symmetry_space_group_name_H-M   'P 1'
_cell_length_a   6.90708814
_cell_length_b   6.88113111
_cell_length_c   12.76334600
_cell_angle_alpha   90.00000000
_cell_angle_beta   90.00000000
_cell_angle_gamma   89.93447796
_symmetry_Int_Tables_number   1
_chemical_formula_structural   Zr4Ta6ZnSi7
_chemical_formula_sum   'Zr8 Ta12 Zn2 Si14'
_cell_volume   606.62330338
_cell_formula_units_Z   2
loop_
 _symmetry_equiv_pos_site_id
 _symmetry_equiv_pos_as_xyz
  1  'x, y, z'
loop_
 _atom_site_type_symbol
 _atom_site_label
 _atom_site_symmetry_multiplicity
 _atom_site_fract_x
 _atom_site_fract_y
 _atom_site_fract_z
 _atom_site_occupancy
  Zr  Zr0  1  0.001645  0.663167  0.030601  1
  Zr  Zr1  1  0.998355  0.336833  0.530601  1
  Zr  Zr2  1  0.656117  0.998977  0.969910  1
  Zr  Zr3  1  0.160743  0.499243  0.779894  1
  Zr  Zr4  1  0.839257  0.500757  0.279894  1
  Zr  Zr5  1  0.500696  0.159094  0.219195  1
  Zr  Zr6  1  0.499304  0.840906  0.719195  1
  Zr  Zr7  1  0.343883  0.001023  0.469910  1
  Ta  Ta8  1  0.352205  0.502331  0.375458  1
  Ta  Ta9  1  0.843889  0.997939  0.372235  1
  Ta  Ta10  1  0.006040  0.153118  0.129135  1
  Ta  Ta11  1  0.993960  0.846882  0.629135  1
  Ta  Ta12  1  0.647795  0.497669  0.875458  1
  Ta  Ta13  1  0.504026  0.347751  0.624209  1
  Ta  Ta14  1  0.495974  0.652249  0.124209  1
  Ta  Ta15  1  0.156111  0.002061  0.872235  1
  Ta  Ta16  1  0.666064  0.669576  0.501396  1
  Ta  Ta17  1  0.828814  0.167928  0.748034  1
  Ta  Ta18  1  0.171186  0.832072  0.248034  1
  Ta  Ta19  1  0.333936  0.330424  0.001396  1
  Zn  Zn20  1  0.042743  0.699857  0.435835  1
  Zn  Zn21  1  0.957257  0.300143  0.935835  1
  Si  Si22  1  0.703026  0.043485  0.562758  1
  Si  Si23  1  0.200321  0.456743  0.186475  1
  Si  Si24  1  0.799679  0.543257  0.686475  1
  Si  Si25  1  0.456249  0.201661  0.814413  1
  Si  Si26  1  0.543751  0.798339  0.314413  1
  Si  Si27  1  0.296974  0.956515  0.062758  1
  Si  Si28  1  0.864523  0.792532  0.824412  1
  Si  Si29  1  0.135477  0.207468  0.324412  1
  Si  Si30  1  0.792881  0.863970  0.177659  1
  Si  Si31  1  0.289911  0.635713  0.570570  1
  Si  Si32  1  0.710089  0.364287  0.070570  1
  Si  Si33  1  0.637156  0.293692  0.427812  1
  Si  Si34  1  0.362844  0.706308  0.927812  1
  Si  Si35  1  0.207119  0.136030  0.677659  1
