# generated using pymatgen
data_Zr2Be2Au
_symmetry_space_group_name_H-M   'P 1'
_cell_length_a   6.40464800
_cell_length_b   6.40464800
_cell_length_c   3.85864500
_cell_angle_alpha   90.00000000
_cell_angle_beta   90.00000000
_cell_angle_gamma   90.00000000
_symmetry_Int_Tables_number   1
_chemical_formula_structural   Zr2Be2Au
_chemical_formula_sum   'Zr4 Be4 Au2'
_cell_volume   158.27975033
_cell_formula_units_Z   2
loop_
 _symmetry_equiv_pos_site_id
 _symmetry_equiv_pos_as_xyz
  1  'x, y, z'
loop_
 _atom_site_type_symbol
 _atom_site_label
 _atom_site_symmetry_multiplicity
 _atom_site_fract_x
 _atom_site_fract_y
 _atom_site_fract_z
 _atom_site_occupancy
  Zr  Zr0  1  0.329106  0.170895  0.499999  1
  Zr  Zr1  1  0.829106  0.329106  0.499999  1
  Zr  Zr2  1  0.170895  0.670895  0.499999  1
  Zr  Zr3  1  0.670895  0.829106  0.499999  1
  Be  Be4  1  0.622743  0.122743  0.000000  1
  Be  Be5  1  0.122743  0.377256  0.000000  1
  Be  Be6  1  0.877257  0.622743  0.000000  1
  Be  Be7  1  0.377256  0.877257  0.000000  1
  Au  Au8  1  0.000000  0.000000  0.000000  1
  Au  Au9  1  0.500000  0.500000  0.000000  1
