# generated using pymatgen
data_PaAl2SiNi
_symmetry_space_group_name_H-M   'P 1'
_cell_length_a   4.03082772
_cell_length_b   4.03082751
_cell_length_c   5.76937200
_cell_angle_alpha   69.55367435
_cell_angle_beta   69.55367549
_cell_angle_gamma   90.00000611
_symmetry_Int_Tables_number   1
_chemical_formula_structural   PaAl2SiNi
_chemical_formula_sum   'Pa1 Al2 Si1 Ni1'
_cell_volume   81.50043309
_cell_formula_units_Z   1
loop_
 _symmetry_equiv_pos_site_id
 _symmetry_equiv_pos_as_xyz
  1  'x, y, z'
loop_
 _atom_site_type_symbol
 _atom_site_label
 _atom_site_symmetry_multiplicity
 _atom_site_fract_x
 _atom_site_fract_y
 _atom_site_fract_z
 _atom_site_occupancy
  Pa  Pa0  1  0.008270  0.008270  0.983459  1
  Al  Al1  1  0.752275  0.252275  0.495447  1
  Al  Al2  1  0.252275  0.752275  0.495447  1
  Si  Si3  1  0.587370  0.587370  0.825258  1
  Ni  Ni4  1  0.368807  0.368807  0.262384  1
