# generated using pymatgen
data_DyHo4Si12Ir19
_symmetry_space_group_name_H-M   'P 1'
_cell_length_a   12.83063900
_cell_length_b   12.83063897
_cell_length_c   3.98421800
_cell_angle_alpha   90.00000000
_cell_angle_beta   90.00000000
_cell_angle_gamma   120.00000265
_symmetry_Int_Tables_number   1
_chemical_formula_structural   DyHo4Si12Ir19
_chemical_formula_sum   'Dy1 Ho4 Si12 Ir19'
_cell_volume   568.02870651
_cell_formula_units_Z   1
loop_
 _symmetry_equiv_pos_site_id
 _symmetry_equiv_pos_as_xyz
  1  'x, y, z'
loop_
 _atom_site_type_symbol
 _atom_site_label
 _atom_site_symmetry_multiplicity
 _atom_site_fract_x
 _atom_site_fract_y
 _atom_site_fract_z
 _atom_site_occupancy
  Dy  Dy0  1  0.666667  0.333333  0.500000  1
  Ho  Ho1  1  0.333333  0.666667  0.500000  1
  Ho  Ho2  1  0.999998  0.815219  0.000000  1
  Ho  Ho3  1  0.184781  0.184778  0.000000  1
  Ho  Ho4  1  0.815222  0.000002  0.000000  1
  Si  Si5  1  0.999991  0.632531  0.500000  1
  Si  Si6  1  0.367469  0.367461  0.500000  1
  Si  Si7  1  0.632539  0.000009  0.500000  1
  Si  Si8  1  0.518616  0.687499  0.000000  1
  Si  Si9  1  0.312501  0.831116  0.000000  1
  Si  Si10  1  0.168884  0.481384  0.000000  1
  Si  Si11  1  0.481243  0.168769  0.000000  1
  Si  Si12  1  0.687526  0.518757  0.000000  1
  Si  Si13  1  0.831231  0.312474  0.000000  1
  Si  Si14  1  0.000012  0.181428  0.500000  1
  Si  Si15  1  0.818572  0.818583  0.500000  1
  Si  Si16  1  0.181417  0.999988  0.500000  1
  Ir  Ir17  1  0.512356  0.873534  0.000000  1
  Ir  Ir18  1  0.126466  0.638822  0.000000  1
  Ir  Ir19  1  0.361178  0.487644  0.000000  1
  Ir  Ir20  1  0.487472  0.361184  0.000000  1
  Ir  Ir21  1  0.873713  0.512528  0.000000  1
  Ir  Ir22  1  0.638816  0.126287  0.000000  1
  Ir  Ir23  1  0.999986  0.447486  0.500000  1
  Ir  Ir24  1  0.552514  0.552500  0.500000  1
  Ir  Ir25  1  0.447500  0.000014  0.500000  1
  Ir  Ir26  1  0.000023  0.283054  0.000000  1
  Ir  Ir27  1  0.716946  0.716969  0.000000  1
  Ir  Ir28  1  0.283031  0.999977  0.000000  1
  Ir  Ir29  1  0.623175  0.805621  0.500000  1
  Ir  Ir30  1  0.194379  0.817554  0.500000  1
  Ir  Ir31  1  0.182446  0.376825  0.500000  1
  Ir  Ir32  1  0.376721  0.182386  0.500000  1
  Ir  Ir33  1  0.805664  0.623279  0.500000  1
  Ir  Ir34  1  0.817614  0.194336  0.500000  1
  Ir  Ir35  1  0.000000  0.000000  0.500000  1
