# generated using pymatgen
data_Ba7Sr3(GeBi2)2
_symmetry_space_group_name_H-M   'P 1'
_cell_length_a   9.00500438
_cell_length_b   10.43155709
_cell_length_c   14.48019500
_cell_angle_alpha   90.00000000
_cell_angle_beta   90.00000000
_cell_angle_gamma   89.82575973
_symmetry_Int_Tables_number   1
_chemical_formula_structural   Ba7Sr3(GeBi2)2
_chemical_formula_sum   'Ba14 Sr6 Ge4 Bi8'
_cell_volume   1360.20845465
_cell_formula_units_Z   2
loop_
 _symmetry_equiv_pos_site_id
 _symmetry_equiv_pos_as_xyz
  1  'x, y, z'
loop_
 _atom_site_type_symbol
 _atom_site_label
 _atom_site_symmetry_multiplicity
 _atom_site_fract_x
 _atom_site_fract_y
 _atom_site_fract_z
 _atom_site_occupancy
  Ba  Ba0  1  0.829758  0.524479  0.079571  1
  Ba  Ba1  1  0.670242  0.975521  0.579571  1
  Ba  Ba2  1  0.176487  0.751712  0.213610  1
  Ba  Ba3  1  0.323513  0.748288  0.713610  1
  Ba  Ba4  1  0.824504  0.248975  0.788876  1
  Ba  Ba5  1  0.675496  0.251025  0.288876  1
  Ba  Ba6  1  0.442652  0.751309  0.001670  1
  Ba  Ba7  1  0.057348  0.748691  0.501670  1
  Ba  Ba8  1  0.551402  0.248430  0.000988  1
  Ba  Ba9  1  0.948598  0.251570  0.500988  1
  Ba  Ba10  1  0.659394  0.746745  0.304717  1
  Ba  Ba11  1  0.840606  0.753255  0.804717  1
  Ba  Ba12  1  0.339563  0.254088  0.695986  1
  Ba  Ba13  1  0.160437  0.245912  0.195986  1
  Sr  Sr14  1  0.167271  0.023698  0.913318  1
  Sr  Sr15  1  0.332729  0.476302  0.413318  1
  Sr  Sr16  1  0.165275  0.478801  0.917835  1
  Sr  Sr17  1  0.334725  0.021199  0.417835  1
  Sr  Sr18  1  0.840067  0.978812  0.080561  1
  Sr  Sr19  1  0.659933  0.521188  0.580561  1
  Ge  Ge20  1  0.446249  0.745857  0.490661  1
  Ge  Ge21  1  0.053751  0.754143  0.990661  1
  Ge  Ge22  1  0.541757  0.251491  0.505044  1
  Ge  Ge23  1  0.958243  0.248509  0.005044  1
  Bi  Bi24  1  0.956436  0.502219  0.331741  1
  Bi  Bi25  1  0.543564  0.997781  0.831741  1
  Bi  Bi26  1  0.052835  0.005861  0.671716  1
  Bi  Bi27  1  0.447165  0.494139  0.171716  1
  Bi  Bi28  1  0.036678  0.498879  0.672604  1
  Bi  Bi29  1  0.463322  0.001121  0.172604  1
  Bi  Bi30  1  0.956380  0.996606  0.331101  1
  Bi  Bi31  1  0.543620  0.503394  0.831101  1
