# generated using pymatgen
data_Li4Ac3CeIr4
_symmetry_space_group_name_H-M   'P 1'
_cell_length_a   4.07911500
_cell_length_b   7.31976397
_cell_length_c   8.77647490
_cell_angle_alpha   88.75430170
_cell_angle_beta   90.00000000
_cell_angle_gamma   90.00000000
_symmetry_Int_Tables_number   1
_chemical_formula_structural   Li4Ac3CeIr4
_chemical_formula_sum   'Li4 Ac3 Ce1 Ir4'
_cell_volume   261.98745111
_cell_formula_units_Z   1
loop_
 _symmetry_equiv_pos_site_id
 _symmetry_equiv_pos_as_xyz
  1  'x, y, z'
loop_
 _atom_site_type_symbol
 _atom_site_label
 _atom_site_symmetry_multiplicity
 _atom_site_fract_x
 _atom_site_fract_y
 _atom_site_fract_z
 _atom_site_occupancy
  Li  Li0  1  0.250000  0.630561  0.547591  1
  Li  Li1  1  0.750000  0.371233  0.445384  1
  Li  Li2  1  0.750000  0.877451  0.053361  1
  Li  Li3  1  0.250000  0.108570  0.959795  1
  Ac  Ac4  1  0.250000  0.548596  0.185125  1
  Ac  Ac5  1  0.750000  0.445107  0.819018  1
  Ac  Ac6  1  0.750000  0.953781  0.679815  1
  Ce  Ce7  1  0.250000  0.055224  0.321290  1
  Ir  Ir8  1  0.250000  0.736959  0.874117  1
  Ir  Ir9  1  0.750000  0.236792  0.144124  1
  Ir  Ir10  1  0.750000  0.789488  0.363655  1
  Ir  Ir11  1  0.250000  0.246238  0.606724  1
