# generated using pymatgen
data_Tb5Ho6Er9(CoSb2)4
_symmetry_space_group_name_H-M   'P 1'
_cell_length_a   7.85185054
_cell_length_b   8.75472700
_cell_length_c   12.16665008
_cell_angle_alpha   90.00000000
_cell_angle_beta   90.01234211
_cell_angle_gamma   90.00000000
_symmetry_Int_Tables_number   1
_chemical_formula_structural   Tb5Ho6Er9(CoSb2)4
_chemical_formula_sum   'Tb5 Ho6 Er9 Co4 Sb8'
_cell_volume   836.34533644
_cell_formula_units_Z   1
loop_
 _symmetry_equiv_pos_site_id
 _symmetry_equiv_pos_as_xyz
  1  'x, y, z'
loop_
 _atom_site_type_symbol
 _atom_site_label
 _atom_site_symmetry_multiplicity
 _atom_site_fract_x
 _atom_site_fract_y
 _atom_site_fract_z
 _atom_site_occupancy
  Tb  Tb0  1  0.546655  0.250000  0.002498  1
  Tb  Tb1  1  0.621852  0.750000  0.307185  1
  Tb  Tb2  1  0.122167  0.250000  0.192805  1
  Tb  Tb3  1  0.377726  0.250000  0.692872  1
  Tb  Tb4  1  0.877538  0.750000  0.807014  1
  Ho  Ho5  1  0.653924  0.250000  0.296923  1
  Ho  Ho6  1  0.846750  0.250000  0.797070  1
  Ho  Ho7  1  0.346401  0.750000  0.702969  1
  Ho  Ho8  1  0.452573  0.750000  0.997996  1
  Ho  Ho9  1  0.953303  0.250000  0.501789  1
  Ho  Ho10  1  0.047108  0.750000  0.497600  1
  Er  Er11  1  0.153466  0.750000  0.202512  1
  Er  Er12  1  0.823077  0.963684  0.065419  1
  Er  Er13  1  0.322818  0.035519  0.434909  1
  Er  Er14  1  0.177108  0.464805  0.935140  1
  Er  Er15  1  0.677225  0.535285  0.565029  1
  Er  Er16  1  0.177108  0.035195  0.935140  1
  Er  Er17  1  0.677225  0.964715  0.565029  1
  Er  Er18  1  0.823077  0.536316  0.065419  1
  Er  Er19  1  0.322818  0.464481  0.434909  1
  Co  Co20  1  0.435491  0.750000  0.491458  1
  Co  Co21  1  0.935293  0.250000  0.008801  1
  Co  Co22  1  0.565065  0.250000  0.508500  1
  Co  Co23  1  0.064907  0.750000  0.991539  1
  Sb  Sb24  1  0.929895  0.991518  0.326865  1
  Sb  Sb25  1  0.428069  0.007157  0.173255  1
  Sb  Sb26  1  0.070813  0.492115  0.672553  1
  Sb  Sb27  1  0.570887  0.508309  0.827065  1
  Sb  Sb28  1  0.070813  0.007885  0.672553  1
  Sb  Sb29  1  0.570887  0.991691  0.827065  1
  Sb  Sb30  1  0.929895  0.508482  0.326865  1
  Sb  Sb31  1  0.428069  0.492843  0.173255  1
