# generated using pymatgen
data_Lu16Ga6CoPt
_symmetry_space_group_name_H-M   'P 1'
_cell_length_a   9.88239100
_cell_length_b   9.88217004
_cell_length_c   6.78917100
_cell_angle_alpha   89.99860511
_cell_angle_beta   90.00025413
_cell_angle_gamma   119.99952804
_symmetry_Int_Tables_number   1
_chemical_formula_structural   Lu16Ga6CoPt
_chemical_formula_sum   'Lu16 Ga6 Co1 Pt1'
_cell_volume   574.20080860
_cell_formula_units_Z   1
loop_
 _symmetry_equiv_pos_site_id
 _symmetry_equiv_pos_as_xyz
  1  'x, y, z'
loop_
 _atom_site_type_symbol
 _atom_site_label
 _atom_site_symmetry_multiplicity
 _atom_site_fract_x
 _atom_site_fract_y
 _atom_site_fract_z
 _atom_site_occupancy
  Lu  Lu0  1  0.170617  0.829377  0.511172  1
  Lu  Lu1  1  0.658752  0.829374  0.511163  1
  Lu  Lu2  1  0.170613  0.341238  0.511172  1
  Lu  Lu3  1  0.826388  0.173633  0.009760  1
  Lu  Lu4  1  0.347228  0.173617  0.009764  1
  Lu  Lu5  1  0.826387  0.652774  0.009757  1
  Lu  Lu6  1  0.333332  0.666679  0.839452  1
  Lu  Lu7  1  0.666665  0.333312  0.327313  1
  Lu  Lu8  1  0.467743  0.532293  0.202313  1
  Lu  Lu9  1  0.064599  0.532295  0.202324  1
  Lu  Lu10  1  0.467724  0.935448  0.202288  1
  Lu  Lu11  1  0.536933  0.463061  0.706926  1
  Lu  Lu12  1  0.926132  0.463067  0.706948  1
  Lu  Lu13  1  0.536918  0.073843  0.706944  1
  Lu  Lu14  1  0.999969  0.999997  0.233489  1
  Lu  Lu15  1  0.999991  0.000006  0.735728  1
  Ga  Ga16  1  0.162815  0.837169  0.960362  1
  Ga  Ga17  1  0.674358  0.837176  0.960338  1
  Ga  Ga18  1  0.162832  0.325664  0.960354  1
  Ga  Ga19  1  0.837001  0.162986  0.460322  1
  Ga  Ga20  1  0.325992  0.162996  0.460296  1
  Ga  Ga21  1  0.836995  0.673984  0.460278  1
  Co  Co22  1  0.666669  0.333336  0.944071  1
  Pt  Pt23  1  0.333346  0.666676  0.442301  1
