# generated using pymatgen
data_SmPa7TiS17
_symmetry_space_group_name_H-M   'P 1'
_cell_length_a   7.83693161
_cell_length_b   7.81241029
_cell_length_c   10.36961400
_cell_angle_alpha   80.61244708
_cell_angle_beta   80.59388922
_cell_angle_gamma   64.84094298
_symmetry_Int_Tables_number   1
_chemical_formula_structural   SmPa7TiS17
_chemical_formula_sum   'Sm1 Pa7 Ti1 S17'
_cell_volume   563.80078859
_cell_formula_units_Z   1
loop_
 _symmetry_equiv_pos_site_id
 _symmetry_equiv_pos_as_xyz
  1  'x, y, z'
loop_
 _atom_site_type_symbol
 _atom_site_label
 _atom_site_symmetry_multiplicity
 _atom_site_fract_x
 _atom_site_fract_y
 _atom_site_fract_z
 _atom_site_occupancy
  Sm  Sm0  1  0.811112  0.306613  0.295684  1
  Pa  Pa1  1  0.299361  0.816676  0.295728  1
  Pa  Pa2  1  0.182374  0.699603  0.702621  1
  Pa  Pa3  1  0.700977  0.181717  0.704769  1
  Pa  Pa4  1  0.204329  0.202627  0.542480  1
  Pa  Pa5  1  0.796940  0.795989  0.457712  1
  Pa  Pa6  1  0.684955  0.685434  0.981979  1
  Pa  Pa7  1  0.315297  0.315629  0.017317  1
  Ti  Ti8  1  0.001821  0.998784  0.999040  1
  S  S9  1  0.821693  0.433159  0.538837  1
  S  S10  1  0.433856  0.817772  0.534458  1
  S  S11  1  0.180795  0.564816  0.464665  1
  S  S12  1  0.567359  0.176410  0.470641  1
  S  S13  1  0.939999  0.327483  0.023053  1
  S  S14  1  0.326102  0.940621  0.025898  1
  S  S15  1  0.059361  0.674220  0.971739  1
  S  S16  1  0.674842  0.061484  0.973127  1
  S  S17  1  0.217520  0.208422  0.276776  1
  S  S18  1  0.786428  0.787266  0.724148  1
  S  S19  1  0.063773  0.063303  0.770726  1
  S  S20  1  0.942122  0.932649  0.229215  1
  S  S21  1  0.302959  0.301347  0.755612  1
  S  S22  1  0.690932  0.708488  0.243367  1
  S  S23  1  0.520527  0.522212  0.831593  1
  S  S24  1  0.470646  0.485176  0.163684  1
  S  S25  1  0.003921  0.992102  0.505132  1
