# generated using pymatgen
data_Rb12AlGeAs6
_symmetry_space_group_name_H-M   'P 1'
_cell_length_a   13.31778254
_cell_length_b   5.54331500
_cell_length_c   13.20781976
_cell_angle_alpha   90.00000000
_cell_angle_beta   119.47085434
_cell_angle_gamma   90.00000000
_symmetry_Int_Tables_number   1
_chemical_formula_structural   Rb12AlGeAs6
_chemical_formula_sum   'Rb12 Al1 Ge1 As6'
_cell_volume   848.89564062
_cell_formula_units_Z   1
loop_
 _symmetry_equiv_pos_site_id
 _symmetry_equiv_pos_as_xyz
  1  'x, y, z'
loop_
 _atom_site_type_symbol
 _atom_site_label
 _atom_site_symmetry_multiplicity
 _atom_site_fract_x
 _atom_site_fract_y
 _atom_site_fract_z
 _atom_site_occupancy
  Rb  Rb0  1  0.389526  0.250000  0.016460  1
  Rb  Rb1  1  0.968784  0.750001  0.225338  1
  Rb  Rb2  1  0.125183  0.250000  0.110054  1
  Rb  Rb3  1  0.715597  0.250000  0.253673  1
  Rb  Rb4  1  0.481148  0.250000  0.376224  1
  Rb  Rb5  1  0.758987  0.750001  0.528174  1
  Rb  Rb6  1  0.240492  0.250000  0.467047  1
  Rb  Rb7  1  0.514572  0.750001  0.619041  1
  Rb  Rb8  1  0.279324  0.750001  0.746708  1
  Rb  Rb9  1  0.879120  0.750001  0.890007  1
  Rb  Rb10  1  0.036665  0.250000  0.778883  1
  Rb  Rb11  1  0.610246  0.750001  0.987549  1
  Al  Al12  1  0.331155  0.750001  0.167886  1
  Ge  Ge13  1  0.668924  0.250000  0.832523  1
  As  As14  1  0.185151  0.750001  0.959628  1
  As  As15  1  0.537781  0.750001  0.226254  1
  As  As16  1  0.270969  0.750001  0.316716  1
  As  As17  1  0.727951  0.250000  0.684718  1
  As  As18  1  0.465002  0.250000  0.774803  1
  As  As19  1  0.813426  0.250000  0.038316  1
