# generated using pymatgen
data_Tb7LuSc11Si16W
_symmetry_space_group_name_H-M   'P 1'
_cell_length_a   7.04959913
_cell_length_b   7.36115359
_cell_length_c   13.90547221
_cell_angle_alpha   89.92399179
_cell_angle_beta   89.95658154
_cell_angle_gamma   90.16417986
_symmetry_Int_Tables_number   1
_chemical_formula_structural   Tb7LuSc11Si16W
_chemical_formula_sum   'Tb7 Lu1 Sc11 Si16 W1'
_cell_volume   721.59539305
_cell_formula_units_Z   1
loop_
 _symmetry_equiv_pos_site_id
 _symmetry_equiv_pos_as_xyz
  1  'x, y, z'
loop_
 _atom_site_type_symbol
 _atom_site_label
 _atom_site_symmetry_multiplicity
 _atom_site_fract_x
 _atom_site_fract_y
 _atom_site_fract_z
 _atom_site_occupancy
  Tb  Tb0  1  0.991161  0.820089  0.901604  1
  Tb  Tb1  1  0.485057  0.672129  0.902337  1
  Tb  Tb2  1  0.991598  0.820322  0.599346  1
  Tb  Tb3  1  0.512211  0.323639  0.095800  1
  Tb  Tb4  1  0.013506  0.176465  0.406346  1
  Tb  Tb5  1  0.512611  0.323563  0.403220  1
  Tb  Tb6  1  0.485496  0.672594  0.598668  1
  Lu  Lu7  1  0.013342  0.178712  0.094827  1
  Sc  Sc8  1  0.843473  0.497290  0.249464  1
  Sc  Sc9  1  0.343443  0.003639  0.249295  1
  Sc  Sc10  1  0.656436  0.996171  0.750128  1
  Sc  Sc11  1  0.326177  0.177328  0.627679  1
  Sc  Sc12  1  0.674014  0.824964  0.373688  1
  Sc  Sc13  1  0.173372  0.673425  0.375491  1
  Sc  Sc14  1  0.673860  0.825312  0.125412  1
  Sc  Sc15  1  0.826141  0.330502  0.628455  1
  Sc  Sc16  1  0.325142  0.177064  0.872589  1
  Sc  Sc17  1  0.827056  0.329029  0.872367  1
  Sc  Sc18  1  0.173284  0.673811  0.123727  1
  Si  Si19  1  0.029095  0.125345  0.750155  1
  Si  Si20  1  0.974278  0.886505  0.249118  1
  Si  Si21  1  0.470591  0.617940  0.249523  1
  Si  Si22  1  0.519276  0.392254  0.750461  1
  Si  Si23  1  0.282500  0.861154  0.750310  1
  Si  Si24  1  0.719948  0.129450  0.248583  1
  Si  Si25  1  0.214098  0.370728  0.248880  1
  Si  Si26  1  0.793253  0.626727  0.750525  1
  Si  Si27  1  0.152810  0.466296  0.548758  1
  Si  Si28  1  0.844587  0.535773  0.462358  1
  Si  Si29  1  0.347539  0.964110  0.462228  1
  Si  Si30  1  0.845201  0.533456  0.038300  1
  Si  Si31  1  0.656336  0.034870  0.539537  1
  Si  Si32  1  0.153005  0.464536  0.952055  1
  Si  Si33  1  0.655831  0.034572  0.960356  1
  Si  Si34  1  0.344179  0.965888  0.038196  1
  W  W35  1  0.150095  0.494348  0.750215  1
