# generated using pymatgen
data_Dy10Fe9Ru11
_symmetry_space_group_name_H-M   'P 1'
_cell_length_a   9.17171745
_cell_length_b   9.13768839
_cell_length_c   9.05652302
_cell_angle_alpha   99.18833463
_cell_angle_beta   99.60865337
_cell_angle_gamma   132.02822007
_symmetry_Int_Tables_number   1
_chemical_formula_structural   Dy10Fe9Ru11
_chemical_formula_sum   'Dy10 Fe9 Ru11'
_cell_volume   516.31008386
_cell_formula_units_Z   1
loop_
 _symmetry_equiv_pos_site_id
 _symmetry_equiv_pos_as_xyz
  1  'x, y, z'
loop_
 _atom_site_type_symbol
 _atom_site_label
 _atom_site_symmetry_multiplicity
 _atom_site_fract_x
 _atom_site_fract_y
 _atom_site_fract_z
 _atom_site_occupancy
  Dy  Dy0  1  0.002342  0.003032  0.000189  1
  Dy  Dy1  1  0.248370  0.747913  0.499616  1
  Dy  Dy2  1  0.052340  0.152956  0.699773  1
  Dy  Dy3  1  0.452155  0.352121  0.299846  1
  Dy  Dy4  1  0.648581  0.949820  0.099775  1
  Dy  Dy5  1  0.849712  0.548493  0.900225  1
  Dy  Dy6  1  0.198860  0.597473  0.799663  1
  Dy  Dy7  1  0.798590  0.398978  0.200692  1
  Dy  Dy8  1  0.599009  0.800280  0.398653  1
  Dy  Dy9  1  0.402047  0.201214  0.601980  1
  Fe  Fe10  1  0.736240  0.684271  0.154024  1
  Fe  Fe11  1  0.722236  0.169037  0.650009  1
  Fe  Fe12  1  0.319351  0.970610  0.050486  1
  Fe  Fe13  1  0.026755  0.075161  0.345909  1
  Fe  Fe14  1  0.733297  0.683802  0.652334  1
  Fe  Fe15  1  0.122127  0.371185  0.248897  1
  Fe  Fe16  1  0.122921  0.874463  0.753025  1
  Fe  Fe17  1  0.118534  0.877426  0.248640  1
  Fe  Fe18  1  0.626569  0.872837  0.745394  1
  Ru  Ru19  1  0.532144  0.581483  0.851332  1
  Ru  Ru20  1  0.426080  0.272277  0.951533  1
  Ru  Ru21  1  0.331041  0.480195  0.055343  1
  Ru  Ru22  1  0.516820  0.072984  0.348321  1
  Ru  Ru23  1  0.924672  0.271828  0.448031  1
  Ru  Ru24  1  0.827374  0.479327  0.556336  1
  Ru  Ru25  1  0.928783  0.781262  0.450173  1
  Ru  Ru26  1  0.330570  0.476098  0.546687  1
  Ru  Ru27  1  0.516095  0.062971  0.846923  1
  Ru  Ru28  1  0.218628  0.673421  0.150347  1
  Ru  Ru29  1  0.917755  0.267084  0.945843  1
