# generated using pymatgen
data_Y4Lu8Tl2FeTc2
_symmetry_space_group_name_H-M   'P 1'
_cell_length_a   8.32358157
_cell_length_b   8.32358357
_cell_length_c   8.32358332
_cell_angle_alpha   108.62301650
_cell_angle_beta   108.62301972
_cell_angle_gamma   111.18127227
_symmetry_Int_Tables_number   1
_chemical_formula_structural   Y4Lu8Tl2FeTc2
_chemical_formula_sum   'Y4 Lu8 Tl2 Fe1 Tc2'
_cell_volume   443.62686531
_cell_formula_units_Z   1
loop_
 _symmetry_equiv_pos_site_id
 _symmetry_equiv_pos_as_xyz
  1  'x, y, z'
loop_
 _atom_site_type_symbol
 _atom_site_label
 _atom_site_symmetry_multiplicity
 _atom_site_fract_x
 _atom_site_fract_y
 _atom_site_fract_z
 _atom_site_occupancy
  Y  Y0  1  0.301725  0.301725  0.606504  1
  Y  Y1  1  0.695221  0.695221  0.393496  1
  Y  Y2  1  0.695221  0.301725  0.000000  1
  Y  Y3  1  0.301725  0.695221  0.000000  1
  Lu  Lu4  1  0.188766  0.427874  0.239107  1
  Lu  Lu5  1  0.808657  0.573519  0.764862  1
  Lu  Lu6  1  0.188766  0.949658  0.760893  1
  Lu  Lu7  1  0.949658  0.188766  0.760893  1
  Lu  Lu8  1  0.808657  0.043795  0.235138  1
  Lu  Lu9  1  0.043795  0.808657  0.235138  1
  Lu  Lu10  1  0.427874  0.188766  0.239107  1
  Lu  Lu11  1  0.573519  0.808657  0.764862  1
  Tl  Tl12  1  0.996776  0.496776  0.500000  1
  Tl  Tl13  1  0.496776  0.996776  0.500000  1
  Fe  Fe14  1  0.632901  0.632901  0.000000  1
  Tc  Tc15  1  0.388166  0.388166  0.000000  1
  Tc  Tc16  1  0.001798  0.001798  0.000000  1
