# generated using pymatgen
data_Er4Ta5NbSi8
_symmetry_space_group_name_H-M   'P 1'
_cell_length_a   7.02459512
_cell_length_b   7.02673347
_cell_length_c   12.95886300
_cell_angle_alpha   90.00000000
_cell_angle_beta   90.00000000
_cell_angle_gamma   89.96855507
_symmetry_Int_Tables_number   1
_chemical_formula_structural   Er4Ta5NbSi8
_chemical_formula_sum   'Er8 Ta10 Nb2 Si16'
_cell_volume   639.64883204
_cell_formula_units_Z   2
loop_
 _symmetry_equiv_pos_site_id
 _symmetry_equiv_pos_as_xyz
  1  'x, y, z'
loop_
 _atom_site_type_symbol
 _atom_site_label
 _atom_site_symmetry_multiplicity
 _atom_site_fract_x
 _atom_site_fract_y
 _atom_site_fract_z
 _atom_site_occupancy
  Er  Er0  1  0.342449  0.002247  0.468058  1
  Er  Er1  1  0.498254  0.842017  0.718023  1
  Er  Er2  1  0.501746  0.157983  0.218023  1
  Er  Er3  1  0.842225  0.498024  0.282081  1
  Er  Er4  1  0.157775  0.501976  0.782081  1
  Er  Er5  1  0.657551  0.997754  0.968058  1
  Er  Er6  1  0.002393  0.341953  0.531824  1
  Er  Er7  1  0.997608  0.658047  0.031824  1
  Ta  Ta8  1  0.329009  0.328840  0.999784  1
  Ta  Ta9  1  0.172182  0.827433  0.250274  1
  Ta  Ta10  1  0.827818  0.172567  0.750274  1
  Ta  Ta11  1  0.670991  0.671160  0.499784  1
  Ta  Ta12  1  0.152445  0.007160  0.874061  1
  Ta  Ta13  1  0.493235  0.652580  0.123714  1
  Ta  Ta14  1  0.506765  0.347420  0.623714  1
  Ta  Ta15  1  0.652581  0.493219  0.876056  1
  Ta  Ta16  1  0.347419  0.506781  0.376056  1
  Ta  Ta17  1  0.847555  0.992840  0.374061  1
  Nb  Nb18  1  0.006429  0.152545  0.126013  1
  Nb  Nb19  1  0.993571  0.847455  0.626013  1
  Si  Si20  1  0.203808  0.134804  0.681571  1
  Si  Si21  1  0.365033  0.704280  0.931316  1
  Si  Si22  1  0.634967  0.295720  0.431316  1
  Si  Si23  1  0.703628  0.365317  0.068653  1
  Si  Si24  1  0.296372  0.634683  0.568653  1
  Si  Si25  1  0.796192  0.865196  0.181571  1
  Si  Si26  1  0.135022  0.203625  0.318820  1
  Si  Si27  1  0.864978  0.796375  0.818820  1
  Si  Si28  1  0.294405  0.954201  0.063946  1
  Si  Si29  1  0.546228  0.794686  0.313779  1
  Si  Si30  1  0.453772  0.205314  0.813779  1
  Si  Si31  1  0.794898  0.545499  0.685887  1
  Si  Si32  1  0.205102  0.454501  0.185887  1
  Si  Si33  1  0.705595  0.045799  0.563946  1
  Si  Si34  1  0.954236  0.294954  0.936138  1
  Si  Si35  1  0.045764  0.705046  0.436138  1
