# generated using pymatgen
data_LaNd5(Ir7Rh2)2
_symmetry_space_group_name_H-M   'P 1'
_cell_length_a   5.37449700
_cell_length_b   5.37444829
_cell_length_c   17.64291100
_cell_angle_alpha   90.00000000
_cell_angle_beta   90.00000000
_cell_angle_gamma   119.99964287
_symmetry_Int_Tables_number   1
_chemical_formula_structural   LaNd5(Ir7Rh2)2
_chemical_formula_sum   'La1 Nd5 Ir14 Rh4'
_cell_volume   441.34087467
_cell_formula_units_Z   1
loop_
 _symmetry_equiv_pos_site_id
 _symmetry_equiv_pos_as_xyz
  1  'x, y, z'
loop_
 _atom_site_type_symbol
 _atom_site_label
 _atom_site_symmetry_multiplicity
 _atom_site_fract_x
 _atom_site_fract_y
 _atom_site_fract_z
 _atom_site_occupancy
  La  La0  1  0.333335  0.666670  0.750000  1
  Nd  Nd1  1  0.333337  0.666677  0.541048  1
  Nd  Nd2  1  0.666667  0.333323  0.041232  1
  Nd  Nd3  1  0.666667  0.333323  0.458768  1
  Nd  Nd4  1  0.333337  0.666677  0.958952  1
  Nd  Nd5  1  0.666677  0.333333  0.250000  1
  Ir  Ir6  1  0.166782  0.333550  0.127445  1
  Ir  Ir7  1  0.833159  0.666326  0.626803  1
  Ir  Ir8  1  0.666453  0.833220  0.127446  1
  Ir  Ir9  1  0.166771  0.833222  0.127440  1
  Ir  Ir10  1  0.833168  0.166839  0.626801  1
  Ir  Ir11  1  0.333664  0.166840  0.626801  1
  Ir  Ir12  1  0.833159  0.666326  0.873197  1
  Ir  Ir13  1  0.833168  0.166839  0.873199  1
  Ir  Ir14  1  0.333664  0.166840  0.873199  1
  Ir  Ir15  1  0.666453  0.833220  0.372554  1
  Ir  Ir16  1  0.166771  0.833222  0.372560  1
  Ir  Ir17  1  0.166782  0.333550  0.372555  1
  Ir  Ir18  1  0.000003  0.000001  0.000177  1
  Ir  Ir19  1  0.000003  0.000001  0.499823  1
  Rh  Rh20  1  0.000021  0.000010  0.250000  1
  Rh  Rh21  1  0.000004  0.000002  0.750000  1
  Rh  Rh22  1  0.333322  0.666677  0.250000  1
  Rh  Rh23  1  0.666633  0.333314  0.750000  1
