# generated using pymatgen
data_Hf4Zr12Pd5Pt3N4
_symmetry_space_group_name_H-M   'P 1'
_cell_length_a   8.84809865
_cell_length_b   8.84809860
_cell_length_c   8.84809886
_cell_angle_alpha   60.04119340
_cell_angle_beta   60.04119544
_cell_angle_gamma   60.04119539
_symmetry_Int_Tables_number   1
_chemical_formula_structural   Hf4Zr12Pd5Pt3N4
_chemical_formula_sum   'Hf4 Zr12 Pd5 Pt3 N4'
_cell_volume   490.27552017
_cell_formula_units_Z   1
loop_
 _symmetry_equiv_pos_site_id
 _symmetry_equiv_pos_as_xyz
  1  'x, y, z'
loop_
 _atom_site_type_symbol
 _atom_site_label
 _atom_site_symmetry_multiplicity
 _atom_site_fract_x
 _atom_site_fract_y
 _atom_site_fract_z
 _atom_site_occupancy
  Hf  Hf0  1  0.127718  0.624206  0.624206  1
  Hf  Hf1  1  0.624206  0.127718  0.624206  1
  Hf  Hf2  1  0.624206  0.624206  0.127718  1
  Hf  Hf3  1  0.623132  0.623132  0.623132  1
  Zr  Zr4  1  0.818111  0.818111  0.181113  1
  Zr  Zr5  1  0.180690  0.180690  0.819167  1
  Zr  Zr6  1  0.818111  0.181113  0.818111  1
  Zr  Zr7  1  0.180690  0.819167  0.180690  1
  Zr  Zr8  1  0.181113  0.818111  0.818111  1
  Zr  Zr9  1  0.819167  0.180690  0.180690  1
  Zr  Zr10  1  0.431704  0.431704  0.068794  1
  Zr  Zr11  1  0.068256  0.068256  0.431882  1
  Zr  Zr12  1  0.431704  0.068794  0.431704  1
  Zr  Zr13  1  0.068256  0.431882  0.068256  1
  Zr  Zr14  1  0.068794  0.431704  0.431704  1
  Zr  Zr15  1  0.431882  0.068256  0.068256  1
  Pd  Pd16  1  0.411667  0.411667  0.411667  1
  Pd  Pd17  1  0.484589  0.838314  0.838314  1
  Pd  Pd18  1  0.838314  0.484589  0.838314  1
  Pd  Pd19  1  0.838314  0.838314  0.484589  1
  Pd  Pd20  1  0.837710  0.837710  0.837710  1
  Pt  Pt21  1  0.777384  0.406894  0.406894  1
  Pt  Pt22  1  0.406894  0.777384  0.406894  1
  Pt  Pt23  1  0.406894  0.406894  0.777384  1
  N  N24  1  0.625567  0.124947  0.124947  1
  N  N25  1  0.124947  0.625567  0.124947  1
  N  N26  1  0.124947  0.124947  0.625567  1
  N  N27  1  0.125032  0.125032  0.125032  1
