# generated using pymatgen
data_Ni8Mo11P3(WN2)2
_symmetry_space_group_name_H-M   'P 1'
_cell_length_a   7.87790734
_cell_length_b   7.88144638
_cell_length_c   7.88144522
_cell_angle_alpha   59.37270282
_cell_angle_beta   59.36496478
_cell_angle_gamma   59.36496004
_symmetry_Int_Tables_number   1
_chemical_formula_structural   Ni8Mo11P3(WN2)2
_chemical_formula_sum   'Ni8 Mo11 P3 W2 N4'
_cell_volume   341.04400850
_cell_formula_units_Z   1
loop_
 _symmetry_equiv_pos_site_id
 _symmetry_equiv_pos_as_xyz
  1  'x, y, z'
loop_
 _atom_site_type_symbol
 _atom_site_label
 _atom_site_symmetry_multiplicity
 _atom_site_fract_x
 _atom_site_fract_y
 _atom_site_fract_z
 _atom_site_occupancy
  Ni  Ni0  1  0.007920  0.338844  0.338844  1
  Ni  Ni1  1  0.918292  0.915147  0.915147  1
  Ni  Ni2  1  0.337851  0.340167  0.007931  1
  Ni  Ni3  1  0.911113  0.911349  0.241379  1
  Ni  Ni4  1  0.242294  0.910424  0.910424  1
  Ni  Ni5  1  0.337851  0.007931  0.340167  1
  Ni  Ni6  1  0.911113  0.241379  0.911349  1
  Ni  Ni7  1  0.333763  0.333653  0.333653  1
  Mo  Mo8  1  0.559018  0.558946  0.941835  1
  Mo  Mo9  1  0.304770  0.696741  0.304054  1
  Mo  Mo10  1  0.304770  0.304054  0.696741  1
  Mo  Mo11  1  0.696734  0.304129  0.304129  1
  Mo  Mo12  1  0.945473  0.946341  0.552913  1
  Mo  Mo13  1  0.945473  0.552913  0.946341  1
  Mo  Mo14  1  0.940780  0.559547  0.559547  1
  Mo  Mo15  1  0.553618  0.945809  0.945809  1
  Mo  Mo16  1  0.691008  0.691072  0.308235  1
  Mo  Mo17  1  0.691008  0.308235  0.691072  1
  Mo  Mo18  1  0.559018  0.941835  0.558946  1
  P  P19  1  0.124612  0.126367  0.624817  1
  P  P20  1  0.624750  0.124866  0.124866  1
  P  P21  1  0.124612  0.624817  0.126367  1
  W  W22  1  0.309646  0.689820  0.689820  1
  W  W23  1  0.125036  0.124886  0.124886  1
  N  N24  1  0.625099  0.125091  0.624912  1
  N  N25  1  0.625099  0.624912  0.125091  1
  N  N26  1  0.124968  0.625365  0.625365  1
  N  N27  1  0.624310  0.625362  0.625362  1
