# generated using pymatgen
data_CaTbEr2(ReN3)4
_symmetry_space_group_name_H-M   'P 1'
_cell_length_a   7.35619087
_cell_length_b   7.35619162
_cell_length_c   6.24978882
_cell_angle_alpha   73.59995862
_cell_angle_beta   73.59995546
_cell_angle_gamma   82.97271211
_symmetry_Int_Tables_number   1
_chemical_formula_structural   CaTbEr2(ReN3)4
_chemical_formula_sum   'Ca1 Tb1 Er2 Re4 N12'
_cell_volume   310.90404531
_cell_formula_units_Z   1
loop_
 _symmetry_equiv_pos_site_id
 _symmetry_equiv_pos_as_xyz
  1  'x, y, z'
loop_
 _atom_site_type_symbol
 _atom_site_label
 _atom_site_symmetry_multiplicity
 _atom_site_fract_x
 _atom_site_fract_y
 _atom_site_fract_z
 _atom_site_occupancy
  Ca  Ca0  1  0.706231  0.293769  0.250000  1
  Tb  Tb1  1  0.291493  0.708507  0.750000  1
  Er  Er2  1  0.909865  0.090135  0.750000  1
  Er  Er3  1  0.091010  0.908990  0.250000  1
  Re  Re4  1  0.621601  0.795388  0.269054  1
  Re  Re5  1  0.204612  0.378399  0.230946  1
  Re  Re6  1  0.379062  0.201721  0.731636  1
  Re  Re7  1  0.798279  0.620938  0.768364  1
  N  N8  1  0.341133  0.362525  0.932598  1
  N  N9  1  0.012808  0.214636  0.346513  1
  N  N10  1  0.785364  0.987192  0.153487  1
  N  N11  1  0.216421  0.004374  0.843889  1
  N  N12  1  0.654975  0.646473  0.059772  1
  N  N13  1  0.880550  0.378242  0.823697  1
  N  N14  1  0.124821  0.626607  0.163557  1
  N  N15  1  0.995626  0.783579  0.656111  1
  N  N16  1  0.373393  0.875179  0.336443  1
  N  N17  1  0.637475  0.658867  0.567402  1
  N  N18  1  0.621758  0.119450  0.676303  1
  N  N19  1  0.353527  0.345025  0.440228  1
