# generated using pymatgen
data_Ca16Yb4(Ga3Bi)3
_symmetry_space_group_name_H-M   'P 1'
_cell_length_a   8.09209100
_cell_length_b   8.09209100
_cell_length_c   14.59390300
_cell_angle_alpha   90.00000000
_cell_angle_beta   90.00000000
_cell_angle_gamma   90.00000000
_symmetry_Int_Tables_number   1
_chemical_formula_structural   Ca16Yb4(Ga3Bi)3
_chemical_formula_sum   'Ca16 Yb4 Ga9 Bi3'
_cell_volume   955.63703321
_cell_formula_units_Z   1
loop_
 _symmetry_equiv_pos_site_id
 _symmetry_equiv_pos_as_xyz
  1  'x, y, z'
loop_
 _atom_site_type_symbol
 _atom_site_label
 _atom_site_symmetry_multiplicity
 _atom_site_fract_x
 _atom_site_fract_y
 _atom_site_fract_z
 _atom_site_occupancy
  Ca  Ca0  1  0.677921  0.168093  0.108189  1
  Ca  Ca1  1  0.172386  0.672080  0.611524  1
  Ca  Ca2  1  0.322079  0.831907  0.108189  1
  Ca  Ca3  1  0.827614  0.327920  0.611524  1
  Ca  Ca4  1  0.831907  0.677921  0.108189  1
  Ca  Ca5  1  0.327920  0.172386  0.611524  1
  Ca  Ca6  1  0.168093  0.322079  0.108189  1
  Ca  Ca7  1  0.672080  0.827614  0.611524  1
  Ca  Ca8  1  0.831907  0.322079  0.891811  1
  Ca  Ca9  1  0.327920  0.827614  0.388476  1
  Ca  Ca10  1  0.168093  0.677921  0.891811  1
  Ca  Ca11  1  0.672080  0.172386  0.388476  1
  Ca  Ca12  1  0.677921  0.831907  0.891811  1
  Ca  Ca13  1  0.172386  0.327920  0.388476  1
  Ca  Ca14  1  0.322079  0.168093  0.891811  1
  Ca  Ca15  1  0.827614  0.672080  0.388476  1
  Yb  Yb16  1  0.500000  0.500000  0.754945  1
  Yb  Yb17  1  0.000000  0.000000  0.246639  1
  Yb  Yb18  1  0.000000  0.000000  0.753361  1
  Yb  Yb19  1  0.500000  0.500000  0.245055  1
  Ga  Ga20  1  0.613743  0.114884  0.750931  1
  Ga  Ga21  1  0.114884  0.613743  0.249069  1
  Ga  Ga22  1  0.885116  0.386257  0.249069  1
  Ga  Ga23  1  0.386257  0.885116  0.750931  1
  Ga  Ga24  1  0.885116  0.613743  0.750931  1
  Ga  Ga25  1  0.386257  0.114884  0.249069  1
  Ga  Ga26  1  0.114884  0.386257  0.750931  1
  Ga  Ga27  1  0.613743  0.885116  0.249069  1
  Ga  Ga28  1  0.000000  0.000000  0.000000  1
  Bi  Bi29  1  0.500000  0.500000  0.500000  1
  Bi  Bi30  1  0.500000  0.500000  0.000000  1
  Bi  Bi31  1  0.000000  0.000000  0.500000  1
