# generated using pymatgen
data_Er2Sc2Al17GaRh6
_symmetry_space_group_name_H-M   'P 1'
_cell_length_a   7.48894908
_cell_length_b   7.48894926
_cell_length_c   9.40059600
_cell_angle_alpha   90.00000000
_cell_angle_beta   90.00000000
_cell_angle_gamma   119.33294961
_symmetry_Int_Tables_number   1
_chemical_formula_structural   Er2Sc2Al17GaRh6
_chemical_formula_sum   'Er2 Sc2 Al17 Ga1 Rh6'
_cell_volume   459.62949410
_cell_formula_units_Z   1
loop_
 _symmetry_equiv_pos_site_id
 _symmetry_equiv_pos_as_xyz
  1  'x, y, z'
loop_
 _atom_site_type_symbol
 _atom_site_label
 _atom_site_symmetry_multiplicity
 _atom_site_fract_x
 _atom_site_fract_y
 _atom_site_fract_z
 _atom_site_occupancy
  Er  Er0  1  0.993219  0.675892  0.750000  1
  Er  Er1  1  0.675892  0.993219  0.750000  1
  Sc  Sc2  1  0.004570  0.326375  0.250000  1
  Sc  Sc3  1  0.326375  0.004570  0.250000  1
  Al  Al4  1  0.875642  0.875642  0.250000  1
  Al  Al5  1  0.001674  0.336087  0.570034  1
  Al  Al6  1  0.002544  0.664168  0.419045  1
  Al  Al7  1  0.002544  0.664168  0.080955  1
  Al  Al8  1  0.336087  0.001674  0.929966  1
  Al  Al9  1  0.001674  0.336087  0.929966  1
  Al  Al10  1  0.664168  0.002544  0.080955  1
  Al  Al11  1  0.664168  0.002544  0.419045  1
  Al  Al12  1  0.336087  0.001674  0.570034  1
  Al  Al13  1  0.329812  0.329812  0.061686  1
  Al  Al14  1  0.665428  0.665428  0.954552  1
  Al  Al15  1  0.665428  0.665428  0.545448  1
  Al  Al16  1  0.329812  0.329812  0.438314  1
  Al  Al17  1  0.338994  0.550714  0.750000  1
  Al  Al18  1  0.659938  0.443396  0.250000  1
  Al  Al19  1  0.550714  0.338994  0.750000  1
  Al  Al20  1  0.443396  0.659938  0.250000  1
  Ga  Ga21  1  0.134996  0.134996  0.750000  1
  Rh  Rh22  1  0.671744  0.327065  0.499033  1
  Rh  Rh23  1  0.327065  0.671744  0.499033  1
  Rh  Rh24  1  0.327065  0.671744  0.000967  1
  Rh  Rh25  1  0.671744  0.327065  0.000967  1
  Rh  Rh26  1  0.999612  0.999612  0.496796  1
  Rh  Rh27  1  0.999612  0.999612  0.003204  1
