# generated using pymatgen
data_AcLa5Cd23P
_symmetry_space_group_name_H-M   'P 1'
_cell_length_a   10.20116178
_cell_length_b   10.20116188
_cell_length_c   10.19349100
_cell_angle_alpha   60.02486831
_cell_angle_beta   60.02486801
_cell_angle_gamma   59.95025140
_symmetry_Int_Tables_number   1
_chemical_formula_structural   AcLa5Cd23P
_chemical_formula_sum   'Ac1 La5 Cd23 P1'
_cell_volume   750.07845171
_cell_formula_units_Z   1
loop_
 _symmetry_equiv_pos_site_id
 _symmetry_equiv_pos_as_xyz
  1  'x, y, z'
loop_
 _atom_site_type_symbol
 _atom_site_label
 _atom_site_symmetry_multiplicity
 _atom_site_fract_x
 _atom_site_fract_y
 _atom_site_fract_z
 _atom_site_occupancy
  Ac  Ac0  1  0.793259  0.793259  0.206741  1
  La  La1  1  0.205597  0.795224  0.204776  1
  La  La2  1  0.795224  0.205597  0.204776  1
  La  La3  1  0.205635  0.205635  0.794365  1
  La  La4  1  0.795224  0.205597  0.794403  1
  La  La5  1  0.205597  0.795224  0.794403  1
  Cd  Cd6  1  0.830667  0.830667  0.510121  1
  Cd  Cd7  1  0.830628  0.508351  0.830511  1
  Cd  Cd8  1  0.508351  0.830628  0.830511  1
  Cd  Cd9  1  0.830667  0.830667  0.828548  1
  Cd  Cd10  1  0.169489  0.169489  0.491649  1
  Cd  Cd11  1  0.171452  0.489879  0.169333  1
  Cd  Cd12  1  0.489879  0.171452  0.169333  1
  Cd  Cd13  1  0.169489  0.169489  0.169372  1
  Cd  Cd14  1  0.619541  0.619541  0.137575  1
  Cd  Cd15  1  0.620656  0.138067  0.620639  1
  Cd  Cd16  1  0.138067  0.620656  0.620639  1
  Cd  Cd17  1  0.619541  0.619541  0.623343  1
  Cd  Cd18  1  0.379361  0.379361  0.861933  1
  Cd  Cd19  1  0.376657  0.862425  0.380459  1
  Cd  Cd20  1  0.862425  0.376657  0.380459  1
  Cd  Cd21  1  0.379361  0.379361  0.379344  1
  Cd  Cd22  1  0.000154  0.000154  0.499846  1
  Cd  Cd23  1  0.499011  0.000793  0.500989  1
  Cd  Cd24  1  0.000793  0.499011  0.500989  1
  Cd  Cd25  1  0.500154  0.500154  0.999846  1
  Cd  Cd26  1  0.000793  0.499011  0.999207  1
  Cd  Cd27  1  0.499011  0.000793  0.999207  1
  Cd  Cd28  1  0.499889  0.499889  0.500111  1
  P  P29  1  0.003425  0.003425  0.996575  1
