# generated using pymatgen
data_V3Cr(FeP)4
_symmetry_space_group_name_H-M   'P 1'
_cell_length_a   3.50908000
_cell_length_b   5.86592549
_cell_length_c   6.64730692
_cell_angle_alpha   90.20691046
_cell_angle_beta   90.00000000
_cell_angle_gamma   90.00000000
_symmetry_Int_Tables_number   1
_chemical_formula_structural   V3Cr(FeP)4
_chemical_formula_sum   'V3 Cr1 Fe4 P4'
_cell_volume   136.82728549
_cell_formula_units_Z   1
loop_
 _symmetry_equiv_pos_site_id
 _symmetry_equiv_pos_as_xyz
  1  'x, y, z'
loop_
 _atom_site_type_symbol
 _atom_site_label
 _atom_site_symmetry_multiplicity
 _atom_site_fract_x
 _atom_site_fract_y
 _atom_site_fract_z
 _atom_site_occupancy
  V  V0  1  0.750000  0.973928  0.173820  1
  V  V1  1  0.250000  0.022284  0.826687  1
  V  V2  1  0.750000  0.476677  0.326823  1
  Cr  Cr3  1  0.250000  0.527939  0.673320  1
  Fe  Fe4  1  0.250000  0.642717  0.060722  1
  Fe  Fe5  1  0.750000  0.355798  0.937293  1
  Fe  Fe6  1  0.250000  0.144995  0.439183  1
  Fe  Fe7  1  0.750000  0.856363  0.562093  1
  P  P8  1  0.250000  0.269004  0.124005  1
  P  P9  1  0.750000  0.727442  0.873746  1
  P  P10  1  0.250000  0.769492  0.378271  1
  P  P11  1  0.750000  0.233363  0.624036  1
