# generated using pymatgen
data_Nd4Al6TcIr
_symmetry_space_group_name_H-M   'P 1'
_cell_length_a   5.65663700
_cell_length_b   5.65663732
_cell_length_c   8.95675300
_cell_angle_alpha   90.00000000
_cell_angle_beta   90.00000000
_cell_angle_gamma   119.99999228
_symmetry_Int_Tables_number   1
_chemical_formula_structural   Nd4Al6TcIr
_chemical_formula_sum   'Nd4 Al6 Tc1 Ir1'
_cell_volume   248.19778862
_cell_formula_units_Z   1
loop_
 _symmetry_equiv_pos_site_id
 _symmetry_equiv_pos_as_xyz
  1  'x, y, z'
loop_
 _atom_site_type_symbol
 _atom_site_label
 _atom_site_symmetry_multiplicity
 _atom_site_fract_x
 _atom_site_fract_y
 _atom_site_fract_z
 _atom_site_occupancy
  Nd  Nd0  1  0.333333  0.666667  0.945869  1
  Nd  Nd1  1  0.666667  0.333333  0.054131  1
  Nd  Nd2  1  0.666667  0.333333  0.448890  1
  Nd  Nd3  1  0.333333  0.666667  0.551110  1
  Al  Al4  1  0.839945  0.160055  0.748025  1
  Al  Al5  1  0.839945  0.679892  0.748025  1
  Al  Al6  1  0.320108  0.160055  0.748025  1
  Al  Al7  1  0.160055  0.839945  0.251975  1
  Al  Al8  1  0.160055  0.320108  0.251975  1
  Al  Al9  1  0.679892  0.839945  0.251975  1
  Tc  Tc10  1  0.000000  0.000000  0.000000  1
  Ir  Ir11  1  0.000000  0.000000  0.500000  1
