# generated using pymatgen
data_Hf8In4Cu5Ni3
_symmetry_space_group_name_H-M   'P 1'
_cell_length_a   7.15610906
_cell_length_b   7.15610906
_cell_length_c   6.77469032
_cell_angle_alpha   90.02382185
_cell_angle_beta   90.02382185
_cell_angle_gamma   89.86561568
_symmetry_Int_Tables_number   1
_chemical_formula_structural   Hf8In4Cu5Ni3
_chemical_formula_sum   'Hf8 In4 Cu5 Ni3'
_cell_volume   346.93017869
_cell_formula_units_Z   1
loop_
 _symmetry_equiv_pos_site_id
 _symmetry_equiv_pos_as_xyz
  1  'x, y, z'
loop_
 _atom_site_type_symbol
 _atom_site_label
 _atom_site_symmetry_multiplicity
 _atom_site_fract_x
 _atom_site_fract_y
 _atom_site_fract_z
 _atom_site_occupancy
  Hf  Hf0  1  0.185513  0.185513  0.989125  1
  Hf  Hf1  1  0.819247  0.819247  0.991589  1
  Hf  Hf2  1  0.308617  0.685468  0.508186  1
  Hf  Hf3  1  0.685468  0.308617  0.508186  1
  Hf  Hf4  1  0.648197  0.343840  0.992463  1
  Hf  Hf5  1  0.343840  0.648197  0.992463  1
  Hf  Hf6  1  0.852955  0.852955  0.507711  1
  Hf  Hf7  1  0.152991  0.152991  0.512948  1
  In  In8  1  0.500337  0.997136  0.250251  1
  In  In9  1  0.997136  0.500337  0.250251  1
  In  In10  1  0.998988  0.500054  0.751111  1
  In  In11  1  0.500054  0.998988  0.751111  1
  Cu  Cu12  1  0.374969  0.374969  0.291135  1
  Cu  Cu13  1  0.624069  0.624069  0.287642  1
  Cu  Cu14  1  0.126355  0.877228  0.210482  1
  Cu  Cu15  1  0.877228  0.126355  0.210482  1
  Cu  Cu16  1  0.625880  0.625880  0.708107  1
  Ni  Ni17  1  0.376812  0.376812  0.712844  1
  Ni  Ni18  1  0.126778  0.874565  0.786956  1
  Ni  Ni19  1  0.874565  0.126778  0.786956  1
