# generated using pymatgen
data_Y10Cd2CoPd
_symmetry_space_group_name_H-M   'P 1'
_cell_length_a   9.66243961
_cell_length_b   9.58540251
_cell_length_c   9.58678100
_cell_angle_alpha   90.00000000
_cell_angle_beta   90.00000000
_cell_angle_gamma   119.94708977
_symmetry_Int_Tables_number   1
_chemical_formula_structural   Y10Cd2CoPd
_chemical_formula_sum   'Y20 Cd4 Co2 Pd2'
_cell_volume   769.36404445
_cell_formula_units_Z   2
loop_
 _symmetry_equiv_pos_site_id
 _symmetry_equiv_pos_as_xyz
  1  'x, y, z'
loop_
 _atom_site_type_symbol
 _atom_site_label
 _atom_site_symmetry_multiplicity
 _atom_site_fract_x
 _atom_site_fract_y
 _atom_site_fract_z
 _atom_site_occupancy
  Y  Y0  1  0.981107  0.991100  0.466650  1
  Y  Y1  1  0.981107  0.991100  0.033350  1
  Y  Y2  1  0.557601  0.470507  0.250000  1
  Y  Y3  1  0.558311  0.087314  0.250000  1
  Y  Y4  1  0.923058  0.462256  0.250000  1
  Y  Y5  1  0.460780  0.540488  0.750000  1
  Y  Y6  1  0.459813  0.915498  0.750000  1
  Y  Y7  1  0.090879  0.544020  0.750000  1
  Y  Y8  1  0.209868  0.792724  0.434996  1
  Y  Y9  1  0.209441  0.417333  0.435998  1
  Y  Y10  1  0.571948  0.785570  0.437269  1
  Y  Y11  1  0.792217  0.212180  0.562806  1
  Y  Y12  1  0.792660  0.580148  0.560965  1
  Y  Y13  1  0.420183  0.209270  0.561687  1
  Y  Y14  1  0.792217  0.212180  0.937194  1
  Y  Y15  1  0.792660  0.580148  0.939035  1
  Y  Y16  1  0.420183  0.209270  0.938313  1
  Y  Y17  1  0.209868  0.792724  0.065004  1
  Y  Y18  1  0.209441  0.417333  0.064002  1
  Y  Y19  1  0.571948  0.785570  0.062731  1
  Cd  Cd20  1  0.250003  0.124256  0.250000  1
  Cd  Cd21  1  0.108370  0.892582  0.750000  1
  Cd  Cd22  1  0.108766  0.218186  0.750000  1
  Cd  Cd23  1  0.777738  0.889166  0.750000  1
  Co  Co24  1  0.328172  0.665326  0.250000  1
  Co  Co25  1  0.663265  0.332155  0.750000  1
  Pd  Pd26  1  0.880230  0.137898  0.250000  1
  Pd  Pd27  1  0.878165  0.743699  0.250000  1
