# generated using pymatgen
data_Sm6Be(P3Rh5)4
_symmetry_space_group_name_H-M   'P 1'
_cell_length_a   13.39431500
_cell_length_b   13.39431334
_cell_length_c   3.94601000
_cell_angle_alpha   90.00000000
_cell_angle_beta   90.00000000
_cell_angle_gamma   119.99999670
_symmetry_Int_Tables_number   1
_chemical_formula_structural   Sm6Be(P3Rh5)4
_chemical_formula_sum   'Sm6 Be1 P12 Rh20'
_cell_volume   613.09784567
_cell_formula_units_Z   1
loop_
 _symmetry_equiv_pos_site_id
 _symmetry_equiv_pos_as_xyz
  1  'x, y, z'
loop_
 _atom_site_type_symbol
 _atom_site_label
 _atom_site_symmetry_multiplicity
 _atom_site_fract_x
 _atom_site_fract_y
 _atom_site_fract_z
 _atom_site_occupancy
  Sm  Sm0  1  0.530641  0.717364  0.247909  1
  Sm  Sm1  1  0.282636  0.813277  0.247909  1
  Sm  Sm2  1  0.186723  0.469359  0.247909  1
  Sm  Sm3  1  0.469359  0.282636  0.752091  1
  Sm  Sm4  1  0.717364  0.186723  0.752091  1
  Sm  Sm5  1  0.813277  0.530641  0.752091  1
  Be  Be6  1  0.000000  0.000000  0.000000  1
  P  P7  1  0.523859  0.137683  0.251115  1
  P  P8  1  0.862317  0.386176  0.251115  1
  P  P9  1  0.613824  0.476141  0.251115  1
  P  P10  1  0.948800  0.721489  0.252476  1
  P  P11  1  0.278511  0.227311  0.252476  1
  P  P12  1  0.772689  0.051200  0.252476  1
  P  P13  1  0.386176  0.523859  0.748885  1
  P  P14  1  0.476141  0.862317  0.748885  1
  P  P15  1  0.137683  0.613824  0.748885  1
  P  P16  1  0.721489  0.772689  0.747524  1
  P  P17  1  0.227311  0.948800  0.747524  1
  P  P18  1  0.051200  0.278511  0.747524  1
  Rh  Rh19  1  0.333333  0.666667  0.751885  1
  Rh  Rh20  1  0.923289  0.249338  0.252876  1
  Rh  Rh21  1  0.750662  0.673951  0.252876  1
  Rh  Rh22  1  0.326049  0.076711  0.252876  1
  Rh  Rh23  1  0.438364  0.024294  0.750499  1
  Rh  Rh24  1  0.975706  0.414071  0.750499  1
  Rh  Rh25  1  0.585929  0.561636  0.750499  1
  Rh  Rh26  1  0.666667  0.333333  0.248115  1
  Rh  Rh27  1  0.091524  0.188878  0.243585  1
  Rh  Rh28  1  0.811122  0.902646  0.243585  1
  Rh  Rh29  1  0.097354  0.908476  0.243585  1
  Rh  Rh30  1  0.024294  0.585929  0.249501  1
  Rh  Rh31  1  0.414071  0.438364  0.249501  1
  Rh  Rh32  1  0.561636  0.975706  0.249501  1
  Rh  Rh33  1  0.673951  0.923289  0.747124  1
  Rh  Rh34  1  0.076711  0.750662  0.747124  1
  Rh  Rh35  1  0.249338  0.326049  0.747124  1
  Rh  Rh36  1  0.908476  0.811122  0.756415  1
  Rh  Rh37  1  0.188878  0.097354  0.756415  1
  Rh  Rh38  1  0.902646  0.091524  0.756415  1
