# generated using pymatgen
data_PaNb(Co7B2)3
_symmetry_space_group_name_H-M   'P 1'
_cell_length_a   7.47988711
_cell_length_b   7.47988782
_cell_length_c   7.47988700
_cell_angle_alpha   59.99999922
_cell_angle_beta   59.99999607
_cell_angle_gamma   60.00000308
_symmetry_Int_Tables_number   1
_chemical_formula_structural   PaNb(Co7B2)3
_chemical_formula_sum   'Pa1 Nb1 Co21 B6'
_cell_volume   295.91716797
_cell_formula_units_Z   1
loop_
 _symmetry_equiv_pos_site_id
 _symmetry_equiv_pos_as_xyz
  1  'x, y, z'
loop_
 _atom_site_type_symbol
 _atom_site_label
 _atom_site_symmetry_multiplicity
 _atom_site_fract_x
 _atom_site_fract_y
 _atom_site_fract_z
 _atom_site_occupancy
  Pa  Pa0  1  0.750000  0.750000  0.750000  1
  Nb  Nb1  1  0.250000  0.250000  0.250000  1
  Co  Co2  1  0.000000  0.000000  0.000000  1
  Co  Co3  1  0.614049  0.614049  0.157850  1
  Co  Co4  1  0.614049  0.157850  0.614049  1
  Co  Co5  1  0.157850  0.614049  0.614049  1
  Co  Co6  1  0.614049  0.614049  0.614049  1
  Co  Co7  1  0.382614  0.382614  0.852160  1
  Co  Co8  1  0.382614  0.852160  0.382614  1
  Co  Co9  1  0.852160  0.382614  0.382614  1
  Co  Co10  1  0.382614  0.382614  0.382614  1
  Co  Co11  1  0.002464  0.002464  0.334175  1
  Co  Co12  1  0.660895  0.002464  0.334175  1
  Co  Co13  1  0.002464  0.660895  0.334175  1
  Co  Co14  1  0.660895  0.334175  0.002464  1
  Co  Co15  1  0.002464  0.334175  0.002464  1
  Co  Co16  1  0.002464  0.334175  0.660895  1
  Co  Co17  1  0.334175  0.660895  0.002464  1
  Co  Co18  1  0.334175  0.002464  0.660895  1
  Co  Co19  1  0.334175  0.002464  0.002464  1
  Co  Co20  1  0.002464  0.002464  0.660895  1
  Co  Co21  1  0.002464  0.660895  0.002464  1
  Co  Co22  1  0.660895  0.002464  0.002464  1
  B  B23  1  0.726158  0.726158  0.273842  1
  B  B24  1  0.273842  0.726158  0.273842  1
  B  B25  1  0.726158  0.273842  0.273842  1
  B  B26  1  0.273842  0.273842  0.726158  1
  B  B27  1  0.726158  0.273842  0.726158  1
  B  B28  1  0.273842  0.726158  0.726158  1
