# generated using pymatgen
data_YNp3Al6Ga6Pd
_symmetry_space_group_name_H-M   'P 1'
_cell_length_a   7.45701197
_cell_length_b   7.50473438
_cell_length_c   7.45701234
_cell_angle_alpha   109.60089867
_cell_angle_beta   109.34122160
_cell_angle_gamma   109.60091887
_symmetry_Int_Tables_number   1
_chemical_formula_structural   YNp3Al6Ga6Pd
_chemical_formula_sum   'Y1 Np3 Al6 Ga6 Pd1'
_cell_volume   320.73439377
_cell_formula_units_Z   1
loop_
 _symmetry_equiv_pos_site_id
 _symmetry_equiv_pos_as_xyz
  1  'x, y, z'
loop_
 _atom_site_type_symbol
 _atom_site_label
 _atom_site_symmetry_multiplicity
 _atom_site_fract_x
 _atom_site_fract_y
 _atom_site_fract_z
 _atom_site_occupancy
  Y  Y0  1  0.000000  0.500000  0.000000  1
  Np  Np1  1  0.500000  0.500000  0.500000  1
  Np  Np2  1  0.000000  0.000000  0.500000  1
  Np  Np3  1  0.500000  0.000000  0.000000  1
  Al  Al4  1  0.749519  0.500000  0.250481  1
  Al  Al5  1  0.500963  0.750481  0.250481  1
  Al  Al6  1  0.499037  0.249519  0.749519  1
  Al  Al7  1  0.749519  0.249519  0.499037  1
  Al  Al8  1  0.250481  0.750481  0.500963  1
  Al  Al9  1  0.250481  0.500000  0.749519  1
  Ga  Ga10  1  0.296272  0.002085  0.296272  1
  Ga  Ga11  1  0.000000  0.294188  0.296272  1
  Ga  Ga12  1  0.000000  0.705812  0.703728  1
  Ga  Ga13  1  0.296272  0.294188  0.000000  1
  Ga  Ga14  1  0.703728  0.705812  0.000000  1
  Ga  Ga15  1  0.703728  0.997915  0.703728  1
  Pd  Pd16  1  0.000000  0.000000  0.000000  1
