# generated using pymatgen
data_Cs4MgMn2Zn3Te8
_symmetry_space_group_name_H-M   'P 1'
_cell_length_a   10.65958279
_cell_length_b   10.68280828
_cell_length_c   10.65958220
_cell_angle_alpha   144.11175311
_cell_angle_beta   105.33285946
_cell_angle_gamma   85.63056070
_symmetry_Int_Tables_number   1
_chemical_formula_structural   Cs4MgMn2Zn3Te8
_chemical_formula_sum   'Cs4 Mg1 Mn2 Zn3 Te8'
_cell_volume   665.46880016
_cell_formula_units_Z   1
loop_
 _symmetry_equiv_pos_site_id
 _symmetry_equiv_pos_as_xyz
  1  'x, y, z'
loop_
 _atom_site_type_symbol
 _atom_site_label
 _atom_site_symmetry_multiplicity
 _atom_site_fract_x
 _atom_site_fract_y
 _atom_site_fract_z
 _atom_site_occupancy
  Cs  Cs0  1  0.123231  0.234959  0.358638  1
  Cs  Cs1  1  0.376517  0.734028  0.111195  1
  Cs  Cs2  1  0.623679  0.265041  0.888273  1
  Cs  Cs3  1  0.877168  0.765972  0.642490  1
  Mg  Mg4  1  0.517254  0.750000  0.767254  1
  Mn  Mn5  1  0.250906  0.750000  0.500906  1
  Mn  Mn6  1  0.011619  0.250000  0.761619  1
  Zn  Zn7  1  0.985799  0.750000  0.235799  1
  Zn  Zn8  1  0.484764  0.250000  0.234764  1
  Zn  Zn9  1  0.752699  0.250000  0.502699  1
  Te  Te10  1  0.217242  0.073394  0.591278  1
  Te  Te11  1  0.279110  0.886287  0.865790  1
  Te  Te12  1  0.017884  0.426606  0.143849  1
  Te  Te13  1  0.479504  0.613713  0.392822  1
  Te  Te14  1  0.781138  0.919750  0.396951  1
  Te  Te15  1  0.722827  0.134520  0.155978  1
  Te  Te16  1  0.977201  0.580250  0.861387  1
  Te  Te17  1  0.521458  0.365480  0.588306  1
