# generated using pymatgen
data_YZrRe8Si3P
_symmetry_space_group_name_H-M   'P 1'
_cell_length_a   7.39265853
_cell_length_b   7.39265884
_cell_length_c   4.07655700
_cell_angle_alpha   90.00000000
_cell_angle_beta   90.00000000
_cell_angle_gamma   90.63213205
_symmetry_Int_Tables_number   1
_chemical_formula_structural   YZrRe8Si3P
_chemical_formula_sum   'Y1 Zr1 Re8 Si3 P1'
_cell_volume   222.77599799
_cell_formula_units_Z   1
loop_
 _symmetry_equiv_pos_site_id
 _symmetry_equiv_pos_as_xyz
  1  'x, y, z'
loop_
 _atom_site_type_symbol
 _atom_site_label
 _atom_site_symmetry_multiplicity
 _atom_site_fract_x
 _atom_site_fract_y
 _atom_site_fract_z
 _atom_site_occupancy
  Y  Y0  1  0.999769  0.999769  0.500000  1
  Zr  Zr1  1  0.499603  0.499603  0.000000  1
  Re  Re2  1  0.656314  0.903175  0.000000  1
  Re  Re3  1  0.159197  0.586679  0.500000  1
  Re  Re4  1  0.095793  0.345070  0.000000  1
  Re  Re5  1  0.903175  0.656314  0.000000  1
  Re  Re6  1  0.417750  0.836014  0.500000  1
  Re  Re7  1  0.586679  0.159197  0.500000  1
  Re  Re8  1  0.345070  0.095793  0.000000  1
  Re  Re9  1  0.836014  0.417750  0.500000  1
  Si  Si10  1  0.213244  0.787405  0.000000  1
  Si  Si11  1  0.787405  0.213244  0.000000  1
  Si  Si12  1  0.294777  0.294777  0.500000  1
  P  P13  1  0.705210  0.705210  0.500000  1
