# generated using pymatgen
data_DyTm4Bi3
_symmetry_space_group_name_H-M   'P 1'
_cell_length_a   8.20700000
_cell_length_b   9.45528200
_cell_length_c   11.91504400
_cell_angle_alpha   90.00000000
_cell_angle_beta   90.00000000
_cell_angle_gamma   90.00000000
_symmetry_Int_Tables_number   1
_chemical_formula_structural   DyTm4Bi3
_chemical_formula_sum   'Dy4 Tm16 Bi12'
_cell_volume   924.60144942
_cell_formula_units_Z   4
loop_
 _symmetry_equiv_pos_site_id
 _symmetry_equiv_pos_as_xyz
  1  'x, y, z'
loop_
 _atom_site_type_symbol
 _atom_site_label
 _atom_site_symmetry_multiplicity
 _atom_site_fract_x
 _atom_site_fract_y
 _atom_site_fract_z
 _atom_site_occupancy
  Dy  Dy0  1  0.312029  0.250000  0.218611  1
  Dy  Dy1  1  0.812029  0.250000  0.281389  1
  Dy  Dy2  1  0.687971  0.750000  0.781389  1
  Dy  Dy3  1  0.187971  0.750000  0.718611  1
  Tm  Tm4  1  0.352511  0.750000  0.216922  1
  Tm  Tm5  1  0.852511  0.750000  0.283078  1
  Tm  Tm6  1  0.647489  0.250000  0.783078  1
  Tm  Tm7  1  0.147489  0.250000  0.716922  1
  Tm  Tm8  1  0.693222  0.565969  0.059271  1
  Tm  Tm9  1  0.193222  0.934031  0.440729  1
  Tm  Tm10  1  0.306778  0.065969  0.940729  1
  Tm  Tm11  1  0.806778  0.434031  0.559271  1
  Tm  Tm12  1  0.306778  0.434031  0.940729  1
  Tm  Tm13  1  0.806778  0.065969  0.559271  1
  Tm  Tm14  1  0.693222  0.934031  0.059271  1
  Tm  Tm15  1  0.193222  0.565969  0.440729  1
  Tm  Tm16  1  0.476152  0.250000  0.489251  1
  Tm  Tm17  1  0.976152  0.250000  0.010749  1
  Tm  Tm18  1  0.523848  0.750000  0.510749  1
  Tm  Tm19  1  0.023848  0.750000  0.989251  1
  Bi  Bi20  1  0.405493  0.750000  0.958239  1
  Bi  Bi21  1  0.905493  0.750000  0.541761  1
  Bi  Bi22  1  0.594507  0.250000  0.041761  1
  Bi  Bi23  1  0.094507  0.250000  0.458239  1
  Bi  Bi24  1  0.564988  0.994483  0.325724  1
  Bi  Bi25  1  0.064988  0.505517  0.174276  1
  Bi  Bi26  1  0.435012  0.494483  0.674276  1
  Bi  Bi27  1  0.935012  0.005517  0.825724  1
  Bi  Bi28  1  0.435012  0.005517  0.674276  1
  Bi  Bi29  1  0.935012  0.494483  0.825724  1
  Bi  Bi30  1  0.564988  0.505517  0.325724  1
  Bi  Bi31  1  0.064988  0.994483  0.174276  1
