# generated using pymatgen
data_Cs8CeBi4
_symmetry_space_group_name_H-M   'P 1'
_cell_length_a   12.85453537
_cell_length_b   12.85453599
_cell_length_c   12.85453600
_cell_angle_alpha   59.99999997
_cell_angle_beta   59.99999837
_cell_angle_gamma   60.00000348
_symmetry_Int_Tables_number   1
_chemical_formula_structural   Cs8CeBi4
_chemical_formula_sum   'Cs16 Ce2 Bi8'
_cell_volume   1501.94559333
_cell_formula_units_Z   2
loop_
 _symmetry_equiv_pos_site_id
 _symmetry_equiv_pos_as_xyz
  1  'x, y, z'
loop_
 _atom_site_type_symbol
 _atom_site_label
 _atom_site_symmetry_multiplicity
 _atom_site_fract_x
 _atom_site_fract_y
 _atom_site_fract_z
 _atom_site_occupancy
  Cs  Cs0  1  0.625000  0.125000  0.625000  1
  Cs  Cs1  1  0.625000  0.625000  0.125000  1
  Cs  Cs2  1  0.125000  0.625000  0.625000  1
  Cs  Cs3  1  0.625000  0.625000  0.625000  1
  Cs  Cs4  1  0.029440  0.029440  0.470560  1
  Cs  Cs5  1  0.779440  0.220560  0.220560  1
  Cs  Cs6  1  0.220560  0.779440  0.779440  1
  Cs  Cs7  1  0.779440  0.779440  0.220560  1
  Cs  Cs8  1  0.779440  0.220560  0.779440  1
  Cs  Cs9  1  0.220560  0.779440  0.220560  1
  Cs  Cs10  1  0.470560  0.029440  0.470560  1
  Cs  Cs11  1  0.470560  0.029440  0.029440  1
  Cs  Cs12  1  0.029440  0.470560  0.470560  1
  Cs  Cs13  1  0.029440  0.470560  0.029440  1
  Cs  Cs14  1  0.220560  0.220560  0.779440  1
  Cs  Cs15  1  0.470560  0.470560  0.029440  1
  Ce  Ce16  1  0.750000  0.750000  0.750000  1
  Ce  Ce17  1  0.500000  0.500000  0.500000  1
  Bi  Bi18  1  0.399560  0.801320  0.399560  1
  Bi  Bi19  1  0.850440  0.850440  0.448680  1
  Bi  Bi20  1  0.448680  0.850440  0.850440  1
  Bi  Bi21  1  0.850440  0.850440  0.850440  1
  Bi  Bi22  1  0.801320  0.399560  0.399560  1
  Bi  Bi23  1  0.399560  0.399560  0.399560  1
  Bi  Bi24  1  0.399560  0.399560  0.801320  1
  Bi  Bi25  1  0.850440  0.448680  0.850440  1
