# generated using pymatgen
data_Ho13Er7(Bi3Sb)3
_symmetry_space_group_name_H-M   'P 1'
_cell_length_a   8.16011051
_cell_length_b   9.42952301
_cell_length_c   11.94962051
_cell_angle_alpha   89.99544784
_cell_angle_beta   90.03667515
_cell_angle_gamma   90.00459461
_symmetry_Int_Tables_number   1
_chemical_formula_structural   Ho13Er7(Bi3Sb)3
_chemical_formula_sum   'Ho13 Er7 Bi9 Sb3'
_cell_volume   919.47470633
_cell_formula_units_Z   1
loop_
 _symmetry_equiv_pos_site_id
 _symmetry_equiv_pos_as_xyz
  1  'x, y, z'
loop_
 _atom_site_type_symbol
 _atom_site_label
 _atom_site_symmetry_multiplicity
 _atom_site_fract_x
 _atom_site_fract_y
 _atom_site_fract_z
 _atom_site_occupancy
  Ho  Ho0  1  0.353981  0.750154  0.213658  1
  Ho  Ho1  1  0.853615  0.750146  0.286120  1
  Ho  Ho2  1  0.646428  0.250041  0.786280  1
  Ho  Ho3  1  0.147231  0.250089  0.716865  1
  Ho  Ho4  1  0.189308  0.566517  0.442048  1
  Ho  Ho5  1  0.476685  0.250026  0.488541  1
  Ho  Ho6  1  0.973001  0.250070  0.011546  1
  Ho  Ho7  1  0.527758  0.750077  0.511868  1
  Ho  Ho8  1  0.027121  0.750013  0.988320  1
  Ho  Ho9  1  0.318015  0.250017  0.215904  1
  Ho  Ho10  1  0.812648  0.250003  0.280064  1
  Ho  Ho11  1  0.683296  0.750005  0.782613  1
  Ho  Ho12  1  0.183421  0.750108  0.717382  1
  Er  Er13  1  0.688278  0.563473  0.057831  1
  Er  Er14  1  0.189318  0.933017  0.441976  1
  Er  Er15  1  0.311720  0.063266  0.942275  1
  Er  Er16  1  0.809194  0.438779  0.559040  1
  Er  Er17  1  0.311733  0.436704  0.942245  1
  Er  Er18  1  0.808964  0.061131  0.559116  1
  Er  Er19  1  0.688283  0.936542  0.057813  1
  Bi  Bi20  1  0.093918  0.249352  0.457139  1
  Bi  Bi21  1  0.566101  0.995814  0.325587  1
  Bi  Bi22  1  0.066203  0.503928  0.174283  1
  Bi  Bi23  1  0.433584  0.495934  0.674509  1
  Bi  Bi24  1  0.933646  0.003920  0.825738  1
  Bi  Bi25  1  0.433606  0.004153  0.674458  1
  Bi  Bi26  1  0.933584  0.496164  0.825763  1
  Bi  Bi27  1  0.566187  0.504250  0.325562  1
  Bi  Bi28  1  0.066266  0.996135  0.174315  1
  Sb  Sb29  1  0.406419  0.749976  0.958383  1
  Sb  Sb30  1  0.906492  0.750196  0.541520  1
  Sb  Sb31  1  0.593995  0.250002  0.041240  1
