# generated using pymatgen
data_La6Y3PdRh5
_symmetry_space_group_name_H-M   'P 1'
_cell_length_a   7.68966951
_cell_length_b   7.68095000
_cell_length_c   7.68594584
_cell_angle_alpha   70.75528163
_cell_angle_beta   71.05468822
_cell_angle_gamma   70.73280587
_symmetry_Int_Tables_number   1
_chemical_formula_structural   La6Y3PdRh5
_chemical_formula_sum   'La6 Y3 Pd1 Rh5'
_cell_volume   392.53778797
_cell_formula_units_Z   1
loop_
 _symmetry_equiv_pos_site_id
 _symmetry_equiv_pos_as_xyz
  1  'x, y, z'
loop_
 _atom_site_type_symbol
 _atom_site_label
 _atom_site_symmetry_multiplicity
 _atom_site_fract_x
 _atom_site_fract_y
 _atom_site_fract_z
 _atom_site_occupancy
  La  La0  1  0.164242  0.392971  0.673523  1
  La  La1  1  0.666374  0.160036  0.386621  1
  La  La2  1  0.389066  0.671595  0.161383  1
  La  La3  1  0.840214  0.613198  0.326710  1
  La  La4  1  0.332633  0.836240  0.611753  1
  La  La5  1  0.604051  0.330586  0.847690  1
  Y  Y6  1  0.000041  0.999536  0.003439  1
  Y  Y7  1  0.800555  0.798324  0.803943  1
  Y  Y8  1  0.200088  0.197624  0.192916  1
  Pd  Pd9  1  0.959695  0.156787  0.588711  1
  Rh  Rh10  1  0.594256  0.957822  0.157833  1
  Rh  Rh11  1  0.160936  0.593369  0.956173  1
  Rh  Rh12  1  0.042677  0.840783  0.407620  1
  Rh  Rh13  1  0.405917  0.045085  0.838839  1
  Rh  Rh14  1  0.839254  0.406044  0.042847  1
