# generated using pymatgen
data_RhCl30
_symmetry_space_group_name_H-M   'P 1'
_cell_length_a   13.54480684
_cell_length_b   13.54480680
_cell_length_c   15.75130811
_cell_angle_alpha   83.63746111
_cell_angle_beta   83.63746241
_cell_angle_gamma   124.54772469
_symmetry_Int_Tables_number   1
_chemical_formula_structural   RhCl30
_chemical_formula_sum   'Rh1 Cl30'
_cell_volume   2311.65800848
_cell_formula_units_Z   1
loop_
 _symmetry_equiv_pos_site_id
 _symmetry_equiv_pos_as_xyz
  1  'x, y, z'
loop_
 _atom_site_type_symbol
 _atom_site_label
 _atom_site_symmetry_multiplicity
 _atom_site_fract_x
 _atom_site_fract_y
 _atom_site_fract_z
 _atom_site_occupancy
  Rh  Rh0  1  0.000000  0.000000  0.000000  1
  Cl  Cl1  1  0.944923  0.944923  0.154635  1
  Cl  Cl2  1  0.055077  0.055077  0.845365  1
  Cl  Cl3  1  0.058217  0.194032  0.004975  1
  Cl  Cl4  1  0.941783  0.805968  0.995025  1
  Cl  Cl5  1  0.194032  0.058217  0.004975  1
  Cl  Cl6  1  0.805968  0.941783  0.995025  1
  Cl  Cl7  1  0.203483  0.741986  0.065049  1
  Cl  Cl8  1  0.796517  0.258014  0.934951  1
  Cl  Cl9  1  0.701763  0.076722  0.262127  1
  Cl  Cl10  1  0.258014  0.796517  0.934951  1
  Cl  Cl11  1  0.298237  0.923278  0.737873  1
  Cl  Cl12  1  0.741986  0.203483  0.065049  1
  Cl  Cl13  1  0.978931  0.195396  0.783401  1
  Cl  Cl14  1  0.923278  0.298237  0.737873  1
  Cl  Cl15  1  0.021069  0.804604  0.216599  1
  Cl  Cl16  1  0.076722  0.701763  0.262127  1
  Cl  Cl17  1  0.804604  0.021069  0.216599  1
  Cl  Cl18  1  0.195396  0.978931  0.783401  1
  Cl  Cl19  1  0.464462  0.547450  0.259346  1
  Cl  Cl20  1  0.535538  0.452550  0.740654  1
  Cl  Cl21  1  0.508083  0.205242  0.450521  1
  Cl  Cl22  1  0.452550  0.535538  0.740654  1
  Cl  Cl23  1  0.491917  0.794758  0.549479  1
  Cl  Cl24  1  0.547450  0.464462  0.259346  1
  Cl  Cl25  1  0.240091  0.428384  0.544656  1
  Cl  Cl26  1  0.794758  0.491917  0.549479  1
  Cl  Cl27  1  0.759909  0.571616  0.455344  1
  Cl  Cl28  1  0.205242  0.508083  0.450521  1
  Cl  Cl29  1  0.571616  0.759909  0.455344  1
  Cl  Cl30  1  0.428384  0.240091  0.544656  1
