# generated using pymatgen
data_ErTm(FeRu)2
_symmetry_space_group_name_H-M   'P 1'
_cell_length_a   5.22173639
_cell_length_b   5.22173607
_cell_length_c   5.22173613
_cell_angle_alpha   121.34142981
_cell_angle_beta   118.38520269
_cell_angle_gamma   90.25589214
_symmetry_Int_Tables_number   1
_chemical_formula_structural   ErTm(FeRu)2
_chemical_formula_sum   'Er1 Tm1 Fe2 Ru2'
_cell_volume   100.80031459
_cell_formula_units_Z   1
loop_
 _symmetry_equiv_pos_site_id
 _symmetry_equiv_pos_as_xyz
  1  'x, y, z'
loop_
 _atom_site_type_symbol
 _atom_site_label
 _atom_site_symmetry_multiplicity
 _atom_site_fract_x
 _atom_site_fract_y
 _atom_site_fract_z
 _atom_site_occupancy
  Er  Er0  1  0.624525  0.874525  0.750000  1
  Tm  Tm1  1  0.375464  0.125464  0.250000  1
  Fe  Fe2  1  0.000019  0.500003  0.999984  1
  Fe  Fe3  1  0.000019  0.000034  0.500016  1
  Ru  Ru4  1  0.499965  0.499987  0.999977  1
  Ru  Ru5  1  0.000010  0.499987  0.500023  1
