# generated using pymatgen
data_Ac2La4IrRuI6
_symmetry_space_group_name_H-M   'P 1'
_cell_length_a   4.55287200
_cell_length_b   9.84075051
_cell_length_c   12.44346900
_cell_angle_alpha   85.97226899
_cell_angle_beta   90.00000000
_cell_angle_gamma   90.00000000
_symmetry_Int_Tables_number   1
_chemical_formula_structural   Ac2La4IrRuI6
_chemical_formula_sum   'Ac2 La4 Ir1 Ru1 I6'
_cell_volume   556.13620944
_cell_formula_units_Z   1
loop_
 _symmetry_equiv_pos_site_id
 _symmetry_equiv_pos_as_xyz
  1  'x, y, z'
loop_
 _atom_site_type_symbol
 _atom_site_label
 _atom_site_symmetry_multiplicity
 _atom_site_fract_x
 _atom_site_fract_y
 _atom_site_fract_z
 _atom_site_occupancy
  Ac  Ac0  1  0.250000  0.313671  0.880603  1
  Ac  Ac1  1  0.750000  0.681369  0.121750  1
  La  La2  1  0.750000  0.114828  0.664454  1
  La  La3  1  0.250000  0.884580  0.329182  1
  La  La4  1  0.750000  0.093207  0.100967  1
  La  La5  1  0.250000  0.908008  0.898770  1
  Ir  Ir6  1  0.750000  0.109486  0.875440  1
  Ru  Ru7  1  0.250000  0.890312  0.130469  1
  I  I8  1  0.750000  0.124241  0.377013  1
  I  I9  1  0.250000  0.877801  0.622070  1
  I  I10  1  0.250000  0.354917  0.607998  1
  I  I11  1  0.750000  0.645448  0.390750  1
  I  I12  1  0.750000  0.614025  0.856834  1
  I  I13  1  0.250000  0.388106  0.143700  1
