# generated using pymatgen
data_Ho5Er3(SiO5)4
_symmetry_space_group_name_H-M   'P 1'
_cell_length_a   6.74564178
_cell_length_b   7.98758948
_cell_length_c   9.58747020
_cell_angle_alpha   90.67417169
_cell_angle_beta   110.59281155
_cell_angle_gamma   115.02800978
_symmetry_Int_Tables_number   1
_chemical_formula_structural   Ho5Er3(SiO5)4
_chemical_formula_sum   'Ho5 Er3 Si4 O20'
_cell_volume   430.24836325
_cell_formula_units_Z   1
loop_
 _symmetry_equiv_pos_site_id
 _symmetry_equiv_pos_as_xyz
  1  'x, y, z'
loop_
 _atom_site_type_symbol
 _atom_site_label
 _atom_site_symmetry_multiplicity
 _atom_site_fract_x
 _atom_site_fract_y
 _atom_site_fract_z
 _atom_site_occupancy
  Ho  Ho0  1  0.684757  0.392238  0.465427  1
  Ho  Ho1  1  0.314986  0.607075  0.534213  1
  Ho  Ho2  1  0.181177  0.946778  0.664360  1
  Ho  Ho3  1  0.070054  0.553612  0.835844  1
  Ho  Ho4  1  0.674059  0.893314  0.965873  1
  Er  Er5  1  0.327311  0.107037  0.034045  1
  Er  Er6  1  0.928703  0.445993  0.164679  1
  Er  Er7  1  0.817961  0.053800  0.335168  1
  Si  Si8  1  0.464989  0.555744  0.192350  1
  Si  Si9  1  0.216580  0.943972  0.307045  1
  Si  Si10  1  0.783229  0.055756  0.691987  1
  Si  Si11  1  0.535249  0.444441  0.808628  1
  O  O12  1  0.192472  0.462964  0.061982  1
  O  O13  1  0.716825  0.138392  0.102659  1
  O  O14  1  0.055025  0.963192  0.139495  1
  O  O15  1  0.619801  0.770352  0.175418  1
  O  O16  1  0.586772  0.416894  0.178706  1
  O  O17  1  0.491102  0.081919  0.320515  1
  O  O18  1  0.172844  0.729382  0.324319  1
  O  O19  1  0.451620  0.537545  0.359939  1
  O  O20  1  0.976418  0.361413  0.397124  1
  O  O21  1  0.168064  0.037204  0.437664  1
  O  O22  1  0.830201  0.963271  0.560112  1
  O  O23  1  0.023485  0.638063  0.602128  1
  O  O24  1  0.549863  0.462358  0.641287  1
  O  O25  1  0.825543  0.269834  0.674739  1
  O  O26  1  0.509615  0.917402  0.679575  1
  O  O27  1  0.412837  0.582888  0.821045  1
  O  O28  1  0.381094  0.230209  0.826204  1
  O  O29  1  0.947412  0.037577  0.859159  1
  O  O30  1  0.283046  0.862389  0.898198  1
  O  O31  1  0.806909  0.536993  0.940116  1
