# generated using pymatgen
data_Er5Zr(Si3Pt2)4
_symmetry_space_group_name_H-M   'P 1'
_cell_length_a   4.21602300
_cell_length_b   8.51152867
_cell_length_c   12.91291900
_cell_angle_alpha   80.41144873
_cell_angle_beta   90.00000000
_cell_angle_gamma   90.00000000
_symmetry_Int_Tables_number   1
_chemical_formula_structural   Er5Zr(Si3Pt2)4
_chemical_formula_sum   'Er5 Zr1 Si12 Pt8'
_cell_volume   456.90383430
_cell_formula_units_Z   1
loop_
 _symmetry_equiv_pos_site_id
 _symmetry_equiv_pos_as_xyz
  1  'x, y, z'
loop_
 _atom_site_type_symbol
 _atom_site_label
 _atom_site_symmetry_multiplicity
 _atom_site_fract_x
 _atom_site_fract_y
 _atom_site_fract_z
 _atom_site_occupancy
  Er  Er0  1  0.250000  0.584154  0.187969  1
  Er  Er1  1  0.750000  0.233457  0.561492  1
  Er  Er2  1  0.750000  0.414677  0.813194  1
  Er  Er3  1  0.750000  0.928728  0.813922  1
  Er  Er4  1  0.250000  0.072036  0.185953  1
  Zr  Zr5  1  0.250000  0.767219  0.434894  1
  Si  Si6  1  0.750000  0.591387  0.567952  1
  Si  Si7  1  0.750000  0.123924  0.006162  1
  Si  Si8  1  0.750000  0.872634  0.569675  1
  Si  Si9  1  0.250000  0.696041  0.715304  1
  Si  Si10  1  0.750000  0.303565  0.285955  1
  Si  Si11  1  0.750000  0.803432  0.279571  1
  Si  Si12  1  0.250000  0.875469  0.995753  1
  Si  Si13  1  0.250000  0.196273  0.721971  1
  Si  Si14  1  0.250000  0.378535  0.000973  1
  Si  Si15  1  0.250000  0.124316  0.427789  1
  Si  Si16  1  0.750000  0.621647  0.000435  1
  Si  Si17  1  0.250000  0.412551  0.430076  1
  Pt  Pt18  1  0.750000  0.351360  0.098767  1
  Pt  Pt19  1  0.250000  0.969337  0.622442  1
  Pt  Pt20  1  0.750000  0.848288  0.091333  1
  Pt  Pt21  1  0.750000  0.027852  0.376990  1
  Pt  Pt22  1  0.250000  0.648984  0.901747  1
  Pt  Pt23  1  0.250000  0.151512  0.909917  1
  Pt  Pt24  1  0.750000  0.532536  0.377808  1
  Pt  Pt25  1  0.250000  0.470089  0.621952  1
