# generated using pymatgen
data_Nd3Pt4AuO14
_symmetry_space_group_name_H-M   'P 1'
_cell_length_a   7.30072797
_cell_length_b   7.30072794
_cell_length_c   7.30072750
_cell_angle_alpha   61.60938979
_cell_angle_beta   61.60939196
_cell_angle_gamma   61.60939072
_symmetry_Int_Tables_number   1
_chemical_formula_structural   Nd3Pt4AuO14
_chemical_formula_sum   'Nd3 Pt4 Au1 O14'
_cell_volume   285.09177541
_cell_formula_units_Z   1
loop_
 _symmetry_equiv_pos_site_id
 _symmetry_equiv_pos_as_xyz
  1  'x, y, z'
loop_
 _atom_site_type_symbol
 _atom_site_label
 _atom_site_symmetry_multiplicity
 _atom_site_fract_x
 _atom_site_fract_y
 _atom_site_fract_z
 _atom_site_occupancy
  Nd  Nd0  1  0.625000  0.625000  0.125000  1
  Nd  Nd1  1  0.625000  0.125000  0.625000  1
  Nd  Nd2  1  0.125000  0.625000  0.625000  1
  Pt  Pt3  1  0.125000  0.125000  0.625000  1
  Pt  Pt4  1  0.125000  0.625000  0.125000  1
  Pt  Pt5  1  0.625000  0.125000  0.125000  1
  Pt  Pt6  1  0.125000  0.125000  0.125000  1
  Au  Au7  1  0.625000  0.625000  0.625000  1
  O  O8  1  0.509620  0.509620  0.509620  1
  O  O9  1  0.740380  0.740380  0.740380  1
  O  O10  1  0.452526  0.054117  0.452526  1
  O  O11  1  0.214188  0.788938  0.214188  1
  O  O12  1  0.452526  0.452526  0.054117  1
  O  O13  1  0.054117  0.452526  0.452526  1
  O  O14  1  0.461062  0.035812  0.035812  1
  O  O15  1  0.035812  0.035812  0.461062  1
  O  O16  1  0.035812  0.461062  0.035812  1
  O  O17  1  0.788938  0.214188  0.214188  1
  O  O18  1  0.195883  0.797474  0.797474  1
  O  O19  1  0.797474  0.195883  0.797474  1
  O  O20  1  0.214188  0.214188  0.788938  1
  O  O21  1  0.797474  0.797474  0.195883  1
