# generated using pymatgen
data_La3Y2Zr3(P3Pd4)4
_symmetry_space_group_name_H-M   'P 1'
_cell_length_a   13.24472900
_cell_length_b   13.24472813
_cell_length_c   4.02546800
_cell_angle_alpha   90.00000000
_cell_angle_beta   90.00000000
_cell_angle_gamma   119.97335909
_symmetry_Int_Tables_number   1
_chemical_formula_structural   La3Y2Zr3(P3Pd4)4
_chemical_formula_sum   'La3 Y2 Zr3 P12 Pd16'
_cell_volume   611.71574580
_cell_formula_units_Z   1
loop_
 _symmetry_equiv_pos_site_id
 _symmetry_equiv_pos_as_xyz
  1  'x, y, z'
loop_
 _atom_site_type_symbol
 _atom_site_label
 _atom_site_symmetry_multiplicity
 _atom_site_fract_x
 _atom_site_fract_y
 _atom_site_fract_z
 _atom_site_occupancy
  La  La0  1  0.186393  0.186393  0.500000  1
  La  La1  1  0.333563  0.666889  0.000000  1
  La  La2  1  0.666889  0.333563  0.000000  1
  Y  Y3  1  0.811145  0.000746  0.500000  1
  Y  Y4  1  0.000746  0.811145  0.500000  1
  Zr  Zr5  1  0.557362  0.557362  0.000000  1
  Zr  Zr6  1  0.444749  0.998827  0.000000  1
  Zr  Zr7  1  0.998827  0.444749  0.000000  1
  P  P8  1  0.825612  0.825612  0.000000  1
  P  P9  1  0.170973  0.995331  0.000000  1
  P  P10  1  0.995331  0.170973  0.000000  1
  P  P11  1  0.161862  0.477540  0.500000  1
  P  P12  1  0.522402  0.684243  0.500000  1
  P  P13  1  0.317011  0.837296  0.500000  1
  P  P14  1  0.684243  0.522402  0.500000  1
  P  P15  1  0.837296  0.317011  0.500000  1
  P  P16  1  0.477540  0.161862  0.500000  1
  P  P17  1  0.363027  0.363027  0.000000  1
  P  P18  1  0.641026  0.999249  0.000000  1
  P  P19  1  0.999249  0.641026  0.000000  1
  Pd  Pd20  1  0.726960  0.726960  0.500000  1
  Pd  Pd21  1  0.275108  0.998166  0.500000  1
  Pd  Pd22  1  0.998166  0.275108  0.500000  1
  Pd  Pd23  1  0.183538  0.375405  0.000000  1
  Pd  Pd24  1  0.631216  0.813032  0.000000  1
  Pd  Pd25  1  0.186879  0.815708  0.000000  1
  Pd  Pd26  1  0.813032  0.631216  0.000000  1
  Pd  Pd27  1  0.815708  0.186879  0.000000  1
  Pd  Pd28  1  0.375405  0.183538  0.000000  1
  Pd  Pd29  1  0.358102  0.487135  0.500000  1
  Pd  Pd30  1  0.514045  0.870782  0.500000  1
  Pd  Pd31  1  0.129564  0.642362  0.500000  1
  Pd  Pd32  1  0.870782  0.514045  0.500000  1
  Pd  Pd33  1  0.642362  0.129564  0.500000  1
  Pd  Pd34  1  0.487135  0.358102  0.500000  1
  Pd  Pd35  1  0.996754  0.996754  0.000000  1
