# generated using pymatgen
data_Tb3Dy5Nb12Si15Ge
_symmetry_space_group_name_H-M   'P 1'
_cell_length_a   6.89190203
_cell_length_b   7.08699379
_cell_length_c   13.46504531
_cell_angle_alpha   90.03568731
_cell_angle_beta   89.92490725
_cell_angle_gamma   90.01630658
_symmetry_Int_Tables_number   1
_chemical_formula_structural   Tb3Dy5Nb12Si15Ge
_chemical_formula_sum   'Tb3 Dy5 Nb12 Si15 Ge1'
_cell_volume   657.67069688
_cell_formula_units_Z   1
loop_
 _symmetry_equiv_pos_site_id
 _symmetry_equiv_pos_as_xyz
  1  'x, y, z'
loop_
 _atom_site_type_symbol
 _atom_site_label
 _atom_site_symmetry_multiplicity
 _atom_site_fract_x
 _atom_site_fract_y
 _atom_site_fract_z
 _atom_site_occupancy
  Tb  Tb0  1  0.502938  0.328831  0.095667  1
  Tb  Tb1  1  0.001943  0.170844  0.403946  1
  Tb  Tb2  1  0.500034  0.673096  0.596426  1
  Dy  Dy3  1  0.997065  0.828481  0.904643  1
  Dy  Dy4  1  0.496984  0.671305  0.904460  1
  Dy  Dy5  1  0.996978  0.829339  0.595998  1
  Dy  Dy6  1  0.503353  0.327385  0.403309  1
  Dy  Dy7  1  0.002808  0.171629  0.095555  1
  Nb  Nb8  1  0.664696  0.008685  0.750215  1
  Nb  Nb9  1  0.164456  0.490474  0.751959  1
  Nb  Nb10  1  0.335099  0.991296  0.249741  1
  Nb  Nb11  1  0.835411  0.509061  0.249857  1
  Nb  Nb12  1  0.836441  0.324327  0.626014  1
  Nb  Nb13  1  0.338107  0.174970  0.874638  1
  Nb  Nb14  1  0.161678  0.675358  0.125387  1
  Nb  Nb15  1  0.661385  0.825236  0.373958  1
  Nb  Nb16  1  0.160143  0.677634  0.372857  1
  Nb  Nb17  1  0.661000  0.824674  0.125340  1
  Nb  Nb18  1  0.838234  0.324641  0.874663  1
  Nb  Nb19  1  0.340779  0.171507  0.626833  1
  Si  Si20  1  0.797428  0.625495  0.750306  1
  Si  Si21  1  0.296050  0.873533  0.750688  1
  Si  Si22  1  0.203089  0.374727  0.249717  1
  Si  Si23  1  0.703250  0.125342  0.249573  1
  Si  Si24  1  0.542955  0.376191  0.750475  1
  Si  Si25  1  0.043025  0.124018  0.750080  1
  Si  Si26  1  0.456569  0.624055  0.249930  1
  Si  Si27  1  0.955996  0.876466  0.249006  1
  Si  Si28  1  0.663642  0.037918  0.540122  1
  Si  Si29  1  0.162846  0.462723  0.959532  1
  Si  Si30  1  0.336542  0.962532  0.040507  1
  Si  Si31  1  0.833005  0.538410  0.458635  1
  Si  Si32  1  0.336602  0.962203  0.459532  1
  Si  Si33  1  0.837367  0.537606  0.040668  1
  Si  Si34  1  0.663170  0.037127  0.959459  1
  Ge  Ge35  1  0.168931  0.462881  0.540304  1
