# generated using pymatgen
data_Er3In3Hg2Ir
_symmetry_space_group_name_H-M   'P 1'
_cell_length_a   7.93539700
_cell_length_b   7.93539691
_cell_length_c   3.88476500
_cell_angle_alpha   90.00000000
_cell_angle_beta   90.00000000
_cell_angle_gamma   120.00000454
_symmetry_Int_Tables_number   1
_chemical_formula_structural   Er3In3Hg2Ir
_chemical_formula_sum   'Er3 In3 Hg2 Ir1'
_cell_volume   211.85205309
_cell_formula_units_Z   1
loop_
 _symmetry_equiv_pos_site_id
 _symmetry_equiv_pos_as_xyz
  1  'x, y, z'
loop_
 _atom_site_type_symbol
 _atom_site_label
 _atom_site_symmetry_multiplicity
 _atom_site_fract_x
 _atom_site_fract_y
 _atom_site_fract_z
 _atom_site_occupancy
  Er  Er0  1  0.580850  0.615004  0.000000  1
  Er  Er1  1  0.384996  0.965845  0.000000  1
  Er  Er2  1  0.034155  0.419150  0.000000  1
  In  In3  1  0.002282  0.727169  0.500000  1
  In  In4  1  0.272831  0.275114  0.500000  1
  In  In5  1  0.724886  0.997718  0.500000  1
  Hg  Hg6  1  0.000000  0.000000  0.000000  1
  Hg  Hg7  1  0.666667  0.333333  0.500000  1
  Ir  Ir8  1  0.333333  0.666667  0.500000  1
