# generated using pymatgen
data_Er2PdPtO7
_symmetry_space_group_name_H-M   'P 1'
_cell_length_a   7.22115250
_cell_length_b   7.22319479
_cell_length_c   7.22115251
_cell_angle_alpha   59.99064458
_cell_angle_beta   59.95734325
_cell_angle_gamma   59.99064023
_symmetry_Int_Tables_number   1
_chemical_formula_structural   Er2PdPtO7
_chemical_formula_sum   'Er4 Pd2 Pt2 O14'
_cell_volume   266.21085421
_cell_formula_units_Z   2
loop_
 _symmetry_equiv_pos_site_id
 _symmetry_equiv_pos_as_xyz
  1  'x, y, z'
loop_
 _atom_site_type_symbol
 _atom_site_label
 _atom_site_symmetry_multiplicity
 _atom_site_fract_x
 _atom_site_fract_y
 _atom_site_fract_z
 _atom_site_occupancy
  Er  Er0  1  0.625000  0.625000  0.125000  1
  Er  Er1  1  0.625000  0.625000  0.625000  1
  Er  Er2  1  0.625000  0.125000  0.625000  1
  Er  Er3  1  0.125000  0.625000  0.625000  1
  Pd  Pd4  1  0.125000  0.125000  0.125000  1
  Pd  Pd5  1  0.125000  0.625000  0.125000  1
  Pt  Pt6  1  0.625000  0.125000  0.125000  1
  Pt  Pt7  1  0.125000  0.125000  0.625000  1
  O  O8  1  0.032743  0.465955  0.468384  1
  O  O9  1  0.781616  0.784045  0.217257  1
  O  O10  1  0.781616  0.217082  0.217257  1
  O  O11  1  0.749913  0.750087  0.749913  1
  O  O12  1  0.033127  0.466873  0.033127  1
  O  O13  1  0.467713  0.032287  0.467713  1
  O  O14  1  0.032743  0.032918  0.468384  1
  O  O15  1  0.500087  0.499913  0.500087  1
  O  O16  1  0.217257  0.217082  0.781616  1
  O  O17  1  0.216873  0.783127  0.216873  1
  O  O18  1  0.782287  0.217713  0.782287  1
  O  O19  1  0.468384  0.032918  0.032743  1
  O  O20  1  0.468384  0.465955  0.032743  1
  O  O21  1  0.217257  0.784045  0.781616  1
