# generated using pymatgen
data_Tb3InSiAg3Ge
_symmetry_space_group_name_H-M   'P 1'
_cell_length_a   7.27607300
_cell_length_b   7.27607320
_cell_length_c   4.29324600
_cell_angle_alpha   90.00000000
_cell_angle_beta   90.00000000
_cell_angle_gamma   120.00000364
_symmetry_Int_Tables_number   1
_chemical_formula_structural   Tb3InSiAg3Ge
_chemical_formula_sum   'Tb3 In1 Si1 Ag3 Ge1'
_cell_volume   196.83870400
_cell_formula_units_Z   1
loop_
 _symmetry_equiv_pos_site_id
 _symmetry_equiv_pos_as_xyz
  1  'x, y, z'
loop_
 _atom_site_type_symbol
 _atom_site_label
 _atom_site_symmetry_multiplicity
 _atom_site_fract_x
 _atom_site_fract_y
 _atom_site_fract_z
 _atom_site_occupancy
  Tb  Tb0  1  0.434813  0.433406  0.000000  1
  Tb  Tb1  1  0.566594  0.001407  0.000000  1
  Tb  Tb2  1  0.998593  0.565187  0.000000  1
  In  In3  1  0.000000  0.000000  0.000000  1
  Si  Si4  1  0.666667  0.333333  0.500000  1
  Ag  Ag5  1  0.745546  0.737704  0.500000  1
  Ag  Ag6  1  0.262296  0.007842  0.500000  1
  Ag  Ag7  1  0.992158  0.254454  0.500000  1
  Ge  Ge8  1  0.333333  0.666667  0.500000  1
