# generated using pymatgen
data_TbErAlNi9
_symmetry_space_group_name_H-M   'P 1'
_cell_length_a   4.88025309
_cell_length_b   4.88025285
_cell_length_c   7.99197200
_cell_angle_alpha   90.00000000
_cell_angle_beta   90.00000000
_cell_angle_gamma   119.50240313
_symmetry_Int_Tables_number   1
_chemical_formula_structural   TbErAlNi9
_chemical_formula_sum   'Tb1 Er1 Al1 Ni9'
_cell_volume   165.66283595
_cell_formula_units_Z   1
loop_
 _symmetry_equiv_pos_site_id
 _symmetry_equiv_pos_as_xyz
  1  'x, y, z'
loop_
 _atom_site_type_symbol
 _atom_site_label
 _atom_site_symmetry_multiplicity
 _atom_site_fract_x
 _atom_site_fract_y
 _atom_site_fract_z
 _atom_site_occupancy
  Tb  Tb0  1  0.000000  0.000000  0.233196  1
  Er  Er1  1  0.000000  0.000000  0.767200  1
  Al  Al2  1  0.500000  0.500000  0.500702  1
  Ni  Ni3  1  0.668925  0.331075  0.749751  1
  Ni  Ni4  1  0.668783  0.331217  0.250264  1
  Ni  Ni5  1  0.500000  0.500000  0.999166  1
  Ni  Ni6  1  0.331075  0.668925  0.749751  1
  Ni  Ni7  1  0.500000  0.000000  0.500704  1
  Ni  Ni8  1  0.000000  0.500000  0.999148  1
  Ni  Ni9  1  0.500000  0.000000  0.999148  1
  Ni  Ni10  1  0.331217  0.668783  0.250264  1
  Ni  Ni11  1  0.000000  0.500000  0.500704  1
