# generated using pymatgen
data_La8Pr7Th(MgIr)4
_symmetry_space_group_name_H-M   'P 1'
_cell_length_a   10.15195834
_cell_length_b   10.15195837
_cell_length_c   10.15108373
_cell_angle_alpha   59.96374404
_cell_angle_beta   59.96374617
_cell_angle_gamma   60.25711400
_symmetry_Int_Tables_number   1
_chemical_formula_structural   La8Pr7Th(MgIr)4
_chemical_formula_sum   'La8 Pr7 Th1 Mg4 Ir4'
_cell_volume   740.78933709
_cell_formula_units_Z   1
loop_
 _symmetry_equiv_pos_site_id
 _symmetry_equiv_pos_as_xyz
  1  'x, y, z'
loop_
 _atom_site_type_symbol
 _atom_site_label
 _atom_site_symmetry_multiplicity
 _atom_site_fract_x
 _atom_site_fract_y
 _atom_site_fract_z
 _atom_site_occupancy
  La  La0  1  0.346385  0.346385  0.961939  1
  La  La1  1  0.347250  0.962806  0.345499  1
  La  La2  1  0.962806  0.347250  0.345499  1
  La  La3  1  0.810309  0.187683  0.189064  1
  La  La4  1  0.188019  0.809000  0.810739  1
  La  La5  1  0.187683  0.810309  0.189064  1
  La  La6  1  0.809000  0.188019  0.810739  1
  La  La7  1  0.188778  0.188778  0.810692  1
  Pr  Pr8  1  0.807440  0.807440  0.191121  1
  Pr  Pr9  1  0.939593  0.564121  0.562855  1
  Pr  Pr10  1  0.561294  0.936589  0.936887  1
  Pr  Pr11  1  0.564121  0.939593  0.562855  1
  Pr  Pr12  1  0.936589  0.561294  0.936887  1
  Pr  Pr13  1  0.562944  0.562944  0.940735  1
  Pr  Pr14  1  0.937364  0.937364  0.560266  1
  Th  Th15  1  0.343581  0.343581  0.344365  1
  Mg  Mg16  1  0.579588  0.579588  0.577988  1
  Mg  Mg17  1  0.577972  0.577972  0.262646  1
  Mg  Mg18  1  0.577666  0.262481  0.577456  1
  Mg  Mg19  1  0.262481  0.577666  0.577456  1
  Ir  Ir20  1  0.141010  0.141010  0.141339  1
  Ir  Ir21  1  0.146426  0.146426  0.572541  1
  Ir  Ir22  1  0.149943  0.571760  0.145685  1
  Ir  Ir23  1  0.571760  0.149943  0.145685  1
