# generated using pymatgen
data_FeTc10(NiAs8)3
_symmetry_space_group_name_H-M   'P 1'
_cell_length_a   3.18192900
_cell_length_b   12.69212023
_cell_length_c   15.77147688
_cell_angle_alpha   90.12197103
_cell_angle_beta   90.00000000
_cell_angle_gamma   90.00000000
_symmetry_Int_Tables_number   1
_chemical_formula_structural   FeTc10(NiAs8)3
_chemical_formula_sum   'Fe1 Tc10 Ni3 As24'
_cell_volume   636.93636042
_cell_formula_units_Z   1
loop_
 _symmetry_equiv_pos_site_id
 _symmetry_equiv_pos_as_xyz
  1  'x, y, z'
loop_
 _atom_site_type_symbol
 _atom_site_label
 _atom_site_symmetry_multiplicity
 _atom_site_fract_x
 _atom_site_fract_y
 _atom_site_fract_z
 _atom_site_occupancy
  Fe  Fe0  1  0.000000  0.626708  0.157498  1
  Tc  Tc1  1  0.500000  0.316296  0.099336  1
  Tc  Tc2  1  0.500000  0.686392  0.899975  1
  Tc  Tc3  1  0.000000  0.184814  0.599452  1
  Tc  Tc4  1  0.000000  0.814836  0.399511  1
  Tc  Tc5  1  0.500000  0.920969  0.261699  1
  Tc  Tc6  1  0.500000  0.078620  0.737813  1
  Tc  Tc7  1  0.000000  0.579738  0.761941  1
  Tc  Tc8  1  0.000000  0.417615  0.240082  1
  Tc  Tc9  1  0.500000  0.499408  0.500734  1
  Tc  Tc10  1  0.000000  0.001103  0.000167  1
  Ni  Ni11  1  0.500000  0.126992  0.345535  1
  Ni  Ni12  1  0.500000  0.872077  0.654701  1
  Ni  Ni13  1  0.000000  0.371507  0.843420  1
  As  As14  1  0.500000  0.906084  0.098165  1
  As  As15  1  0.500000  0.094253  0.901636  1
  As  As16  1  0.000000  0.593733  0.598790  1
  As  As17  1  0.000000  0.407199  0.401724  1
  As  As18  1  0.500000  0.569112  0.261345  1
  As  As19  1  0.500000  0.432723  0.735570  1
  As  As20  1  0.000000  0.932197  0.765320  1
  As  As21  1  0.000000  0.067711  0.235469  1
  As  As22  1  0.500000  0.655242  0.407002  1
  As  As23  1  0.500000  0.342683  0.590399  1
  As  As24  1  0.000000  0.842349  0.911194  1
  As  As25  1  0.000000  0.158757  0.090476  1
  As  As26  1  0.500000  0.964512  0.422041  1
  As  As27  1  0.500000  0.034806  0.577497  1
  As  As28  1  0.000000  0.535306  0.922578  1
  As  As29  1  0.000000  0.468821  0.079622  1
  As  As30  1  0.500000  0.707057  0.062894  1
  As  As31  1  0.500000  0.293115  0.940115  1
  As  As32  1  0.000000  0.791342  0.558805  1
  As  As33  1  0.000000  0.208468  0.440116  1
  As  As34  1  0.500000  0.725898  0.745571  1
  As  As35  1  0.500000  0.272726  0.254497  1
  As  As36  1  0.000000  0.773764  0.242714  1
  As  As37  1  0.000000  0.225065  0.754593  1
