# generated using pymatgen
data_Y4TmSi3
_symmetry_space_group_name_H-M   'P 1'
_cell_length_a   8.43460900
_cell_length_b   8.43460991
_cell_length_c   6.33840000
_cell_angle_alpha   90.00000000
_cell_angle_beta   90.00000000
_cell_angle_gamma   119.99999252
_symmetry_Int_Tables_number   1
_chemical_formula_structural   Y4TmSi3
_chemical_formula_sum   'Y8 Tm2 Si6'
_cell_volume   390.51728736
_cell_formula_units_Z   2
loop_
 _symmetry_equiv_pos_site_id
 _symmetry_equiv_pos_as_xyz
  1  'x, y, z'
loop_
 _atom_site_type_symbol
 _atom_site_label
 _atom_site_symmetry_multiplicity
 _atom_site_fract_x
 _atom_site_fract_y
 _atom_site_fract_z
 _atom_site_occupancy
  Y  Y0  1  0.666667  0.333333  0.000000  1
  Y  Y1  1  0.333333  0.666667  0.000000  1
  Y  Y2  1  0.000000  0.756462  0.251101  1
  Y  Y3  1  0.243538  0.243538  0.251101  1
  Y  Y4  1  0.756462  0.000000  0.251101  1
  Y  Y5  1  0.000000  0.243538  0.748899  1
  Y  Y6  1  0.756462  0.756462  0.748899  1
  Y  Y7  1  0.243538  0.000000  0.748899  1
  Tm  Tm8  1  0.333333  0.666667  0.500000  1
  Tm  Tm9  1  0.666667  0.333333  0.500000  1
  Si  Si10  1  0.000000  0.394465  0.254850  1
  Si  Si11  1  0.605535  0.605535  0.254850  1
  Si  Si12  1  0.394465  0.000000  0.254850  1
  Si  Si13  1  0.000000  0.605535  0.745150  1
  Si  Si14  1  0.394465  0.394465  0.745150  1
  Si  Si15  1  0.605535  0.000000  0.745150  1
