# generated using pymatgen
data_Li2NdEr2Al7
_symmetry_space_group_name_H-M   'P 1'
_cell_length_a   9.30278116
_cell_length_b   9.30278100
_cell_length_c   9.30278088
_cell_angle_alpha   34.65852135
_cell_angle_beta   34.65852140
_cell_angle_gamma   34.65852211
_symmetry_Int_Tables_number   1
_chemical_formula_structural   Li2NdEr2Al7
_chemical_formula_sum   'Li2 Nd1 Er2 Al7'
_cell_volume   232.33886700
_cell_formula_units_Z   1
loop_
 _symmetry_equiv_pos_site_id
 _symmetry_equiv_pos_as_xyz
  1  'x, y, z'
loop_
 _atom_site_type_symbol
 _atom_site_label
 _atom_site_symmetry_multiplicity
 _atom_site_fract_x
 _atom_site_fract_y
 _atom_site_fract_z
 _atom_site_occupancy
  Li  Li0  1  0.335266  0.335266  0.335266  1
  Li  Li1  1  0.664734  0.664734  0.664734  1
  Nd  Nd2  1  0.000000  0.000000  0.000000  1
  Er  Er3  1  0.141412  0.141412  0.141412  1
  Er  Er4  1  0.858588  0.858588  0.858588  1
  Al  Al5  1  0.585947  0.585947  0.076868  1
  Al  Al6  1  0.414053  0.923132  0.414053  1
  Al  Al7  1  0.585947  0.076868  0.585947  1
  Al  Al8  1  0.076868  0.585947  0.585947  1
  Al  Al9  1  0.414053  0.414053  0.923132  1
  Al  Al10  1  0.500000  0.500000  0.500000  1
  Al  Al11  1  0.923132  0.414053  0.414053  1
