# generated using pymatgen
data_Ca7Pr(YIr2)2
_symmetry_space_group_name_H-M   'P 1'
_cell_length_a   6.63368715
_cell_length_b   7.47862873
_cell_length_c   8.73787838
_cell_angle_alpha   97.05844318
_cell_angle_beta   112.94437189
_cell_angle_gamma   90.26634746
_symmetry_Int_Tables_number   1
_chemical_formula_structural   Ca7Pr(YIr2)2
_chemical_formula_sum   'Ca7 Pr1 Y2 Ir4'
_cell_volume   395.51654164
_cell_formula_units_Z   1
loop_
 _symmetry_equiv_pos_site_id
 _symmetry_equiv_pos_as_xyz
  1  'x, y, z'
loop_
 _atom_site_type_symbol
 _atom_site_label
 _atom_site_symmetry_multiplicity
 _atom_site_fract_x
 _atom_site_fract_y
 _atom_site_fract_z
 _atom_site_occupancy
  Ca  Ca0  1  0.799549  0.576074  0.821564  1
  Ca  Ca1  1  0.020174  0.082818  0.818589  1
  Ca  Ca2  1  0.195585  0.418957  0.173036  1
  Ca  Ca3  1  0.636968  0.818617  0.433272  1
  Ca  Ca4  1  0.204426  0.678731  0.566256  1
  Ca  Ca5  1  0.365245  0.181615  0.568181  1
  Ca  Ca6  1  0.798124  0.319149  0.433049  1
  Pr  Pr7  1  0.976165  0.919494  0.171292  1
  Y  Y8  1  0.429593  0.747847  0.999123  1
  Y  Y9  1  0.563008  0.251341  0.000699  1
  Ir  Ir10  1  0.812574  0.582022  0.209204  1
  Ir  Ir11  1  0.610543  0.926403  0.806170  1
  Ir  Ir12  1  0.192887  0.423910  0.789281  1
  Ir  Ir13  1  0.395158  0.073022  0.210283  1
