# generated using pymatgen
data_Sm2Y4Cd23As
_symmetry_space_group_name_H-M   'P 1'
_cell_length_a   9.99575354
_cell_length_b   9.99576884
_cell_length_c   9.95010500
_cell_angle_alpha   60.15090135
_cell_angle_beta   60.15106144
_cell_angle_gamma   59.79862406
_symmetry_Int_Tables_number   1
_chemical_formula_structural   Sm2Y4Cd23As
_chemical_formula_sum   'Sm2 Y4 Cd23 As1'
_cell_volume   703.49893619
_cell_formula_units_Z   1
loop_
 _symmetry_equiv_pos_site_id
 _symmetry_equiv_pos_as_xyz
  1  'x, y, z'
loop_
 _atom_site_type_symbol
 _atom_site_label
 _atom_site_symmetry_multiplicity
 _atom_site_fract_x
 _atom_site_fract_y
 _atom_site_fract_z
 _atom_site_occupancy
  Sm  Sm0  1  0.794223  0.205777  0.794459  1
  Sm  Sm1  1  0.205775  0.794225  0.794462  1
  Y  Y2  1  0.797178  0.797177  0.202861  1
  Y  Y3  1  0.204437  0.795563  0.205084  1
  Y  Y4  1  0.795563  0.204437  0.205084  1
  Y  Y5  1  0.202823  0.202822  0.797216  1
  Cd  Cd6  1  0.837491  0.837489  0.487072  1
  Cd  Cd7  1  0.834505  0.492083  0.837491  1
  Cd  Cd8  1  0.492084  0.834505  0.837492  1
  Cd  Cd9  1  0.835711  0.835712  0.837549  1
  Cd  Cd10  1  0.164288  0.164289  0.508970  1
  Cd  Cd11  1  0.165495  0.507916  0.164079  1
  Cd  Cd12  1  0.507917  0.165495  0.164078  1
  Cd  Cd13  1  0.162511  0.162509  0.162050  1
  Cd  Cd14  1  0.621830  0.621828  0.136351  1
  Cd  Cd15  1  0.621039  0.134509  0.620996  1
  Cd  Cd16  1  0.134509  0.621039  0.620998  1
  Cd  Cd17  1  0.623532  0.623534  0.619175  1
  Cd  Cd18  1  0.376466  0.376468  0.866238  1
  Cd  Cd19  1  0.378961  0.865491  0.376543  1
  Cd  Cd20  1  0.865491  0.378961  0.376542  1
  Cd  Cd21  1  0.378172  0.378170  0.380007  1
  Cd  Cd22  1  0.000000  0.000000  0.499778  1
  Cd  Cd23  1  0.500395  0.999726  0.500277  1
  Cd  Cd24  1  0.999726  0.500395  0.500277  1
  Cd  Cd25  1  0.500000  0.500000  0.000422  1
  Cd  Cd26  1  0.000274  0.499605  0.000398  1
  Cd  Cd27  1  0.499605  0.000274  0.000398  1
  Cd  Cd28  1  0.500000  0.500000  0.501276  1
  As  As29  1  0.999998  0.000002  0.002377  1
