# generated using pymatgen
data_Pr6Er3TmSn6
_symmetry_space_group_name_H-M   'P 1'
_cell_length_a   6.69133600
_cell_length_b   9.19757506
_cell_length_c   9.19788500
_cell_angle_alpha   119.99912359
_cell_angle_beta   90.00026782
_cell_angle_gamma   89.99974759
_symmetry_Int_Tables_number   1
_chemical_formula_structural   Pr6Er3TmSn6
_chemical_formula_sum   'Pr6 Er3 Tm1 Sn6'
_cell_volume   490.23986210
_cell_formula_units_Z   1
loop_
 _symmetry_equiv_pos_site_id
 _symmetry_equiv_pos_as_xyz
  1  'x, y, z'
loop_
 _atom_site_type_symbol
 _atom_site_label
 _atom_site_symmetry_multiplicity
 _atom_site_fract_x
 _atom_site_fract_y
 _atom_site_fract_z
 _atom_site_occupancy
  Pr  Pr0  1  0.750024  0.241805  0.999979  1
  Pr  Pr1  1  0.750019  0.758102  0.758159  1
  Pr  Pr2  1  0.750024  0.999992  0.241865  1
  Pr  Pr3  1  0.249976  0.758178  0.999977  1
  Pr  Pr4  1  0.249978  0.241872  0.241861  1
  Pr  Pr5  1  0.249978  0.000057  0.758162  1
  Er  Er6  1  0.500003  0.333330  0.666699  1
  Er  Er7  1  0.499990  0.666645  0.333303  1
  Er  Er8  1  0.000003  0.666658  0.333294  1
  Tm  Tm9  1  0.999999  0.333354  0.666697  1
  Sn  Sn10  1  0.750059  0.600394  0.999916  1
  Sn  Sn11  1  0.750059  0.399474  0.399553  1
  Sn  Sn12  1  0.750060  0.000090  0.600534  1
  Sn  Sn13  1  0.249941  0.399522  0.999914  1
  Sn  Sn14  1  0.249943  0.600444  0.600533  1
  Sn  Sn15  1  0.249942  0.000081  0.399552  1
