# generated using pymatgen
data_Pr4Lu6ZnSi7
_symmetry_space_group_name_H-M   'P 1'
_cell_length_a   7.45308284
_cell_length_b   7.72155516
_cell_length_c   14.73121200
_cell_angle_alpha   90.00000000
_cell_angle_beta   90.00000000
_cell_angle_gamma   90.33021127
_symmetry_Int_Tables_number   1
_chemical_formula_structural   Pr4Lu6ZnSi7
_chemical_formula_sum   'Pr8 Lu12 Zn2 Si14'
_cell_volume   847.75818978
_cell_formula_units_Z   2
loop_
 _symmetry_equiv_pos_site_id
 _symmetry_equiv_pos_as_xyz
  1  'x, y, z'
loop_
 _atom_site_type_symbol
 _atom_site_label
 _atom_site_symmetry_multiplicity
 _atom_site_fract_x
 _atom_site_fract_y
 _atom_site_fract_z
 _atom_site_occupancy
  Pr  Pr0  1  0.015219  0.174466  0.401185  1
  Pr  Pr1  1  0.517325  0.324386  0.399928  1
  Pr  Pr2  1  0.482675  0.675614  0.899928  1
  Pr  Pr3  1  0.485964  0.677750  0.599316  1
  Pr  Pr4  1  0.983668  0.827494  0.598911  1
  Pr  Pr5  1  0.984781  0.825534  0.901185  1
  Pr  Pr6  1  0.514036  0.322250  0.099316  1
  Pr  Pr7  1  0.016332  0.172506  0.098911  1
  Lu  Lu8  1  0.328766  0.176745  0.624408  1
  Lu  Lu9  1  0.671692  0.822980  0.376278  1
  Lu  Lu10  1  0.660855  0.995350  0.749600  1
  Lu  Lu11  1  0.174738  0.676033  0.376035  1
  Lu  Lu12  1  0.825262  0.323967  0.876035  1
  Lu  Lu13  1  0.826410  0.325503  0.623441  1
  Lu  Lu14  1  0.839497  0.494728  0.251846  1
  Lu  Lu15  1  0.339145  0.004650  0.249600  1
  Lu  Lu16  1  0.328308  0.177020  0.876278  1
  Lu  Lu17  1  0.173590  0.674497  0.123441  1
  Lu  Lu18  1  0.671234  0.823255  0.124408  1
  Lu  Lu19  1  0.160503  0.505272  0.751846  1
  Zn  Zn20  1  0.152647  0.463737  0.539132  1
  Zn  Zn21  1  0.847353  0.536263  0.039132  1
  Si  Si22  1  0.281534  0.879990  0.749538  1
  Si  Si23  1  0.466350  0.617249  0.249484  1
  Si  Si24  1  0.031891  0.119433  0.751434  1
  Si  Si25  1  0.533650  0.382751  0.749484  1
  Si  Si26  1  0.968109  0.880567  0.251434  1
  Si  Si27  1  0.718466  0.120010  0.249538  1
  Si  Si28  1  0.350285  0.964708  0.037982  1
  Si  Si29  1  0.151651  0.464022  0.959974  1
  Si  Si30  1  0.649715  0.035292  0.537982  1
  Si  Si31  1  0.349182  0.965563  0.460916  1
  Si  Si32  1  0.848349  0.535978  0.459974  1
  Si  Si33  1  0.783451  0.622265  0.750594  1
  Si  Si34  1  0.216549  0.377735  0.250594  1
  Si  Si35  1  0.650818  0.034437  0.960916  1
