# generated using pymatgen
data_Tb4ReSi8Tc5
_symmetry_space_group_name_H-M   'P 1'
_cell_length_a   6.80728300
_cell_length_b   6.80739780
_cell_length_c   12.75419697
_cell_angle_alpha   89.90962931
_cell_angle_beta   90.00000000
_cell_angle_gamma   90.00000000
_symmetry_Int_Tables_number   1
_chemical_formula_structural   Tb4ReSi8Tc5
_chemical_formula_sum   'Tb8 Re2 Si16 Tc10'
_cell_volume   591.02726431
_cell_formula_units_Z   2
loop_
 _symmetry_equiv_pos_site_id
 _symmetry_equiv_pos_as_xyz
  1  'x, y, z'
loop_
 _atom_site_type_symbol
 _atom_site_label
 _atom_site_symmetry_multiplicity
 _atom_site_fract_x
 _atom_site_fract_y
 _atom_site_fract_z
 _atom_site_occupancy
  Tb  Tb0  1  0.004284  0.662292  0.030914  1
  Tb  Tb1  1  0.995066  0.337979  0.531238  1
  Tb  Tb2  1  0.337771  0.995546  0.468859  1
  Tb  Tb3  1  0.162119  0.495242  0.781002  1
  Tb  Tb4  1  0.837771  0.504454  0.281141  1
  Tb  Tb5  1  0.495066  0.162021  0.218762  1
  Tb  Tb6  1  0.504284  0.837708  0.719086  1
  Tb  Tb7  1  0.662119  0.004758  0.968998  1
  Re  Re8  1  0.335085  0.334730  0.999570  1
  Re  Re9  1  0.835085  0.165270  0.750430  1
  Si  Si10  1  0.020750  0.726185  0.437334  1
  Si  Si11  1  0.615167  0.306427  0.436781  1
  Si  Si12  1  0.385479  0.693660  0.936584  1
  Si  Si13  1  0.193822  0.114845  0.686388  1
  Si  Si14  1  0.306610  0.614851  0.562993  1
  Si  Si15  1  0.693822  0.385155  0.063612  1
  Si  Si16  1  0.806610  0.885149  0.187007  1
  Si  Si17  1  0.115167  0.193573  0.313219  1
  Si  Si18  1  0.979558  0.272568  0.937385  1
  Si  Si19  1  0.725768  0.020997  0.562798  1
  Si  Si20  1  0.225768  0.479003  0.187202  1
  Si  Si21  1  0.772157  0.520219  0.687509  1
  Si  Si22  1  0.479558  0.227432  0.812615  1
  Si  Si23  1  0.520750  0.773815  0.312666  1
  Si  Si24  1  0.272157  0.979781  0.062491  1
  Si  Si25  1  0.885479  0.806340  0.813416  1
  Tc  Tc26  1  0.665329  0.664979  0.500403  1
  Tc  Tc27  1  0.165329  0.835021  0.249597  1
  Tc  Tc28  1  0.018045  0.817607  0.628400  1
  Tc  Tc29  1  0.980625  0.184305  0.129615  1
  Tc  Tc30  1  0.817871  0.018472  0.371344  1
  Tc  Tc31  1  0.317871  0.481528  0.378656  1
  Tc  Tc32  1  0.684496  0.518962  0.879360  1
  Tc  Tc33  1  0.480625  0.315695  0.620385  1
  Tc  Tc34  1  0.518045  0.682393  0.121600  1
  Tc  Tc35  1  0.184496  0.981038  0.870640  1
