# generated using pymatgen
data_TbEr4AlSb2
_symmetry_space_group_name_H-M   'P 1'
_cell_length_a   8.84350375
_cell_length_b   8.83442206
_cell_length_c   6.36285800
_cell_angle_alpha   90.00000000
_cell_angle_beta   90.00000000
_cell_angle_gamma   119.96603389
_symmetry_Int_Tables_number   1
_chemical_formula_structural   TbEr4AlSb2
_chemical_formula_sum   'Tb2 Er8 Al2 Sb4'
_cell_volume   430.65938216
_cell_formula_units_Z   2
loop_
 _symmetry_equiv_pos_site_id
 _symmetry_equiv_pos_as_xyz
  1  'x, y, z'
loop_
 _atom_site_type_symbol
 _atom_site_label
 _atom_site_symmetry_multiplicity
 _atom_site_fract_x
 _atom_site_fract_y
 _atom_site_fract_z
 _atom_site_occupancy
  Tb  Tb0  1  0.008602  0.766518  0.750000  1
  Tb  Tb1  1  0.008602  0.242084  0.250000  1
  Er  Er2  1  0.755189  0.756466  0.250000  1
  Er  Er3  1  0.755189  0.998723  0.750000  1
  Er  Er4  1  0.242136  0.232601  0.750000  1
  Er  Er5  1  0.242136  0.009535  0.250000  1
  Er  Er6  1  0.335994  0.667997  0.500000  1
  Er  Er7  1  0.655580  0.327790  0.000000  1
  Er  Er8  1  0.655580  0.327790  0.500000  1
  Er  Er9  1  0.335994  0.667997  0.000000  1
  Al  Al10  1  0.398563  0.997444  0.750000  1
  Al  Al11  1  0.398563  0.401118  0.250000  1
  Sb  Sb12  1  0.998669  0.607027  0.250000  1
  Sb  Sb13  1  0.998669  0.391642  0.750000  1
  Sb  Sb14  1  0.605267  0.604826  0.750000  1
  Sb  Sb15  1  0.605267  0.000442  0.250000  1
