# generated using pymatgen
data_Ba2LaGaSe5
_symmetry_space_group_name_H-M   'P 1'
_cell_length_a   7.46794473
_cell_length_b   9.02830486
_cell_length_c   9.70662035
_cell_angle_alpha   103.78703768
_cell_angle_beta   102.72653995
_cell_angle_gamma   107.82467624
_symmetry_Int_Tables_number   1
_chemical_formula_structural   Ba2LaGaSe5
_chemical_formula_sum   'Ba4 La2 Ga2 Se10'
_cell_volume   573.84099954
_cell_formula_units_Z   2
loop_
 _symmetry_equiv_pos_site_id
 _symmetry_equiv_pos_as_xyz
  1  'x, y, z'
loop_
 _atom_site_type_symbol
 _atom_site_label
 _atom_site_symmetry_multiplicity
 _atom_site_fract_x
 _atom_site_fract_y
 _atom_site_fract_z
 _atom_site_occupancy
  Ba  Ba0  1  0.636529  0.979363  0.295829  1
  Ba  Ba1  1  0.363471  0.020637  0.704171  1
  Ba  Ba2  1  0.342665  0.509181  0.704643  1
  Ba  Ba3  1  0.657335  0.490819  0.295357  1
  La  La4  1  0.997523  0.733162  0.997724  1
  La  La5  1  0.002477  0.266838  0.002276  1
  Ga  Ga6  1  0.806608  0.871953  0.686101  1
  Ga  Ga7  1  0.193392  0.128047  0.313899  1
  Se  Se8  1  0.988351  0.687452  0.676604  1
  Se  Se9  1  0.011649  0.312548  0.323396  1
  Se  Se10  1  0.984492  0.146316  0.681215  1
  Se  Se11  1  0.015508  0.853684  0.318785  1
  Se  Se12  1  0.701729  0.903847  0.917823  1
  Se  Se13  1  0.298271  0.096153  0.082177  1
  Se  Se14  1  0.694838  0.406685  0.943796  1
  Se  Se15  1  0.305162  0.593315  0.056204  1
  Se  Se16  1  0.492432  0.742271  0.493906  1
  Se  Se17  1  0.507568  0.257729  0.506094  1
