# generated using pymatgen
data_Y12ZnInGa4
_symmetry_space_group_name_H-M   'P 1'
_cell_length_a   8.66203480
_cell_length_b   8.66203444
_cell_length_c   8.66203500
_cell_angle_alpha   112.15784916
_cell_angle_beta   112.16514042
_cell_angle_gamma   104.21510853
_symmetry_Int_Tables_number   1
_chemical_formula_structural   Y12ZnInGa4
_chemical_formula_sum   'Y12 Zn1 In1 Ga4'
_cell_volume   497.18952003
_cell_formula_units_Z   1
loop_
 _symmetry_equiv_pos_site_id
 _symmetry_equiv_pos_as_xyz
  1  'x, y, z'
loop_
 _atom_site_type_symbol
 _atom_site_label
 _atom_site_symmetry_multiplicity
 _atom_site_fract_x
 _atom_site_fract_y
 _atom_site_fract_z
 _atom_site_occupancy
  Y  Y0  1  0.431506  0.235597  0.195910  1
  Y  Y1  1  0.568494  0.764403  0.804090  1
  Y  Y2  1  0.039687  0.235597  0.804090  1
  Y  Y3  1  0.960313  0.764403  0.195910  1
  Y  Y4  1  0.179704  0.274442  0.454144  1
  Y  Y5  1  0.820296  0.725558  0.545856  1
  Y  Y6  1  0.179704  0.725558  0.905263  1
  Y  Y7  1  0.820296  0.274442  0.094737  1
  Y  Y8  1  0.320086  0.618914  0.298827  1
  Y  Y9  1  0.679914  0.381086  0.701173  1
  Y  Y10  1  0.320086  0.021258  0.701173  1
  Y  Y11  1  0.679914  0.978742  0.298827  1
  Zn  Zn12  1  0.000000  0.000000  0.000000  1
  In  In13  1  0.500000  0.500000  0.000000  1
  Ga  Ga14  1  0.353253  0.000000  0.353253  1
  Ga  Ga15  1  0.646747  0.000000  0.646747  1
  Ga  Ga16  1  0.120363  0.620363  0.500000  1
  Ga  Ga17  1  0.879637  0.379637  0.500000  1
