# generated using pymatgen
data_HfTi5BBr12
_symmetry_space_group_name_H-M   'P 1'
_cell_length_a   8.61668679
_cell_length_b   8.42757512
_cell_length_c   8.53177448
_cell_angle_alpha   106.68619366
_cell_angle_beta   107.02707297
_cell_angle_gamma   106.61503497
_symmetry_Int_Tables_number   1
_chemical_formula_structural   HfTi5BBr12
_chemical_formula_sum   'Hf1 Ti5 B1 Br12'
_cell_volume   519.08746231
_cell_formula_units_Z   1
loop_
 _symmetry_equiv_pos_site_id
 _symmetry_equiv_pos_as_xyz
  1  'x, y, z'
loop_
 _atom_site_type_symbol
 _atom_site_label
 _atom_site_symmetry_multiplicity
 _atom_site_fract_x
 _atom_site_fract_y
 _atom_site_fract_z
 _atom_site_occupancy
  Hf  Hf0  1  0.029610  0.294757  0.095027  1
  Ti  Ti1  1  0.972134  0.726792  0.909384  1
  Ti  Ti2  1  0.268165  0.085858  0.026112  1
  Ti  Ti3  1  0.088612  0.024474  0.271285  1
  Ti  Ti4  1  0.910583  0.971455  0.727451  1
  Ti  Ti5  1  0.732075  0.909543  0.973328  1
  B  B6  1  0.000784  0.005343  0.001919  1
  Br  Br7  1  0.920573  0.299735  0.770556  1
  Br  Br8  1  0.698694  0.217612  0.077061  1
  Br  Br9  1  0.421461  0.129549  0.352702  1
  Br  Br10  1  0.862739  0.643594  0.572995  1
  Br  Br11  1  0.213499  0.074335  0.702664  1
  Br  Br12  1  0.649102  0.571112  0.864029  1
  Br  Br13  1  0.362416  0.432826  0.137358  1
  Br  Br14  1  0.786726  0.921087  0.296667  1
  Br  Br15  1  0.140765  0.358834  0.437244  1
  Br  Br16  1  0.577307  0.865358  0.648033  1
  Br  Br17  1  0.291361  0.778830  0.922890  1
  Br  Br18  1  0.073393  0.688906  0.213296  1
