# generated using pymatgen
data_Na4TcO5
_symmetry_space_group_name_H-M   'P 1'
_cell_length_a   5.69595316
_cell_length_b   5.72501423
_cell_length_c   8.55507011
_cell_angle_alpha   109.12556718
_cell_angle_beta   101.47074069
_cell_angle_gamma   102.08294530
_symmetry_Int_Tables_number   1
_chemical_formula_structural   Na4TcO5
_chemical_formula_sum   'Na8 Tc2 O10'
_cell_volume   246.70167507
_cell_formula_units_Z   2
loop_
 _symmetry_equiv_pos_site_id
 _symmetry_equiv_pos_as_xyz
  1  'x, y, z'
loop_
 _atom_site_type_symbol
 _atom_site_label
 _atom_site_symmetry_multiplicity
 _atom_site_fract_x
 _atom_site_fract_y
 _atom_site_fract_z
 _atom_site_occupancy
  Na  Na0  1  0.205811  0.415019  0.903618  1
  Na  Na1  1  0.411327  0.800191  0.293664  1
  Na  Na2  1  0.700477  0.397266  0.399692  1
  Na  Na3  1  0.299523  0.602734  0.600308  1
  Na  Na4  1  0.794189  0.584981  0.096382  1
  Na  Na5  1  0.000000  0.000000  0.500000  1
  Na  Na6  1  0.500000  0.000000  0.000000  1
  Na  Na7  1  0.588673  0.199809  0.706336  1
  Tc  Tc8  1  0.896274  0.799207  0.794933  1
  Tc  Tc9  1  0.103726  0.200793  0.205067  1
  O  O10  1  0.604484  0.630394  0.843797  1
  O  O11  1  0.395516  0.369606  0.156203  1
  O  O12  1  0.690807  0.820641  0.598195  1
  O  O13  1  0.309193  0.179359  0.401805  1
  O  O14  1  0.806540  0.020344  0.241351  1
  O  O15  1  0.193460  0.979656  0.758649  1
  O  O16  1  0.887154  0.151026  0.963351  1
  O  O17  1  0.112846  0.848974  0.036649  1
  O  O18  1  0.055876  0.523976  0.314812  1
  O  O19  1  0.944124  0.476024  0.685188  1
