# generated using pymatgen
data_Sr4WIBrN4
_symmetry_space_group_name_H-M   'P 1'
_cell_length_a   6.12338800
_cell_length_b   8.12115308
_cell_length_c   11.06994576
_cell_angle_alpha   79.41080137
_cell_angle_beta   90.00000000
_cell_angle_gamma   90.00000000
_symmetry_Int_Tables_number   1
_chemical_formula_structural   Sr4WIBrN4
_chemical_formula_sum   'Sr8 W2 I2 Br2 N8'
_cell_volume   541.12205677
_cell_formula_units_Z   2
loop_
 _symmetry_equiv_pos_site_id
 _symmetry_equiv_pos_as_xyz
  1  'x, y, z'
loop_
 _atom_site_type_symbol
 _atom_site_label
 _atom_site_symmetry_multiplicity
 _atom_site_fract_x
 _atom_site_fract_y
 _atom_site_fract_z
 _atom_site_occupancy
  Sr  Sr0  1  0.750000  0.292959  0.311124  1
  Sr  Sr1  1  0.750000  0.998147  0.615845  1
  Sr  Sr2  1  0.750000  0.440024  0.608578  1
  Sr  Sr3  1  0.750000  0.829266  0.109610  1
  Sr  Sr4  1  0.250000  0.001853  0.384155  1
  Sr  Sr5  1  0.250000  0.559976  0.391422  1
  Sr  Sr6  1  0.250000  0.170734  0.890390  1
  Sr  Sr7  1  0.250000  0.707041  0.688876  1
  W  W8  1  0.750000  0.777184  0.398805  1
  W  W9  1  0.250000  0.222816  0.601195  1
  I  I10  1  0.250000  0.354101  0.145971  1
  I  I11  1  0.750000  0.645899  0.854029  1
  Br  Br12  1  0.250000  0.856092  0.117146  1
  Br  Br13  1  0.750000  0.143908  0.882854  1
  N  N14  1  0.250000  0.016977  0.709748  1
  N  N15  1  0.999672  0.244796  0.498287  1
  N  N16  1  0.499672  0.755204  0.501713  1
  N  N17  1  0.000328  0.755204  0.501713  1
  N  N18  1  0.750000  0.611336  0.300821  1
  N  N19  1  0.750000  0.983023  0.290252  1
  N  N20  1  0.500328  0.244796  0.498287  1
  N  N21  1  0.250000  0.388664  0.699179  1
