# generated using pymatgen
data_Ba9Sr(Si2Hg)2
_symmetry_space_group_name_H-M   'P 1'
_cell_length_a   10.66417293
_cell_length_b   10.66417279
_cell_length_c   10.66417276
_cell_angle_alpha   132.99970839
_cell_angle_beta   132.99970433
_cell_angle_gamma   68.65460299
_symmetry_Int_Tables_number   1
_chemical_formula_structural   Ba9Sr(Si2Hg)2
_chemical_formula_sum   'Ba9 Sr1 Si4 Hg2'
_cell_volume   636.99567835
_cell_formula_units_Z   1
loop_
 _symmetry_equiv_pos_site_id
 _symmetry_equiv_pos_as_xyz
  1  'x, y, z'
loop_
 _atom_site_type_symbol
 _atom_site_label
 _atom_site_symmetry_multiplicity
 _atom_site_fract_x
 _atom_site_fract_y
 _atom_site_fract_z
 _atom_site_occupancy
  Ba  Ba0  1  0.537609  0.041855  0.851502  1
  Ba  Ba1  1  0.190353  0.686106  0.148498  1
  Ba  Ba2  1  0.041855  0.190353  0.504247  1
  Ba  Ba3  1  0.686106  0.537609  0.495753  1
  Ba  Ba4  1  0.462391  0.958145  0.148498  1
  Ba  Ba5  1  0.809647  0.313894  0.851502  1
  Ba  Ba6  1  0.958145  0.809647  0.495753  1
  Ba  Ba7  1  0.313894  0.462391  0.504247  1
  Ba  Ba8  1  0.000000  0.000000  0.000000  1
  Sr  Sr9  1  0.500000  0.500000  0.000000  1
  Si  Si10  1  0.894163  0.399732  0.293894  1
  Si  Si11  1  0.105837  0.600268  0.706106  1
  Si  Si12  1  0.399732  0.105837  0.505570  1
  Si  Si13  1  0.600268  0.894163  0.494430  1
  Hg  Hg14  1  0.249494  0.249494  0.000000  1
  Hg  Hg15  1  0.750506  0.750506  0.000000  1
