# generated using pymatgen
data_MgNb2(Co10B3)2
_symmetry_space_group_name_H-M   'P 1'
_cell_length_a   7.45985217
_cell_length_b   7.45961042
_cell_length_c   7.45962301
_cell_angle_alpha   59.99636734
_cell_angle_beta   59.99736571
_cell_angle_gamma   59.99835025
_symmetry_Int_Tables_number   1
_chemical_formula_structural   MgNb2(Co10B3)2
_chemical_formula_sum   'Mg1 Nb2 Co20 B6'
_cell_volume   293.50956905
_cell_formula_units_Z   1
loop_
 _symmetry_equiv_pos_site_id
 _symmetry_equiv_pos_as_xyz
  1  'x, y, z'
loop_
 _atom_site_type_symbol
 _atom_site_label
 _atom_site_symmetry_multiplicity
 _atom_site_fract_x
 _atom_site_fract_y
 _atom_site_fract_z
 _atom_site_occupancy
  Mg  Mg0  1  0.000000  0.000000  0.000000  1
  Nb  Nb1  1  0.249996  0.249963  0.250001  1
  Nb  Nb2  1  0.750004  0.750037  0.749999  1
  Co  Co3  1  0.848258  0.383933  0.383899  1
  Co  Co4  1  0.383927  0.848279  0.383896  1
  Co  Co5  1  0.383925  0.383927  0.848286  1
  Co  Co6  1  0.383938  0.383930  0.383864  1
  Co  Co7  1  0.151742  0.616067  0.616101  1
  Co  Co8  1  0.616073  0.151721  0.616104  1
  Co  Co9  1  0.616075  0.616073  0.151714  1
  Co  Co10  1  0.616062  0.616070  0.616136  1
  Co  Co11  1  0.655719  0.000010  0.999995  1
  Co  Co12  1  0.655704  0.000015  0.344284  1
  Co  Co13  1  0.655683  0.344311  0.000005  1
  Co  Co14  1  0.000010  0.655706  0.344289  1
  Co  Co15  1  0.000008  0.655721  0.999990  1
  Co  Co16  1  0.344317  0.655689  0.999995  1
  Co  Co17  1  0.999990  0.344294  0.655711  1
  Co  Co18  1  0.344296  0.999985  0.655716  1
  Co  Co19  1  0.999998  0.999995  0.655718  1
  Co  Co20  1  0.344281  0.999990  0.000005  1
  Co  Co21  1  0.999992  0.344279  0.000010  1
  Co  Co22  1  0.000002  0.000005  0.344282  1
  B  B23  1  0.727460  0.272538  0.272544  1
  B  B24  1  0.727452  0.272535  0.727460  1
  B  B25  1  0.727457  0.727472  0.272530  1
  B  B26  1  0.272540  0.727462  0.727456  1
  B  B27  1  0.272548  0.727465  0.272540  1
  B  B28  1  0.272543  0.272528  0.727470  1
