# generated using pymatgen
data_Hf4Zr6SnSb6
_symmetry_space_group_name_H-M   'P 1'
_cell_length_a   5.87826293
_cell_length_b   8.63279519
_cell_length_c   8.61884708
_cell_angle_alpha   119.94656808
_cell_angle_beta   89.85493698
_cell_angle_gamma   90.07238597
_symmetry_Int_Tables_number   1
_chemical_formula_structural   Hf4Zr6SnSb6
_chemical_formula_sum   'Hf4 Zr6 Sn1 Sb6'
_cell_volume   378.97663893
_cell_formula_units_Z   1
loop_
 _symmetry_equiv_pos_site_id
 _symmetry_equiv_pos_as_xyz
  1  'x, y, z'
loop_
 _atom_site_type_symbol
 _atom_site_label
 _atom_site_symmetry_multiplicity
 _atom_site_fract_x
 _atom_site_fract_y
 _atom_site_fract_z
 _atom_site_occupancy
  Hf  Hf0  1  0.499838  0.334411  0.667688  1
  Hf  Hf1  1  0.499839  0.665588  0.333276  1
  Hf  Hf2  1  0.000946  0.666243  0.333276  1
  Hf  Hf3  1  0.000943  0.333757  0.667034  1
  Zr  Zr4  1  0.773634  0.268075  0.999435  1
  Zr  Zr5  1  0.773631  0.731924  0.731359  1
  Zr  Zr6  1  0.776861  0.999997  0.266369  1
  Zr  Zr7  1  0.224788  0.730831  0.999926  1
  Zr  Zr8  1  0.224797  0.269173  0.269097  1
  Zr  Zr9  1  0.224438  0.000001  0.733161  1
  Sn  Sn10  1  0.259377  0.000000  0.387422  1
  Sb  Sb11  1  0.743705  0.612417  0.000702  1
  Sb  Sb12  1  0.743712  0.387582  0.388286  1
  Sb  Sb13  1  0.744087  0.000000  0.610003  1
  Sb  Sb14  1  0.255327  0.387603  0.999884  1
  Sb  Sb15  1  0.255327  0.612400  0.612283  1
  Sb  Sb16  1  0.498752  0.000000  0.000798  1
