# generated using pymatgen
data_Pr2P7Ru11Pt
_symmetry_space_group_name_H-M   'P 1'
_cell_length_a   9.43536765
_cell_length_b   9.54407823
_cell_length_c   3.98422000
_cell_angle_alpha   90.00000000
_cell_angle_beta   90.00000000
_cell_angle_gamma   119.46769422
_symmetry_Int_Tables_number   1
_chemical_formula_structural   Pr2P7Ru11Pt
_chemical_formula_sum   'Pr2 P7 Ru11 Pt1'
_cell_volume   312.37146649
_cell_formula_units_Z   1
loop_
 _symmetry_equiv_pos_site_id
 _symmetry_equiv_pos_as_xyz
  1  'x, y, z'
loop_
 _atom_site_type_symbol
 _atom_site_label
 _atom_site_symmetry_multiplicity
 _atom_site_fract_x
 _atom_site_fract_y
 _atom_site_fract_z
 _atom_site_occupancy
  Pr  Pr0  1  0.669929  0.336089  0.500000  1
  Pr  Pr1  1  0.330099  0.660592  0.000000  1
  P  P2  1  0.601385  0.701785  0.500000  1
  P  P3  1  0.997900  0.999836  0.000000  1
  P  P4  1  0.273900  0.883382  0.500000  1
  P  P5  1  0.111644  0.397815  0.500000  1
  P  P6  1  0.892236  0.583049  0.000000  1
  P  P7  1  0.422440  0.309231  0.000000  1
  P  P8  1  0.705299  0.122702  0.000000  1
  Ru  Ru9  1  0.386936  0.434187  0.500000  1
  Ru  Ru10  1  0.908992  0.126877  0.500000  1
  Ru  Ru11  1  0.209857  0.086804  0.500000  1
  Ru  Ru12  1  0.877323  0.795198  0.500000  1
  Ru  Ru13  1  0.727021  0.893164  0.000000  1
  Ru  Ru14  1  0.111938  0.841932  0.000000  1
  Ru  Ru15  1  0.160030  0.266286  0.000000  1
  Ru  Ru16  1  0.431300  0.066307  0.000000  1
  Ru  Ru17  1  0.941103  0.365672  0.000000  1
  Ru  Ru18  1  0.640967  0.576722  0.000000  1
  Ru  Ru19  1  0.049630  0.611691  0.500000  1
  Pt  Pt20  1  0.550071  0.940681  0.500000  1
