# generated using pymatgen
data_TbCe(CoC2)2
_symmetry_space_group_name_H-M   'P 1'
_cell_length_a   3.71963047
_cell_length_b   3.70475432
_cell_length_c   7.36491256
_cell_angle_alpha   82.39376845
_cell_angle_beta   82.39150755
_cell_angle_gamma   90.08029662
_symmetry_Int_Tables_number   1
_chemical_formula_structural   TbCe(CoC2)2
_chemical_formula_sum   'Tb1 Ce1 Co2 C4'
_cell_volume   99.69365244
_cell_formula_units_Z   1
loop_
 _symmetry_equiv_pos_site_id
 _symmetry_equiv_pos_as_xyz
  1  'x, y, z'
loop_
 _atom_site_type_symbol
 _atom_site_label
 _atom_site_symmetry_multiplicity
 _atom_site_fract_x
 _atom_site_fract_y
 _atom_site_fract_z
 _atom_site_occupancy
  Tb  Tb0  1  0.067704  0.930409  0.001817  1
  Ce  Ce1  1  0.931971  0.066093  0.499282  1
  Co  Co2  1  0.371129  0.511816  0.694429  1
  Co  Co3  1  0.510782  0.374681  0.193037  1
  C  C4  1  0.444791  0.594297  0.427309  1
  C  C5  1  0.592413  0.443232  0.928765  1
  C  C6  1  0.490682  0.856836  0.271234  1
  C  C7  1  0.857528  0.489635  0.777926  1
