# generated using pymatgen
data_Nd20AlSi10Ir
_symmetry_space_group_name_H-M   'P 1'
_cell_length_a   7.78596100
_cell_length_b   7.78596100
_cell_length_c   14.52964700
_cell_angle_alpha   90.00000000
_cell_angle_beta   90.00000000
_cell_angle_gamma   90.00000000
_symmetry_Int_Tables_number   1
_chemical_formula_structural   Nd20AlSi10Ir
_chemical_formula_sum   'Nd20 Al1 Si10 Ir1'
_cell_volume   880.80447244
_cell_formula_units_Z   1
loop_
 _symmetry_equiv_pos_site_id
 _symmetry_equiv_pos_as_xyz
  1  'x, y, z'
loop_
 _atom_site_type_symbol
 _atom_site_label
 _atom_site_symmetry_multiplicity
 _atom_site_fract_x
 _atom_site_fract_y
 _atom_site_fract_z
 _atom_site_occupancy
  Nd  Nd0  1  0.833349  0.815322  0.604429  1
  Nd  Nd1  1  0.196504  0.841706  0.110920  1
  Nd  Nd2  1  0.167403  0.815664  0.395398  1
  Nd  Nd3  1  0.000000  0.500000  0.777034  1
  Nd  Nd4  1  0.832597  0.184336  0.395398  1
  Nd  Nd5  1  0.684336  0.667403  0.395398  1
  Nd  Nd6  1  0.684678  0.333349  0.604429  1
  Nd  Nd7  1  0.315322  0.666651  0.604429  1
  Nd  Nd8  1  0.000000  0.500000  0.225342  1
  Nd  Nd9  1  0.658294  0.696504  0.110920  1
  Nd  Nd10  1  0.658330  0.303542  0.889253  1
  Nd  Nd11  1  0.803542  0.841670  0.889253  1
  Nd  Nd12  1  0.315664  0.332597  0.395398  1
  Nd  Nd13  1  0.166651  0.184678  0.604429  1
  Nd  Nd14  1  0.803496  0.158294  0.110920  1
  Nd  Nd15  1  0.341670  0.696458  0.889253  1
  Nd  Nd16  1  0.341706  0.303496  0.110920  1
  Nd  Nd17  1  0.500000  0.000000  0.281007  1
  Nd  Nd18  1  0.196458  0.158330  0.889253  1
  Nd  Nd19  1  0.500000  0.000000  0.718217  1
  Al  Al20  1  0.000000  0.500000  0.000674  1
  Si  Si21  1  0.615698  0.385181  0.254376  1
  Si  Si22  1  0.115325  0.883891  0.745614  1
  Si  Si23  1  0.383891  0.384675  0.745614  1
  Si  Si24  1  0.384302  0.614819  0.254376  1
  Si  Si25  1  0.885181  0.884302  0.254376  1
  Si  Si26  1  0.616109  0.615325  0.745614  1
  Si  Si27  1  0.000000  0.500000  0.498783  1
  Si  Si28  1  0.884675  0.116109  0.745614  1
  Si  Si29  1  0.500000  0.000000  0.499276  1
  Si  Si30  1  0.114819  0.115698  0.254376  1
  Ir  Ir31  1  0.500000  0.000000  0.999701  1
