# generated using pymatgen
data_AcAl2GaCu
_symmetry_space_group_name_H-M   'P 1'
_cell_length_a   4.34677765
_cell_length_b   4.34647990
_cell_length_c   6.27141462
_cell_angle_alpha   69.72473223
_cell_angle_beta   69.72328164
_cell_angle_gamma   90.00002375
_symmetry_Int_Tables_number   1
_chemical_formula_structural   AcAl2GaCu
_chemical_formula_sum   'Ac1 Al2 Ga1 Cu1'
_cell_volume   103.28206561
_cell_formula_units_Z   1
loop_
 _symmetry_equiv_pos_site_id
 _symmetry_equiv_pos_as_xyz
  1  'x, y, z'
loop_
 _atom_site_type_symbol
 _atom_site_label
 _atom_site_symmetry_multiplicity
 _atom_site_fract_x
 _atom_site_fract_y
 _atom_site_fract_z
 _atom_site_occupancy
  Ac  Ac0  1  0.993708  0.993708  0.012584  1
  Al  Al1  1  0.743269  0.243269  0.513463  1
  Al  Al2  1  0.243275  0.743275  0.513449  1
  Ga  Ga3  1  0.393331  0.393331  0.213338  1
  Cu  Cu4  1  0.626417  0.626417  0.747165  1
