# generated using pymatgen
data_NdLu2Sc(Co4P3)2
_symmetry_space_group_name_H-M   'P 1'
_cell_length_a   3.72226100
_cell_length_b   10.66950400
_cell_length_c   12.36389200
_cell_angle_alpha   90.00000000
_cell_angle_beta   90.00000000
_cell_angle_gamma   90.00000000
_symmetry_Int_Tables_number   1
_chemical_formula_structural   NdLu2Sc(Co4P3)2
_chemical_formula_sum   'Nd2 Lu4 Sc2 Co16 P12'
_cell_volume   491.02799738
_cell_formula_units_Z   2
loop_
 _symmetry_equiv_pos_site_id
 _symmetry_equiv_pos_as_xyz
  1  'x, y, z'
loop_
 _atom_site_type_symbol
 _atom_site_label
 _atom_site_symmetry_multiplicity
 _atom_site_fract_x
 _atom_site_fract_y
 _atom_site_fract_z
 _atom_site_occupancy
  Nd  Nd0  1  0.000000  0.500000  0.527835  1
  Nd  Nd1  1  0.500000  0.000000  0.472165  1
  Lu  Lu2  1  0.500000  0.822305  0.204429  1
  Lu  Lu3  1  0.500000  0.177695  0.204429  1
  Lu  Lu4  1  0.000000  0.677695  0.795571  1
  Lu  Lu5  1  0.000000  0.322305  0.795571  1
  Sc  Sc6  1  0.500000  0.500000  0.153200  1
  Sc  Sc7  1  0.000000  0.000000  0.846800  1
  Co  Co8  1  0.500000  0.500000  0.709233  1
  Co  Co9  1  0.000000  0.000000  0.290767  1
  Co  Co10  1  0.000000  0.500000  0.986019  1
  Co  Co11  1  0.500000  0.000000  0.013981  1
  Co  Co12  1  0.500000  0.330931  0.993980  1
  Co  Co13  1  0.500000  0.669069  0.993980  1
  Co  Co14  1  0.000000  0.169069  0.006020  1
  Co  Co15  1  0.000000  0.830931  0.006020  1
  Co  Co16  1  0.500000  0.294930  0.430929  1
  Co  Co17  1  0.500000  0.705070  0.430929  1
  Co  Co18  1  0.000000  0.205070  0.569071  1
  Co  Co19  1  0.000000  0.794930  0.569071  1
  Co  Co20  1  0.500000  0.877226  0.707452  1
  Co  Co21  1  0.500000  0.122774  0.707452  1
  Co  Co22  1  0.000000  0.622774  0.292548  1
  Co  Co23  1  0.000000  0.377226  0.292548  1
  P  P24  1  0.500000  0.500000  0.885153  1
  P  P25  1  0.000000  0.000000  0.114847  1
  P  P26  1  0.500000  0.500000  0.354770  1
  P  P27  1  0.000000  0.000000  0.645230  1
  P  P28  1  0.500000  0.307163  0.618370  1
  P  P29  1  0.500000  0.692837  0.618370  1
  P  P30  1  0.000000  0.192837  0.381630  1
  P  P31  1  0.000000  0.807163  0.381630  1
  P  P32  1  0.500000  0.838306  0.892845  1
  P  P33  1  0.500000  0.161694  0.892845  1
  P  P34  1  0.000000  0.661694  0.107155  1
  P  P35  1  0.000000  0.338306  0.107155  1
