# generated using pymatgen
data_SmTm6Co2Sn23Ru4
_symmetry_space_group_name_H-M   'P 1'
_cell_length_a   9.76430750
_cell_length_b   9.77158394
_cell_length_c   10.04877727
_cell_angle_alpha   89.99999935
_cell_angle_beta   89.94047002
_cell_angle_gamma   120.02465460
_symmetry_Int_Tables_number   1
_chemical_formula_structural   SmTm6Co2Sn23Ru4
_chemical_formula_sum   'Sm1 Tm6 Co2 Sn23 Ru4'
_cell_volume   830.12215737
_cell_formula_units_Z   1
loop_
 _symmetry_equiv_pos_site_id
 _symmetry_equiv_pos_as_xyz
  1  'x, y, z'
loop_
 _atom_site_type_symbol
 _atom_site_label
 _atom_site_symmetry_multiplicity
 _atom_site_fract_x
 _atom_site_fract_y
 _atom_site_fract_z
 _atom_site_occupancy
  Sm  Sm0  1  0.000000  0.000000  0.000000  1
  Tm  Tm1  1  0.484572  0.518536  0.305754  1
  Tm  Tm2  1  0.515428  0.481464  0.694246  1
  Tm  Tm3  1  0.484572  0.966035  0.305754  1
  Tm  Tm4  1  0.515428  0.033965  0.694246  1
  Tm  Tm5  1  0.033532  0.516766  0.304018  1
  Tm  Tm6  1  0.966468  0.483234  0.695982  1
  Co  Co7  1  0.340735  0.170367  0.199362  1
  Co  Co8  1  0.659265  0.829633  0.800638  1
  Sn  Sn9  1  0.350101  0.002278  0.003422  1
  Sn  Sn10  1  0.649899  0.997722  0.996578  1
  Sn  Sn11  1  0.000000  0.350064  0.000000  1
  Sn  Sn12  1  0.000000  0.649936  0.000000  1
  Sn  Sn13  1  0.649899  0.652177  0.996578  1
  Sn  Sn14  1  0.350101  0.347823  0.003422  1
  Sn  Sn15  1  0.336695  0.668348  0.817769  1
  Sn  Sn16  1  0.663305  0.331652  0.182231  1
  Sn  Sn17  1  0.000000  0.000000  0.500000  1
  Sn  Sn18  1  0.780294  0.219925  0.461026  1
  Sn  Sn19  1  0.219706  0.780075  0.538974  1
  Sn  Sn20  1  0.780294  0.560368  0.461026  1
  Sn  Sn21  1  0.219706  0.439632  0.538974  1
  Sn  Sn22  1  0.436642  0.218320  0.454027  1
  Sn  Sn23  1  0.563358  0.781680  0.545973  1
  Sn  Sn24  1  0.333406  0.666704  0.126071  1
  Sn  Sn25  1  0.666594  0.333296  0.873929  1
  Sn  Sn26  1  0.123296  0.886902  0.273035  1
  Sn  Sn27  1  0.876704  0.113098  0.726965  1
  Sn  Sn28  1  0.123296  0.236394  0.273035  1
  Sn  Sn29  1  0.876704  0.763606  0.726965  1
  Sn  Sn30  1  0.759609  0.879805  0.275072  1
  Sn  Sn31  1  0.240391  0.120195  0.724928  1
  Ru  Ru32  1  0.829729  0.169089  0.201379  1
  Ru  Ru33  1  0.170271  0.830911  0.798621  1
  Ru  Ru34  1  0.829729  0.660640  0.201379  1
  Ru  Ru35  1  0.170271  0.339360  0.798621  1
