# generated using pymatgen
data_HfScGaFe3
_symmetry_space_group_name_H-M   'P 1'
_cell_length_a   5.01322700
_cell_length_b   5.01322680
_cell_length_c   8.07168500
_cell_angle_alpha   90.00000000
_cell_angle_beta   90.00000000
_cell_angle_gamma   119.99999469
_symmetry_Int_Tables_number   1
_chemical_formula_structural   HfScGaFe3
_chemical_formula_sum   'Hf2 Sc2 Ga2 Fe6'
_cell_volume   175.68293696
_cell_formula_units_Z   2
loop_
 _symmetry_equiv_pos_site_id
 _symmetry_equiv_pos_as_xyz
  1  'x, y, z'
loop_
 _atom_site_type_symbol
 _atom_site_label
 _atom_site_symmetry_multiplicity
 _atom_site_fract_x
 _atom_site_fract_y
 _atom_site_fract_z
 _atom_site_occupancy
  Hf  Hf0  1  0.666667  0.333333  0.930516  1
  Hf  Hf1  1  0.333333  0.666667  0.069484  1
  Sc  Sc2  1  0.333333  0.666667  0.438164  1
  Sc  Sc3  1  0.666667  0.333333  0.561836  1
  Ga  Ga4  1  0.000000  0.000000  0.500000  1
  Ga  Ga5  1  0.000000  0.000000  0.000000  1
  Fe  Fe6  1  0.826182  0.173818  0.247216  1
  Fe  Fe7  1  0.826182  0.652365  0.247216  1
  Fe  Fe8  1  0.347635  0.173818  0.247216  1
  Fe  Fe9  1  0.173818  0.826182  0.752784  1
  Fe  Fe10  1  0.173818  0.347635  0.752784  1
  Fe  Fe11  1  0.652365  0.826182  0.752784  1
