# generated using pymatgen
data_Nd2DyY(NiAs)4
_symmetry_space_group_name_H-M   'P 1'
_cell_length_a   4.08537200
_cell_length_b   4.08537156
_cell_length_c   15.93227500
_cell_angle_alpha   90.00000000
_cell_angle_beta   90.00000000
_cell_angle_gamma   119.99998740
_symmetry_Int_Tables_number   1
_chemical_formula_structural   Nd2DyY(NiAs)4
_chemical_formula_sum   'Nd2 Dy1 Y1 Ni4 As4'
_cell_volume   230.28818112
_cell_formula_units_Z   1
loop_
 _symmetry_equiv_pos_site_id
 _symmetry_equiv_pos_as_xyz
  1  'x, y, z'
loop_
 _atom_site_type_symbol
 _atom_site_label
 _atom_site_symmetry_multiplicity
 _atom_site_fract_x
 _atom_site_fract_y
 _atom_site_fract_z
 _atom_site_occupancy
  Nd  Nd0  1  0.000000  0.000000  0.999999  1
  Nd  Nd1  1  0.000000  0.000000  0.500001  1
  Dy  Dy2  1  0.000000  0.000000  0.750000  1
  Y  Y3  1  0.000000  0.000000  0.250000  1
  Ni  Ni4  1  0.333333  0.666667  0.136143  1
  Ni  Ni5  1  0.666667  0.333333  0.863224  1
  Ni  Ni6  1  0.666667  0.333333  0.636776  1
  Ni  Ni7  1  0.333333  0.666667  0.363857  1
  As  As8  1  0.333333  0.666667  0.625631  1
  As  As9  1  0.666667  0.333333  0.374756  1
  As  As10  1  0.666667  0.333333  0.125244  1
  As  As11  1  0.333333  0.666667  0.874369  1
