# generated using pymatgen
data_Tb2Lu4Co17MoP12
_symmetry_space_group_name_H-M   'P 1'
_cell_length_a   3.68505500
_cell_length_b   10.49868400
_cell_length_c   12.16682500
_cell_angle_alpha   90.00000000
_cell_angle_beta   90.00000000
_cell_angle_gamma   90.00000000
_symmetry_Int_Tables_number   1
_chemical_formula_structural   Tb2Lu4Co17MoP12
_chemical_formula_sum   'Tb2 Lu4 Co17 Mo1 P12'
_cell_volume   470.71289924
_cell_formula_units_Z   1
loop_
 _symmetry_equiv_pos_site_id
 _symmetry_equiv_pos_as_xyz
  1  'x, y, z'
loop_
 _atom_site_type_symbol
 _atom_site_label
 _atom_site_symmetry_multiplicity
 _atom_site_fract_x
 _atom_site_fract_y
 _atom_site_fract_z
 _atom_site_occupancy
  Tb  Tb0  1  0.000000  0.500000  0.525699  1
  Tb  Tb1  1  0.500000  0.000000  0.477209  1
  Lu  Lu2  1  0.500000  0.818843  0.206255  1
  Lu  Lu3  1  0.500000  0.181157  0.206255  1
  Lu  Lu4  1  0.000000  0.682422  0.796186  1
  Lu  Lu5  1  0.000000  0.317578  0.796186  1
  Co  Co6  1  0.000000  0.000000  0.840181  1
  Co  Co7  1  0.500000  0.500000  0.703079  1
  Co  Co8  1  0.000000  0.000000  0.295193  1
  Co  Co9  1  0.000000  0.500000  0.985345  1
  Co  Co10  1  0.500000  0.000000  0.014772  1
  Co  Co11  1  0.500000  0.330863  0.989568  1
  Co  Co12  1  0.500000  0.669137  0.989568  1
  Co  Co13  1  0.000000  0.165575  0.005877  1
  Co  Co14  1  0.000000  0.834425  0.005877  1
  Co  Co15  1  0.500000  0.295357  0.431380  1
  Co  Co16  1  0.500000  0.704643  0.431380  1
  Co  Co17  1  0.000000  0.202942  0.570252  1
  Co  Co18  1  0.000000  0.797058  0.570252  1
  Co  Co19  1  0.500000  0.878471  0.709777  1
  Co  Co20  1  0.500000  0.121529  0.709777  1
  Co  Co21  1  0.000000  0.623121  0.291630  1
  Co  Co22  1  0.000000  0.376879  0.291630  1
  Mo  Mo23  1  0.500000  0.500000  0.155680  1
  P  P24  1  0.500000  0.500000  0.879979  1
  P  P25  1  0.000000  0.000000  0.118075  1
  P  P26  1  0.500000  0.500000  0.349359  1
  P  P27  1  0.000000  0.000000  0.656560  1
  P  P28  1  0.500000  0.310251  0.618578  1
  P  P29  1  0.500000  0.689749  0.618578  1
  P  P30  1  0.000000  0.188628  0.383322  1
  P  P31  1  0.000000  0.811372  0.383322  1
  P  P32  1  0.500000  0.849022  0.890740  1
  P  P33  1  0.500000  0.150978  0.890740  1
  P  P34  1  0.000000  0.658242  0.105871  1
  P  P35  1  0.000000  0.341758  0.105871  1
