# generated using pymatgen
data_Mn28Co
_symmetry_space_group_name_H-M   'P 1'
_cell_length_a   7.47283214
_cell_length_b   7.47251880
_cell_length_c   7.47225103
_cell_angle_alpha   109.47791338
_cell_angle_beta   109.47145067
_cell_angle_gamma   109.45977907
_symmetry_Int_Tables_number   1
_chemical_formula_structural   Mn28Co
_chemical_formula_sum   'Mn28 Co1'
_cell_volume   321.22254221
_cell_formula_units_Z   1
loop_
 _symmetry_equiv_pos_site_id
 _symmetry_equiv_pos_as_xyz
  1  'x, y, z'
loop_
 _atom_site_type_symbol
 _atom_site_label
 _atom_site_symmetry_multiplicity
 _atom_site_fract_x
 _atom_site_fract_y
 _atom_site_fract_z
 _atom_site_occupancy
  Mn  Mn0  1  0.638853  0.000347  0.000272  1
  Mn  Mn1  1  0.000309  0.638929  0.000125  1
  Mn  Mn2  1  0.999942  0.999835  0.638621  1
  Mn  Mn3  1  0.361197  0.361255  0.361512  1
  Mn  Mn4  1  0.388746  0.676517  0.999894  1
  Mn  Mn5  1  0.712356  0.323542  0.323505  1
  Mn  Mn6  1  0.388707  0.999987  0.676463  1
  Mn  Mn7  1  0.676445  0.388694  0.999932  1
  Mn  Mn8  1  0.999922  0.388598  0.676269  1
  Mn  Mn9  1  0.323618  0.712352  0.323535  1
  Mn  Mn10  1  0.323424  0.323439  0.712228  1
  Mn  Mn11  1  0.999983  0.676367  0.388769  1
  Mn  Mn12  1  0.676401  0.999958  0.388778  1
  Mn  Mn13  1  0.611372  0.611379  0.287858  1
  Mn  Mn14  1  0.287703  0.611297  0.611259  1
  Mn  Mn15  1  0.611215  0.287683  0.611232  1
  Mn  Mn16  1  0.372786  0.194213  0.000312  1
  Mn  Mn17  1  0.178289  0.805473  0.805543  1
  Mn  Mn18  1  0.372775  0.000232  0.194158  1
  Mn  Mn19  1  0.194173  0.372820  0.000224  1
  Mn  Mn20  1  0.000222  0.372801  0.194216  1
  Mn  Mn21  1  0.805599  0.178392  0.805611  1
  Mn  Mn22  1  0.805914  0.805884  0.178535  1
  Mn  Mn23  1  0.999997  0.194178  0.372603  1
  Mn  Mn24  1  0.194077  0.999928  0.372645  1
  Mn  Mn25  1  0.627358  0.627334  0.821314  1
  Mn  Mn26  1  0.821592  0.627049  0.627323  1
  Mn  Mn27  1  0.627123  0.821588  0.627411  1
  Co  Co28  1  0.999903  0.999929  0.999851  1
