# generated using pymatgen
data_Dy2Th3(In2Ir)2
_symmetry_space_group_name_H-M   'P 1'
_cell_length_a   8.13630300
_cell_length_b   18.29444108
_cell_length_c   3.80140300
_cell_angle_alpha   90.00000000
_cell_angle_beta   90.00000000
_cell_angle_gamma   89.55246400
_symmetry_Int_Tables_number   1
_chemical_formula_structural   Dy2Th3(In2Ir)2
_chemical_formula_sum   'Dy4 Th6 In8 Ir4'
_cell_volume   565.81821445
_cell_formula_units_Z   2
loop_
 _symmetry_equiv_pos_site_id
 _symmetry_equiv_pos_as_xyz
  1  'x, y, z'
loop_
 _atom_site_type_symbol
 _atom_site_label
 _atom_site_symmetry_multiplicity
 _atom_site_fract_x
 _atom_site_fract_y
 _atom_site_fract_z
 _atom_site_occupancy
  Dy  Dy0  1  0.500000  0.500000  0.000000  1
  Dy  Dy1  1  0.000000  0.000000  0.000000  1
  Dy  Dy2  1  0.886035  0.585680  0.000000  1
  Dy  Dy3  1  0.113965  0.414320  0.000000  1
  Th  Th4  1  0.748436  0.280837  0.000000  1
  Th  Th5  1  0.251564  0.719163  0.000000  1
  Th  Th6  1  0.754327  0.774850  0.000000  1
  Th  Th7  1  0.245673  0.225150  0.000000  1
  Th  Th8  1  0.615977  0.085853  0.000000  1
  Th  Th9  1  0.384023  0.914147  0.000000  1
  In  In10  1  0.716959  0.932708  0.500000  1
  In  In11  1  0.283041  0.067292  0.500000  1
  In  In12  1  0.796802  0.437951  0.500000  1
  In  In13  1  0.203198  0.562049  0.500000  1
  In  In14  1  0.572399  0.642338  0.500000  1
  In  In15  1  0.427601  0.357662  0.500000  1
  In  In16  1  0.936558  0.146614  0.500000  1
  In  In17  1  0.063442  0.853386  0.500000  1
  Ir  Ir18  1  0.524831  0.198321  0.500000  1
  Ir  Ir19  1  0.475169  0.801679  0.500000  1
  Ir  Ir20  1  0.977072  0.697992  0.500000  1
  Ir  Ir21  1  0.022928  0.302008  0.500000  1
