# generated using pymatgen
data_Tb6Ho2In2IrRh
_symmetry_space_group_name_H-M   'P 1'
_cell_length_a   9.68842971
_cell_length_b   9.69547555
_cell_length_c   9.68057733
_cell_angle_alpha   59.95197440
_cell_angle_beta   59.87669868
_cell_angle_gamma   59.88752735
_symmetry_Int_Tables_number   1
_chemical_formula_structural   Tb6Ho2In2IrRh
_chemical_formula_sum   'Tb12 Ho4 In4 Ir2 Rh2'
_cell_volume   641.61615984
_cell_formula_units_Z   2
loop_
 _symmetry_equiv_pos_site_id
 _symmetry_equiv_pos_as_xyz
  1  'x, y, z'
loop_
 _atom_site_type_symbol
 _atom_site_label
 _atom_site_symmetry_multiplicity
 _atom_site_fract_x
 _atom_site_fract_y
 _atom_site_fract_z
 _atom_site_occupancy
  Tb  Tb0  1  0.060493  0.061199  0.439634  1
  Tb  Tb1  1  0.439876  0.437436  0.060707  1
  Tb  Tb2  1  0.651885  0.650881  0.651435  1
  Tb  Tb3  1  0.811558  0.189862  0.188964  1
  Tb  Tb4  1  0.189433  0.810683  0.810860  1
  Tb  Tb5  1  0.048792  0.649483  0.649807  1
  Tb  Tb6  1  0.439781  0.060939  0.060363  1
  Tb  Tb7  1  0.437471  0.062128  0.437555  1
  Tb  Tb8  1  0.059753  0.439267  0.059836  1
  Tb  Tb9  1  0.649808  0.649802  0.048792  1
  Tb  Tb10  1  0.189369  0.811461  0.189320  1
  Tb  Tb11  1  0.060525  0.437400  0.440038  1
  Ho  Ho12  1  0.810605  0.810450  0.189499  1
  Ho  Ho13  1  0.810459  0.190147  0.810457  1
  Ho  Ho14  1  0.189142  0.190213  0.811292  1
  Ho  Ho15  1  0.649892  0.047847  0.650370  1
  In  In16  1  0.417552  0.416262  0.417802  1
  In  In17  1  0.417939  0.416942  0.747860  1
  In  In18  1  0.417845  0.748003  0.417815  1
  In  In19  1  0.748088  0.417157  0.417947  1
  Ir  Ir20  1  0.859090  0.424694  0.857752  1
  Ir  Ir21  1  0.857318  0.859624  0.858466  1
  Rh  Rh22  1  0.858059  0.858583  0.425404  1
  Rh  Rh23  1  0.425266  0.859541  0.858023  1
