# generated using pymatgen
data_Sc6B4Ir9Os
_symmetry_space_group_name_H-M   'P 1'
_cell_length_a   3.06801800
_cell_length_b   9.63429456
_cell_length_c   9.63429456
_cell_angle_alpha   90.38211155
_cell_angle_beta   90.00000000
_cell_angle_gamma   90.00000000
_symmetry_Int_Tables_number   1
_chemical_formula_structural   Sc6B4Ir9Os
_chemical_formula_sum   'Sc6 B4 Ir9 Os1'
_cell_volume   284.76596801
_cell_formula_units_Z   1
loop_
 _symmetry_equiv_pos_site_id
 _symmetry_equiv_pos_as_xyz
  1  'x, y, z'
loop_
 _atom_site_type_symbol
 _atom_site_label
 _atom_site_symmetry_multiplicity
 _atom_site_fract_x
 _atom_site_fract_y
 _atom_site_fract_z
 _atom_site_occupancy
  Sc  Sc0  1  0.000000  0.174051  0.674051  1
  Sc  Sc1  1  0.000000  0.825949  0.325949  1
  Sc  Sc2  1  0.000000  0.322198  0.177802  1
  Sc  Sc3  1  0.000000  0.677802  0.822198  1
  Sc  Sc4  1  0.000000  0.000000  0.000000  1
  Sc  Sc5  1  0.000000  0.500000  0.500000  1
  B  B6  1  0.000000  0.623753  0.123753  1
  B  B7  1  0.000000  0.376247  0.876247  1
  B  B8  1  0.000000  0.880924  0.619076  1
  B  B9  1  0.000000  0.119076  0.380924  1
  Ir  Ir10  1  0.500000  0.071932  0.221240  1
  Ir  Ir11  1  0.500000  0.928068  0.778760  1
  Ir  Ir12  1  0.500000  0.777380  0.070519  1
  Ir  Ir13  1  0.500000  0.429481  0.722620  1
  Ir  Ir14  1  0.500000  0.222620  0.929481  1
  Ir  Ir15  1  0.500000  0.570519  0.277380  1
  Ir  Ir16  1  0.500000  0.721240  0.571932  1
  Ir  Ir17  1  0.500000  0.278760  0.428068  1
  Ir  Ir18  1  0.500000  0.500000  0.000000  1
  Os  Os19  1  0.500000  0.000000  0.500000  1
