# generated using pymatgen
data_La6ScTaSb10
_symmetry_space_group_name_H-M   'P 1'
_cell_length_a   9.59283700
_cell_length_b   9.59283542
_cell_length_c   6.40748400
_cell_angle_alpha   90.00000000
_cell_angle_beta   90.00000000
_cell_angle_gamma   120.00000200
_symmetry_Int_Tables_number   1
_chemical_formula_structural   La6ScTaSb10
_chemical_formula_sum   'La6 Sc1 Ta1 Sb10'
_cell_volume   510.63692000
_cell_formula_units_Z   1
loop_
 _symmetry_equiv_pos_site_id
 _symmetry_equiv_pos_as_xyz
  1  'x, y, z'
loop_
 _atom_site_type_symbol
 _atom_site_label
 _atom_site_symmetry_multiplicity
 _atom_site_fract_x
 _atom_site_fract_y
 _atom_site_fract_z
 _atom_site_occupancy
  La  La0  1  0.617569  0.000000  0.249841  1
  La  La1  1  0.617569  0.617569  0.750159  1
  La  La2  1  0.382431  0.000000  0.750159  1
  La  La3  1  0.382431  0.382431  0.249841  1
  La  La4  1  0.000000  0.617569  0.249841  1
  La  La5  1  0.000000  0.382431  0.750159  1
  Sc  Sc6  1  0.000000  0.000000  0.500000  1
  Ta  Ta7  1  0.000000  0.000000  0.000000  1
  Sb  Sb8  1  0.333333  0.666667  0.500000  1
  Sb  Sb9  1  0.666667  0.333333  0.000000  1
  Sb  Sb10  1  0.666667  0.333333  0.500000  1
  Sb  Sb11  1  0.333333  0.666667  0.000000  1
  Sb  Sb12  1  0.744964  0.000000  0.756166  1
  Sb  Sb13  1  0.744964  0.744964  0.243834  1
  Sb  Sb14  1  0.000000  0.255036  0.243834  1
  Sb  Sb15  1  0.000000  0.744964  0.756166  1
  Sb  Sb16  1  0.255036  0.000000  0.243834  1
  Sb  Sb17  1  0.255036  0.255036  0.756166  1
