# generated using pymatgen
data_Ho4SiPPd28
_symmetry_space_group_name_H-M   'P 1'
_cell_length_a   8.92607500
_cell_length_b   8.92607500
_cell_length_c   7.04978100
_cell_angle_alpha   90.00000000
_cell_angle_beta   90.00000000
_cell_angle_gamma   90.00000000
_symmetry_Int_Tables_number   1
_chemical_formula_structural   Ho4SiPPd28
_chemical_formula_sum   'Ho4 Si1 P1 Pd28'
_cell_volume   561.68999630
_cell_formula_units_Z   1
loop_
 _symmetry_equiv_pos_site_id
 _symmetry_equiv_pos_as_xyz
  1  'x, y, z'
loop_
 _atom_site_type_symbol
 _atom_site_label
 _atom_site_symmetry_multiplicity
 _atom_site_fract_x
 _atom_site_fract_y
 _atom_site_fract_z
 _atom_site_occupancy
  Ho  Ho0  1  0.500000  0.000000  0.934369  1
  Ho  Ho1  1  0.000000  0.500000  0.067047  1
  Ho  Ho2  1  0.000000  0.000000  0.500067  1
  Ho  Ho3  1  0.500000  0.500000  0.500067  1
  Si  Si4  1  0.000000  0.500000  0.551486  1
  P  P5  1  0.500000  0.000000  0.447378  1
  Pd  Pd6  1  0.336224  0.836224  0.615060  1
  Pd  Pd7  1  0.336224  0.163776  0.615060  1
  Pd  Pd8  1  0.663776  0.836224  0.615060  1
  Pd  Pd9  1  0.663776  0.163776  0.615060  1
  Pd  Pd10  1  0.165507  0.665507  0.383915  1
  Pd  Pd11  1  0.165507  0.334493  0.383915  1
  Pd  Pd12  1  0.834493  0.665507  0.383915  1
  Pd  Pd13  1  0.834493  0.334493  0.383915  1
  Pd  Pd14  1  0.500000  0.771111  0.257526  1
  Pd  Pd15  1  0.500000  0.228889  0.257526  1
  Pd  Pd16  1  0.271111  0.000000  0.257526  1
  Pd  Pd17  1  0.728889  0.000000  0.257526  1
  Pd  Pd18  1  0.000000  0.729935  0.743736  1
  Pd  Pd19  1  0.000000  0.270065  0.743736  1
  Pd  Pd20  1  0.229935  0.500000  0.743736  1
  Pd  Pd21  1  0.770065  0.500000  0.743736  1
  Pd  Pd22  1  0.500000  0.348673  0.852423  1
  Pd  Pd23  1  0.500000  0.651327  0.852423  1
  Pd  Pd24  1  0.848673  0.000000  0.852423  1
  Pd  Pd25  1  0.151327  0.000000  0.852423  1
  Pd  Pd26  1  0.000000  0.150703  0.147651  1
  Pd  Pd27  1  0.000000  0.849297  0.147651  1
  Pd  Pd28  1  0.650703  0.500000  0.147651  1
  Pd  Pd29  1  0.349297  0.500000  0.147651  1
  Pd  Pd30  1  0.249442  0.749442  0.999586  1
  Pd  Pd31  1  0.249442  0.250558  0.999586  1
  Pd  Pd32  1  0.750558  0.749442  0.999586  1
  Pd  Pd33  1  0.750558  0.250558  0.999586  1
