# generated using pymatgen
data_Pr2In2GaCu9
_symmetry_space_group_name_H-M   'P 1'
_cell_length_a   5.07363000
_cell_length_b   8.40651247
_cell_length_c   10.79144501
_cell_angle_alpha   89.96899038
_cell_angle_beta   90.00000000
_cell_angle_gamma   90.00000000
_symmetry_Int_Tables_number   1
_chemical_formula_structural   Pr2In2GaCu9
_chemical_formula_sum   'Pr4 In4 Ga2 Cu18'
_cell_volume   460.27161528
_cell_formula_units_Z   2
loop_
 _symmetry_equiv_pos_site_id
 _symmetry_equiv_pos_as_xyz
  1  'x, y, z'
loop_
 _atom_site_type_symbol
 _atom_site_label
 _atom_site_symmetry_multiplicity
 _atom_site_fract_x
 _atom_site_fract_y
 _atom_site_fract_z
 _atom_site_occupancy
  Pr  Pr0  1  0.250000  0.751811  0.062669  1
  Pr  Pr1  1  0.750000  0.248189  0.937331  1
  Pr  Pr2  1  0.750000  0.744062  0.554195  1
  Pr  Pr3  1  0.250000  0.255938  0.445805  1
  In  In4  1  0.250000  0.637443  0.361135  1
  In  In5  1  0.750000  0.362557  0.638865  1
  In  In6  1  0.750000  0.861629  0.866689  1
  In  In7  1  0.250000  0.138371  0.133311  1
  Ga  Ga8  1  0.250000  0.813916  0.738820  1
  Ga  Ga9  1  0.750000  0.186084  0.261180  1
  Cu  Cu10  1  0.750000  0.682330  0.243535  1
  Cu  Cu11  1  0.250000  0.317670  0.756465  1
  Cu  Cu12  1  0.503221  0.567095  0.812524  1
  Cu  Cu13  1  0.496779  0.432905  0.187476  1
  Cu  Cu14  1  0.497022  0.931621  0.312579  1
  Cu  Cu15  1  0.003221  0.432905  0.187476  1
  Cu  Cu16  1  0.502978  0.068379  0.687421  1
  Cu  Cu17  1  0.996779  0.567095  0.812524  1
  Cu  Cu18  1  0.997022  0.068379  0.687421  1
  Cu  Cu19  1  0.002978  0.931621  0.312579  1
  Cu  Cu20  1  0.250000  0.556210  0.605043  1
  Cu  Cu21  1  0.750000  0.443790  0.394957  1
  Cu  Cu22  1  0.750000  0.940669  0.108471  1
  Cu  Cu23  1  0.250000  0.059331  0.891529  1
  Cu  Cu24  1  0.250000  0.918096  0.515364  1
  Cu  Cu25  1  0.750000  0.081904  0.484636  1
  Cu  Cu26  1  0.750000  0.581908  0.017393  1
  Cu  Cu27  1  0.250000  0.418092  0.982607  1
