# generated using pymatgen
data_La8Nd6Pt5Rh
_symmetry_space_group_name_H-M   'P 1'
_cell_length_a   6.60145445
_cell_length_b   10.23664043
_cell_length_c   10.23664117
_cell_angle_alpha   120.21173591
_cell_angle_beta   89.91349896
_cell_angle_gamma   90.08650070
_symmetry_Int_Tables_number   1
_chemical_formula_structural   La8Nd6Pt5Rh
_chemical_formula_sum   'La8 Nd6 Pt5 Rh1'
_cell_volume   597.79732381
_cell_formula_units_Z   1
loop_
 _symmetry_equiv_pos_site_id
 _symmetry_equiv_pos_as_xyz
  1  'x, y, z'
loop_
 _atom_site_type_symbol
 _atom_site_label
 _atom_site_symmetry_multiplicity
 _atom_site_fract_x
 _atom_site_fract_y
 _atom_site_fract_z
 _atom_site_occupancy
  La  La0  1  0.464186  0.332756  0.667244  1
  La  La1  1  0.970896  0.668709  0.331291  1
  La  La2  1  0.239102  0.128695  0.871305  1
  La  La3  1  0.237063  0.746327  0.877710  1
  La  La4  1  0.237063  0.122290  0.253673  1
  La  La5  1  0.739760  0.872485  0.127515  1
  La  La6  1  0.739311  0.256871  0.127911  1
  La  La7  1  0.739311  0.872089  0.743129  1
  Nd  Nd8  1  0.442780  0.536472  0.463528  1
  Nd  Nd9  1  0.440863  0.921597  0.458312  1
  Nd  Nd10  1  0.440863  0.541688  0.078403  1
  Nd  Nd11  1  0.943010  0.463303  0.536697  1
  Nd  Nd12  1  0.941973  0.075433  0.537276  1
  Nd  Nd13  1  0.941973  0.462724  0.924567  1
  Pt  Pt14  1  0.194680  0.376289  0.189977  1
  Pt  Pt15  1  0.194680  0.810023  0.623711  1
  Pt  Pt16  1  0.694254  0.188455  0.811545  1
  Pt  Pt17  1  0.694519  0.622736  0.811361  1
  Pt  Pt18  1  0.694519  0.188639  0.377264  1
  Rh  Rh19  1  0.195190  0.812419  0.187581  1
