# generated using pymatgen
data_Hf18V2Fe2Mo5Os
_symmetry_space_group_name_H-M   'P 1'
_cell_length_a   8.35702100
_cell_length_b   8.66060463
_cell_length_c   8.64425701
_cell_angle_alpha   120.06230249
_cell_angle_beta   90.00000000
_cell_angle_gamma   90.00000000
_symmetry_Int_Tables_number   1
_chemical_formula_structural   Hf18V2Fe2Mo5Os
_chemical_formula_sum   'Hf18 V2 Fe2 Mo5 Os1'
_cell_volume   541.48323581
_cell_formula_units_Z   1
loop_
 _symmetry_equiv_pos_site_id
 _symmetry_equiv_pos_as_xyz
  1  'x, y, z'
loop_
 _atom_site_type_symbol
 _atom_site_label
 _atom_site_symmetry_multiplicity
 _atom_site_fract_x
 _atom_site_fract_y
 _atom_site_fract_z
 _atom_site_occupancy
  Hf  Hf0  1  0.558418  0.798690  0.597376  1
  Hf  Hf1  1  0.559894  0.799446  0.200884  1
  Hf  Hf2  1  0.559897  0.401427  0.200880  1
  Hf  Hf3  1  0.443644  0.201188  0.402365  1
  Hf  Hf4  1  0.441860  0.200828  0.798216  1
  Hf  Hf5  1  0.441866  0.597386  0.798223  1
  Hf  Hf6  1  0.056356  0.201188  0.402365  1
  Hf  Hf7  1  0.058140  0.200828  0.798216  1
  Hf  Hf8  1  0.058134  0.597386  0.798223  1
  Hf  Hf9  1  0.941582  0.798690  0.597376  1
  Hf  Hf10  1  0.940106  0.799446  0.200884  1
  Hf  Hf11  1  0.940103  0.401427  0.200880  1
  Hf  Hf12  1  0.750000  0.457952  0.915882  1
  Hf  Hf13  1  0.750000  0.457750  0.540951  1
  Hf  Hf14  1  0.750000  0.083183  0.540940  1
  Hf  Hf15  1  0.250000  0.540984  0.081970  1
  Hf  Hf16  1  0.250000  0.540911  0.458123  1
  Hf  Hf17  1  0.250000  0.917215  0.458117  1
  V  V18  1  0.500871  0.001328  0.002663  1
  V  V19  1  0.999129  0.001328  0.002663  1
  Fe  Fe20  1  0.750000  0.666898  0.333815  1
  Fe  Fe21  1  0.250000  0.331508  0.662973  1
  Mo  Mo22  1  0.750000  0.112589  0.890429  1
  Mo  Mo23  1  0.750000  0.777834  0.890430  1
  Mo  Mo24  1  0.250000  0.888143  0.776267  1
  Mo  Mo25  1  0.250000  0.889110  0.112096  1
  Mo  Mo26  1  0.250000  0.222990  0.112077  1
  Os  Os27  1  0.750000  0.112348  0.224712  1
