# generated using pymatgen
data_Tb3YbTcRu7
_symmetry_space_group_name_H-M   'P 1'
_cell_length_a   5.20593629
_cell_length_b   5.39442493
_cell_length_c   9.00495015
_cell_angle_alpha   90.00000246
_cell_angle_beta   89.86752608
_cell_angle_gamma   121.20511118
_symmetry_Int_Tables_number   1
_chemical_formula_structural   Tb3YbTcRu7
_chemical_formula_sum   'Tb3 Yb1 Tc1 Ru7'
_cell_volume   216.29743236
_cell_formula_units_Z   1
loop_
 _symmetry_equiv_pos_site_id
 _symmetry_equiv_pos_as_xyz
  1  'x, y, z'
loop_
 _atom_site_type_symbol
 _atom_site_label
 _atom_site_symmetry_multiplicity
 _atom_site_fract_x
 _atom_site_fract_y
 _atom_site_fract_z
 _atom_site_occupancy
  Tb  Tb0  1  0.655656  0.327828  0.561011  1
  Tb  Tb1  1  0.657420  0.328709  0.933482  1
  Tb  Tb2  1  0.328082  0.664042  0.071831  1
  Yb  Yb3  1  0.326557  0.663279  0.434661  1
  Tc  Tc4  1  0.684287  0.842143  0.748492  1
  Ru  Ru5  1  0.975357  0.987678  0.499504  1
  Ru  Ru6  1  0.976417  0.988209  0.000037  1
  Ru  Ru7  1  0.837169  0.165214  0.250515  1
  Ru  Ru8  1  0.837169  0.671955  0.250515  1
  Ru  Ru9  1  0.361601  0.180800  0.249212  1
  Ru  Ru10  1  0.180143  0.827200  0.750370  1
  Ru  Ru11  1  0.180143  0.352944  0.750370  1
