# generated using pymatgen
data_LiPr2NdAg3Sn4
_symmetry_space_group_name_H-M   'P 1'
_cell_length_a   8.94174639
_cell_length_b   8.92619156
_cell_length_c   8.92619310
_cell_angle_alpha   149.36658555
_cell_angle_beta   131.05044137
_cell_angle_gamma   58.84125456
_symmetry_Int_Tables_number   1
_chemical_formula_structural   LiPr2NdAg3Sn4
_chemical_formula_sum   'Li1 Pr2 Nd1 Ag3 Sn4'
_cell_volume   271.65409834
_cell_formula_units_Z   1
loop_
 _symmetry_equiv_pos_site_id
 _symmetry_equiv_pos_as_xyz
  1  'x, y, z'
loop_
 _atom_site_type_symbol
 _atom_site_label
 _atom_site_symmetry_multiplicity
 _atom_site_fract_x
 _atom_site_fract_y
 _atom_site_fract_z
 _atom_site_occupancy
  Li  Li0  1  0.483843  0.670940  0.812906  1
  Pr  Pr1  1  0.498243  0.997616  0.500626  1
  Pr  Pr2  1  0.129077  0.130231  0.998846  1
  Nd  Nd3  1  0.875500  0.871379  0.004121  1
  Ag  Ag4  1  0.854741  0.670419  0.184323  1
  Ag  Ag5  1  0.135204  0.331631  0.803572  1
  Ag  Ag6  1  0.524796  0.327998  0.196797  1
  Sn  Sn7  1  0.282685  0.782849  0.499836  1
  Sn  Sn8  1  0.709891  0.213808  0.496084  1
  Sn  Sn9  1  0.806895  0.499988  0.306907  1
  Sn  Sn10  1  0.199126  0.503142  0.695984  1
