# generated using pymatgen
data_La4Nd9Ho3(CdIr)4
_symmetry_space_group_name_H-M   'P 1'
_cell_length_a   9.94314273
_cell_length_b   9.90577674
_cell_length_c   9.95612755
_cell_angle_alpha   60.08059371
_cell_angle_beta   60.23574013
_cell_angle_gamma   60.21086756
_symmetry_Int_Tables_number   1
_chemical_formula_structural   La4Nd9Ho3(CdIr)4
_chemical_formula_sum   'La4 Nd9 Ho3 Cd4 Ir4'
_cell_volume   696.16285945
_cell_formula_units_Z   1
loop_
 _symmetry_equiv_pos_site_id
 _symmetry_equiv_pos_as_xyz
  1  'x, y, z'
loop_
 _atom_site_type_symbol
 _atom_site_label
 _atom_site_symmetry_multiplicity
 _atom_site_fract_x
 _atom_site_fract_y
 _atom_site_fract_z
 _atom_site_occupancy
  La  La0  1  0.350454  0.350102  0.346712  1
  La  La1  1  0.347795  0.351451  0.953013  1
  La  La2  1  0.346712  0.952731  0.350454  1
  La  La3  1  0.953013  0.347739  0.347795  1
  Nd  Nd4  1  0.811930  0.188070  0.811930  1
  Nd  Nd5  1  0.187744  0.185742  0.813828  1
  Nd  Nd6  1  0.813828  0.812686  0.187744  1
  Nd  Nd7  1  0.939703  0.563417  0.560086  1
  Nd  Nd8  1  0.560086  0.936795  0.939703  1
  Nd  Nd9  1  0.561775  0.938225  0.561775  1
  Nd  Nd10  1  0.938149  0.561851  0.938149  1
  Nd  Nd11  1  0.560122  0.563504  0.939481  1
  Nd  Nd12  1  0.939481  0.936894  0.560122  1
  Ho  Ho13  1  0.812230  0.187119  0.189519  1
  Ho  Ho14  1  0.189519  0.811132  0.812230  1
  Ho  Ho15  1  0.187460  0.812540  0.187460  1
  Cd  Cd16  1  0.579407  0.580381  0.580967  1
  Cd  Cd17  1  0.580222  0.579955  0.258550  1
  Cd  Cd18  1  0.580967  0.259243  0.579407  1
  Cd  Cd19  1  0.258550  0.581271  0.580222  1
  Ir  Ir20  1  0.137882  0.138679  0.143727  1
  Ir  Ir21  1  0.142702  0.137370  0.576540  1
  Ir  Ir22  1  0.143727  0.579711  0.137882  1
  Ir  Ir23  1  0.576540  0.143387  0.142702  1
