# generated using pymatgen
data_Zr10Ge(BiPb)3
_symmetry_space_group_name_H-M   'P 1'
_cell_length_a   5.93875001
_cell_length_b   8.68377277
_cell_length_c   8.68416600
_cell_angle_alpha   119.99851905
_cell_angle_beta   89.99647856
_cell_angle_gamma   90.00705226
_symmetry_Int_Tables_number   1
_chemical_formula_structural   Zr10Ge(BiPb)3
_chemical_formula_sum   'Zr10 Ge1 Bi3 Pb3'
_cell_volume   387.85439814
_cell_formula_units_Z   1
loop_
 _symmetry_equiv_pos_site_id
 _symmetry_equiv_pos_as_xyz
  1  'x, y, z'
loop_
 _atom_site_type_symbol
 _atom_site_label
 _atom_site_symmetry_multiplicity
 _atom_site_fract_x
 _atom_site_fract_y
 _atom_site_fract_z
 _atom_site_occupancy
  Zr  Zr0  1  0.501349  0.333330  0.666661  1
  Zr  Zr1  1  0.501349  0.666671  0.333339  1
  Zr  Zr2  1  0.996989  0.666659  0.333320  1
  Zr  Zr3  1  0.996989  0.333338  0.666680  1
  Zr  Zr4  1  0.763979  0.253669  0.000000  1
  Zr  Zr5  1  0.763958  0.746340  0.746345  1
  Zr  Zr6  1  0.763958  0.999994  0.253655  1
  Zr  Zr7  1  0.236016  0.747466  0.000000  1
  Zr  Zr8  1  0.235993  0.252537  0.252540  1
  Zr  Zr9  1  0.235993  0.999996  0.747460  1
  Ge  Ge10  1  0.501261  0.000003  0.000000  1
  Bi  Bi11  1  0.253169  0.391617  0.000000  1
  Bi  Bi12  1  0.253152  0.608400  0.608412  1
  Bi  Bi13  1  0.253152  0.999987  0.391588  1
  Pb  Pb14  1  0.747585  0.610253  0.000000  1
  Pb  Pb15  1  0.747554  0.389738  0.389738  1
  Pb  Pb16  1  0.747554  0.999999  0.610262  1
