# generated using pymatgen
data_Tm2LuGa5Pt
_symmetry_space_group_name_H-M   'P 1'
_cell_length_a   6.87691495
_cell_length_b   6.88587913
_cell_length_c   4.24478800
_cell_angle_alpha   90.00000000
_cell_angle_beta   90.00000000
_cell_angle_gamma   120.04312861
_symmetry_Int_Tables_number   1
_chemical_formula_structural   Tm2LuGa5Pt
_chemical_formula_sum   'Tm2 Lu1 Ga5 Pt1'
_cell_volume   174.00061347
_cell_formula_units_Z   1
loop_
 _symmetry_equiv_pos_site_id
 _symmetry_equiv_pos_as_xyz
  1  'x, y, z'
loop_
 _atom_site_type_symbol
 _atom_site_label
 _atom_site_symmetry_multiplicity
 _atom_site_fract_x
 _atom_site_fract_y
 _atom_site_fract_z
 _atom_site_occupancy
  Tm  Tm0  1  0.584137  0.000237  0.500000  1
  Tm  Tm1  1  0.415863  0.416100  0.500000  1
  Lu  Lu2  1  0.000000  0.584848  0.500000  1
  Ga  Ga3  1  0.243964  0.999904  0.000000  1
  Ga  Ga4  1  0.000000  0.244314  0.000000  1
  Ga  Ga5  1  0.667634  0.333897  0.000000  1
  Ga  Ga6  1  0.332366  0.666264  0.000000  1
  Ga  Ga7  1  0.756036  0.755940  0.000000  1
  Pt  Pt8  1  0.000000  0.998496  0.500000  1
