# generated using pymatgen
data_CaZrCl6
_symmetry_space_group_name_H-M   'P 1'
_cell_length_a   7.59447397
_cell_length_b   7.59447453
_cell_length_c   7.59447526
_cell_angle_alpha   53.85689731
_cell_angle_beta   53.85689148
_cell_angle_gamma   53.85688098
_symmetry_Int_Tables_number   1
_chemical_formula_structural   CaZrCl6
_chemical_formula_sum   'Ca1 Zr1 Cl6'
_cell_volume   265.26118376
_cell_formula_units_Z   1
loop_
 _symmetry_equiv_pos_site_id
 _symmetry_equiv_pos_as_xyz
  1  'x, y, z'
loop_
 _atom_site_type_symbol
 _atom_site_label
 _atom_site_symmetry_multiplicity
 _atom_site_fract_x
 _atom_site_fract_y
 _atom_site_fract_z
 _atom_site_occupancy
  Ca  Ca0  1  0.333422  0.333422  0.333422  1
  Zr  Zr1  1  0.666787  0.666787  0.666787  1
  Cl  Cl2  1  0.046031  0.457941  0.721886  1
  Cl  Cl3  1  0.308654  0.895663  0.569614  1
  Cl  Cl4  1  0.457941  0.721886  0.046031  1
  Cl  Cl5  1  0.569614  0.308654  0.895663  1
  Cl  Cl6  1  0.721886  0.046031  0.457941  1
  Cl  Cl7  1  0.895663  0.569614  0.308654  1
