# generated using pymatgen
data_Li4WF7
_symmetry_space_group_name_H-M   'P 1'
_cell_length_a   6.10801435
_cell_length_b   6.10801414
_cell_length_c   6.10800500
_cell_angle_alpha   60.00004407
_cell_angle_beta   60.00004520
_cell_angle_gamma   59.99934327
_symmetry_Int_Tables_number   1
_chemical_formula_structural   Li4WF7
_chemical_formula_sum   'Li4 W1 F7'
_cell_volume   161.13229975
_cell_formula_units_Z   1
loop_
 _symmetry_equiv_pos_site_id
 _symmetry_equiv_pos_as_xyz
  1  'x, y, z'
loop_
 _atom_site_type_symbol
 _atom_site_label
 _atom_site_symmetry_multiplicity
 _atom_site_fract_x
 _atom_site_fract_y
 _atom_site_fract_z
 _atom_site_occupancy
  Li  Li0  1  0.878506  0.373831  0.373832  1
  Li  Li1  1  0.373831  0.878506  0.373832  1
  Li  Li2  1  0.373832  0.373832  0.373832  1
  Li  Li3  1  0.373832  0.373832  0.878505  1
  W  W4  1  0.000001  0.000001  0.999999  1
  F  F5  1  0.249999  0.249999  0.250001  1
  F  F6  1  0.753164  0.753164  0.246836  1
  F  F7  1  0.246833  0.753167  0.753168  1
  F  F8  1  0.753167  0.246833  0.753168  1
  F  F9  1  0.753167  0.246833  0.246832  1
  F  F10  1  0.246833  0.753167  0.246832  1
  F  F11  1  0.246836  0.246836  0.753164  1
