# generated using pymatgen
data_Ce2PrDy13(CdIr)4
_symmetry_space_group_name_H-M   'P 1'
_cell_length_a   9.69588028
_cell_length_b   9.69588025
_cell_length_c   9.73621300
_cell_angle_alpha   59.86231010
_cell_angle_beta   59.86231021
_cell_angle_gamma   59.63841727
_symmetry_Int_Tables_number   1
_chemical_formula_structural   Ce2PrDy13(CdIr)4
_chemical_formula_sum   'Ce2 Pr1 Dy13 Cd4 Ir4'
_cell_volume   644.09014057
_cell_formula_units_Z   1
loop_
 _symmetry_equiv_pos_site_id
 _symmetry_equiv_pos_as_xyz
  1  'x, y, z'
loop_
 _atom_site_type_symbol
 _atom_site_label
 _atom_site_symmetry_multiplicity
 _atom_site_fract_x
 _atom_site_fract_y
 _atom_site_fract_z
 _atom_site_occupancy
  Ce  Ce0  1  0.346156  0.346156  0.347479  1
  Ce  Ce1  1  0.346156  0.346156  0.960207  1
  Pr  Pr2  1  0.936941  0.936941  0.563059  1
  Dy  Dy3  1  0.351605  0.950767  0.348814  1
  Dy  Dy4  1  0.950767  0.351605  0.348814  1
  Dy  Dy5  1  0.811860  0.189659  0.187745  1
  Dy  Dy6  1  0.189659  0.811860  0.810737  1
  Dy  Dy7  1  0.189659  0.811860  0.187745  1
  Dy  Dy8  1  0.811860  0.189659  0.810737  1
  Dy  Dy9  1  0.188858  0.188858  0.811142  1
  Dy  Dy10  1  0.811540  0.811540  0.188460  1
  Dy  Dy11  1  0.938806  0.559644  0.563313  1
  Dy  Dy12  1  0.559644  0.938806  0.938238  1
  Dy  Dy13  1  0.559644  0.938806  0.563313  1
  Dy  Dy14  1  0.938806  0.559644  0.938238  1
  Dy  Dy15  1  0.562506  0.562506  0.937494  1
  Cd  Cd16  1  0.580376  0.580376  0.581987  1
  Cd  Cd17  1  0.580376  0.580376  0.257259  1
  Cd  Cd18  1  0.576805  0.258256  0.582469  1
  Cd  Cd19  1  0.258256  0.576805  0.582469  1
  Ir  Ir20  1  0.145091  0.145091  0.136978  1
  Ir  Ir21  1  0.145091  0.145091  0.572841  1
  Ir  Ir22  1  0.146755  0.572783  0.140231  1
  Ir  Ir23  1  0.572783  0.146755  0.140231  1
