# generated using pymatgen
data_Ni9Mo12P3CN
_symmetry_space_group_name_H-M   'P 1'
_cell_length_a   7.65992916
_cell_length_b   7.73630670
_cell_length_c   7.65993000
_cell_angle_alpha   60.32604589
_cell_angle_beta   59.99999637
_cell_angle_gamma   60.32604709
_symmetry_Int_Tables_number   1
_chemical_formula_structural   Ni9Mo12P3CN
_chemical_formula_sum   'Ni9 Mo12 P3 C1 N1'
_cell_volume   322.54552530
_cell_formula_units_Z   1
loop_
 _symmetry_equiv_pos_site_id
 _symmetry_equiv_pos_as_xyz
  1  'x, y, z'
loop_
 _atom_site_type_symbol
 _atom_site_label
 _atom_site_symmetry_multiplicity
 _atom_site_fract_x
 _atom_site_fract_y
 _atom_site_fract_z
 _atom_site_occupancy
  Ni  Ni0  1  0.334753  0.323615  0.006879  1
  Ni  Ni1  1  0.334753  0.323615  0.334753  1
  Ni  Ni2  1  0.243222  0.926528  0.915125  1
  Ni  Ni3  1  0.915125  0.926528  0.915125  1
  Ni  Ni4  1  0.006879  0.323615  0.334753  1
  Ni  Ni5  1  0.333259  0.000221  0.333259  1
  Ni  Ni6  1  0.124812  0.625563  0.124812  1
  Ni  Ni7  1  0.915125  0.926528  0.243222  1
  Ni  Ni8  1  0.916682  0.249955  0.916682  1
  Mo  Mo9  1  0.303848  0.693007  0.699297  1
  Mo  Mo10  1  0.699297  0.693007  0.303848  1
  Mo  Mo11  1  0.693721  0.304024  0.693721  1
  Mo  Mo12  1  0.303848  0.693007  0.303848  1
  Mo  Mo13  1  0.556297  0.945132  0.556297  1
  Mo  Mo14  1  0.556297  0.945132  0.942274  1
  Mo  Mo15  1  0.945820  0.557487  0.550872  1
  Mo  Mo16  1  0.945820  0.557487  0.945820  1
  Mo  Mo17  1  0.308533  0.304024  0.693721  1
  Mo  Mo18  1  0.550872  0.557487  0.945820  1
  Mo  Mo19  1  0.942274  0.945132  0.556297  1
  Mo  Mo20  1  0.693721  0.304024  0.308533  1
  P  P21  1  0.124969  0.124716  0.625345  1
  P  P22  1  0.625345  0.124716  0.124969  1
  P  P23  1  0.124969  0.124716  0.124969  1
  C  C24  1  0.751505  0.745485  0.751505  1
  N  N25  1  0.498251  0.505247  0.498251  1
