# generated using pymatgen
data_NdHo7(WC2)4
_symmetry_space_group_name_H-M   'P 1'
_cell_length_a   5.74478081
_cell_length_b   5.74478081
_cell_length_c   9.90874420
_cell_angle_alpha   90.44851715
_cell_angle_beta   89.55148285
_cell_angle_gamma   90.08862663
_symmetry_Int_Tables_number   1
_chemical_formula_structural   NdHo7(WC2)4
_chemical_formula_sum   'Nd1 Ho7 W4 C8'
_cell_volume   326.99299547
_cell_formula_units_Z   1
loop_
 _symmetry_equiv_pos_site_id
 _symmetry_equiv_pos_as_xyz
  1  'x, y, z'
loop_
 _atom_site_type_symbol
 _atom_site_label
 _atom_site_symmetry_multiplicity
 _atom_site_fract_x
 _atom_site_fract_y
 _atom_site_fract_z
 _atom_site_occupancy
  Nd  Nd0  1  0.301257  0.698743  0.159932  1
  Ho  Ho1  1  0.200146  0.198331  0.343474  1
  Ho  Ho2  1  0.800693  0.798900  0.658546  1
  Ho  Ho3  1  0.299524  0.700476  0.841889  1
  Ho  Ho4  1  0.801669  0.799854  0.343474  1
  Ho  Ho5  1  0.201100  0.199307  0.658546  1
  Ho  Ho6  1  0.698628  0.301372  0.157046  1
  Ho  Ho7  1  0.700225  0.299775  0.840543  1
  W  W8  1  0.175685  0.179728  0.997531  1
  W  W9  1  0.820272  0.824315  0.997531  1
  W  W10  1  0.323860  0.676140  0.503139  1
  W  W11  1  0.680550  0.319450  0.501741  1
  C  C12  1  0.993154  0.006846  0.152304  1
  C  C13  1  0.505871  0.494129  0.351633  1
  C  C14  1  0.500789  0.499211  0.655573  1
  C  C15  1  0.500324  0.006771  0.995003  1
  C  C16  1  0.993229  0.499676  0.995003  1
  C  C17  1  0.999983  0.000017  0.844554  1
  C  C18  1  0.501094  0.998051  0.501270  1
  C  C19  1  0.001949  0.498906  0.501270  1
