# generated using pymatgen
data_NpTlF5
_symmetry_space_group_name_H-M   'P 1'
_cell_length_a   8.15542200
_cell_length_b   8.15542182
_cell_length_c   8.62465500
_cell_angle_alpha   90.00000000
_cell_angle_beta   90.00000000
_cell_angle_gamma   116.50050728
_symmetry_Int_Tables_number   1
_chemical_formula_structural   NpTlF5
_chemical_formula_sum   'Np4 Tl4 F20'
_cell_volume   513.36217351
_cell_formula_units_Z   4
loop_
 _symmetry_equiv_pos_site_id
 _symmetry_equiv_pos_as_xyz
  1  'x, y, z'
loop_
 _atom_site_type_symbol
 _atom_site_label
 _atom_site_symmetry_multiplicity
 _atom_site_fract_x
 _atom_site_fract_y
 _atom_site_fract_z
 _atom_site_occupancy
  Np  Np0  1  0.670006  0.670006  0.664763  1
  Np  Np1  1  0.829994  0.829994  0.164763  1
  Np  Np2  1  0.329994  0.329994  0.335237  1
  Np  Np3  1  0.170006  0.170006  0.835237  1
  Tl  Tl4  1  0.778028  0.221972  0.500000  1
  Tl  Tl5  1  0.721972  0.278028  0.000000  1
  Tl  Tl6  1  0.221972  0.778028  0.500000  1
  Tl  Tl7  1  0.278028  0.721972  0.000000  1
  F  F8  1  0.091031  0.908969  0.000000  1
  F  F9  1  0.408969  0.591031  0.500000  1
  F  F10  1  0.908969  0.091031  0.000000  1
  F  F11  1  0.591031  0.408969  0.500000  1
  F  F12  1  0.291017  0.291017  0.071082  1
  F  F13  1  0.208983  0.208983  0.571082  1
  F  F14  1  0.708983  0.708983  0.928918  1
  F  F15  1  0.791017  0.791017  0.428918  1
  F  F16  1  0.559185  0.864795  0.694414  1
  F  F17  1  0.940815  0.635205  0.194414  1
  F  F18  1  0.440815  0.135205  0.305586  1
  F  F19  1  0.059185  0.364795  0.805586  1
  F  F20  1  0.864795  0.559185  0.694414  1
  F  F21  1  0.635205  0.940815  0.194414  1
  F  F22  1  0.135205  0.440815  0.305586  1
  F  F23  1  0.364795  0.059185  0.805586  1
  F  F24  1  0.434306  0.434306  0.791150  1
  F  F25  1  0.065694  0.065694  0.291150  1
  F  F26  1  0.565694  0.565694  0.208850  1
  F  F27  1  0.934306  0.934306  0.708850  1
