# generated using pymatgen
data_Lu2ZrRhF14
_symmetry_space_group_name_H-M   'P 1'
_cell_length_a   5.58093768
_cell_length_b   8.85763716
_cell_length_c   11.88181608
_cell_angle_alpha   62.95040196
_cell_angle_beta   90.00317396
_cell_angle_gamma   90.11837791
_symmetry_Int_Tables_number   1
_chemical_formula_structural   Lu2ZrRhF14
_chemical_formula_sum   'Lu4 Zr2 Rh2 F28'
_cell_volume   523.11342779
_cell_formula_units_Z   2
loop_
 _symmetry_equiv_pos_site_id
 _symmetry_equiv_pos_as_xyz
  1  'x, y, z'
loop_
 _atom_site_type_symbol
 _atom_site_label
 _atom_site_symmetry_multiplicity
 _atom_site_fract_x
 _atom_site_fract_y
 _atom_site_fract_z
 _atom_site_occupancy
  Lu  Lu0  1  0.257859  0.816259  0.260148  1
  Lu  Lu1  1  0.742141  0.183741  0.739852  1
  Lu  Lu2  1  0.758146  0.183477  0.227806  1
  Lu  Lu3  1  0.241854  0.816523  0.772194  1
  Zr  Zr4  1  0.256454  0.273919  0.454241  1
  Zr  Zr5  1  0.743546  0.726081  0.545759  1
  Rh  Rh6  1  0.756401  0.727103  0.043792  1
  Rh  Rh7  1  0.243599  0.272897  0.956208  1
  F  F8  1  0.966692  0.705915  0.418407  1
  F  F9  1  0.033308  0.294085  0.581593  1
  F  F10  1  0.449358  0.291548  0.082181  1
  F  F11  1  0.550642  0.708452  0.917819  1
  F  F12  1  0.471321  0.737110  0.136118  1
  F  F13  1  0.528679  0.262890  0.863882  1
  F  F14  1  0.982595  0.271547  0.341222  1
  F  F15  1  0.017405  0.728453  0.658778  1
  F  F16  1  0.958715  0.744150  0.173576  1
  F  F17  1  0.041285  0.255850  0.826424  1
  F  F18  1  0.471891  0.247526  0.324183  1
  F  F19  1  0.528109  0.752474  0.675817  1
  F  F20  1  0.756313  0.483185  0.138142  1
  F  F21  1  0.243687  0.516815  0.861858  1
  F  F22  1  0.284887  0.530432  0.354207  1
  F  F23  1  0.715113  0.469568  0.645793  1
  F  F24  1  0.951812  0.285984  0.044805  1
  F  F25  1  0.048188  0.714016  0.955195  1
  F  F26  1  0.440736  0.730096  0.446171  1
  F  F27  1  0.559264  0.269904  0.553829  1
  F  F28  1  0.749151  0.981377  0.438253  1
  F  F29  1  0.250849  0.018623  0.561747  1
  F  F30  1  0.236932  0.028927  0.047064  1
  F  F31  1  0.763068  0.971073  0.952936  1
  F  F32  1  0.570684  0.974294  0.228447  1
  F  F33  1  0.429316  0.025706  0.771553  1
  F  F34  1  0.068503  0.023601  0.259882  1
  F  F35  1  0.931497  0.976399  0.740118  1
