# generated using pymatgen
data_Th3In3OsRh2
_symmetry_space_group_name_H-M   'P 1'
_cell_length_a   7.70147900
_cell_length_b   7.70147972
_cell_length_c   4.01196600
_cell_angle_alpha   90.00000000
_cell_angle_beta   90.00000000
_cell_angle_gamma   120.00000122
_symmetry_Int_Tables_number   1
_chemical_formula_structural   Th3In3OsRh2
_chemical_formula_sum   'Th3 In3 Os1 Rh2'
_cell_volume   206.08015948
_cell_formula_units_Z   1
loop_
 _symmetry_equiv_pos_site_id
 _symmetry_equiv_pos_as_xyz
  1  'x, y, z'
loop_
 _atom_site_type_symbol
 _atom_site_label
 _atom_site_symmetry_multiplicity
 _atom_site_fract_x
 _atom_site_fract_y
 _atom_site_fract_z
 _atom_site_occupancy
  Th  Th0  1  0.006346  0.418390  0.500000  1
  Th  Th1  1  0.581610  0.587955  0.500000  1
  Th  Th2  1  0.412045  0.993654  0.500000  1
  In  In3  1  0.998277  0.751144  0.000000  1
  In  In4  1  0.248856  0.247132  0.000000  1
  In  In5  1  0.752868  0.001723  0.000000  1
  Os  Os6  1  0.333333  0.666667  0.000000  1
  Rh  Rh7  1  0.666667  0.333333  0.000000  1
  Rh  Rh8  1  0.000000  0.000000  0.500000  1
