# generated using pymatgen
data_Nb4Al2Cr5Re
_symmetry_space_group_name_H-M   'P 1'
_cell_length_a   4.94528349
_cell_length_b   4.94528222
_cell_length_c   8.38428600
_cell_angle_alpha   90.00000000
_cell_angle_beta   90.00000000
_cell_angle_gamma   120.59869674
_symmetry_Int_Tables_number   1
_chemical_formula_structural   Nb4Al2Cr5Re
_chemical_formula_sum   'Nb4 Al2 Cr5 Re1'
_cell_volume   176.49288782
_cell_formula_units_Z   1
loop_
 _symmetry_equiv_pos_site_id
 _symmetry_equiv_pos_as_xyz
  1  'x, y, z'
loop_
 _atom_site_type_symbol
 _atom_site_label
 _atom_site_symmetry_multiplicity
 _atom_site_fract_x
 _atom_site_fract_y
 _atom_site_fract_z
 _atom_site_occupancy
  Nb  Nb0  1  0.333143  0.666857  0.436906  1
  Nb  Nb1  1  0.667059  0.332941  0.567318  1
  Nb  Nb2  1  0.667059  0.332941  0.932682  1
  Nb  Nb3  1  0.333143  0.666857  0.063094  1
  Al  Al4  1  0.003114  0.996886  0.504986  1
  Al  Al5  1  0.003114  0.996886  0.995014  1
  Cr  Cr6  1  0.825652  0.660123  0.250000  1
  Cr  Cr7  1  0.339877  0.174348  0.250000  1
  Cr  Cr8  1  0.174538  0.825462  0.750000  1
  Cr  Cr9  1  0.174069  0.348457  0.750000  1
  Cr  Cr10  1  0.651543  0.825931  0.750000  1
  Re  Re11  1  0.827689  0.172311  0.250000  1
