# generated using pymatgen
data_Eu2Al8GaIr3
_symmetry_space_group_name_H-M   'P 1'
_cell_length_a   7.60227353
_cell_length_b   7.60227303
_cell_length_c   9.78860300
_cell_angle_alpha   90.00000000
_cell_angle_beta   90.00000000
_cell_angle_gamma   119.28308763
_symmetry_Int_Tables_number   1
_chemical_formula_structural   Eu2Al8GaIr3
_chemical_formula_sum   'Eu4 Al16 Ga2 Ir6'
_cell_volume   493.43570005
_cell_formula_units_Z   2
loop_
 _symmetry_equiv_pos_site_id
 _symmetry_equiv_pos_as_xyz
  1  'x, y, z'
loop_
 _atom_site_type_symbol
 _atom_site_label
 _atom_site_symmetry_multiplicity
 _atom_site_fract_x
 _atom_site_fract_y
 _atom_site_fract_z
 _atom_site_occupancy
  Eu  Eu0  1  0.996139  0.675642  0.250000  1
  Eu  Eu1  1  0.003861  0.324358  0.750000  1
  Eu  Eu2  1  0.675642  0.996139  0.250000  1
  Eu  Eu3  1  0.324358  0.003861  0.750000  1
  Al  Al4  1  0.003362  0.336511  0.069146  1
  Al  Al5  1  0.996638  0.663489  0.930854  1
  Al  Al6  1  0.996638  0.663489  0.569146  1
  Al  Al7  1  0.336511  0.003362  0.430854  1
  Al  Al8  1  0.003362  0.336511  0.430854  1
  Al  Al9  1  0.663489  0.996638  0.569146  1
  Al  Al10  1  0.663489  0.996638  0.930854  1
  Al  Al11  1  0.336511  0.003362  0.069146  1
  Al  Al12  1  0.335653  0.335653  0.549152  1
  Al  Al13  1  0.664347  0.664347  0.450848  1
  Al  Al14  1  0.664347  0.664347  0.049152  1
  Al  Al15  1  0.335653  0.335653  0.950848  1
  Al  Al16  1  0.336495  0.547198  0.250000  1
  Al  Al17  1  0.663505  0.452802  0.750000  1
  Al  Al18  1  0.547198  0.336495  0.250000  1
  Al  Al19  1  0.452802  0.663505  0.750000  1
  Ga  Ga20  1  0.136284  0.136284  0.250000  1
  Ga  Ga21  1  0.863716  0.863716  0.750000  1
  Ir  Ir22  1  0.670177  0.329823  0.000000  1
  Ir  Ir23  1  0.329823  0.670177  0.000000  1
  Ir  Ir24  1  0.329823  0.670177  0.500000  1
  Ir  Ir25  1  0.670177  0.329823  0.500000  1
  Ir  Ir26  1  0.000000  0.000000  0.000000  1
  Ir  Ir27  1  0.000000  0.000000  0.500000  1
