# generated using pymatgen
data_Gd2NbIr3
_symmetry_space_group_name_H-M   'P 1'
_cell_length_a   5.65472300
_cell_length_b   5.65937887
_cell_length_c   8.28167400
_cell_angle_alpha   90.00000000
_cell_angle_beta   90.00000000
_cell_angle_gamma   120.02726030
_symmetry_Int_Tables_number   1
_chemical_formula_structural   Gd2NbIr3
_chemical_formula_sum   'Gd4 Nb2 Ir6'
_cell_volume   229.46132865
_cell_formula_units_Z   2
loop_
 _symmetry_equiv_pos_site_id
 _symmetry_equiv_pos_as_xyz
  1  'x, y, z'
loop_
 _atom_site_type_symbol
 _atom_site_label
 _atom_site_symmetry_multiplicity
 _atom_site_fract_x
 _atom_site_fract_y
 _atom_site_fract_z
 _atom_site_occupancy
  Gd  Gd0  1  0.333596  0.666799  0.435448  1
  Gd  Gd1  1  0.666348  0.333173  0.564005  1
  Gd  Gd2  1  0.666348  0.333173  0.935995  1
  Gd  Gd3  1  0.333596  0.666799  0.064552  1
  Nb  Nb4  1  0.999800  0.999900  0.500252  1
  Nb  Nb5  1  0.999800  0.999900  0.999748  1
  Ir  Ir6  1  0.827640  0.172508  0.250000  1
  Ir  Ir7  1  0.827640  0.655132  0.250000  1
  Ir  Ir8  1  0.344664  0.172333  0.250000  1
  Ir  Ir9  1  0.172558  0.827617  0.750000  1
  Ir  Ir10  1  0.172558  0.344941  0.750000  1
  Ir  Ir11  1  0.655450  0.827725  0.750000  1
