# generated using pymatgen
data_Tb5Tm(Si3Os)8
_symmetry_space_group_name_H-M   'P 1'
_cell_length_a   10.12788706
_cell_length_b   10.12788727
_cell_length_c   8.17467848
_cell_angle_alpha   90.02943281
_cell_angle_beta   90.02943496
_cell_angle_gamma   132.45383440
_symmetry_Int_Tables_number   1
_chemical_formula_structural   Tb5Tm(Si3Os)8
_chemical_formula_sum   'Tb5 Tm1 Si24 Os8'
_cell_volume   618.67036396
_cell_formula_units_Z   1
loop_
 _symmetry_equiv_pos_site_id
 _symmetry_equiv_pos_as_xyz
  1  'x, y, z'
loop_
 _atom_site_type_symbol
 _atom_site_label
 _atom_site_symmetry_multiplicity
 _atom_site_fract_x
 _atom_site_fract_y
 _atom_site_fract_z
 _atom_site_occupancy
  Tb  Tb0  1  0.000000  0.000000  0.000000  1
  Tb  Tb1  1  0.501748  0.001535  0.749450  1
  Tb  Tb2  1  0.998465  0.498252  0.250550  1
  Tb  Tb3  1  0.498252  0.998465  0.250550  1
  Tb  Tb4  1  0.001535  0.501748  0.749450  1
  Tm  Tm5  1  0.500000  0.500000  0.500000  1
  Si  Si6  1  0.794918  0.205082  0.500000  1
  Si  Si7  1  0.295466  0.704534  0.000000  1
  Si  Si8  1  0.205082  0.794918  0.500000  1
  Si  Si9  1  0.704534  0.295466  0.000000  1
  Si  Si10  1  0.332071  0.332071  0.832942  1
  Si  Si11  1  0.667929  0.667929  0.167058  1
  Si  Si12  1  0.167533  0.167533  0.333017  1
  Si  Si13  1  0.832467  0.832467  0.666983  1
  Si  Si14  1  0.121187  0.886267  0.727712  1
  Si  Si15  1  0.113733  0.878813  0.272288  1
  Si  Si16  1  0.611632  0.377522  0.228675  1
  Si  Si17  1  0.622478  0.388368  0.771325  1
  Si  Si18  1  0.878813  0.113733  0.272288  1
  Si  Si19  1  0.886267  0.121187  0.727712  1
  Si  Si20  1  0.388368  0.622478  0.771325  1
  Si  Si21  1  0.377522  0.611632  0.228675  1
  Si  Si22  1  0.344903  0.111187  0.504433  1
  Si  Si23  1  0.888813  0.655097  0.495567  1
  Si  Si24  1  0.388373  0.154676  0.004795  1
  Si  Si25  1  0.845324  0.611627  0.995205  1
  Si  Si26  1  0.655097  0.888813  0.495567  1
  Si  Si27  1  0.111187  0.344903  0.504433  1
  Si  Si28  1  0.611627  0.845324  0.995205  1
  Si  Si29  1  0.154676  0.388373  0.004795  1
  Os  Os30  1  0.668043  0.331957  0.500000  1
  Os  Os31  1  0.169289  0.830711  0.000000  1
  Os  Os32  1  0.331957  0.668043  0.500000  1
  Os  Os33  1  0.830711  0.169289  0.000000  1
  Os  Os34  1  0.127483  0.127483  0.626482  1
  Os  Os35  1  0.872517  0.872517  0.373518  1
  Os  Os36  1  0.373893  0.373893  0.128949  1
  Os  Os37  1  0.626107  0.626107  0.871051  1
