# generated using pymatgen
data_La12Si2I17
_symmetry_space_group_name_H-M   'P 1'
_cell_length_a   10.11597567
_cell_length_b   12.12124048
_cell_length_c   12.01110782
_cell_angle_alpha   93.87365660
_cell_angle_beta   104.71116817
_cell_angle_gamma   114.93667533
_symmetry_Int_Tables_number   1
_chemical_formula_structural   La12Si2I17
_chemical_formula_sum   'La12 Si2 I17'
_cell_volume   1265.83772845
_cell_formula_units_Z   1
loop_
 _symmetry_equiv_pos_site_id
 _symmetry_equiv_pos_as_xyz
  1  'x, y, z'
loop_
 _atom_site_type_symbol
 _atom_site_label
 _atom_site_symmetry_multiplicity
 _atom_site_fract_x
 _atom_site_fract_y
 _atom_site_fract_z
 _atom_site_occupancy
  La  La0  1  0.063399  0.522933  0.330069  1
  La  La1  1  0.986799  0.812207  0.574173  1
  La  La2  1  0.632546  0.239283  0.283639  1
  La  La3  1  0.013201  0.187793  0.425827  1
  La  La4  1  0.223882  0.665535  0.000136  1
  La  La5  1  0.273580  0.996422  0.903977  1
  La  La6  1  0.367454  0.760717  0.716361  1
  La  La7  1  0.936601  0.477067  0.669931  1
  La  La8  1  0.726420  0.003578  0.096023  1
  La  La9  1  0.158957  0.288832  0.145122  1
  La  La10  1  0.776118  0.334465  0.999864  1
  La  La11  1  0.841043  0.711168  0.854878  1
  Si  Si12  1  0.104544  0.737321  0.785754  1
  Si  Si13  1  0.895456  0.262679  0.214246  1
  I  I14  1  0.777632  0.528336  0.415664  1
  I  I15  1  0.632064  0.417430  0.747597  1
  I  I16  1  0.839602  0.893308  0.320155  1
  I  I17  1  0.323981  0.212088  0.371285  1
  I  I18  1  0.160398  0.106692  0.679845  1
  I  I19  1  0.588128  0.055383  0.834577  1
  I  I20  1  0.744694  0.171397  0.536350  1
  I  I21  1  0.541034  0.693569  0.954439  1
  I  I22  1  0.367936  0.582570  0.252403  1
  I  I23  1  0.222368  0.471664  0.584336  1
  I  I24  1  0.057053  0.364276  0.891355  1
  I  I25  1  0.458966  0.306431  0.045561  1
  I  I26  1  0.000000  0.000000  0.000000  1
  I  I27  1  0.255306  0.828603  0.463650  1
  I  I28  1  0.411872  0.944617  0.165423  1
  I  I29  1  0.676019  0.787912  0.628715  1
  I  I30  1  0.942947  0.635724  0.108645  1
