# generated using pymatgen
data_Ho10Hg7Pt4Pb
_symmetry_space_group_name_H-M   'P 1'
_cell_length_a   3.62765800
_cell_length_b   7.99138000
_cell_length_c   18.25874501
_cell_angle_alpha   90.28900156
_cell_angle_beta   90.00000000
_cell_angle_gamma   90.00000000
_symmetry_Int_Tables_number   1
_chemical_formula_structural   Ho10Hg7Pt4Pb
_chemical_formula_sum   'Ho10 Hg7 Pt4 Pb1'
_cell_volume   529.31416761
_cell_formula_units_Z   1
loop_
 _symmetry_equiv_pos_site_id
 _symmetry_equiv_pos_as_xyz
  1  'x, y, z'
loop_
 _atom_site_type_symbol
 _atom_site_label
 _atom_site_symmetry_multiplicity
 _atom_site_fract_x
 _atom_site_fract_y
 _atom_site_fract_z
 _atom_site_occupancy
  Ho  Ho0  1  0.000000  0.106777  0.415327  1
  Ho  Ho1  1  0.000000  0.885895  0.587705  1
  Ho  Ho2  1  0.000000  0.388166  0.913424  1
  Ho  Ho3  1  0.000000  0.611962  0.084863  1
  Ho  Ho4  1  0.000000  0.234704  0.213621  1
  Ho  Ho5  1  0.000000  0.763133  0.784218  1
  Ho  Ho6  1  0.000000  0.260701  0.717803  1
  Ho  Ho7  1  0.000000  0.748597  0.278901  1
  Ho  Ho8  1  0.000000  0.002748  0.000796  1
  Ho  Ho9  1  0.000000  0.497492  0.503697  1
  Hg  Hg10  1  0.500000  0.576176  0.645775  1
  Hg  Hg11  1  0.500000  0.076970  0.855417  1
  Hg  Hg12  1  0.500000  0.921363  0.144036  1
  Hg  Hg13  1  0.500000  0.289352  0.062162  1
  Hg  Hg14  1  0.500000  0.713179  0.937573  1
  Hg  Hg15  1  0.500000  0.207627  0.563158  1
  Hg  Hg16  1  0.500000  0.788939  0.438304  1
  Pt  Pt17  1  0.500000  0.027272  0.302840  1
  Pt  Pt18  1  0.500000  0.974155  0.698179  1
  Pt  Pt19  1  0.500000  0.475043  0.803030  1
  Pt  Pt20  1  0.500000  0.525361  0.195445  1
  Pb  Pb21  1  0.500000  0.424389  0.353726  1
