# generated using pymatgen
data_TbY4(RhO6)2
_symmetry_space_group_name_H-M   'P 1'
_cell_length_a   6.87497426
_cell_length_b   6.87497287
_cell_length_c   7.30853106
_cell_angle_alpha   74.47326942
_cell_angle_beta   74.47327136
_cell_angle_gamma   51.22650858
_symmetry_Int_Tables_number   1
_chemical_formula_structural   TbY4(RhO6)2
_chemical_formula_sum   'Tb1 Y4 Rh2 O12'
_cell_volume   257.17395799
_cell_formula_units_Z   1
loop_
 _symmetry_equiv_pos_site_id
 _symmetry_equiv_pos_as_xyz
  1  'x, y, z'
loop_
 _atom_site_type_symbol
 _atom_site_label
 _atom_site_symmetry_multiplicity
 _atom_site_fract_x
 _atom_site_fract_y
 _atom_site_fract_z
 _atom_site_occupancy
  Tb  Tb0  1  0.190981  0.190981  0.170245  1
  Y  Y1  1  0.499999  0.499999  0.500124  1
  Y  Y2  1  0.809184  0.809184  0.829329  1
  Y  Y3  1  0.802190  0.802190  0.360442  1
  Y  Y4  1  0.197738  0.197738  0.639869  1
  Rh  Rh5  1  0.746782  0.253284  0.000074  1
  Rh  Rh6  1  0.253284  0.746782  0.000074  1
  O  O7  1  0.999504  0.999504  0.189267  1
  O  O8  1  0.000320  0.000320  0.810650  1
  O  O9  1  0.499925  0.499925  0.817940  1
  O  O10  1  0.500058  0.500058  0.182127  1
  O  O11  1  0.597034  0.098365  0.573671  1
  O  O12  1  0.901265  0.403255  0.426737  1
  O  O13  1  0.403255  0.901265  0.426737  1
  O  O14  1  0.401355  0.930557  0.915329  1
  O  O15  1  0.068947  0.599260  0.084192  1
  O  O16  1  0.599260  0.068947  0.084192  1
  O  O17  1  0.930557  0.401355  0.915329  1
  O  O18  1  0.098365  0.597034  0.573671  1
