# generated using pymatgen
data_Cs2KYAs2
_symmetry_space_group_name_H-M   'P 1'
_cell_length_a   9.95488264
_cell_length_b   9.95488202
_cell_length_c   9.95488225
_cell_angle_alpha   132.78606330
_cell_angle_beta   66.44981670
_cell_angle_gamma   136.07837808
_symmetry_Int_Tables_number   1
_chemical_formula_structural   Cs2KYAs2
_chemical_formula_sum   'Cs4 K2 Y2 As4'
_cell_volume   494.36425108
_cell_formula_units_Z   2
loop_
 _symmetry_equiv_pos_site_id
 _symmetry_equiv_pos_as_xyz
  1  'x, y, z'
loop_
 _atom_site_type_symbol
 _atom_site_label
 _atom_site_symmetry_multiplicity
 _atom_site_fract_x
 _atom_site_fract_y
 _atom_site_fract_z
 _atom_site_occupancy
  Cs  Cs0  1  0.813424  0.242806  0.056229  1
  Cs  Cs1  1  0.686576  0.742806  0.429382  1
  Cs  Cs2  1  0.313424  0.257194  0.570619  1
  Cs  Cs3  1  0.186576  0.757194  0.943771  1
  K  K4  1  0.749999  0.249999  0.500000  1
  K  K5  1  0.249999  0.749999  0.500000  1
  Y  Y6  1  0.249999  0.249999  0.000000  1
  Y  Y7  1  0.750000  0.750000  0.000000  1
  As  As8  1  0.408396  0.696318  0.104713  1
  As  As9  1  0.091604  0.196317  0.287920  1
  As  As10  1  0.908396  0.803683  0.712080  1
  As  As11  1  0.591604  0.303683  0.895287  1
