# generated using pymatgen
data_Ti3Ga2Pd6Au
_symmetry_space_group_name_H-M   'P 1'
_cell_length_a   4.03679900
_cell_length_b   7.74059400
_cell_length_c   11.86439401
_cell_angle_alpha   90.00000000
_cell_angle_beta   89.99501651
_cell_angle_gamma   90.00000000
_symmetry_Int_Tables_number   1
_chemical_formula_structural   Ti3Ga2Pd6Au
_chemical_formula_sum   'Ti6 Ga4 Pd12 Au2'
_cell_volume   370.72935392
_cell_formula_units_Z   2
loop_
 _symmetry_equiv_pos_site_id
 _symmetry_equiv_pos_as_xyz
  1  'x, y, z'
loop_
 _atom_site_type_symbol
 _atom_site_label
 _atom_site_symmetry_multiplicity
 _atom_site_fract_x
 _atom_site_fract_y
 _atom_site_fract_z
 _atom_site_occupancy
  Ti  Ti0  1  0.000027  0.000000  0.005331  1
  Ti  Ti1  1  0.500023  0.500001  0.161199  1
  Ti  Ti2  1  0.000070  0.000000  0.332735  1
  Ti  Ti3  1  0.500021  0.500001  0.504358  1
  Ti  Ti4  1  0.999947  0.000000  0.662489  1
  Ti  Ti5  1  0.499961  0.500001  0.833897  1
  Ga  Ga6  1  0.000082  0.500001  0.334190  1
  Ga  Ga7  1  0.500038  0.000000  0.496545  1
  Ga  Ga8  1  0.999938  0.500001  0.670320  1
  Ga  Ga9  1  0.499958  0.000000  0.832441  1
  Pd  Pd10  1  0.500020  0.243890  0.996187  1
  Pd  Pd11  1  0.500020  0.756109  0.996187  1
  Pd  Pd12  1  0.000055  0.256202  0.170389  1
  Pd  Pd13  1  0.000055  0.743797  0.170389  1
  Pd  Pd14  1  0.500061  0.261264  0.337517  1
  Pd  Pd15  1  0.500061  0.738735  0.337517  1
  Pd  Pd16  1  0.999993  0.252394  0.501078  1
  Pd  Pd17  1  0.999993  0.747606  0.501078  1
  Pd  Pd18  1  0.499966  0.247508  0.665659  1
  Pd  Pd19  1  0.499966  0.752491  0.665659  1
  Pd  Pd20  1  0.999897  0.238835  0.829095  1
  Pd  Pd21  1  0.999897  0.761164  0.829095  1
  Au  Au22  1  0.999948  0.500001  0.995951  1
  Au  Au23  1  0.500009  0.000000  0.170693  1
