# generated using pymatgen
data_Lu8Nb11Si16Ag
_symmetry_space_group_name_H-M   'P 1'
_cell_length_a   6.79816977
_cell_length_b   7.02630718
_cell_length_c   13.35022400
_cell_angle_alpha   90.00000000
_cell_angle_beta   90.00000000
_cell_angle_gamma   90.44118127
_symmetry_Int_Tables_number   1
_chemical_formula_structural   Lu8Nb11Si16Ag
_chemical_formula_sum   'Lu8 Nb11 Si16 Ag1'
_cell_volume   637.66828320
_cell_formula_units_Z   1
loop_
 _symmetry_equiv_pos_site_id
 _symmetry_equiv_pos_as_xyz
  1  'x, y, z'
loop_
 _atom_site_type_symbol
 _atom_site_label
 _atom_site_symmetry_multiplicity
 _atom_site_fract_x
 _atom_site_fract_y
 _atom_site_fract_z
 _atom_site_occupancy
  Lu  Lu0  1  0.501539  0.672690  0.593188  1
  Lu  Lu1  1  0.003731  0.827597  0.906075  1
  Lu  Lu2  1  0.495622  0.327805  0.096067  1
  Lu  Lu3  1  0.999449  0.171061  0.401687  1
  Lu  Lu4  1  0.495622  0.327805  0.403933  1
  Lu  Lu5  1  0.999449  0.171061  0.098313  1
  Lu  Lu6  1  0.501539  0.672690  0.906812  1
  Lu  Lu7  1  0.003731  0.827597  0.593925  1
  Nb  Nb8  1  0.667486  0.174912  0.625747  1
  Nb  Nb9  1  0.156767  0.323360  0.874515  1
  Nb  Nb10  1  0.337813  0.826387  0.125365  1
  Nb  Nb11  1  0.836597  0.675302  0.375253  1
  Nb  Nb12  1  0.337813  0.826387  0.374635  1
  Nb  Nb13  1  0.836597  0.675302  0.124747  1
  Nb  Nb14  1  0.667486  0.174912  0.874253  1
  Nb  Nb15  1  0.156767  0.323360  0.625485  1
  Nb  Nb16  1  0.337102  0.000298  0.750000  1
  Nb  Nb17  1  0.162263  0.507058  0.250000  1
  Nb  Nb18  1  0.663196  0.994318  0.250000  1
  Si  Si19  1  0.666094  0.965238  0.459686  1
  Si  Si20  1  0.165019  0.536018  0.040155  1
  Si  Si21  1  0.337156  0.036352  0.959022  1
  Si  Si22  1  0.834387  0.457640  0.531925  1
  Si  Si23  1  0.337156  0.036352  0.540978  1
  Si  Si24  1  0.834387  0.457640  0.968075  1
  Si  Si25  1  0.666094  0.965238  0.040314  1
  Si  Si26  1  0.165019  0.536018  0.459845  1
  Si  Si27  1  0.455769  0.371501  0.750000  1
  Si  Si28  1  0.962415  0.114503  0.750000  1
  Si  Si29  1  0.539530  0.619666  0.250000  1
  Si  Si30  1  0.041305  0.879748  0.250000  1
  Si  Si31  1  0.701874  0.878699  0.750000  1
  Si  Si32  1  0.214577  0.626278  0.750000  1
  Si  Si33  1  0.297048  0.131266  0.250000  1
  Si  Si34  1  0.793496  0.369469  0.250000  1
  Ag  Ag35  1  0.828102  0.518475  0.750000  1
