# generated using pymatgen
data_Ti6CN4
_symmetry_space_group_name_H-M   'P 1'
_cell_length_a   5.23078031
_cell_length_b   5.23078074
_cell_length_c   5.23126801
_cell_angle_alpha   99.66867425
_cell_angle_beta   99.66867252
_cell_angle_gamma   119.93662886
_symmetry_Int_Tables_number   1
_chemical_formula_structural   Ti6CN4
_chemical_formula_sum   'Ti6 C1 N4'
_cell_volume   116.84334017
_cell_formula_units_Z   1
loop_
 _symmetry_equiv_pos_site_id
 _symmetry_equiv_pos_as_xyz
  1  'x, y, z'
loop_
 _atom_site_type_symbol
 _atom_site_label
 _atom_site_symmetry_multiplicity
 _atom_site_fract_x
 _atom_site_fract_y
 _atom_site_fract_z
 _atom_site_occupancy
  Ti  Ti0  1  0.437828  0.084201  0.254153  1
  Ti  Ti1  1  0.084201  0.437828  0.254153  1
  Ti  Ti2  1  0.736600  0.736600  0.262954  1
  Ti  Ti3  1  0.263401  0.263401  0.737047  1
  Ti  Ti4  1  0.915800  0.562173  0.745846  1
  Ti  Ti5  1  0.562173  0.915800  0.745846  1
  C  C6  1  0.500000  0.500000  0.500000  1
  N  N7  1  0.666217  0.333782  0.000000  1
  N  N8  1  0.333782  0.666217  0.000000  1
  N  N9  1  0.834061  0.165940  0.500000  1
  N  N10  1  0.165940  0.834061  0.500000  1
