# generated using pymatgen
data_Li6Zn5SiPd12
_symmetry_space_group_name_H-M   'P 1'
_cell_length_a   4.25600700
_cell_length_b   6.09346900
_cell_length_c   12.75288600
_cell_angle_alpha   90.00000000
_cell_angle_beta   89.99992365
_cell_angle_gamma   90.00000000
_symmetry_Int_Tables_number   1
_chemical_formula_structural   Li6Zn5SiPd12
_chemical_formula_sum   'Li6 Zn5 Si1 Pd12'
_cell_volume   330.73139074
_cell_formula_units_Z   1
loop_
 _symmetry_equiv_pos_site_id
 _symmetry_equiv_pos_as_xyz
  1  'x, y, z'
loop_
 _atom_site_type_symbol
 _atom_site_label
 _atom_site_symmetry_multiplicity
 _atom_site_fract_x
 _atom_site_fract_y
 _atom_site_fract_z
 _atom_site_occupancy
  Li  Li0  1  0.000001  0.500000  0.002673  1
  Li  Li1  1  0.500017  0.000000  0.165396  1
  Li  Li2  1  0.000018  0.500000  0.333331  1
  Li  Li3  1  0.500000  0.000000  0.501256  1
  Li  Li4  1  0.999984  0.500000  0.663984  1
  Li  Li5  1  0.499977  0.000000  0.833341  1
  Zn  Zn6  1  0.999998  0.000000  0.998011  1
  Zn  Zn7  1  0.500011  0.500000  0.165410  1
  Zn  Zn8  1  0.000012  0.000000  0.333333  1
  Zn  Zn9  1  0.500002  0.500000  0.501267  1
  Zn  Zn10  1  0.999990  0.000000  0.668671  1
  Si  Si11  1  0.499989  0.500000  0.833326  1
  Pd  Pd12  1  0.499997  0.256248  0.993019  1
  Pd  Pd13  1  0.499997  0.743752  0.993019  1
  Pd  Pd14  1  0.000011  0.248932  0.164928  1
  Pd  Pd15  1  0.000011  0.751068  0.164928  1
  Pd  Pd16  1  0.500011  0.250353  0.333333  1
  Pd  Pd17  1  0.500011  0.749647  0.333333  1
  Pd  Pd18  1  0.000001  0.248922  0.501739  1
  Pd  Pd19  1  0.000001  0.751078  0.501739  1
  Pd  Pd20  1  0.499991  0.256260  0.673658  1
  Pd  Pd21  1  0.499991  0.743740  0.673658  1
  Pd  Pd22  1  0.999990  0.264514  0.833326  1
  Pd  Pd23  1  0.999990  0.735486  0.833326  1
