# generated using pymatgen
data_Nb8Fe3Co4Si14Tc
_symmetry_space_group_name_H-M   'P 1'
_cell_length_a   9.29326605
_cell_length_b   9.29043059
_cell_length_c   9.29355980
_cell_angle_alpha   94.24442166
_cell_angle_beta   94.21341735
_cell_angle_gamma   148.48452179
_symmetry_Int_Tables_number   1
_chemical_formula_structural   Nb8Fe3Co4Si14Tc
_chemical_formula_sum   'Nb8 Fe3 Co4 Si14 Tc1'
_cell_volume   403.67418014
_cell_formula_units_Z   1
loop_
 _symmetry_equiv_pos_site_id
 _symmetry_equiv_pos_as_xyz
  1  'x, y, z'
loop_
 _atom_site_type_symbol
 _atom_site_label
 _atom_site_symmetry_multiplicity
 _atom_site_fract_x
 _atom_site_fract_y
 _atom_site_fract_z
 _atom_site_occupancy
  Nb  Nb0  1  0.133312  0.134055  0.269113  1
  Nb  Nb1  1  0.865718  0.866049  0.731460  1
  Nb  Nb2  1  0.863828  0.132398  0.001724  1
  Nb  Nb3  1  0.138179  0.870051  0.001487  1
  Nb  Nb4  1  0.503881  0.692835  0.193986  1
  Nb  Nb5  1  0.496818  0.307780  0.808671  1
  Nb  Nb6  1  0.311684  0.500150  0.808197  1
  Nb  Nb7  1  0.690488  0.500953  0.193895  1
  Fe  Fe8  1  0.903281  0.100312  0.497961  1
  Fe  Fe9  1  0.899545  0.400390  0.800522  1
  Fe  Fe10  1  0.597469  0.097882  0.195091  1
  Co  Co11  1  0.105329  0.604829  0.209031  1
  Co  Co12  1  0.099700  0.895634  0.499041  1
  Co  Co13  1  0.399627  0.604435  0.499710  1
  Co  Co14  1  0.595520  0.397538  0.498188  1
  Si  Si15  1  0.291305  0.291490  0.581765  1
  Si  Si16  1  0.708418  0.708627  0.418313  1
  Si  Si17  1  0.724362  0.312055  0.006990  1
  Si  Si18  1  0.282523  0.694297  0.006918  1
  Si  Si19  1  0.995102  0.292694  0.296812  1
  Si  Si20  1  0.983749  0.695716  0.702304  1
  Si  Si21  1  0.720126  0.008260  0.701995  1
  Si  Si22  1  0.300068  0.002623  0.296242  1
  Si  Si23  1  0.520483  0.925522  0.403862  1
  Si  Si24  1  0.509992  0.105182  0.587876  1
  Si  Si25  1  0.071603  0.476299  0.587126  1
  Si  Si26  1  0.889146  0.483659  0.402725  1
  Si  Si27  1  0.751388  0.751366  0.000863  1
  Si  Si28  1  0.249194  0.249269  0.000705  1
  Tc  Tc29  1  0.398160  0.897643  0.797428  1
