# generated using pymatgen
data_Sc8Al3B24Ir
_symmetry_space_group_name_H-M   'P 1'
_cell_length_a   3.43579000
_cell_length_b   8.94134261
_cell_length_c   11.22916876
_cell_angle_alpha   89.87327855
_cell_angle_beta   90.00000000
_cell_angle_gamma   90.00000000
_symmetry_Int_Tables_number   1
_chemical_formula_structural   Sc8Al3B24Ir
_chemical_formula_sum   'Sc8 Al3 B24 Ir1'
_cell_volume   344.96568339
_cell_formula_units_Z   1
loop_
 _symmetry_equiv_pos_site_id
 _symmetry_equiv_pos_as_xyz
  1  'x, y, z'
loop_
 _atom_site_type_symbol
 _atom_site_label
 _atom_site_symmetry_multiplicity
 _atom_site_fract_x
 _atom_site_fract_y
 _atom_site_fract_z
 _atom_site_occupancy
  Sc  Sc0  1  0.000000  0.943549  0.371697  1
  Sc  Sc1  1  0.000000  0.056953  0.626466  1
  Sc  Sc2  1  0.000000  0.554421  0.872052  1
  Sc  Sc3  1  0.000000  0.179257  0.912199  1
  Sc  Sc4  1  0.000000  0.818381  0.086793  1
  Sc  Sc5  1  0.000000  0.680840  0.586911  1
  Sc  Sc6  1  0.000000  0.319882  0.414208  1
  Sc  Sc7  1  0.000000  0.444772  0.128769  1
  Al  Al8  1  0.000000  0.359119  0.680208  1
  Al  Al9  1  0.000000  0.860212  0.821442  1
  Al  Al10  1  0.000000  0.640895  0.318784  1
  B  B11  1  0.500000  0.368756  0.819080  1
  B  B12  1  0.500000  0.978942  0.211693  1
  B  B13  1  0.500000  0.551537  0.437049  1
  B  B14  1  0.500000  0.296492  0.237871  1
  B  B15  1  0.500000  0.201918  0.737887  1
  B  B16  1  0.500000  0.100283  0.472090  1
  B  B17  1  0.500000  0.797806  0.262399  1
  B  B18  1  0.500000  0.448516  0.563338  1
  B  B19  1  0.500000  0.247380  0.577755  1
  B  B20  1  0.500000  0.478730  0.288475  1
  B  B21  1  0.500000  0.702707  0.762216  1
  B  B22  1  0.500000  0.752144  0.423206  1
  B  B23  1  0.500000  0.521419  0.711839  1
  B  B24  1  0.500000  0.898343  0.527889  1
  B  B25  1  0.500000  0.051774  0.064408  1
  B  B26  1  0.500000  0.601057  0.027360  1
  B  B27  1  0.500000  0.746076  0.921941  1
  B  B28  1  0.500000  0.021717  0.787579  1
  B  B29  1  0.500000  0.399795  0.972543  1
  B  B30  1  0.500000  0.948183  0.935876  1
  B  B31  1  0.500000  0.631550  0.179504  1
  B  B32  1  0.500000  0.253503  0.078437  1
  B  B33  1  0.500000  0.869032  0.680878  1
  B  B34  1  0.500000  0.131748  0.318733  1
  Ir  Ir35  1  0.000000  0.142313  0.180428  1
