# generated using pymatgen
data_Ho20Bi8AsP3
_symmetry_space_group_name_H-M   'P 1'
_cell_length_a   7.97117549
_cell_length_b   8.99517300
_cell_length_c   12.09326329
_cell_angle_alpha   90.00000000
_cell_angle_beta   90.07035451
_cell_angle_gamma   90.00000000
_symmetry_Int_Tables_number   1
_chemical_formula_structural   Ho20Bi8AsP3
_chemical_formula_sum   'Ho20 Bi8 As1 P3'
_cell_volume   867.11175140
_cell_formula_units_Z   1
loop_
 _symmetry_equiv_pos_site_id
 _symmetry_equiv_pos_as_xyz
  1  'x, y, z'
loop_
 _atom_site_type_symbol
 _atom_site_label
 _atom_site_symmetry_multiplicity
 _atom_site_fract_x
 _atom_site_fract_y
 _atom_site_fract_z
 _atom_site_occupancy
  Ho  Ho0  1  0.850034  0.750000  0.793485  1
  Ho  Ho1  1  0.148858  0.250000  0.205713  1
  Ho  Ho2  1  0.350758  0.250000  0.706396  1
  Ho  Ho3  1  0.651046  0.750000  0.289886  1
  Ho  Ho4  1  0.370573  0.750000  0.705338  1
  Ho  Ho5  1  0.623770  0.250000  0.299262  1
  Ho  Ho6  1  0.876507  0.250000  0.799236  1
  Ho  Ho7  1  0.123449  0.750000  0.200318  1
  Ho  Ho8  1  0.961862  0.750000  0.501454  1
  Ho  Ho9  1  0.041953  0.250000  0.498206  1
  Ho  Ho10  1  0.457594  0.250000  0.998056  1
  Ho  Ho11  1  0.541248  0.750000  0.001257  1
  Ho  Ho12  1  0.684088  0.057076  0.563973  1
  Ho  Ho13  1  0.315181  0.952497  0.434949  1
  Ho  Ho14  1  0.181565  0.948166  0.937208  1
  Ho  Ho15  1  0.315181  0.547503  0.434949  1
  Ho  Ho16  1  0.818032  0.051334  0.063274  1
  Ho  Ho17  1  0.684088  0.442924  0.563973  1
  Ho  Ho18  1  0.818032  0.448666  0.063274  1
  Ho  Ho19  1  0.181565  0.551834  0.937208  1
  Bi  Bi20  1  0.577892  0.489908  0.827081  1
  Bi  Bi21  1  0.421910  0.509334  0.172717  1
  Bi  Bi22  1  0.077161  0.508799  0.673386  1
  Bi  Bi23  1  0.421910  0.990666  0.172717  1
  Bi  Bi24  1  0.922121  0.490110  0.326386  1
  Bi  Bi25  1  0.577892  0.010092  0.827081  1
  Bi  Bi26  1  0.922121  0.009890  0.326386  1
  Bi  Bi27  1  0.077161  0.991201  0.673386  1
  As  As28  1  0.581444  0.750000  0.517015  1
  P  P29  1  0.425156  0.250000  0.486841  1
  P  P30  1  0.076498  0.250000  0.985977  1
  P  P31  1  0.923351  0.750000  0.013612  1
