# generated using pymatgen
data_Eu2Ho4TaWO14
_symmetry_space_group_name_H-M   'P 1'
_cell_length_a   6.50529742
_cell_length_b   6.50529607
_cell_length_c   7.57206594
_cell_angle_alpha   90.13522434
_cell_angle_beta   89.86477473
_cell_angle_gamma   108.63834832
_symmetry_Int_Tables_number   1
_chemical_formula_structural   Eu2Ho4TaWO14
_chemical_formula_sum   'Eu2 Ho4 Ta1 W1 O14'
_cell_volume   303.63447232
_cell_formula_units_Z   1
loop_
 _symmetry_equiv_pos_site_id
 _symmetry_equiv_pos_as_xyz
  1  'x, y, z'
loop_
 _atom_site_type_symbol
 _atom_site_label
 _atom_site_symmetry_multiplicity
 _atom_site_fract_x
 _atom_site_fract_y
 _atom_site_fract_z
 _atom_site_occupancy
  Eu  Eu0  1  0.503048  0.503048  0.500000  1
  Eu  Eu1  1  0.497149  0.497149  0.000000  1
  Ho  Ho2  1  0.000833  0.469106  0.754237  1
  Ho  Ho3  1  0.999228  0.530983  0.242971  1
  Ho  Ho4  1  0.530983  0.999228  0.757029  1
  Ho  Ho5  1  0.469106  0.000833  0.245763  1
  Ta  Ta6  1  0.000227  0.000227  0.000000  1
  W  W7  1  0.999651  0.999651  0.500000  1
  O  O8  1  0.648191  0.351611  0.747604  1
  O  O9  1  0.351611  0.648191  0.252396  1
  O  O10  1  0.939321  0.060400  0.746836  1
  O  O11  1  0.060400  0.939321  0.253164  1
  O  O12  1  0.939467  0.690329  0.534757  1
  O  O13  1  0.064132  0.318298  0.029434  1
  O  O14  1  0.318298  0.064132  0.970566  1
  O  O15  1  0.690329  0.939467  0.465243  1
  O  O16  1  0.360084  0.640101  0.748902  1
  O  O17  1  0.640101  0.360084  0.251098  1
  O  O18  1  0.939133  0.684387  0.967171  1
  O  O19  1  0.057416  0.306905  0.462137  1
  O  O20  1  0.306905  0.057416  0.537863  1
  O  O21  1  0.684387  0.939133  0.032829  1
