# generated using pymatgen
data_NpPa5Ni6(SnBi)4
_symmetry_space_group_name_H-M   'P 1'
_cell_length_a   8.28426222
_cell_length_b   8.27017131
_cell_length_c   8.29163191
_cell_angle_alpha   109.52975501
_cell_angle_beta   109.61081334
_cell_angle_gamma   109.43163761
_symmetry_Int_Tables_number   1
_chemical_formula_structural   NpPa5Ni6(SnBi)4
_chemical_formula_sum   'Np1 Pa5 Ni6 Sn4 Bi4'
_cell_volume   436.44848270
_cell_formula_units_Z   1
loop_
 _symmetry_equiv_pos_site_id
 _symmetry_equiv_pos_as_xyz
  1  'x, y, z'
loop_
 _atom_site_type_symbol
 _atom_site_label
 _atom_site_symmetry_multiplicity
 _atom_site_fract_x
 _atom_site_fract_y
 _atom_site_fract_z
 _atom_site_occupancy
  Np  Np0  1  0.752944  0.377156  0.624297  1
  Pa  Pa1  1  0.126671  0.884443  0.247935  1
  Pa  Pa2  1  0.369340  0.613153  0.746048  1
  Pa  Pa3  1  0.888244  0.249116  0.128899  1
  Pa  Pa4  1  0.619735  0.744594  0.373409  1
  Pa  Pa5  1  0.243224  0.130934  0.881194  1
  Ni  Ni6  1  0.610755  0.374674  0.237283  1
  Ni  Ni7  1  0.890680  0.120665  0.758593  1
  Ni  Ni8  1  0.358935  0.245771  0.621285  1
  Ni  Ni9  1  0.125783  0.760493  0.885099  1
  Ni  Ni10  1  0.249315  0.617808  0.368254  1
  Ni  Ni11  1  0.762702  0.882149  0.126337  1
  Sn  Sn12  1  0.339113  0.336586  0.339827  1
  Sn  Sn13  1  0.162772  0.502513  0.997957  1
  Sn  Sn14  1  0.995214  0.163713  0.500068  1
  Sn  Sn15  1  0.827059  0.827800  0.828551  1
  Bi  Bi16  1  0.504623  0.000325  0.166872  1
  Bi  Bi17  1  0.670905  0.500037  0.997958  1
  Bi  Bi18  1  0.501510  0.999930  0.669939  1
  Bi  Bi19  1  0.000472  0.668142  0.500199  1
