# generated using pymatgen
data_Sm6YP12Rh17
_symmetry_space_group_name_H-M   'P 1'
_cell_length_a   3.97486100
_cell_length_b   11.30447000
_cell_length_c   12.98894900
_cell_angle_alpha   90.00000000
_cell_angle_beta   90.00000000
_cell_angle_gamma   90.00000000
_symmetry_Int_Tables_number   1
_chemical_formula_structural   Sm6YP12Rh17
_chemical_formula_sum   'Sm6 Y1 P12 Rh17'
_cell_volume   583.64149779
_cell_formula_units_Z   1
loop_
 _symmetry_equiv_pos_site_id
 _symmetry_equiv_pos_as_xyz
  1  'x, y, z'
loop_
 _atom_site_type_symbol
 _atom_site_label
 _atom_site_symmetry_multiplicity
 _atom_site_fract_x
 _atom_site_fract_y
 _atom_site_fract_z
 _atom_site_occupancy
  Sm  Sm0  1  0.000000  0.500000  0.522672  1
  Sm  Sm1  1  0.500000  0.000000  0.478120  1
  Sm  Sm2  1  0.500000  0.818759  0.206757  1
  Sm  Sm3  1  0.500000  0.181241  0.206757  1
  Sm  Sm4  1  0.000000  0.683232  0.796468  1
  Sm  Sm5  1  0.000000  0.316768  0.796468  1
  Y  Y6  1  0.500000  0.500000  0.155994  1
  P  P7  1  0.500000  0.500000  0.879151  1
  P  P8  1  0.000000  0.000000  0.119630  1
  P  P9  1  0.500000  0.500000  0.363550  1
  P  P10  1  0.000000  0.000000  0.649883  1
  P  P11  1  0.500000  0.312563  0.618567  1
  P  P12  1  0.500000  0.687437  0.618567  1
  P  P13  1  0.000000  0.186983  0.385451  1
  P  P14  1  0.000000  0.813017  0.385451  1
  P  P15  1  0.500000  0.852032  0.888619  1
  P  P16  1  0.500000  0.147968  0.888619  1
  P  P17  1  0.000000  0.664669  0.102833  1
  P  P18  1  0.000000  0.335331  0.102833  1
  Rh  Rh19  1  0.000000  0.000000  0.828186  1
  Rh  Rh20  1  0.500000  0.500000  0.701604  1
  Rh  Rh21  1  0.000000  0.000000  0.298314  1
  Rh  Rh22  1  0.000000  0.500000  0.980903  1
  Rh  Rh23  1  0.500000  0.000000  0.019672  1
  Rh  Rh24  1  0.500000  0.327145  0.986795  1
  Rh  Rh25  1  0.500000  0.672855  0.986795  1
  Rh  Rh26  1  0.000000  0.161770  0.003199  1
  Rh  Rh27  1  0.000000  0.838230  0.003199  1
  Rh  Rh28  1  0.500000  0.287724  0.435751  1
  Rh  Rh29  1  0.500000  0.712276  0.435751  1
  Rh  Rh30  1  0.000000  0.203952  0.572525  1
  Rh  Rh31  1  0.000000  0.796048  0.572525  1
  Rh  Rh32  1  0.500000  0.876037  0.709095  1
  Rh  Rh33  1  0.500000  0.123963  0.709095  1
  Rh  Rh34  1  0.000000  0.628060  0.295102  1
  Rh  Rh35  1  0.000000  0.371940  0.295102  1
