# generated using pymatgen
data_Sr6Li2CdAg21
_symmetry_space_group_name_H-M   'P 1'
_cell_length_a   9.81745000
_cell_length_b   9.81744941
_cell_length_c   8.22228000
_cell_angle_alpha   90.00000000
_cell_angle_beta   90.00000000
_cell_angle_gamma   119.99999524
_symmetry_Int_Tables_number   1
_chemical_formula_structural   Sr6Li2CdAg21
_chemical_formula_sum   'Sr6 Li2 Cd1 Ag21'
_cell_volume   686.30993354
_cell_formula_units_Z   1
loop_
 _symmetry_equiv_pos_site_id
 _symmetry_equiv_pos_as_xyz
  1  'x, y, z'
loop_
 _atom_site_type_symbol
 _atom_site_label
 _atom_site_symmetry_multiplicity
 _atom_site_fract_x
 _atom_site_fract_y
 _atom_site_fract_z
 _atom_site_occupancy
  Sr  Sr0  1  0.525466  0.050933  0.248512  1
  Sr  Sr1  1  0.478251  0.956502  0.752271  1
  Sr  Sr2  1  0.949067  0.474534  0.248512  1
  Sr  Sr3  1  0.043498  0.521749  0.752271  1
  Sr  Sr4  1  0.525466  0.474534  0.248512  1
  Sr  Sr5  1  0.478251  0.521749  0.752271  1
  Li  Li6  1  0.000000  0.000000  0.000168  1
  Li  Li7  1  0.000000  0.000000  0.500744  1
  Cd  Cd8  1  0.333333  0.666667  0.434143  1
  Ag  Ag9  1  0.168372  0.336742  0.067601  1
  Ag  Ag10  1  0.832235  0.664469  0.933994  1
  Ag  Ag11  1  0.663258  0.831628  0.067601  1
  Ag  Ag12  1  0.832060  0.664120  0.566256  1
  Ag  Ag13  1  0.335531  0.167765  0.933994  1
  Ag  Ag14  1  0.167700  0.335399  0.432622  1
  Ag  Ag15  1  0.168372  0.831628  0.067601  1
  Ag  Ag16  1  0.335880  0.167940  0.566256  1
  Ag  Ag17  1  0.832235  0.167765  0.933994  1
  Ag  Ag18  1  0.664601  0.832300  0.432622  1
  Ag  Ag19  1  0.832060  0.167940  0.566256  1
  Ag  Ag20  1  0.167700  0.832300  0.432622  1
  Ag  Ag21  1  0.896433  0.792865  0.250954  1
  Ag  Ag22  1  0.103600  0.207198  0.750062  1
  Ag  Ag23  1  0.207135  0.103567  0.250954  1
  Ag  Ag24  1  0.792802  0.896400  0.750062  1
  Ag  Ag25  1  0.896433  0.103567  0.250954  1
  Ag  Ag26  1  0.103600  0.896400  0.750062  1
  Ag  Ag27  1  0.333333  0.666667  0.063528  1
  Ag  Ag28  1  0.666667  0.333333  0.931251  1
  Ag  Ag29  1  0.666667  0.333333  0.563351  1
