# generated using pymatgen
data_Ho6Tm10Cd4TcNi3
_symmetry_space_group_name_H-M   'P 1'
_cell_length_a   9.50822741
_cell_length_b   9.50757111
_cell_length_c   9.50869029
_cell_angle_alpha   59.46336396
_cell_angle_beta   59.46632151
_cell_angle_gamma   59.46007754
_symmetry_Int_Tables_number   1
_chemical_formula_structural   Ho6Tm10Cd4TcNi3
_chemical_formula_sum   'Ho6 Tm10 Cd4 Tc1 Ni3'
_cell_volume   600.39847069
_cell_formula_units_Z   1
loop_
 _symmetry_equiv_pos_site_id
 _symmetry_equiv_pos_as_xyz
  1  'x, y, z'
loop_
 _atom_site_type_symbol
 _atom_site_label
 _atom_site_symmetry_multiplicity
 _atom_site_fract_x
 _atom_site_fract_y
 _atom_site_fract_z
 _atom_site_occupancy
  Ho  Ho0  1  0.936338  0.565091  0.565068  1
  Ho  Ho1  1  0.554993  0.940011  0.940023  1
  Ho  Ho2  1  0.565090  0.936334  0.565070  1
  Ho  Ho3  1  0.939998  0.555000  0.940003  1
  Ho  Ho4  1  0.565079  0.565087  0.936333  1
  Ho  Ho5  1  0.940026  0.940021  0.554974  1
  Tm  Tm6  1  0.346725  0.346731  0.346711  1
  Tm  Tm7  1  0.352263  0.352248  0.953834  1
  Tm  Tm8  1  0.352221  0.953868  0.352222  1
  Tm  Tm9  1  0.953842  0.352235  0.352254  1
  Tm  Tm10  1  0.810970  0.186923  0.186923  1
  Tm  Tm11  1  0.186167  0.811649  0.811650  1
  Tm  Tm12  1  0.186914  0.810981  0.186919  1
  Tm  Tm13  1  0.811661  0.186152  0.811663  1
  Tm  Tm14  1  0.186931  0.186931  0.810963  1
  Tm  Tm15  1  0.811642  0.811642  0.186178  1
  Cd  Cd16  1  0.579592  0.579576  0.579606  1
  Cd  Cd17  1  0.579549  0.579543  0.256219  1
  Cd  Cd18  1  0.579538  0.256238  0.579542  1
  Cd  Cd19  1  0.256225  0.579539  0.579549  1
  Tc  Tc20  1  0.144339  0.144320  0.144358  1
  Ni  Ni21  1  0.142162  0.142159  0.575586  1
  Ni  Ni22  1  0.142171  0.575554  0.142177  1
  Ni  Ni23  1  0.575561  0.142166  0.142171  1
