# generated using pymatgen
data_Ca5Ho3(CdIn)4
_symmetry_space_group_name_H-M   'P 1'
_cell_length_a   7.46865278
_cell_length_b   5.41337800
_cell_length_c   10.83960700
_cell_angle_alpha   90.00000000
_cell_angle_beta   89.95052648
_cell_angle_gamma   90.00000000
_symmetry_Int_Tables_number   1
_chemical_formula_structural   Ca5Ho3(CdIn)4
_chemical_formula_sum   'Ca5 Ho3 Cd4 In4'
_cell_volume   438.25209226
_cell_formula_units_Z   1
loop_
 _symmetry_equiv_pos_site_id
 _symmetry_equiv_pos_as_xyz
  1  'x, y, z'
loop_
 _atom_site_type_symbol
 _atom_site_label
 _atom_site_symmetry_multiplicity
 _atom_site_fract_x
 _atom_site_fract_y
 _atom_site_fract_z
 _atom_site_occupancy
  Ca  Ca0  1  0.999040  0.250000  0.373239  1
  Ca  Ca1  1  0.999556  0.750000  0.628206  1
  Ca  Ca2  1  0.500801  0.750000  0.628512  1
  Ca  Ca3  1  0.002083  0.250000  0.870580  1
  Ca  Ca4  1  0.499531  0.250000  0.870939  1
  Ho  Ho5  1  0.497127  0.750000  0.127261  1
  Ho  Ho6  1  0.002089  0.750000  0.127832  1
  Ho  Ho7  1  0.499388  0.250000  0.373567  1
  Cd  Cd8  1  0.748452  0.250000  0.122329  1
  Cd  Cd9  1  0.254458  0.750000  0.376229  1
  Cd  Cd10  1  0.747504  0.250000  0.616362  1
  Cd  Cd11  1  0.250206  0.750000  0.885121  1
  In  In12  1  0.251667  0.250000  0.123765  1
  In  In13  1  0.743623  0.750000  0.373307  1
  In  In14  1  0.253162  0.250000  0.616926  1
  In  In15  1  0.751318  0.750000  0.885827  1
