# generated using pymatgen
data_Nd20Ga3Si8Ru
_symmetry_space_group_name_H-M   'P 1'
_cell_length_a   7.87269337
_cell_length_b   7.87125773
_cell_length_c   14.45872400
_cell_angle_alpha   89.63548137
_cell_angle_beta   89.79709490
_cell_angle_gamma   90.42652572
_symmetry_Int_Tables_number   1
_chemical_formula_structural   Nd20Ga3Si8Ru
_chemical_formula_sum   'Nd20 Ga3 Si8 Ru1'
_cell_volume   895.92945884
_cell_formula_units_Z   1
loop_
 _symmetry_equiv_pos_site_id
 _symmetry_equiv_pos_as_xyz
  1  'x, y, z'
loop_
 _atom_site_type_symbol
 _atom_site_label
 _atom_site_symmetry_multiplicity
 _atom_site_fract_x
 _atom_site_fract_y
 _atom_site_fract_z
 _atom_site_occupancy
  Nd  Nd0  1  0.817638  0.830444  0.605469  1
  Nd  Nd1  1  0.182120  0.832629  0.106371  1
  Nd  Nd2  1  0.165689  0.813227  0.395925  1
  Nd  Nd3  1  0.000378  0.499061  0.728423  1
  Nd  Nd4  1  0.833374  0.195725  0.388490  1
  Nd  Nd5  1  0.679529  0.657866  0.389567  1
  Nd  Nd6  1  0.674854  0.318494  0.608884  1
  Nd  Nd7  1  0.327312  0.681858  0.606971  1
  Nd  Nd8  1  0.996928  0.495820  0.226431  1
  Nd  Nd9  1  0.662333  0.675574  0.113458  1
  Nd  Nd10  1  0.685269  0.330165  0.889011  1
  Nd  Nd11  1  0.832537  0.812634  0.892248  1
  Nd  Nd12  1  0.320075  0.338458  0.388945  1
  Nd  Nd13  1  0.183634  0.172586  0.605820  1
  Nd  Nd14  1  0.809412  0.167790  0.112339  1
  Nd  Nd15  1  0.316207  0.667264  0.890837  1
  Nd  Nd16  1  0.339816  0.322343  0.111811  1
  Nd  Nd17  1  0.504703  0.005200  0.274022  1
  Nd  Nd18  1  0.165627  0.186089  0.892069  1
  Nd  Nd19  1  0.500609  0.999064  0.772021  1
  Ga  Ga20  1  0.499536  0.999855  0.495668  1
  Ga  Ga21  1  0.498146  0.999578  0.993902  1
  Ga  Ga22  1  0.000422  0.500779  0.004329  1
  Si  Si23  1  0.115257  0.885717  0.748588  1
  Si  Si24  1  0.385777  0.384255  0.748448  1
  Si  Si25  1  0.379905  0.619908  0.251454  1
  Si  Si26  1  0.888534  0.882492  0.252909  1
  Si  Si27  1  0.614443  0.615851  0.748086  1
  Si  Si28  1  0.999753  0.502233  0.508050  1
  Si  Si29  1  0.885781  0.113257  0.748654  1
  Si  Si30  1  0.117593  0.111233  0.249984  1
  Ru  Ru31  1  0.616808  0.382547  0.250816  1
