# generated using pymatgen
data_Ti3Ga2GeRh6
_symmetry_space_group_name_H-M   'P 1'
_cell_length_a   4.06902100
_cell_length_b   6.98687500
_cell_length_c   12.20345100
_cell_angle_alpha   90.00000000
_cell_angle_beta   89.99988734
_cell_angle_gamma   90.00000000
_symmetry_Int_Tables_number   1
_chemical_formula_structural   Ti3Ga2GeRh6
_chemical_formula_sum   'Ti6 Ga4 Ge2 Rh12'
_cell_volume   346.94095245
_cell_formula_units_Z   2
loop_
 _symmetry_equiv_pos_site_id
 _symmetry_equiv_pos_as_xyz
  1  'x, y, z'
loop_
 _atom_site_type_symbol
 _atom_site_label
 _atom_site_symmetry_multiplicity
 _atom_site_fract_x
 _atom_site_fract_y
 _atom_site_fract_z
 _atom_site_occupancy
  Ti  Ti0  1  0.999999  0.500001  0.999437  1
  Ti  Ti1  1  0.500007  0.000000  0.167290  1
  Ti  Ti2  1  0.000008  0.500001  0.333228  1
  Ti  Ti3  1  0.500000  0.000000  0.499178  1
  Ti  Ti4  1  0.999990  0.500001  0.667411  1
  Ti  Ti5  1  0.499993  0.000000  0.833453  1
  Ga  Ga6  1  0.000008  0.000000  0.332856  1
  Ga  Ga7  1  0.500001  0.500001  0.499840  1
  Ga  Ga8  1  0.999990  0.000000  0.666763  1
  Ga  Ga9  1  0.499993  0.500001  0.833821  1
  Ge  Ge10  1  0.000001  0.000000  0.000381  1
  Ge  Ge11  1  0.500005  0.500001  0.166333  1
  Rh  Rh12  1  0.499999  0.250162  0.000610  1
  Rh  Rh13  1  0.499999  0.749838  0.000610  1
  Rh  Rh14  1  0.000011  0.249827  0.166134  1
  Rh  Rh15  1  0.000011  0.750173  0.166134  1
  Rh  Rh16  1  0.500003  0.250659  0.332378  1
  Rh  Rh17  1  0.500003  0.749341  0.332378  1
  Rh  Rh18  1  0.999998  0.250048  0.499488  1
  Rh  Rh19  1  0.999998  0.749952  0.499488  1
  Rh  Rh20  1  0.499998  0.249962  0.667092  1
  Rh  Rh21  1  0.499998  0.750038  0.667092  1
  Rh  Rh22  1  0.999992  0.249322  0.834302  1
  Rh  Rh23  1  0.999992  0.750678  0.834302  1
