# generated using pymatgen
data_PrHo4(In2Pd)2
_symmetry_space_group_name_H-M   'P 1'
_cell_length_a   3.62473100
_cell_length_b   8.21721400
_cell_length_c   18.39564500
_cell_angle_alpha   90.00000000
_cell_angle_beta   90.00000000
_cell_angle_gamma   90.00000000
_symmetry_Int_Tables_number   1
_chemical_formula_structural   PrHo4(In2Pd)2
_chemical_formula_sum   'Pr2 Ho8 In8 Pd4'
_cell_volume   547.91778737
_cell_formula_units_Z   2
loop_
 _symmetry_equiv_pos_site_id
 _symmetry_equiv_pos_as_xyz
  1  'x, y, z'
loop_
 _atom_site_type_symbol
 _atom_site_label
 _atom_site_symmetry_multiplicity
 _atom_site_fract_x
 _atom_site_fract_y
 _atom_site_fract_z
 _atom_site_occupancy
  Pr  Pr0  1  0.000000  0.500000  0.500000  1
  Pr  Pr1  1  0.000000  0.000000  0.000000  1
  Ho  Ho2  1  0.000000  0.738817  0.282117  1
  Ho  Ho3  1  0.000000  0.261183  0.717883  1
  Ho  Ho4  1  0.000000  0.761183  0.782117  1
  Ho  Ho5  1  0.000000  0.238817  0.217883  1
  Ho  Ho6  1  0.000000  0.621189  0.084480  1
  Ho  Ho7  1  0.000000  0.378811  0.915520  1
  Ho  Ho8  1  0.000000  0.878811  0.584480  1
  Ho  Ho9  1  0.000000  0.121189  0.415520  1
  In  In10  1  0.500000  0.698799  0.931910  1
  In  In11  1  0.500000  0.301201  0.068090  1
  In  In12  1  0.500000  0.801201  0.431910  1
  In  In13  1  0.500000  0.198799  0.568090  1
  In  In14  1  0.500000  0.583309  0.653875  1
  In  In15  1  0.500000  0.416691  0.346125  1
  In  In16  1  0.500000  0.916691  0.153875  1
  In  In17  1  0.500000  0.083309  0.846125  1
  Pd  Pd18  1  0.500000  0.524838  0.195869  1
  Pd  Pd19  1  0.500000  0.475162  0.804131  1
  Pd  Pd20  1  0.500000  0.975162  0.695869  1
  Pd  Pd21  1  0.500000  0.024838  0.304131  1
