# generated using pymatgen
data_ThCu3AgPt
_symmetry_space_group_name_H-M   'P 1'
_cell_length_a   5.20583598
_cell_length_b   5.20583685
_cell_length_c   5.22653668
_cell_angle_alpha   60.13093020
_cell_angle_beta   60.13092857
_cell_angle_gamma   60.00000584
_symmetry_Int_Tables_number   1
_chemical_formula_structural   ThCu3AgPt
_chemical_formula_sum   'Th1 Cu3 Ag1 Pt1'
_cell_volume   100.35446427
_cell_formula_units_Z   1
loop_
 _symmetry_equiv_pos_site_id
 _symmetry_equiv_pos_as_xyz
  1  'x, y, z'
loop_
 _atom_site_type_symbol
 _atom_site_label
 _atom_site_symmetry_multiplicity
 _atom_site_fract_x
 _atom_site_fract_y
 _atom_site_fract_z
 _atom_site_occupancy
  Th  Th0  1  0.000035  0.000035  0.999896  1
  Cu  Cu1  1  0.624868  0.129708  0.620556  1
  Cu  Cu2  1  0.129708  0.624868  0.620556  1
  Cu  Cu3  1  0.624868  0.624868  0.620556  1
  Ag  Ag4  1  0.245795  0.245795  0.262617  1
  Pt  Pt5  1  0.624727  0.624727  0.125817  1
