# generated using pymatgen
data_Hf4Se3S5
_symmetry_space_group_name_H-M   'P 1'
_cell_length_a   7.84435030
_cell_length_b   7.92923115
_cell_length_c   7.39222442
_cell_angle_alpha   104.56713461
_cell_angle_beta   102.57115773
_cell_angle_gamma   124.06479293
_symmetry_Int_Tables_number   1
_chemical_formula_structural   Hf4Se3S5
_chemical_formula_sum   'Hf4 Se3 S5'
_cell_volume   329.73878961
_cell_formula_units_Z   1
loop_
 _symmetry_equiv_pos_site_id
 _symmetry_equiv_pos_as_xyz
  1  'x, y, z'
loop_
 _atom_site_type_symbol
 _atom_site_label
 _atom_site_symmetry_multiplicity
 _atom_site_fract_x
 _atom_site_fract_y
 _atom_site_fract_z
 _atom_site_occupancy
  Hf  Hf0  1  0.745619  0.249805  0.995449  1
  Hf  Hf1  1  0.251280  0.754995  0.503113  1
  Hf  Hf2  1  0.748668  0.251400  0.503169  1
  Hf  Hf3  1  0.248750  0.749419  0.998158  1
  Se  Se4  1  0.198049  0.467927  0.164720  1
  Se  Se5  1  0.702141  0.971641  0.164282  1
  Se  Se6  1  0.797380  0.532964  0.336341  1
  S  S7  1  0.312554  0.016336  0.333325  1
  S  S8  1  0.683733  0.983704  0.662722  1
  S  S9  1  0.182430  0.482358  0.659375  1
  S  S10  1  0.313432  0.018592  0.839812  1
  S  S11  1  0.815964  0.520860  0.839536  1
