# generated using pymatgen
data_Sc4As6Ir4Ru3
_symmetry_space_group_name_H-M   'P 1'
_cell_length_a   7.09633021
_cell_length_b   7.09919913
_cell_length_c   7.09919961
_cell_angle_alpha   109.38094015
_cell_angle_beta   109.52459770
_cell_angle_gamma   109.52459066
_symmetry_Int_Tables_number   1
_chemical_formula_structural   Sc4As6Ir4Ru3
_chemical_formula_sum   'Sc4 As6 Ir4 Ru3'
_cell_volume   275.25910894
_cell_formula_units_Z   1
loop_
 _symmetry_equiv_pos_site_id
 _symmetry_equiv_pos_as_xyz
  1  'x, y, z'
loop_
 _atom_site_type_symbol
 _atom_site_label
 _atom_site_symmetry_multiplicity
 _atom_site_fract_x
 _atom_site_fract_y
 _atom_site_fract_z
 _atom_site_occupancy
  Sc  Sc0  1  0.000000  0.000397  0.499990  1
  Sc  Sc1  1  0.500000  0.999814  0.000186  1
  Sc  Sc2  1  0.000000  0.500010  0.999603  1
  Sc  Sc3  1  0.500000  0.499814  0.500186  1
  As  As4  1  0.683153  0.686594  0.996559  1
  As  As5  1  0.309863  0.313123  0.996740  1
  As  As6  1  0.000000  0.681894  0.688759  1
  As  As7  1  0.000000  0.311241  0.318106  1
  As  As8  1  0.690137  0.003260  0.686877  1
  As  As9  1  0.316847  0.003441  0.313406  1
  Ir  Ir10  1  0.500000  0.250628  0.749372  1
  Ir  Ir11  1  0.500000  0.750628  0.249372  1
  Ir  Ir12  1  0.748824  0.499377  0.249447  1
  Ir  Ir13  1  0.251176  0.750553  0.500623  1
  Ru  Ru14  1  0.000000  0.999762  0.000238  1
  Ru  Ru15  1  0.250768  0.500117  0.750652  1
  Ru  Ru16  1  0.749232  0.249348  0.499883  1
