# generated using pymatgen
data_Y7Er9Cd3AgIr4
_symmetry_space_group_name_H-M   'P 1'
_cell_length_a   9.61073457
_cell_length_b   9.61073471
_cell_length_c   9.60742924
_cell_angle_alpha   59.78322698
_cell_angle_beta   59.78322748
_cell_angle_gamma   59.86985694
_symmetry_Int_Tables_number   1
_chemical_formula_structural   Y7Er9Cd3AgIr4
_chemical_formula_sum   'Y7 Er9 Cd3 Ag1 Ir4'
_cell_volume   624.81067175
_cell_formula_units_Z   1
loop_
 _symmetry_equiv_pos_site_id
 _symmetry_equiv_pos_as_xyz
  1  'x, y, z'
loop_
 _atom_site_type_symbol
 _atom_site_label
 _atom_site_symmetry_multiplicity
 _atom_site_fract_x
 _atom_site_fract_y
 _atom_site_fract_z
 _atom_site_occupancy
  Y  Y0  1  0.809819  0.809819  0.187458  1
  Y  Y1  1  0.937258  0.560467  0.561225  1
  Y  Y2  1  0.560825  0.937352  0.936946  1
  Y  Y3  1  0.560467  0.937258  0.561225  1
  Y  Y4  1  0.937352  0.560825  0.936946  1
  Y  Y5  1  0.560723  0.560723  0.937162  1
  Y  Y6  1  0.937179  0.937179  0.561207  1
  Er  Er7  1  0.348954  0.348954  0.349126  1
  Er  Er8  1  0.349270  0.349270  0.954151  1
  Er  Er9  1  0.348785  0.954558  0.349367  1
  Er  Er10  1  0.954558  0.348785  0.349367  1
  Er  Er11  1  0.810425  0.189581  0.189145  1
  Er  Er12  1  0.187670  0.809998  0.809836  1
  Er  Er13  1  0.189581  0.810425  0.189145  1
  Er  Er14  1  0.809998  0.187670  0.809836  1
  Er  Er15  1  0.189181  0.189181  0.810553  1
  Cd  Cd16  1  0.581100  0.581100  0.259486  1
  Cd  Cd17  1  0.581156  0.259458  0.581152  1
  Cd  Cd18  1  0.259458  0.581156  0.581152  1
  Ag  Ag19  1  0.582507  0.582507  0.582679  1
  Ir  Ir20  1  0.141794  0.141794  0.141951  1
  Ir  Ir21  1  0.142579  0.142579  0.576115  1
  Ir  Ir22  1  0.144550  0.574813  0.142387  1
  Ir  Ir23  1  0.574813  0.144550  0.142387  1
