# generated using pymatgen
data_Dy3YAl2(CdPt2)2
_symmetry_space_group_name_H-M   'P 1'
_cell_length_a   4.36640200
_cell_length_b   6.96956113
_cell_length_c   8.23067416
_cell_angle_alpha   92.42959107
_cell_angle_beta   90.00000000
_cell_angle_gamma   90.00000000
_symmetry_Int_Tables_number   1
_chemical_formula_structural   Dy3YAl2(CdPt2)2
_chemical_formula_sum   'Dy3 Y1 Al2 Cd2 Pt4'
_cell_volume   250.24994010
_cell_formula_units_Z   1
loop_
 _symmetry_equiv_pos_site_id
 _symmetry_equiv_pos_as_xyz
  1  'x, y, z'
loop_
 _atom_site_type_symbol
 _atom_site_label
 _atom_site_symmetry_multiplicity
 _atom_site_fract_x
 _atom_site_fract_y
 _atom_site_fract_z
 _atom_site_occupancy
  Dy  Dy0  1  0.750000  0.536359  0.814296  1
  Dy  Dy1  1  0.750000  0.036409  0.676837  1
  Dy  Dy2  1  0.250000  0.963673  0.323189  1
  Y  Y3  1  0.250000  0.463468  0.186000  1
  Al  Al4  1  0.750000  0.639257  0.442899  1
  Al  Al5  1  0.250000  0.360639  0.557082  1
  Cd  Cd6  1  0.250000  0.857833  0.935374  1
  Cd  Cd7  1  0.750000  0.142095  0.064756  1
  Pt  Pt8  1  0.250000  0.731367  0.600199  1
  Pt  Pt9  1  0.750000  0.268393  0.400004  1
  Pt  Pt10  1  0.750000  0.739347  0.143309  1
  Pt  Pt11  1  0.250000  0.261159  0.856057  1
