# generated using pymatgen
data_YHo4SiBi2
_symmetry_space_group_name_H-M   'P 1'
_cell_length_a   8.04040100
_cell_length_b   9.15141500
_cell_length_c   12.02004600
_cell_angle_alpha   90.00000000
_cell_angle_beta   90.00000000
_cell_angle_gamma   90.00000000
_symmetry_Int_Tables_number   1
_chemical_formula_structural   YHo4SiBi2
_chemical_formula_sum   'Y4 Ho16 Si4 Bi8'
_cell_volume   884.44756146
_cell_formula_units_Z   4
loop_
 _symmetry_equiv_pos_site_id
 _symmetry_equiv_pos_as_xyz
  1  'x, y, z'
loop_
 _atom_site_type_symbol
 _atom_site_label
 _atom_site_symmetry_multiplicity
 _atom_site_fract_x
 _atom_site_fract_y
 _atom_site_fract_z
 _atom_site_occupancy
  Y  Y0  1  0.166639  0.750000  0.211900  1
  Y  Y1  1  0.333361  0.750000  0.711900  1
  Y  Y2  1  0.833361  0.250000  0.788100  1
  Y  Y3  1  0.666639  0.250000  0.288100  1
  Ho  Ho4  1  0.820819  0.553166  0.062672  1
  Ho  Ho5  1  0.679181  0.946834  0.562672  1
  Ho  Ho6  1  0.179181  0.053166  0.937328  1
  Ho  Ho7  1  0.320819  0.446834  0.437328  1
  Ho  Ho8  1  0.179181  0.446834  0.937328  1
  Ho  Ho9  1  0.320819  0.053166  0.437328  1
  Ho  Ho10  1  0.820819  0.946834  0.062672  1
  Ho  Ho11  1  0.679181  0.553166  0.562672  1
  Ho  Ho12  1  0.461417  0.750000  0.001461  1
  Ho  Ho13  1  0.038583  0.750000  0.501461  1
  Ho  Ho14  1  0.538583  0.250000  0.998539  1
  Ho  Ho15  1  0.961417  0.250000  0.498539  1
  Ho  Ho16  1  0.637039  0.750000  0.295387  1
  Ho  Ho17  1  0.862961  0.750000  0.795387  1
  Ho  Ho18  1  0.362961  0.250000  0.704613  1
  Ho  Ho19  1  0.137039  0.250000  0.204613  1
  Si  Si20  1  0.411995  0.750000  0.478293  1
  Si  Si21  1  0.088005  0.750000  0.978293  1
  Si  Si22  1  0.588005  0.250000  0.521707  1
  Si  Si23  1  0.911995  0.250000  0.021707  1
  Bi  Bi24  1  0.933083  0.510983  0.325635  1
  Bi  Bi25  1  0.566917  0.989017  0.825635  1
  Bi  Bi26  1  0.066917  0.010983  0.674365  1
  Bi  Bi27  1  0.433083  0.489017  0.174365  1
  Bi  Bi28  1  0.066917  0.489017  0.674365  1
  Bi  Bi29  1  0.433083  0.010983  0.174365  1
  Bi  Bi30  1  0.933083  0.989017  0.325635  1
  Bi  Bi31  1  0.566917  0.510983  0.825635  1
