# generated using pymatgen
data_Mg4As6Ir4RuRh2
_symmetry_space_group_name_H-M   'P 1'
_cell_length_a   7.07154230
_cell_length_b   7.07089991
_cell_length_c   7.07092526
_cell_angle_alpha   109.61106197
_cell_angle_beta   109.39950017
_cell_angle_gamma   109.39994395
_symmetry_Int_Tables_number   1
_chemical_formula_structural   Mg4As6Ir4RuRh2
_chemical_formula_sum   'Mg4 As6 Ir4 Ru1 Rh2'
_cell_volume   272.18151351
_cell_formula_units_Z   1
loop_
 _symmetry_equiv_pos_site_id
 _symmetry_equiv_pos_as_xyz
  1  'x, y, z'
loop_
 _atom_site_type_symbol
 _atom_site_label
 _atom_site_symmetry_multiplicity
 _atom_site_fract_x
 _atom_site_fract_y
 _atom_site_fract_z
 _atom_site_occupancy
  Mg  Mg0  1  0.999998  0.000025  0.500029  1
  Mg  Mg1  1  0.500001  0.999999  0.000000  1
  Mg  Mg2  1  0.999998  0.499967  0.999971  1
  Mg  Mg3  1  0.499999  0.499996  0.500002  1
  As  As4  1  0.689136  0.688786  0.000345  1
  As  As5  1  0.311530  0.311220  0.000310  1
  As  As6  1  0.000001  0.688864  0.688048  1
  As  As7  1  0.000001  0.311956  0.311138  1
  As  As8  1  0.688469  0.999691  0.688782  1
  As  As9  1  0.310867  0.999654  0.311212  1
  Ir  Ir10  1  0.249787  0.499908  0.749884  1
  Ir  Ir11  1  0.750213  0.250117  0.500094  1
  Ir  Ir12  1  0.500005  0.249934  0.750070  1
  Ir  Ir13  1  0.500002  0.749930  0.250071  1
  Ru  Ru14  1  0.999999  0.000095  0.999903  1
  Rh  Rh15  1  0.749876  0.499874  0.250016  1
  Rh  Rh16  1  0.250117  0.749985  0.500125  1
