# generated using pymatgen
data_Sc3Mn2Nb(B2Ru5)2
_symmetry_space_group_name_H-M   'P 1'
_cell_length_a   9.31742971
_cell_length_b   9.31742971
_cell_length_c   3.03105100
_cell_angle_alpha   90.00000000
_cell_angle_beta   90.00000000
_cell_angle_gamma   89.77655847
_symmetry_Int_Tables_number   1
_chemical_formula_structural   Sc3Mn2Nb(B2Ru5)2
_chemical_formula_sum   'Sc3 Mn2 Nb1 B4 Ru10'
_cell_volume   263.13716534
_cell_formula_units_Z   1
loop_
 _symmetry_equiv_pos_site_id
 _symmetry_equiv_pos_as_xyz
  1  'x, y, z'
loop_
 _atom_site_type_symbol
 _atom_site_label
 _atom_site_symmetry_multiplicity
 _atom_site_fract_x
 _atom_site_fract_y
 _atom_site_fract_z
 _atom_site_occupancy
  Sc  Sc0  1  0.825697  0.674748  0.000000  1
  Sc  Sc1  1  0.174748  0.325697  0.000000  1
  Sc  Sc2  1  0.324574  0.824574  0.000000  1
  Mn  Mn3  1  0.499132  0.502087  0.000000  1
  Mn  Mn4  1  0.002087  0.999132  0.000000  1
  Nb  Nb5  1  0.675633  0.175633  0.000000  1
  B  B6  1  0.625016  0.874202  0.000000  1
  B  B7  1  0.374202  0.125016  0.000000  1
  B  B8  1  0.123982  0.623982  0.000000  1
  B  B9  1  0.877142  0.377142  0.000000  1
  Ru  Ru10  1  0.571598  0.713373  0.500000  1
  Ru  Ru11  1  0.435226  0.285813  0.500000  1
  Ru  Ru12  1  0.069572  0.786538  0.500000  1
  Ru  Ru13  1  0.922105  0.210616  0.500000  1
  Ru  Ru14  1  0.286538  0.569572  0.500000  1
  Ru  Ru15  1  0.710616  0.422105  0.500000  1
  Ru  Ru16  1  0.213373  0.071598  0.500000  1
  Ru  Ru17  1  0.785813  0.935226  0.500000  1
  Ru  Ru18  1  0.503914  0.003914  0.500000  1
  Ru  Ru19  1  0.999031  0.499031  0.500000  1
