# generated using pymatgen
data_Sc2Cd(Ni10P3)2
_symmetry_space_group_name_H-M   'P 1'
_cell_length_a   7.89250267
_cell_length_b   7.89250206
_cell_length_c   7.89250300
_cell_angle_alpha   60.00000026
_cell_angle_beta   60.00000279
_cell_angle_gamma   60.00000175
_symmetry_Int_Tables_number   1
_chemical_formula_structural   Sc2Cd(Ni10P3)2
_chemical_formula_sum   'Sc2 Cd1 Ni20 P6'
_cell_volume   347.63957856
_cell_formula_units_Z   1
loop_
 _symmetry_equiv_pos_site_id
 _symmetry_equiv_pos_as_xyz
  1  'x, y, z'
loop_
 _atom_site_type_symbol
 _atom_site_label
 _atom_site_symmetry_multiplicity
 _atom_site_fract_x
 _atom_site_fract_y
 _atom_site_fract_z
 _atom_site_occupancy
  Sc  Sc0  1  0.250000  0.250000  0.250000  1
  Sc  Sc1  1  0.000000  0.000000  0.000000  1
  Cd  Cd2  1  0.750000  0.750000  0.750000  1
  Ni  Ni3  1  0.384344  0.384344  0.846967  1
  Ni  Ni4  1  0.614796  0.614796  0.614796  1
  Ni  Ni5  1  0.002471  0.347222  0.002471  1
  Ni  Ni6  1  0.347222  0.002471  0.002471  1
  Ni  Ni7  1  0.002471  0.347222  0.647836  1
  Ni  Ni8  1  0.846967  0.384344  0.384344  1
  Ni  Ni9  1  0.347222  0.002471  0.647836  1
  Ni  Ni10  1  0.002471  0.002471  0.347222  1
  Ni  Ni11  1  0.647836  0.347222  0.002471  1
  Ni  Ni12  1  0.002471  0.647836  0.347222  1
  Ni  Ni13  1  0.002471  0.002471  0.647836  1
  Ni  Ni14  1  0.347222  0.647836  0.002471  1
  Ni  Ni15  1  0.647836  0.002471  0.002471  1
  Ni  Ni16  1  0.002471  0.647836  0.002471  1
  Ni  Ni17  1  0.384344  0.846967  0.384344  1
  Ni  Ni18  1  0.614796  0.614796  0.155611  1
  Ni  Ni19  1  0.614796  0.155611  0.614796  1
  Ni  Ni20  1  0.155611  0.614796  0.614796  1
  Ni  Ni21  1  0.384344  0.384344  0.384344  1
  Ni  Ni22  1  0.647836  0.002471  0.347222  1
  P  P23  1  0.736463  0.263537  0.736463  1
  P  P24  1  0.263537  0.736463  0.263537  1
  P  P25  1  0.263537  0.736463  0.736463  1
  P  P26  1  0.263537  0.263537  0.736463  1
  P  P27  1  0.736463  0.736463  0.263537  1
  P  P28  1  0.736463  0.263537  0.263537  1
